MODEL        1
REMARK 921   NORMALIZED FREE ENERGY PREDICTED BY IDOCK:   -8.40 KCAL/MOL
REMARK 922        TOTAL FREE ENERGY PREDICTED BY IDOCK:  -12.02 KCAL/MOL
REMARK 923 INTER-LIGAND FREE ENERGY PREDICTED BY IDOCK:  -10.86 KCAL/MOL
REMARK 924 INTRA-LIGAND FREE ENERGY PREDICTED BY IDOCK:   -1.16 KCAL/MOL
REMARK 927      BINDING AFFINITY PREDICTED BY RF-SCORE:    0.00 PKD
ROOT
HETATM    1  C   UNL     1     -12.015  15.695  72.961  1.00  0.00    -0.590 C  
HETATM    2  C   UNL     1     -12.483  15.233  71.579  1.00  0.00    -0.361 C  
HETATM    3  C   UNL     1     -13.991  15.428  71.459  1.00  0.00    -0.601 C  
ENDROOT
BRANCH   2   4
HETATM    4  N   UNL     1     -11.793  15.972  70.499  1.00  0.00    -0.438 NA 
HETATM    5  H   UNL     1     -11.662  16.982  70.566  1.00  0.00     0.000 HD 
BRANCH   4   6
HETATM    6  C   UNL     1     -11.357  15.321  69.464  1.00  0.00    -0.288 A  
HETATM    7  C   UNL     1     -11.162  13.852  69.419  1.00  0.00    -0.273 A  
HETATM    8  C   UNL     1     -10.908  13.096  68.344  1.00  0.00    -0.262 A  
HETATM    9  N   UNL     1     -10.853  11.674  68.311  1.00  0.00    -0.207 NA 
HETATM   10  C   UNL     1     -10.399  11.062  67.080  1.00  0.00    -0.220 A  
HETATM   11  C   UNL     1     -10.287   9.671  66.902  1.00  0.00    -0.307 A  
HETATM   12  C   UNL     1     -10.077  11.884  65.969  1.00  0.00    -0.231 A  
HETATM   13  C   UNL     1     -11.050  16.054  68.175  1.00  0.00    -0.344 A  
HETATM   14  N   UNL     1     -10.200  13.283  65.986  1.00  0.00    -0.286 NA 
HETATM   15  C   UNL     1      -9.811   9.113  65.710  1.00  0.00    -0.248 A  
HETATM   16  C   UNL     1      -9.628  11.311  64.771  1.00  0.00    -0.269 A  
HETATM   17  C   UNL     1     -10.684  15.328  67.109  1.00  0.00    -0.316 A  
HETATM   18  C   UNL     1     -10.588  13.846  67.086  1.00  0.00    -0.277 A  
HETATM   19  C   UNL     1      -9.481   9.933  64.642  1.00  0.00    -0.343 A  
BRANCH   9  20
HETATM   20  C   UNL     1     -11.311  10.914  69.456  1.00  0.00    -0.283 A  
HETATM   21  C   UNL     1     -10.860   9.295  71.247  1.00  0.00    -0.417 A  
HETATM   22  C   UNL     1     -13.091  10.151  70.953  1.00  0.00    -0.412 A  
HETATM   23 CL   UNL     1     -12.734   8.362  72.944  1.00  0.00    -0.070 Cl 
HETATM   24  C   UNL     1     -10.418  10.112  70.201  1.00  0.00    -0.311 A  
HETATM   25  C   UNL     1     -12.193   9.334  71.632  1.00  0.00    -0.370 A  
HETATM   26  C   UNL     1     -12.661  10.900  69.849  1.00  0.00    -0.211 A  
ENDBRANCH   9  20
BRANCH  13  27
HETATM   27  N   UNL     1     -11.127  17.447  68.222  1.00  0.00    -0.149 NA 
HETATM   28  H   UNL     1     -12.042  17.851  68.421  1.00  0.00     0.000 HD 
BRANCH  27  29
HETATM   29  C   UNL     1     -10.052  18.353  68.020  1.00  0.00    -0.368 A  
HETATM   30  C   UNL     1      -8.779  18.206  68.584  1.00  0.00    -0.280 A  
HETATM   31  C   UNL     1      -7.752  19.118  68.303  1.00  0.00    -0.350 A  
HETATM   32  C   UNL     1      -7.997  20.208  67.472  1.00  0.00    -0.317 A  
HETATM   33  C   UNL     1      -9.270  20.418  66.956  1.00  0.00    -0.483 A  
HETATM   34 CL   UNL     1      -6.724  21.297  67.082  1.00  0.00    -0.409 Cl 
HETATM   35  C   UNL     1     -10.292  19.503  67.238  1.00  0.00    -0.566 A  
ENDBRANCH  27  29
ENDBRANCH  13  27
ENDBRANCH   4   6
ENDBRANCH   2   4
TORSDOF 5
ENDMDL
MODEL        2
REMARK 921   NORMALIZED FREE ENERGY PREDICTED BY IDOCK:   -8.17 KCAL/MOL
REMARK 922        TOTAL FREE ENERGY PREDICTED BY IDOCK:  -11.72 KCAL/MOL
REMARK 923 INTER-LIGAND FREE ENERGY PREDICTED BY IDOCK:  -10.63 KCAL/MOL
REMARK 924 INTRA-LIGAND FREE ENERGY PREDICTED BY IDOCK:   -1.09 KCAL/MOL
REMARK 927      BINDING AFFINITY PREDICTED BY RF-SCORE:    0.00 PKD
ROOT
HETATM    1  C   UNL     1     -11.867  16.029  72.697  1.00  0.00    -0.611 C  
HETATM    2  C   UNL     1     -11.930  15.235  71.391  1.00  0.00    -0.368 C  
HETATM    3  C   UNL     1     -13.379  14.870  71.084  1.00  0.00    -0.480 C  
ENDROOT
BRANCH   2   4
HETATM    4  N   UNL     1     -11.356  16.002  70.263  1.00  0.00    -0.365 NA 
HETATM    5  H   UNL     1     -11.246  17.014  70.330  1.00  0.00     0.000 HD 
BRANCH   4   6
HETATM    6  C   UNL     1     -10.993  15.372  69.188  1.00  0.00    -0.252 A  
HETATM    7  C   UNL     1     -10.778  13.907  69.107  1.00  0.00    -0.175 A  
HETATM    8  C   UNL     1     -10.598  13.169  68.005  1.00  0.00    -0.236 A  
HETATM    9  N   UNL     1     -10.523  11.749  67.948  1.00  0.00    -0.191 NA 
HETATM   10  C   UNL     1     -10.159  11.161  66.676  1.00  0.00    -0.217 A  
HETATM   11  C   UNL     1     -10.038   9.774  66.471  1.00  0.00    -0.307 A  
HETATM   12  C   UNL     1      -9.942  12.002  65.555  1.00  0.00    -0.241 A  
HETATM   13  C   UNL     1     -10.804  16.126  67.889  1.00  0.00    -0.332 A  
HETATM   14  N   UNL     1     -10.086  13.398  65.600  1.00  0.00    -0.290 NA 
HETATM   15  C   UNL     1      -9.650   9.240  65.236  1.00  0.00    -0.175 A  
HETATM   16  C   UNL     1      -9.581  11.452  64.317  1.00  0.00    -0.214 A  
HETATM   17  C   UNL     1     -10.512  15.420  66.787  1.00  0.00    -0.299 A  
HETATM   18  C   UNL     1     -10.393  13.940  66.736  1.00  0.00    -0.272 A  
HETATM   19  C   UNL     1      -9.421  10.079  64.157  1.00  0.00    -0.314 A  
BRANCH   9  20
HETATM   20  C   UNL     1     -10.874  10.967  69.116  1.00  0.00    -0.235 A  
HETATM   21  C   UNL     1     -10.254   9.331  70.840  1.00  0.00    -0.371 A  
HETATM   22  C   UNL     1     -12.514  10.155  70.742  1.00  0.00    -0.417 A  
HETATM   23 CL   UNL     1     -11.969   8.347  72.670  1.00  0.00    -0.426 Cl 
HETATM   24  C   UNL     1      -9.911  10.169  69.773  1.00  0.00    -0.258 A  
HETATM   25  C   UNL     1     -11.552   9.344  71.333  1.00  0.00    -0.381 A  
HETATM   26  C   UNL     1     -12.187  10.926  69.617  1.00  0.00    -0.354 A  
ENDBRANCH   9  20
BRANCH  13  27
HETATM   27  N   UNL     1     -10.900  17.516  67.962  1.00  0.00    -0.336 NA 
HETATM   28  H   UNL     1     -11.829  17.907  68.118  1.00  0.00     0.000 HD 
BRANCH  27  29
HETATM   29  C   UNL     1      -9.827  18.438  67.838  1.00  0.00    -0.329 A  
HETATM   30  C   UNL     1      -9.870  19.600  67.057  1.00  0.00    -0.491 A  
HETATM   31  C   UNL     1      -8.785  20.488  67.019  1.00  0.00    -0.340 A  
HETATM   32  C   UNL     1      -7.630  20.207  67.744  1.00  0.00    -0.289 A  
HETATM   33  C   UNL     1      -7.533  19.027  68.471  1.00  0.00    -0.352 A  
HETATM   34 CL   UNL     1      -6.321  21.323  67.743  1.00  0.00    -0.404 Cl 
HETATM   35  C   UNL     1      -8.620  18.144  68.508  1.00  0.00    -0.307 A  
ENDBRANCH  27  29
ENDBRANCH  13  27
ENDBRANCH   4   6
ENDBRANCH   2   4
TORSDOF 5
ENDMDL
MODEL        3
REMARK 921   NORMALIZED FREE ENERGY PREDICTED BY IDOCK:   -7.88 KCAL/MOL
REMARK 922        TOTAL FREE ENERGY PREDICTED BY IDOCK:  -11.34 KCAL/MOL
REMARK 923 INTER-LIGAND FREE ENERGY PREDICTED BY IDOCK:  -10.19 KCAL/MOL
REMARK 924 INTRA-LIGAND FREE ENERGY PREDICTED BY IDOCK:   -1.15 KCAL/MOL
REMARK 927      BINDING AFFINITY PREDICTED BY RF-SCORE:    0.00 PKD
ROOT
HETATM    1  C   UNL     1     -10.412  12.739  64.013  1.00  0.00    -0.433 C  
HETATM    2  C   UNL     1     -10.345  11.403  64.756  1.00  0.00    -0.294 C  
HETATM    3  C   UNL     1      -9.723  10.345  63.849  1.00  0.00    -0.367 C  
ENDROOT
BRANCH   2   4
HETATM    4  N   UNL     1      -9.561  11.516  66.005  1.00  0.00    -0.221 NA 
HETATM    5  H   UNL     1      -8.545  11.427  65.987  1.00  0.00     0.000 HD 
BRANCH   4   6
HETATM    6  C   UNL     1     -10.182  11.731  67.125  1.00  0.00    -0.212 A  
HETATM    7  C   UNL     1     -10.147  13.012  67.870  1.00  0.00    -0.235 A  
HETATM    8  C   UNL     1     -10.906  13.371  68.913  1.00  0.00    -0.220 A  
HETATM    9  N   UNL     1     -10.940  14.654  69.525  1.00  0.00    -0.254 NA 
HETATM   10  C   UNL     1     -11.710  14.780  70.745  1.00  0.00    -0.300 A  
HETATM   11  C   UNL     1     -11.830  15.983  71.465  1.00  0.00    -0.554 A  
HETATM   12  C   UNL     1     -12.419  13.656  71.242  1.00  0.00    -0.326 A  
HETATM   13  C   UNL     1     -11.048  10.651  67.737  1.00  0.00    -0.321 A  
HETATM   14  N   UNL     1     -12.438  12.410  70.595  1.00  0.00    -0.284 NA 
HETATM   15  C   UNL     1     -12.555  16.062  72.660  1.00  0.00    -0.551 A  
HETATM   16  C   UNL     1     -13.164  13.756  72.426  1.00  0.00    -0.580 A  
HETATM   17  C   UNL     1     -11.735  10.948  68.849  1.00  0.00    -0.376 A  
HETATM   18  C   UNL     1     -11.738  12.278  69.513  1.00  0.00    -0.332 A  
HETATM   19  C   UNL     1     -13.223  14.947  73.142  1.00  0.00    -0.568 A  
BRANCH   9  20
HETATM   20  C   UNL     1     -10.279  15.772  68.883  1.00  0.00    -0.219 A  
HETATM   21  C   UNL     1      -8.311  17.221  68.642  1.00  0.00    -0.255 A  
HETATM   22  C   UNL     1     -10.301  17.699  67.374  1.00  0.00    -0.360 A  
HETATM   23 CL   UNL     1      -8.216  19.380  67.034  1.00  0.00    -0.286 Cl 
HETATM   24  C   UNL     1      -8.935  16.088  69.178  1.00  0.00    -0.252 A  
HETATM   25  C   UNL     1      -8.992  18.011  67.726  1.00  0.00    -0.255 A  
HETATM   26  C   UNL     1     -10.951  16.615  67.981  1.00  0.00    -0.311 A  
ENDBRANCH   9  20
BRANCH  13  27
HETATM   27  N   UNL     1     -11.016   9.404  67.111  1.00  0.00    -0.273 NA 
HETATM   28  H   UNL     1     -11.385   9.355  66.162  1.00  0.00     0.000 HD 
BRANCH  27  29
HETATM   29  C   UNL     1     -10.516   8.198  67.670  1.00  0.00    -0.231 A  
HETATM   30  C   UNL     1      -9.568   8.138  68.700  1.00  0.00    -0.151 A  
HETATM   31  C   UNL     1      -9.154   6.910  69.234  1.00  0.00    -0.140 A  
HETATM   32  C   UNL     1      -9.666   5.720  68.721  1.00  0.00    -0.132 A  
HETATM   33  C   UNL     1     -10.553   5.746  67.652  1.00  0.00    -0.313 A  
HETATM   34 CL   UNL     1      -9.201   4.215  69.413  1.00  0.00    -0.191 Cl 
HETATM   35  C   UNL     1     -10.965   6.977  67.124  1.00  0.00    -0.393 A  
ENDBRANCH  27  29
ENDBRANCH  13  27
ENDBRANCH   4   6
ENDBRANCH   2   4
TORSDOF 5
ENDMDL
MODEL        4
REMARK 921   NORMALIZED FREE ENERGY PREDICTED BY IDOCK:   -7.82 KCAL/MOL
REMARK 922        TOTAL FREE ENERGY PREDICTED BY IDOCK:  -11.27 KCAL/MOL
REMARK 923 INTER-LIGAND FREE ENERGY PREDICTED BY IDOCK:   -9.86 KCAL/MOL
REMARK 924 INTRA-LIGAND FREE ENERGY PREDICTED BY IDOCK:   -1.41 KCAL/MOL
REMARK 927      BINDING AFFINITY PREDICTED BY RF-SCORE:    0.00 PKD
ROOT
HETATM    1  C   UNL     1     -11.799  10.617  69.357  1.00  0.00    -0.325 C  
HETATM    2  C   UNL     1     -10.990  10.613  68.058  1.00  0.00    -0.282 C  
HETATM    3  C   UNL     1     -10.643   9.178  67.676  1.00  0.00    -0.307 C  
ENDROOT
BRANCH   2   4
HETATM    4  N   UNL     1     -11.733  11.261  66.955  1.00  0.00    -0.457 NA 
HETATM    5  H   UNL     1     -12.477  10.758  66.469  1.00  0.00     0.000 HD 
BRANCH   4   6
HETATM    6  C   UNL     1     -11.429  12.476  66.613  1.00  0.00    -0.359 A  
HETATM    7  C   UNL     1     -11.568  13.655  67.499  1.00  0.00    -0.384 A  
HETATM    8  C   UNL     1     -11.099  14.892  67.292  1.00  0.00    -0.336 A  
HETATM    9  N   UNL     1     -11.136  15.971  68.218  1.00  0.00    -0.340 NA 
HETATM   10  C   UNL     1     -10.723  17.270  67.730  1.00  0.00    -0.333 A  
HETATM   11  C   UNL     1     -10.713  18.430  68.527  1.00  0.00     0.089 A  
HETATM   12  C   UNL     1     -10.266  17.401  66.393  1.00  0.00    -0.338 A  
HETATM   13  C   UNL     1     -10.850  12.761  65.244  1.00  0.00    -0.291 A  
HETATM   14  N   UNL     1     -10.165  16.318  65.505  1.00  0.00    -0.529 NA 
HETATM   15  C   UNL     1     -10.340  19.678  68.013  1.00  0.00    -0.579 A  
HETATM   16  C   UNL     1      -9.868  18.652  65.900  1.00  0.00    -0.049 A  
HETATM   17  C   UNL     1     -10.473  14.017  64.968  1.00  0.00    -0.440 A  
HETATM   18  C   UNL     1     -10.550  15.153  65.921  1.00  0.00    -0.337 A  
HETATM   19  C   UNL     1      -9.917  19.790  66.699  1.00  0.00    -0.556 A  
BRANCH   9  20
HETATM   20  C   UNL     1     -11.508  15.720  69.595  1.00  0.00    -0.346 A  
HETATM   21  C   UNL     1     -13.244  15.492  71.317  1.00  0.00    -0.588 A  
HETATM   22  C   UNL     1     -10.923  15.363  71.945  1.00  0.00    -0.049 A  
HETATM   23 CL   UNL     1     -12.730  15.118  73.936  1.00  0.00    -0.657 Cl 
HETATM   24  C   UNL     1     -12.865  15.635  69.978  1.00  0.00     0.043 A  
HETATM   25  C   UNL     1     -12.269  15.336  72.293  1.00  0.00    -0.383 A  
HETATM   26  C   UNL     1     -10.548  15.597  70.614  1.00  0.00    -0.143 A  
ENDBRANCH   9  20
BRANCH  13  27
HETATM   27  N   UNL     1     -10.805  11.685  64.356  1.00  0.00    -0.322 NA 
HETATM   28  H   UNL     1     -11.677  11.432  63.893  1.00  0.00     0.000 HD 
BRANCH  27  29
HETATM   29  C   UNL     1      -9.658  10.909  64.037  1.00  0.00    -0.278 A  
HETATM   30  C   UNL     1      -9.432  10.311  62.791  1.00  0.00    -0.323 A  
HETATM   31  C   UNL     1      -8.253   9.595  62.534  1.00  0.00    -0.147 A  
HETATM   32  C   UNL     1      -7.297   9.446  63.535  1.00  0.00    -0.103 A  
HETATM   33  C   UNL     1      -7.528   9.967  64.803  1.00  0.00    -0.143 A  
HETATM   34 CL   UNL     1      -5.827   8.616  63.205  1.00  0.00    -0.077 Cl 
HETATM   35  C   UNL     1      -8.706  10.683  65.053  1.00  0.00    -0.186 A  
ENDBRANCH  27  29
ENDBRANCH  13  27
ENDBRANCH   4   6
ENDBRANCH   2   4
TORSDOF 5
ENDMDL
MODEL        5
REMARK 921   NORMALIZED FREE ENERGY PREDICTED BY IDOCK:   -7.81 KCAL/MOL
REMARK 922        TOTAL FREE ENERGY PREDICTED BY IDOCK:  -11.25 KCAL/MOL
REMARK 923 INTER-LIGAND FREE ENERGY PREDICTED BY IDOCK:  -10.09 KCAL/MOL
REMARK 924 INTRA-LIGAND FREE ENERGY PREDICTED BY IDOCK:   -1.16 KCAL/MOL
REMARK 927      BINDING AFFINITY PREDICTED BY RF-SCORE:    0.00 PKD
ROOT
HETATM    1  C   UNL     1     -10.051  11.133  63.542  1.00  0.00    -0.437 C  
HETATM    2  C   UNL     1     -10.475  12.550  63.931  1.00  0.00    -0.434 C  
HETATM    3  C   UNL     1     -11.997  12.620  64.024  1.00  0.00    -0.530 C  
ENDROOT
BRANCH   2   4
HETATM    4  N   UNL     1      -9.874  12.962  65.218  1.00  0.00    -0.481 NA 
HETATM    5  H   UNL     1      -9.001  13.491  65.234  1.00  0.00     0.000 HD 
BRANCH   4   6
HETATM    6  C   UNL     1     -10.468  12.642  66.327  1.00  0.00    -0.251 A  
HETATM    7  C   UNL     1     -10.477  11.279  66.909  1.00  0.00    -0.286 A  
HETATM    8  C   UNL     1     -10.893  10.915  68.128  1.00  0.00    -0.234 A  
HETATM    9  N   UNL     1     -10.771   9.621  68.707  1.00  0.00    -0.221 NA 
HETATM   10  C   UNL     1     -11.437   9.402  69.973  1.00  0.00    -0.077 A  
HETATM   11  C   UNL     1     -11.410   8.174  70.661  1.00  0.00    -0.256 A  
HETATM   12  C   UNL     1     -12.130  10.473  70.593  1.00  0.00    -0.356 A  
HETATM   13  C   UNL     1     -11.180  13.698  67.144  1.00  0.00    -0.309 A  
HETATM   14  N   UNL     1     -12.189  11.768  70.050  1.00  0.00    -0.271 NA 
HETATM   15  C   UNL     1     -12.095   7.985  71.867  1.00  0.00    -0.359 A  
HETATM   16  C   UNL     1     -12.789  10.279  71.815  1.00  0.00    -0.565 A  
HETATM   17  C   UNL     1     -11.706  13.336  68.322  1.00  0.00    -0.388 A  
HETATM   18  C   UNL     1     -11.613  11.974  68.908  1.00  0.00    -0.321 A  
HETATM   19  C   UNL     1     -12.785   9.039  72.446  1.00  0.00    -0.433 A  
BRANCH   9  20
HETATM   20  C   UNL     1      -9.946   8.622  68.058  1.00  0.00    -0.182 A  
HETATM   21  C   UNL     1      -9.747   6.652  66.606  1.00  0.00    -0.210 A  
HETATM   22  C   UNL     1      -7.785   7.531  67.692  1.00  0.00    -0.115 A  
HETATM   23 CL   UNL     1      -7.434   5.350  66.140  1.00  0.00    -0.082 Cl 
HETATM   24  C   UNL     1     -10.509   7.684  67.165  1.00  0.00    -0.412 A  
HETATM   25  C   UNL     1      -8.382   6.592  66.857  1.00  0.00    -0.114 A  
HETATM   26  C   UNL     1      -8.570   8.510  68.320  1.00  0.00    -0.139 A  
ENDBRANCH   9  20
BRANCH  13  27
HETATM   27  N   UNL     1     -11.274  14.966  66.567  1.00  0.00    -0.343 NA 
HETATM   28  H   UNL     1     -11.913  15.069  65.780  1.00  0.00     0.000 HD 
BRANCH  27  29
HETATM   29  C   UNL     1     -10.563  16.126  66.975  1.00  0.00    -0.292 A  
HETATM   30  C   UNL     1     -10.908  16.917  68.079  1.00  0.00    -0.338 A  
HETATM   31  C   UNL     1     -10.131  18.024  68.448  1.00  0.00    -0.392 A  
HETATM   32  C   UNL     1      -9.012  18.372  67.696  1.00  0.00    -0.274 A  
HETATM   33  C   UNL     1      -8.688  17.649  66.555  1.00  0.00    -0.289 A  
HETATM   34 CL   UNL     1      -8.028  19.697  68.180  1.00  0.00    -0.349 Cl 
HETATM   35  C   UNL     1      -9.465  16.541  66.192  1.00  0.00    -0.347 A  
ENDBRANCH  27  29
ENDBRANCH  13  27
ENDBRANCH   4   6
ENDBRANCH   2   4
TORSDOF 5
ENDMDL
MODEL        6
REMARK 921   NORMALIZED FREE ENERGY PREDICTED BY IDOCK:   -7.81 KCAL/MOL
REMARK 922        TOTAL FREE ENERGY PREDICTED BY IDOCK:  -11.25 KCAL/MOL
REMARK 923 INTER-LIGAND FREE ENERGY PREDICTED BY IDOCK:   -9.91 KCAL/MOL
REMARK 924 INTRA-LIGAND FREE ENERGY PREDICTED BY IDOCK:   -1.34 KCAL/MOL
REMARK 927      BINDING AFFINITY PREDICTED BY RF-SCORE:    0.00 PKD
ROOT
HETATM    1  C   UNL     1     -10.565  13.384  64.358  1.00  0.00    -0.423 C  
HETATM    2  C   UNL     1     -10.638  11.927  64.821  1.00  0.00    -0.299 C  
HETATM    3  C   UNL     1     -10.113  11.013  63.717  1.00  0.00    -0.420 C  
ENDROOT
BRANCH   2   4
HETATM    4  N   UNL     1      -9.860  11.714  66.061  1.00  0.00    -0.222 NA 
HETATM    5  H   UNL     1      -8.891  11.397  66.015  1.00  0.00     0.000 HD 
BRANCH   4   6
HETATM    6  C   UNL     1     -10.425  11.934  67.209  1.00  0.00    -0.222 A  
HETATM    7  C   UNL     1     -10.350  13.218  67.947  1.00  0.00    -0.239 A  
HETATM    8  C   UNL     1     -11.056  13.583  69.024  1.00  0.00    -0.250 A  
HETATM    9  N   UNL     1     -11.055  14.868  69.633  1.00  0.00    -0.267 NA 
HETATM   10  C   UNL     1     -11.765  15.001  70.888  1.00  0.00    -0.328 A  
HETATM   11  C   UNL     1     -11.846  16.207  71.609  1.00  0.00    -0.557 A  
HETATM   12  C   UNL     1     -12.453  13.882  71.423  1.00  0.00    -0.340 A  
HETATM   13  C   UNL     1     -11.264  10.860  67.867  1.00  0.00    -0.321 A  
HETATM   14  N   UNL     1     -12.508  12.633  70.782  1.00  0.00    -0.324 NA 
HETATM   15  C   UNL     1     -12.511  16.292  72.838  1.00  0.00    -0.498 A  
HETATM   16  C   UNL     1     -13.139  13.988  72.641  1.00  0.00    -0.553 A  
HETATM   17  C   UNL     1     -11.895  11.163  69.009  1.00  0.00    -0.418 A  
HETATM   18  C   UNL     1     -11.862  12.495  69.667  1.00  0.00    -0.314 A  
HETATM   19  C   UNL     1     -13.159  15.182  73.355  1.00  0.00    -0.588 A  
BRANCH   9  20
HETATM   20  C   UNL     1     -10.423  15.981  68.955  1.00  0.00    -0.246 A  
HETATM   21  C   UNL     1     -10.499  17.751  67.254  1.00  0.00    -0.356 A  
HETATM   22  C   UNL     1      -8.478  17.403  68.517  1.00  0.00    -0.274 A  
HETATM   23 CL   UNL     1      -8.424  19.365  66.664  1.00  0.00    -0.316 Cl 
HETATM   24  C   UNL     1     -11.123  16.737  67.990  1.00  0.00    -0.220 A  
HETATM   25  C   UNL     1      -9.183  18.093  67.536  1.00  0.00    -0.257 A  
HETATM   26  C   UNL     1      -9.081  16.329  69.188  1.00  0.00    -0.230 A  
ENDBRANCH   9  20
BRANCH  13  27
HETATM   27  N   UNL     1     -11.267   9.611  67.243  1.00  0.00    -0.239 NA 
HETATM   28  H   UNL     1     -11.924   9.479  66.476  1.00  0.00     0.000 HD 
BRANCH  27  29
HETATM   29  C   UNL     1     -10.439   8.505  67.578  1.00  0.00    -0.258 A  
HETATM   30  C   UNL     1     -10.475   7.837  68.809  1.00  0.00    -0.201 A  
HETATM   31  C   UNL     1      -9.659   6.723  69.052  1.00  0.00    -0.135 A  
HETATM   32  C   UNL     1      -8.773   6.282  68.073  1.00  0.00    -0.114 A  
HETATM   33  C   UNL     1      -8.664   6.970  66.870  1.00  0.00    -0.122 A  
HETATM   34 CL   UNL     1      -7.811   4.883  68.350  1.00  0.00    -0.082 Cl 
HETATM   35  C   UNL     1      -9.484   8.080  66.631  1.00  0.00    -0.273 A  
ENDBRANCH  27  29
ENDBRANCH  13  27
ENDBRANCH   4   6
ENDBRANCH   2   4
TORSDOF 5
ENDMDL
MODEL        7
REMARK 921   NORMALIZED FREE ENERGY PREDICTED BY IDOCK:   -7.71 KCAL/MOL
REMARK 922        TOTAL FREE ENERGY PREDICTED BY IDOCK:  -11.12 KCAL/MOL
REMARK 923 INTER-LIGAND FREE ENERGY PREDICTED BY IDOCK:   -9.76 KCAL/MOL
REMARK 924 INTRA-LIGAND FREE ENERGY PREDICTED BY IDOCK:   -1.36 KCAL/MOL
REMARK 927      BINDING AFFINITY PREDICTED BY RF-SCORE:    0.00 PKD
ROOT
HETATM    1  C   UNL     1     -12.408  12.083  63.474  1.00  0.00    -0.661 C  
HETATM    2  C   UNL     1     -11.210  11.599  64.293  1.00  0.00    -0.319 C  
HETATM    3  C   UNL     1      -9.967  11.564  63.409  1.00  0.00    -0.445 C  
ENDROOT
BRANCH   2   4
HETATM    4  N   UNL     1     -10.968  12.470  65.465  1.00  0.00    -0.279 NA 
HETATM    5  H   UNL     1     -10.613  13.418  65.339  1.00  0.00     0.000 HD 
BRANCH   4   6
HETATM    6  C   UNL     1     -11.214  12.013  66.655  1.00  0.00    -0.327 A  
HETATM    7  C   UNL     1     -10.961  10.618  67.086  1.00  0.00    -0.312 A  
HETATM    8  C   UNL     1     -11.002  10.128  68.331  1.00  0.00    -0.244 A  
HETATM    9  N   UNL     1     -10.629   8.814  68.730  1.00  0.00    -0.186 NA 
HETATM   10  C   UNL     1     -10.909   8.439  70.100  1.00  0.00    -0.236 A  
HETATM   11  C   UNL     1     -10.603   7.174  70.635  1.00  0.00    -0.243 A  
HETATM   12  C   UNL     1     -11.487   9.390  70.980  1.00  0.00    -0.334 A  
HETATM   13  C   UNL     1     -11.756  12.933  67.729  1.00  0.00    -0.362 A  
HETATM   14  N   UNL     1     -11.789  10.708  70.599  1.00  0.00    -0.339 NA 
HETATM   15  C   UNL     1     -10.918   6.832  71.956  1.00  0.00    -0.269 A  
HETATM   16  C   UNL     1     -11.772   9.043  72.308  1.00  0.00    -0.283 A  
HETATM   17  C   UNL     1     -11.913  12.436  68.963  1.00  0.00    -0.291 A  
HETATM   18  C   UNL     1     -11.562  11.051  69.371  1.00  0.00    -0.312 A  
HETATM   19  C   UNL     1     -11.503   7.768  72.794  1.00  0.00    -0.415 A  
BRANCH   9  20
HETATM   20  C   UNL     1      -9.938   7.951  67.794  1.00  0.00    -0.173 A  
HETATM   21  C   UNL     1      -9.966   6.045  66.245  1.00  0.00    -0.085 A  
HETATM   22  C   UNL     1      -7.892   7.186  66.688  1.00  0.00    -0.109 A  
HETATM   23 CL   UNL     1      -7.783   5.094  64.985  1.00  0.00    -0.082 Cl 
HETATM   24  C   UNL     1     -10.633   6.951  67.078  1.00  0.00    -0.403 A  
HETATM   25  C   UNL     1      -8.600   6.180  66.039  1.00  0.00    -0.145 A  
HETATM   26  C   UNL     1      -8.550   8.035  67.590  1.00  0.00    -0.130 A  
ENDBRANCH   9  20
BRANCH  13  27
HETATM   27  N   UNL     1     -12.098  14.223  67.322  1.00  0.00    -0.557 NA 
HETATM   28  H   UNL     1     -13.023  14.347  66.911  1.00  0.00     0.000 HD 
BRANCH  27  29
HETATM   29  C   UNL     1     -11.280  15.380  67.426  1.00  0.00    -0.287 A  
HETATM   30  C   UNL     1     -10.469  15.868  66.393  1.00  0.00    -0.311 A  
HETATM   31  C   UNL     1      -9.721  17.043  66.554  1.00  0.00    -0.296 A  
HETATM   32  C   UNL     1      -9.755  17.730  67.765  1.00  0.00    -0.285 A  
HETATM   33  C   UNL     1     -10.494  17.230  68.829  1.00  0.00    -0.340 A  
HETATM   34 CL   UNL     1      -8.881  19.201  67.944  1.00  0.00    -0.331 Cl 
HETATM   35  C   UNL     1     -11.242  16.057  68.663  1.00  0.00    -0.366 A  
ENDBRANCH  27  29
ENDBRANCH  13  27
ENDBRANCH   4   6
ENDBRANCH   2   4
TORSDOF 5
ENDMDL
MODEL        8
REMARK 921   NORMALIZED FREE ENERGY PREDICTED BY IDOCK:   -7.68 KCAL/MOL
REMARK 922        TOTAL FREE ENERGY PREDICTED BY IDOCK:  -11.08 KCAL/MOL
REMARK 923 INTER-LIGAND FREE ENERGY PREDICTED BY IDOCK:  -10.02 KCAL/MOL
REMARK 924 INTRA-LIGAND FREE ENERGY PREDICTED BY IDOCK:   -1.07 KCAL/MOL
REMARK 927      BINDING AFFINITY PREDICTED BY RF-SCORE:    0.00 PKD
ROOT
HETATM    1  C   UNL     1     -13.875  14.936  71.178  1.00  0.00    -0.428 C  
HETATM    2  C   UNL     1     -12.505  14.603  70.583  1.00  0.00    -0.344 C  
HETATM    3  C   UNL     1     -11.443  15.499  71.211  1.00  0.00    -0.462 C  
ENDROOT
BRANCH   2   4
HETATM    4  N   UNL     1     -12.154  13.182  70.797  1.00  0.00    -0.503 NA 
HETATM    5  H   UNL     1     -12.191  12.776  71.732  1.00  0.00     0.000 HD 
BRANCH   4   6
HETATM    6  C   UNL     1     -11.797  12.457  69.780  1.00  0.00    -0.317 A  
HETATM    7  C   UNL     1     -11.485  12.997  68.435  1.00  0.00    -0.345 A  
HETATM    8  C   UNL     1     -10.929  12.348  67.405  1.00  0.00    -0.254 A  
HETATM    9  N   UNL     1     -10.523  12.924  66.169  1.00  0.00    -0.265 NA 
HETATM   10  C   UNL     1     -10.096  12.013  65.128  1.00  0.00    -0.266 A  
HETATM   11  C   UNL     1      -9.674  12.437  63.854  1.00  0.00    -0.011 A  
HETATM   12  C   UNL     1     -10.058  10.620  65.391  1.00  0.00    -0.291 A  
HETATM   13  C   UNL     1     -11.631  10.960  69.931  1.00  0.00    -0.331 A  
HETATM   14  N   UNL     1     -10.393  10.063  66.636  1.00  0.00    -0.230 NA 
HETATM   15  C   UNL     1      -9.301  11.526  62.857  1.00  0.00    -0.279 A  
HETATM   16  C   UNL     1      -9.655   9.722  64.393  1.00  0.00    -0.160 A  
HETATM   17  C   UNL     1     -11.180  10.267  68.876  1.00  0.00    -0.259 A  
HETATM   18  C   UNL     1     -10.795  10.864  67.572  1.00  0.00    -0.272 A  
HETATM   19  C   UNL     1      -9.290  10.167  63.127  1.00  0.00    -0.333 A  
BRANCH   9  20
HETATM   20  C   UNL     1     -10.486  14.366  66.030  1.00  0.00    -0.301 A  
HETATM   21  C   UNL     1      -9.661  16.551  66.791  1.00  0.00    -0.268 A  
HETATM   22  C   UNL     1     -11.277  16.445  65.008  1.00  0.00    -0.138 A  
HETATM   23 CL   UNL     1     -10.467  18.907  65.764  1.00  0.00    -0.443 Cl 
HETATM   24  C   UNL     1      -9.638  15.152  66.842  1.00  0.00    -0.252 A  
HETATM   25  C   UNL     1     -10.466  17.190  65.859  1.00  0.00    -0.258 A  
HETATM   26  C   UNL     1     -11.316  15.048  65.125  1.00  0.00    -0.372 A  
ENDBRANCH   9  20
BRANCH  13  27
HETATM   27  N   UNL     1     -12.017  10.416  71.157  1.00  0.00    -0.366 NA 
HETATM   28  H   UNL     1     -12.473  11.044  71.818  1.00  0.00     0.000 HD 
BRANCH  27  29
HETATM   29  C   UNL     1     -11.835   9.069  71.570  1.00  0.00    -0.345 A  
HETATM   30  C   UNL     1     -12.801   8.064  71.433  1.00  0.00    -0.289 A  
HETATM   31  C   UNL     1     -12.534   6.744  71.823  1.00  0.00    -0.394 A  
HETATM   32  C   UNL     1     -11.301   6.420  72.385  1.00  0.00    -0.287 A  
HETATM   33  C   UNL     1     -10.351   7.411  72.600  1.00  0.00    -0.292 A  
HETATM   34 CL   UNL     1     -10.952   4.791  72.814  1.00  0.00    -0.281 Cl 
HETATM   35  C   UNL     1     -10.622   8.728  72.205  1.00  0.00    -0.386 A  
ENDBRANCH  27  29
ENDBRANCH  13  27
ENDBRANCH   4   6
ENDBRANCH   2   4
TORSDOF 5
ENDMDL
MODEL        9
REMARK 921   NORMALIZED FREE ENERGY PREDICTED BY IDOCK:   -7.61 KCAL/MOL
REMARK 922        TOTAL FREE ENERGY PREDICTED BY IDOCK:  -11.00 KCAL/MOL
REMARK 923 INTER-LIGAND FREE ENERGY PREDICTED BY IDOCK:   -9.74 KCAL/MOL
REMARK 924 INTRA-LIGAND FREE ENERGY PREDICTED BY IDOCK:   -1.26 KCAL/MOL
REMARK 927      BINDING AFFINITY PREDICTED BY RF-SCORE:    0.00 PKD
ROOT
HETATM    1  C   UNL     1     -10.759  11.885  64.962  1.00  0.00    -0.341 C  
HETATM    2  C   UNL     1     -10.444  11.943  66.458  1.00  0.00    -0.221 C  
HETATM    3  C   UNL     1      -9.802  13.285  66.794  1.00  0.00    -0.264 C  
ENDROOT
BRANCH   2   4
HETATM    4  N   UNL     1     -11.663  11.751  67.276  1.00  0.00    -0.597 NA 
HETATM    5  H   UNL     1     -12.548  12.168  66.988  1.00  0.00     0.000 HD 
BRANCH   4   6
HETATM    6  C   UNL     1     -11.591  11.046  68.364  1.00  0.00    -0.302 A  
HETATM    7  C   UNL     1     -11.229   9.610  68.409  1.00  0.00    -0.004 A  
HETATM    8  C   UNL     1     -10.946   8.873  69.490  1.00  0.00    -0.084 A  
HETATM    9  N   UNL     1     -10.477   7.530  69.493  1.00  0.00    -0.223 NA 
HETATM   10  C   UNL     1     -10.392   6.866  70.777  1.00  0.00    -0.203 A  
HETATM   11  C   UNL     1      -9.952   5.539  70.935  1.00  0.00    -0.260 A  
HETATM   12  C   UNL     1     -10.730   7.579  71.955  1.00  0.00    -0.225 A  
HETATM   13  C   UNL     1     -11.844  11.692  69.709  1.00  0.00    -0.357 A  
HETATM   14  N   UNL     1     -11.126   8.927  71.952  1.00  0.00    -0.358 NA 
HETATM   15  C   UNL     1      -9.916   4.915  72.188  1.00  0.00    -0.235 A  
HETATM   16  C   UNL     1     -10.662   6.952  73.207  1.00  0.00    -0.349 A  
HETATM   17  C   UNL     1     -11.676  10.944  70.809  1.00  0.00    -0.355 A  
HETATM   18  C   UNL     1     -11.224   9.529  70.809  1.00  0.00    -0.317 A  
HETATM   19  C   UNL     1     -10.270   5.622  73.326  1.00  0.00    -0.217 A  
BRANCH   9  20
HETATM   20  C   UNL     1     -10.045   6.921  68.252  1.00  0.00    -0.167 A  
HETATM   21  C   UNL     1     -10.448   5.354  66.404  1.00  0.00    -0.324 A  
HETATM   22  C   UNL     1      -8.357   6.544  66.519  1.00  0.00    -0.116 A  
HETATM   23 CL   UNL     1      -8.665   4.837  64.450  1.00  0.00    -0.148 Cl 
HETATM   24  C   UNL     1     -10.884   6.028  67.550  1.00  0.00    -0.393 A  
HETATM   25  C   UNL     1      -9.191   5.631  65.881  1.00  0.00    -0.132 A  
HETATM   26  C   UNL     1      -8.765   7.149  67.716  1.00  0.00    -0.125 A  
ENDBRANCH   9  20
BRANCH  13  27
HETATM   27  N   UNL     1     -12.286  13.016  69.686  1.00  0.00    -0.214 NA 
HETATM   28  H   UNL     1     -12.578  13.389  68.784  1.00  0.00     0.000 HD 
BRANCH  27  29
HETATM   29  C   UNL     1     -12.367  13.891  70.802  1.00  0.00    -0.378 A  
HETATM   30  C   UNL     1     -13.229  13.705  71.890  1.00  0.00    -0.497 A  
HETATM   31  C   UNL     1     -13.222  14.589  72.979  1.00  0.00    -0.575 A  
HETATM   32  C   UNL     1     -12.370  15.690  72.977  1.00  0.00    -0.463 A  
HETATM   33  C   UNL     1     -11.556  15.939  71.879  1.00  0.00    -0.542 A  
HETATM   34 CL   UNL     1     -12.321  16.743  74.336  1.00  0.00    -0.392 Cl 
HETATM   35  C   UNL     1     -11.564  15.052  70.795  1.00  0.00    -0.364 A  
ENDBRANCH  27  29
ENDBRANCH  13  27
ENDBRANCH   4   6
ENDBRANCH   2   4
TORSDOF 5
ENDMDL
MODEL       10
REMARK 921   NORMALIZED FREE ENERGY PREDICTED BY IDOCK:   -7.57 KCAL/MOL
REMARK 922        TOTAL FREE ENERGY PREDICTED BY IDOCK:  -10.94 KCAL/MOL
REMARK 923 INTER-LIGAND FREE ENERGY PREDICTED BY IDOCK:   -9.59 KCAL/MOL
REMARK 924 INTRA-LIGAND FREE ENERGY PREDICTED BY IDOCK:   -1.35 KCAL/MOL
REMARK 927      BINDING AFFINITY PREDICTED BY RF-SCORE:    0.00 PKD
ROOT
HETATM    1  C   UNL     1     -13.117   9.670  72.205  1.00  0.00    -0.468 C  
HETATM    2  C   UNL     1     -11.814   9.750  71.407  1.00  0.00    -0.408 C  
HETATM    3  C   UNL     1     -10.805   8.755  71.974  1.00  0.00    -0.428 C  
ENDROOT
BRANCH   2   4
HETATM    4  N   UNL     1     -12.040   9.472  69.971  1.00  0.00    -0.433 NA 
HETATM    5  H   UNL     1     -12.470   8.594  69.677  1.00  0.00     0.000 HD 
BRANCH   4   6
HETATM    6  C   UNL     1     -11.686  10.357  69.091  1.00  0.00    -0.119 A  
HETATM    7  C   UNL     1     -11.838  11.821  69.267  1.00  0.00    -0.389 A  
HETATM    8  C   UNL     1     -11.326  12.793  68.502  1.00  0.00    -0.291 A  
HETATM    9  N   UNL     1     -11.381  14.189  68.768  1.00  0.00    -0.261 NA 
HETATM   10  C   UNL     1     -10.907  15.076  67.726  1.00  0.00    -0.284 A  
HETATM   11  C   UNL     1     -10.907  16.479  67.843  1.00  0.00    -0.326 A  
HETATM   12  C   UNL     1     -10.379  14.528  66.529  1.00  0.00    -0.283 A  
HETATM   13  C   UNL     1     -11.030   9.927  67.796  1.00  0.00    -0.217 A  
HETATM   14  N   UNL     1     -10.263  13.147  66.300  1.00  0.00    -0.287 NA 
HETATM   15  C   UNL     1     -10.474  17.308  66.801  1.00  0.00    -0.261 A  
HETATM   16  C   UNL     1      -9.923  15.370  65.505  1.00  0.00    -0.379 A  
HETATM   17  C   UNL     1     -10.606  10.882  66.957  1.00  0.00    -0.307 A  
HETATM   18  C   UNL     1     -10.700  12.341  67.216  1.00  0.00    -0.231 A  
HETATM   19  C   UNL     1      -9.981  16.754  65.631  1.00  0.00    -0.163 A  
BRANCH   9  20
HETATM   20  C   UNL     1     -11.829  14.653  70.065  1.00  0.00    -0.308 A  
HETATM   21  C   UNL     1     -13.647  15.381  71.547  1.00  0.00    -0.604 A  
HETATM   22  C   UNL     1     -11.374  15.441  72.338  1.00  0.00    -0.373 A  
HETATM   23 CL   UNL     1     -13.275  16.286  74.057  1.00  0.00    -0.218 Cl 
HETATM   24  C   UNL     1     -13.202  14.840  70.335  1.00  0.00    -0.089 A  
HETATM   25  C   UNL     1     -12.730  15.660  72.551  1.00  0.00    -0.433 A  
HETATM   26  C   UNL     1     -10.925  14.983  71.090  1.00  0.00    -0.112 A  
ENDBRANCH   9  20
BRANCH  13  27
HETATM   27  N   UNL     1     -10.969   8.552  67.562  1.00  0.00    -0.466 NA 
HETATM   28  H   UNL     1     -11.463   8.202  66.742  1.00  0.00     0.000 HD 
BRANCH  27  29
HETATM   29  C   UNL     1     -10.283   7.596  68.358  1.00  0.00    -0.198 A  
HETATM   30  C   UNL     1      -8.979   7.760  68.840  1.00  0.00    -0.141 A  
HETATM   31  C   UNL     1      -8.382   6.792  69.660  1.00  0.00    -0.132 A  
HETATM   32  C   UNL     1      -9.077   5.629  69.984  1.00  0.00    -0.137 A  
HETATM   33  C   UNL     1     -10.345   5.407  69.460  1.00  0.00    -0.350 A  
HETATM   34 CL   UNL     1      -8.367   4.466  71.034  1.00  0.00    -0.089 Cl 
HETATM   35  C   UNL     1     -10.938   6.379  68.645  1.00  0.00    -0.404 A  
ENDBRANCH  27  29
ENDBRANCH  13  27
ENDBRANCH   4   6
ENDBRANCH   2   4
TORSDOF 5
ENDMDL
MODEL       11
REMARK 921   NORMALIZED FREE ENERGY PREDICTED BY IDOCK:   -7.22 KCAL/MOL
REMARK 922        TOTAL FREE ENERGY PREDICTED BY IDOCK:  -10.49 KCAL/MOL
REMARK 923 INTER-LIGAND FREE ENERGY PREDICTED BY IDOCK:   -9.50 KCAL/MOL
REMARK 924 INTRA-LIGAND FREE ENERGY PREDICTED BY IDOCK:   -0.99 KCAL/MOL
REMARK 927      BINDING AFFINITY PREDICTED BY RF-SCORE:    0.00 PKD
ROOT
HETATM    1  C   UNL     1      -9.283  10.133  62.551  1.00  0.00    -0.321 C  
HETATM    2  C   UNL     1      -9.720  11.398  63.293  1.00  0.00    -0.394 C  
HETATM    3  C   UNL     1     -11.225  11.353  63.536  1.00  0.00    -0.322 C  
ENDROOT
BRANCH   2   4
HETATM    4  N   UNL     1      -9.007  11.544  64.581  1.00  0.00    -0.390 NA 
HETATM    5  H   UNL     1      -7.987  11.575  64.606  1.00  0.00     0.000 HD 
BRANCH   4   6
HETATM    6  C   UNL     1      -9.694  11.630  65.679  1.00  0.00    -0.236 A  
HETATM    7  C   UNL     1     -10.079  10.472  66.520  1.00  0.00    -0.280 A  
HETATM    8  C   UNL     1     -10.608  10.496  67.749  1.00  0.00    -0.243 A  
HETATM    9  N   UNL     1     -10.848   9.369  68.584  1.00  0.00    -0.159 NA 
HETATM   10  C   UNL     1     -11.582   9.603  69.810  1.00  0.00     0.025 A  
HETATM   11  C   UNL     1     -11.899   8.586  70.729  1.00  0.00    -0.184 A  
HETATM   12  C   UNL     1     -11.982  10.923  70.143  1.00  0.00    -0.352 A  
HETATM   13  C   UNL     1     -10.121  12.983  66.207  1.00  0.00    -0.282 A  
HETATM   14  N   UNL     1     -11.681  12.042  69.349  1.00  0.00    -0.320 NA 
HETATM   15  C   UNL     1     -12.640   8.841  71.889  1.00  0.00    -0.428 A  
HETATM   16  C   UNL     1     -12.700  11.169  71.322  1.00  0.00    -0.531 A  
HETATM   17  C   UNL     1     -10.755  13.027  67.387  1.00  0.00    -0.256 A  
HETATM   18  C   UNL     1     -11.042  11.845  68.240  1.00  0.00    -0.239 A  
HETATM   19  C   UNL     1     -13.041  10.134  72.187  1.00  0.00    -0.463 A  
BRANCH   9  20
HETATM   20  C   UNL     1     -10.301   8.079  68.218  1.00  0.00    -0.197 A  
HETATM   21  C   UNL     1     -10.553   5.906  67.100  1.00  0.00    -0.373 A  
HETATM   22  C   UNL     1      -8.550   6.373  68.353  1.00  0.00    -0.115 A  
HETATM   23 CL   UNL     1      -8.711   3.942  67.191  1.00  0.00    -0.110 Cl 
HETATM   24  C   UNL     1     -11.020   7.195  67.383  1.00  0.00    -0.296 A  
HETATM   25  C   UNL     1      -9.309   5.509  67.570  1.00  0.00    -0.111 A  
HETATM   26  C   UNL     1      -9.063   7.629  68.708  1.00  0.00    -0.139 A  
ENDBRANCH   9  20
BRANCH  13  27
HETATM   27  N   UNL     1      -9.860  14.079  65.383  1.00  0.00    -0.551 NA 
HETATM   28  H   UNL     1      -9.786  13.896  64.383  1.00  0.00     0.000 HD 
BRANCH  27  29
HETATM   29  C   UNL     1      -9.688  15.424  65.806  1.00  0.00    -0.350 A  
HETATM   30  C   UNL     1     -10.629  16.442  65.603  1.00  0.00    -0.337 A  
HETATM   31  C   UNL     1     -10.409  17.739  66.090  1.00  0.00    -0.340 A  
HETATM   32  C   UNL     1      -9.228  18.039  66.762  1.00  0.00    -0.280 A  
HETATM   33  C   UNL     1      -8.246  17.067  66.914  1.00  0.00    -0.245 A  
HETATM   34 CL   UNL     1      -8.982  19.615  67.407  1.00  0.00    -0.365 Cl 
HETATM   35  C   UNL     1      -8.471  15.773  66.429  1.00  0.00    -0.313 A  
ENDBRANCH  27  29
ENDBRANCH  13  27
ENDBRANCH   4   6
ENDBRANCH   2   4
TORSDOF 5
ENDMDL
MODEL       12
REMARK 921   NORMALIZED FREE ENERGY PREDICTED BY IDOCK:   -7.17 KCAL/MOL
REMARK 922        TOTAL FREE ENERGY PREDICTED BY IDOCK:  -10.43 KCAL/MOL
REMARK 923 INTER-LIGAND FREE ENERGY PREDICTED BY IDOCK:   -8.97 KCAL/MOL
REMARK 924 INTRA-LIGAND FREE ENERGY PREDICTED BY IDOCK:   -1.46 KCAL/MOL
REMARK 927      BINDING AFFINITY PREDICTED BY RF-SCORE:    0.00 PKD
ROOT
HETATM    1  C   UNL     1      -7.219  10.400  67.771  1.00  0.00    -0.086 C  
HETATM    2  C   UNL     1      -7.918  10.871  66.494  1.00  0.00    -0.152 C  
HETATM    3  C   UNL     1      -7.280  10.197  65.283  1.00  0.00    -0.141 C  
ENDROOT
BRANCH   2   4
HETATM    4  N   UNL     1      -9.367  10.575  66.529  1.00  0.00    -0.160 NA 
HETATM    5  H   UNL     1      -9.819  10.115  65.738  1.00  0.00     0.000 HD 
BRANCH   4   6
HETATM    6  C   UNL     1     -10.057  10.907  67.577  1.00  0.00    -0.184 A  
HETATM    7  C   UNL     1     -10.162  12.287  68.108  1.00  0.00    -0.212 A  
HETATM    8  C   UNL     1     -10.998  12.737  69.052  1.00  0.00    -0.193 A  
HETATM    9  N   UNL     1     -11.166  14.092  69.449  1.00  0.00    -0.262 NA 
HETATM   10  C   UNL     1     -12.002  14.340  70.605  1.00  0.00    -0.322 A  
HETATM   11  C   UNL     1     -12.254  15.626  71.118  1.00  0.00    -0.466 A  
HETATM   12  C   UNL     1     -12.641  13.250  71.250  1.00  0.00    -0.308 A  
HETATM   13  C   UNL     1     -10.862   9.864  68.324  1.00  0.00    -0.230 A  
HETATM   14  N   UNL     1     -12.528  11.921  70.811  1.00  0.00    -0.335 NA 
HETATM   15  C   UNL     1     -13.041  15.827  72.259  1.00  0.00    -0.524 A  
HETATM   16  C   UNL     1     -13.449  13.468  72.375  1.00  0.00    -0.685 A  
HETATM   17  C   UNL     1     -11.624  10.271  69.348  1.00  0.00    -0.213 A  
HETATM   18  C   UNL     1     -11.768  11.682  69.789  1.00  0.00    -0.352 A  
HETATM   19  C   UNL     1     -13.639  14.747  72.889  1.00  0.00    -0.478 A  
BRANCH   9  20
HETATM   20  C   UNL     1     -10.567  15.149  68.660  1.00  0.00    -0.234 A  
HETATM   21  C   UNL     1      -8.855  16.890  68.394  1.00  0.00    -0.244 A  
HETATM   22  C   UNL     1     -10.560  16.633  66.713  1.00  0.00    -0.214 A  
HETATM   23 CL   UNL     1      -8.752  18.597  66.312  1.00  0.00    -0.271 Cl 
HETATM   24  C   UNL     1      -9.392  15.803  69.092  1.00  0.00    -0.258 A  
HETATM   25  C   UNL     1      -9.432  17.288  67.195  1.00  0.00    -0.256 A  
HETATM   26  C   UNL     1     -11.146  15.602  67.462  1.00  0.00    -0.289 A  
ENDBRANCH   9  20
BRANCH  13  27
HETATM   27  N   UNL     1     -10.698   8.542  67.906  1.00  0.00    -0.461 NA 
HETATM   28  H   UNL     1     -10.972   8.323  66.949  1.00  0.00     0.000 HD 
BRANCH  27  29
HETATM   29  C   UNL     1     -10.186   7.474  68.690  1.00  0.00    -0.197 A  
HETATM   30  C   UNL     1      -8.822   7.194  68.848  1.00  0.00    -0.130 A  
HETATM   31  C   UNL     1      -8.388   6.148  69.676  1.00  0.00    -0.124 A  
HETATM   32  C   UNL     1      -9.320   5.349  70.333  1.00  0.00    -0.159 A  
HETATM   33  C   UNL     1     -10.680   5.558  70.137  1.00  0.00    -0.348 A  
HETATM   34 CL   UNL     1      -8.789   4.101  71.391  1.00  0.00    -0.137 Cl 
HETATM   35  C   UNL     1     -11.108   6.606  69.313  1.00  0.00    -0.345 A  
ENDBRANCH  27  29
ENDBRANCH  13  27
ENDBRANCH   4   6
ENDBRANCH   2   4
TORSDOF 5
ENDMDL
MODEL       13
REMARK 921   NORMALIZED FREE ENERGY PREDICTED BY IDOCK:   -7.11 KCAL/MOL
REMARK 922        TOTAL FREE ENERGY PREDICTED BY IDOCK:  -10.35 KCAL/MOL
REMARK 923 INTER-LIGAND FREE ENERGY PREDICTED BY IDOCK:   -8.71 KCAL/MOL
REMARK 924 INTRA-LIGAND FREE ENERGY PREDICTED BY IDOCK:   -1.64 KCAL/MOL
REMARK 927      BINDING AFFINITY PREDICTED BY RF-SCORE:    0.00 PKD
ROOT
HETATM    1  C   UNL     1      -9.584  11.081  64.821  1.00  0.00    -0.292 C  
HETATM    2  C   UNL     1     -10.074  12.105  65.846  1.00  0.00    -0.245 C  
HETATM    3  C   UNL     1     -10.217  13.469  65.179  1.00  0.00    -0.334 C  
ENDROOT
BRANCH   2   4
HETATM    4  N   UNL     1     -11.367  11.699  66.441  1.00  0.00    -0.369 NA 
HETATM    5  H   UNL     1     -12.239  11.848  65.932  1.00  0.00     0.000 HD 
BRANCH   4   6
HETATM    6  C   UNL     1     -11.379  11.153  67.619  1.00  0.00    -0.284 A  
HETATM    7  C   UNL     1     -11.120   9.717  67.879  1.00  0.00    -0.161 A  
HETATM    8  C   UNL     1     -10.924   9.125  69.063  1.00  0.00    -0.008 A  
HETATM    9  N   UNL     1     -10.550   7.768  69.273  1.00  0.00    -0.216 NA 
HETATM   10  C   UNL     1     -10.552   7.289  70.639  1.00  0.00    -0.226 A  
HETATM   11  C   UNL     1     -10.212   5.972  70.999  1.00  0.00    -0.253 A  
HETATM   12  C   UNL     1     -10.876   8.183  71.692  1.00  0.00    -0.249 A  
HETATM   13  C   UNL     1     -11.628  11.998  68.850  1.00  0.00    -0.321 A  
HETATM   14  N   UNL     1     -11.176   9.540  71.485  1.00  0.00    -0.383 NA 
HETATM   15  C   UNL     1     -10.258   5.532  72.327  1.00  0.00    -0.244 A  
HETATM   16  C   UNL     1     -10.891   7.737  73.021  1.00  0.00    -0.451 A  
HETATM   17  C   UNL     1     -11.547  11.405  70.049  1.00  0.00    -0.382 A  
HETATM   18  C   UNL     1     -11.196   9.978  70.266  1.00  0.00    -0.313 A  
HETATM   19  C   UNL     1     -10.598   6.415  73.340  1.00  0.00    -0.298 A  
BRANCH   9  20
HETATM   20  C   UNL     1     -10.123   6.962  68.148  1.00  0.00    -0.166 A  
HETATM   21  C   UNL     1      -8.385   6.318  66.535  1.00  0.00    -0.114 A  
HETATM   22  C   UNL     1     -10.589   5.367  66.350  1.00  0.00    -0.322 A  
HETATM   23 CL   UNL     1      -8.778   4.593  64.504  1.00  0.00    -0.147 Cl 
HETATM   24  C   UNL     1      -8.791   7.014  67.680  1.00  0.00    -0.119 A  
HETATM   25  C   UNL     1      -9.283   5.481  65.887  1.00  0.00    -0.147 A  
HETATM   26  C   UNL     1     -11.015   6.135  67.444  1.00  0.00    -0.409 A  
ENDBRANCH   9  20
BRANCH  13  27
HETATM   27  N   UNL     1     -11.975  13.331  68.624  1.00  0.00    -0.342 NA 
HETATM   28  H   UNL     1     -12.955  13.524  68.420  1.00  0.00     0.000 HD 
BRANCH  27  29
HETATM   29  C   UNL     1     -11.092  14.444  68.652  1.00  0.00    -0.251 A  
HETATM   30  C   UNL     1      -9.698  14.343  68.739  1.00  0.00    -0.190 A  
HETATM   31  C   UNL     1      -8.886  15.486  68.716  1.00  0.00    -0.203 A  
HETATM   32  C   UNL     1      -9.465  16.749  68.633  1.00  0.00    -0.255 A  
HETATM   33  C   UNL     1     -10.848  16.883  68.618  1.00  0.00    -0.314 A  
HETATM   34 CL   UNL     1      -8.467  18.149  68.548  1.00  0.00    -0.314 Cl 
HETATM   35  C   UNL     1     -11.655  15.738  68.638  1.00  0.00    -0.392 A  
ENDBRANCH  27  29
ENDBRANCH  13  27
ENDBRANCH   4   6
ENDBRANCH   2   4
TORSDOF 5
ENDMDL
MODEL       14
REMARK 921   NORMALIZED FREE ENERGY PREDICTED BY IDOCK:   -7.10 KCAL/MOL
REMARK 922        TOTAL FREE ENERGY PREDICTED BY IDOCK:  -10.34 KCAL/MOL
REMARK 923 INTER-LIGAND FREE ENERGY PREDICTED BY IDOCK:   -9.55 KCAL/MOL
REMARK 924 INTRA-LIGAND FREE ENERGY PREDICTED BY IDOCK:   -0.79 KCAL/MOL
REMARK 927      BINDING AFFINITY PREDICTED BY RF-SCORE:    0.00 PKD
ROOT
HETATM    1  C   UNL     1     -12.389   7.937  71.255  1.00  0.00    -0.300 C  
HETATM    2  C   UNL     1     -11.304   8.674  72.044  1.00  0.00    -0.362 C  
HETATM    3  C   UNL     1     -10.807   7.787  73.181  1.00  0.00    -0.401 C  
ENDROOT
BRANCH   2   4
HETATM    4  N   UNL     1     -10.171   9.059  71.175  1.00  0.00    -0.266 NA 
HETATM    5  H   UNL     1      -9.212   8.989  71.516  1.00  0.00     0.000 HD 
BRANCH   4   6
HETATM    6  C   UNL     1     -10.410   9.489  69.973  1.00  0.00    -0.247 A  
HETATM    7  C   UNL     1     -10.993  10.815  69.659  1.00  0.00    -0.320 A  
HETATM    8  C   UNL     1     -11.087  11.401  68.459  1.00  0.00    -0.235 A  
HETATM    9  N   UNL     1     -11.534  12.727  68.204  1.00  0.00    -0.291 NA 
HETATM   10  C   UNL     1     -11.714  13.105  66.818  1.00  0.00    -0.385 A  
HETATM   11  C   UNL     1     -12.157  14.379  66.414  1.00  0.00    -0.390 A  
HETATM   12  C   UNL     1     -11.402  12.175  65.794  1.00  0.00    -0.354 A  
HETATM   13  C   UNL     1     -10.051   8.639  68.773  1.00  0.00    -0.196 A  
HETATM   14  N   UNL     1     -10.894  10.890  66.050  1.00  0.00    -0.146 NA 
HETATM   15  C   UNL     1     -12.354  14.700  65.065  1.00  0.00    -0.289 A  
HETATM   16  C   UNL     1     -11.577  12.519  64.447  1.00  0.00    -0.419 A  
HETATM   17  C   UNL     1     -10.240   9.160  67.553  1.00  0.00    -0.304 A  
HETATM   18  C   UNL     1     -10.746  10.531  67.286  1.00  0.00    -0.277 A  
HETATM   19  C   UNL     1     -12.064  13.770  64.080  1.00  0.00    -0.478 A  
BRANCH   9  20
HETATM   20  C   UNL     1     -11.717  13.645  69.310  1.00  0.00    -0.325 A  
HETATM   21  C   UNL     1     -10.935  15.567  70.624  1.00  0.00    -0.370 A  
HETATM   22  C   UNL     1     -12.901  14.367  71.327  1.00  0.00    -0.412 A  
HETATM   23 CL   UNL     1     -12.136  16.446  72.870  1.00  0.00    -0.610 Cl 
HETATM   24  C   UNL     1     -10.833  14.730  69.508  1.00  0.00    -0.268 A  
HETATM   25  C   UNL     1     -11.982  15.394  71.519  1.00  0.00    -0.379 A  
HETATM   26  C   UNL     1     -12.742  13.476  70.256  1.00  0.00    -0.118 A  
ENDBRANCH   9  20
BRANCH  13  27
HETATM   27  N   UNL     1      -9.597   7.348  69.044  1.00  0.00    -0.148 NA 
HETATM   28  H   UNL     1      -9.361   7.136  70.013  1.00  0.00     0.000 HD 
BRANCH  27  29
HETATM   29  C   UNL     1      -9.432   6.301  68.098  1.00  0.00    -0.113 A  
HETATM   30  C   UNL     1      -8.206   5.691  67.802  1.00  0.00    -0.101 A  
HETATM   31  C   UNL     1      -8.127   4.631  66.887  1.00  0.00    -0.103 A  
HETATM   32  C   UNL     1      -9.274   4.188  66.234  1.00  0.00    -0.155 A  
HETATM   33  C   UNL     1     -10.491   4.822  66.455  1.00  0.00    -0.283 A  
HETATM   34 CL   UNL     1      -9.188   2.852  65.153  1.00  0.00    -0.148 Cl 
HETATM   35  C   UNL     1     -10.566   5.878  67.372  1.00  0.00    -0.356 A  
ENDBRANCH  27  29
ENDBRANCH  13  27
ENDBRANCH   4   6
ENDBRANCH   2   4
TORSDOF 5
ENDMDL
MODEL       15
REMARK 921   NORMALIZED FREE ENERGY PREDICTED BY IDOCK:   -7.03 KCAL/MOL
REMARK 922        TOTAL FREE ENERGY PREDICTED BY IDOCK:  -10.25 KCAL/MOL
REMARK 923 INTER-LIGAND FREE ENERGY PREDICTED BY IDOCK:   -8.88 KCAL/MOL
REMARK 924 INTRA-LIGAND FREE ENERGY PREDICTED BY IDOCK:   -1.36 KCAL/MOL
REMARK 927      BINDING AFFINITY PREDICTED BY RF-SCORE:    0.00 PKD
ROOT
HETATM    1  C   UNL     1      -9.357  10.496  69.008  1.00  0.00    -0.205 C  
HETATM    2  C   UNL     1     -10.747   9.869  69.136  1.00  0.00    -0.224 C  
HETATM    3  C   UNL     1     -11.304  10.141  70.530  1.00  0.00    -0.416 C  
ENDROOT
BRANCH   2   4
HETATM    4  N   UNL     1     -11.676  10.397  68.112  1.00  0.00    -0.743 NA 
HETATM    5  H   UNL     1     -12.522   9.882  67.869  1.00  0.00     0.000 HD 
BRANCH   4   6
HETATM    6  C   UNL     1     -11.401  11.523  67.528  1.00  0.00    -0.299 A  
HETATM    7  C   UNL     1     -11.590  12.856  68.147  1.00  0.00    -0.378 A  
HETATM    8  C   UNL     1     -11.153  14.037  67.691  1.00  0.00    -0.282 A  
HETATM    9  N   UNL     1     -11.238  15.284  68.372  1.00  0.00    -0.293 NA 
HETATM   10  C   UNL     1     -10.853  16.465  67.628  1.00  0.00    -0.280 A  
HETATM   11  C   UNL     1     -10.891  17.765  68.166  1.00  0.00    -0.193 A  
HETATM   12  C   UNL     1     -10.377  16.330  66.299  1.00  0.00    -0.326 A  
HETATM   13  C   UNL     1     -10.806  11.535  66.136  1.00  0.00    -0.278 A  
HETATM   14  N   UNL     1     -10.230  15.089  65.657  1.00  0.00    -0.333 NA 
HETATM   15  C   UNL     1     -10.546  18.890  67.408  1.00  0.00    -0.534 A  
HETATM   16  C   UNL     1     -10.007  17.462  65.560  1.00  0.00     0.195 A  
HETATM   17  C   UNL     1     -10.461  12.718  65.608  1.00  0.00    -0.297 A  
HETATM   18  C   UNL     1     -10.587  14.025  66.303  1.00  0.00    -0.281 A  
HETATM   19  C   UNL     1     -10.103  18.739  66.103  1.00  0.00    -0.421 A  
BRANCH   9  20
HETATM   20  C   UNL     1     -11.626  15.312  69.767  1.00  0.00    -0.314 A  
HETATM   21  C   UNL     1     -13.378  15.484  71.479  1.00  0.00    -0.593 A  
HETATM   22  C   UNL     1     -11.067  15.385  72.149  1.00  0.00    -0.131 A  
HETATM   23 CL   UNL     1     -12.893  15.593  74.127  1.00  0.00    -0.608 Cl 
HETATM   24  C   UNL     1     -12.987  15.356  70.142  1.00  0.00    -0.104 A  
HETATM   25  C   UNL     1     -12.416  15.477  72.479  1.00  0.00    -0.409 A  
HETATM   26  C   UNL     1     -10.677  15.347  70.803  1.00  0.00    -0.205 A  
ENDBRANCH   9  20
BRANCH  13  27
HETATM   27  N   UNL     1     -10.714  10.300  65.492  1.00  0.00     0.048 NA 
HETATM   28  H   UNL     1     -11.575   9.918  65.102  1.00  0.00     0.000 HD 
BRANCH  27  29
HETATM   29  C   UNL     1      -9.534   9.525  65.330  1.00  0.00    -0.269 A  
HETATM   30  C   UNL     1      -8.449   9.898  64.527  1.00  0.00    -0.181 A  
HETATM   31  C   UNL     1      -7.296   9.103  64.451  1.00  0.00    -0.100 A  
HETATM   32  C   UNL     1      -7.229   7.905  65.158  1.00  0.00    -0.061 A  
HETATM   33  C   UNL     1      -8.319   7.475  65.906  1.00  0.00    -0.140 A  
HETATM   34 CL   UNL     1      -5.795   6.956  65.109  1.00  0.00    -0.035 Cl 
HETATM   35  C   UNL     1      -9.467   8.275  65.981  1.00  0.00    -0.189 A  
ENDBRANCH  27  29
ENDBRANCH  13  27
ENDBRANCH   4   6
ENDBRANCH   2   4
TORSDOF 5
ENDMDL
MODEL       16
REMARK 921   NORMALIZED FREE ENERGY PREDICTED BY IDOCK:   -7.03 KCAL/MOL
REMARK 922        TOTAL FREE ENERGY PREDICTED BY IDOCK:  -10.24 KCAL/MOL
REMARK 923 INTER-LIGAND FREE ENERGY PREDICTED BY IDOCK:   -9.53 KCAL/MOL
REMARK 924 INTRA-LIGAND FREE ENERGY PREDICTED BY IDOCK:   -0.71 KCAL/MOL
REMARK 927      BINDING AFFINITY PREDICTED BY RF-SCORE:    0.00 PKD
ROOT
HETATM    1  C   UNL     1     -12.156  13.741  69.511  1.00  0.00    -0.386 C  
HETATM    2  C   UNL     1     -12.184  12.963  70.828  1.00  0.00    -0.260 C  
HETATM    3  C   UNL     1     -13.114  13.663  71.815  1.00  0.00    -0.468 C  
ENDROOT
BRANCH   2   4
HETATM    4  N   UNL     1     -12.627  11.567  70.624  1.00  0.00    -0.282 NA 
HETATM    5  H   UNL     1     -13.464  11.217  71.092  1.00  0.00     0.000 HD 
BRANCH   4   6
HETATM    6  C   UNL     1     -11.939  10.791  69.842  1.00  0.00    -0.342 A  
HETATM    7  C   UNL     1     -11.596  11.110  68.436  1.00  0.00    -0.376 A  
HETATM    8  C   UNL     1     -10.737  10.463  67.639  1.00  0.00    -0.286 A  
HETATM    9  N   UNL     1     -10.332  10.868  66.337  1.00  0.00    -0.245 NA 
HETATM   10  C   UNL     1      -9.522   9.935  65.581  1.00  0.00    -0.235 A  
HETATM   11  C   UNL     1      -9.052  10.194  64.280  1.00  0.00    -0.288 A  
HETATM   12  C   UNL     1      -9.138   8.705  66.173  1.00  0.00    -0.201 A  
HETATM   13  C   UNL     1     -11.389   9.479  70.360  1.00  0.00    -0.264 A  
HETATM   14  N   UNL     1      -9.483   8.341  67.486  1.00  0.00    -0.146 NA 
HETATM   15  C   UNL     1      -8.300   9.255  63.564  1.00  0.00    -0.185 A  
HETATM   16  C   UNL     1      -8.360   7.785  65.456  1.00  0.00    -0.151 A  
HETATM   17  C   UNL     1     -10.614   8.754  69.542  1.00  0.00    -0.224 A  
HETATM   18  C   UNL     1     -10.224   9.157  68.167  1.00  0.00    -0.207 A  
HETATM   19  C   UNL     1      -7.953   8.049  64.152  1.00  0.00    -0.137 A  
BRANCH   9  20
HETATM   20  C   UNL     1     -10.675  12.191  65.859  1.00  0.00    -0.266 A  
HETATM   21  C   UNL     1     -12.089  13.648  64.476  1.00  0.00    -0.459 A  
HETATM   22  C   UNL     1     -10.228  14.592  65.680  1.00  0.00    -0.379 A  
HETATM   23 CL   UNL     1     -11.690  16.297  64.181  1.00  0.00    -0.077 Cl 
HETATM   24  C   UNL     1     -11.798  12.395  65.027  1.00  0.00    -0.440 A  
HETATM   25  C   UNL     1     -11.313  14.746  64.822  1.00  0.00    -0.397 A  
HETATM   26  C   UNL     1      -9.889  13.318  66.158  1.00  0.00    -0.286 A  
ENDBRANCH   9  20
BRANCH  13  27
HETATM   27  N   UNL     1     -11.784   9.109  71.647  1.00  0.00    -0.353 NA 
HETATM   28  H   UNL     1     -12.378   9.764  72.153  1.00  0.00     0.000 HD 
BRANCH  27  29
HETATM   29  C   UNL     1     -11.435   7.906  72.316  1.00  0.00    -0.348 A  
HETATM   30  C   UNL     1     -10.466   7.815  73.324  1.00  0.00    -0.358 A  
HETATM   31  C   UNL     1     -10.207   6.599  73.973  1.00  0.00    -0.395 A  
HETATM   32  C   UNL     1     -10.897   5.449  73.598  1.00  0.00    -0.272 A  
HETATM   33  C   UNL     1     -11.812   5.495  72.553  1.00  0.00    -0.158 A  
HETATM   34 CL   UNL     1     -10.620   3.969  74.430  1.00  0.00    -0.272 Cl 
HETATM   35  C   UNL     1     -12.070   6.712  71.910  1.00  0.00    -0.385 A  
ENDBRANCH  27  29
ENDBRANCH  13  27
ENDBRANCH   4   6
ENDBRANCH   2   4
TORSDOF 5
ENDMDL
MODEL       17
REMARK 921   NORMALIZED FREE ENERGY PREDICTED BY IDOCK:   -7.00 KCAL/MOL
REMARK 922        TOTAL FREE ENERGY PREDICTED BY IDOCK:  -10.21 KCAL/MOL
REMARK 923 INTER-LIGAND FREE ENERGY PREDICTED BY IDOCK:   -9.28 KCAL/MOL
REMARK 924 INTRA-LIGAND FREE ENERGY PREDICTED BY IDOCK:   -0.93 KCAL/MOL
REMARK 927      BINDING AFFINITY PREDICTED BY RF-SCORE:    0.00 PKD
ROOT
HETATM    1  C   UNL     1     -12.224   7.672  71.164  1.00  0.00    -0.310 C  
HETATM    2  C   UNL     1     -11.166   8.525  71.868  1.00  0.00    -0.327 C  
HETATM    3  C   UNL     1     -10.632   7.775  73.085  1.00  0.00    -0.415 C  
ENDROOT
BRANCH   2   4
HETATM    4  N   UNL     1     -10.051   8.864  70.958  1.00  0.00    -0.232 NA 
HETATM    5  H   UNL     1      -9.084   8.714  71.248  1.00  0.00     0.000 HD 
BRANCH   4   6
HETATM    6  C   UNL     1     -10.316   9.356  69.786  1.00  0.00    -0.223 A  
HETATM    7  C   UNL     1     -10.899  10.699  69.554  1.00  0.00    -0.303 A  
HETATM    8  C   UNL     1     -11.018  11.347  68.388  1.00  0.00    -0.215 A  
HETATM    9  N   UNL     1     -11.464  12.686  68.213  1.00  0.00    -0.289 NA 
HETATM   10  C   UNL     1     -11.675  13.136  66.853  1.00  0.00    -0.387 A  
HETATM   11  C   UNL     1     -12.120  14.430  66.525  1.00  0.00    -0.395 A  
HETATM   12  C   UNL     1     -11.391  12.258  65.775  1.00  0.00    -0.355 A  
HETATM   13  C   UNL     1      -9.990   8.568  68.535  1.00  0.00    -0.184 A  
HETATM   14  N   UNL     1     -10.884  10.960  65.953  1.00  0.00    -0.126 NA 
HETATM   15  C   UNL     1     -12.347  14.821  65.200  1.00  0.00    -0.158 A  
HETATM   16  C   UNL     1     -11.596  12.672  64.451  1.00  0.00    -0.415 A  
HETATM   17  C   UNL     1     -10.204   9.152  67.348  1.00  0.00    -0.310 A  
HETATM   18  C   UNL     1     -10.709  10.537  67.165  1.00  0.00    -0.265 A  
HETATM   19  C   UNL     1     -12.084  13.942  64.161  1.00  0.00    -0.464 A  
BRANCH   9  20
HETATM   20  C   UNL     1     -11.617  13.546  69.368  1.00  0.00    -0.312 A  
HETATM   21  C   UNL     1     -12.838  14.165  71.407  1.00  0.00    -0.428 A  
HETATM   22  C   UNL     1     -10.988  15.521  70.672  1.00  0.00    -0.370 A  
HETATM   23 CL   UNL     1     -12.259  16.322  72.915  1.00  0.00    -0.610 Cl 
HETATM   24  C   UNL     1     -12.611  13.291  70.338  1.00  0.00    -0.211 A  
HETATM   25  C   UNL     1     -12.011  15.267  71.580  1.00  0.00    -0.372 A  
HETATM   26  C   UNL     1     -10.823  14.691  69.553  1.00  0.00    -0.238 A  
ENDBRANCH   9  20
BRANCH  13  27
HETATM   27  N   UNL     1      -9.536   7.262  68.729  1.00  0.00    -0.143 NA 
HETATM   28  H   UNL     1      -9.210   7.021  69.664  1.00  0.00     0.000 HD 
BRANCH  27  29
HETATM   29  C   UNL     1      -9.484   6.239  67.745  1.00  0.00    -0.118 A  
HETATM   30  C   UNL     1     -10.612   5.617  67.194  1.00  0.00    -0.344 A  
HETATM   31  C   UNL     1     -10.486   4.644  66.192  1.00  0.00    -0.281 A  
HETATM   32  C   UNL     1      -9.222   4.259  65.751  1.00  0.00    -0.146 A  
HETATM   33  C   UNL     1      -8.084   4.807  66.331  1.00  0.00    -0.107 A  
HETATM   34 CL   UNL     1      -9.067   3.106  64.484  1.00  0.00    -0.127 Cl 
HETATM   35  C   UNL     1      -8.216   5.781  67.329  1.00  0.00    -0.102 A  
ENDBRANCH  27  29
ENDBRANCH  13  27
ENDBRANCH   4   6
ENDBRANCH   2   4
TORSDOF 5
ENDMDL
MODEL       18
REMARK 921   NORMALIZED FREE ENERGY PREDICTED BY IDOCK:   -6.96 KCAL/MOL
REMARK 922        TOTAL FREE ENERGY PREDICTED BY IDOCK:  -10.16 KCAL/MOL
REMARK 923 INTER-LIGAND FREE ENERGY PREDICTED BY IDOCK:   -8.91 KCAL/MOL
REMARK 924 INTRA-LIGAND FREE ENERGY PREDICTED BY IDOCK:   -1.25 KCAL/MOL
REMARK 927      BINDING AFFINITY PREDICTED BY RF-SCORE:    0.00 PKD
ROOT
HETATM    1  C   UNL     1     -10.953   8.262  71.196  1.00  0.00    -0.286 C  
HETATM    2  C   UNL     1      -9.720   9.031  71.672  1.00  0.00    -0.276 C  
HETATM    3  C   UNL     1      -9.080   8.296  72.846  1.00  0.00    -0.332 C  
ENDROOT
BRANCH   2   4
HETATM    4  N   UNL     1      -8.730   9.196  70.584  1.00  0.00    -0.213 NA 
HETATM    5  H   UNL     1      -7.735   9.070  70.769  1.00  0.00     0.000 HD 
BRANCH   4   6
HETATM    6  C   UNL     1      -9.144   9.502  69.392  1.00  0.00    -0.168 A  
HETATM    7  C   UNL     1      -9.984  10.681  69.074  1.00  0.00    -0.226 A  
HETATM    8  C   UNL     1     -10.283  11.168  67.864  1.00  0.00    -0.180 A  
HETATM    9  N   UNL     1     -10.984  12.375  67.593  1.00  0.00    -0.227 NA 
HETATM   10  C   UNL     1     -11.346  12.630  66.214  1.00  0.00    -0.329 A  
HETATM   11  C   UNL     1     -12.046  13.777  65.796  1.00  0.00    -0.458 A  
HETATM   12  C   UNL     1     -10.956  11.709  65.208  1.00  0.00    -0.268 A  
HETATM   13  C   UNL     1      -8.738   8.658  68.203  1.00  0.00    -0.142 A  
HETATM   14  N   UNL     1     -10.203  10.553  65.473  1.00  0.00    -0.272 NA 
HETATM   15  C   UNL     1     -12.411  13.976  64.459  1.00  0.00    -0.409 A  
HETATM   16  C   UNL     1     -11.304  11.934  63.869  1.00  0.00    -0.509 A  
HETATM   17  C   UNL     1      -9.120   9.062  66.984  1.00  0.00    -0.155 A  
HETATM   18  C   UNL     1      -9.888  10.303  66.704  1.00  0.00    -0.204 A  
HETATM   19  C   UNL     1     -12.039  13.054  63.494  1.00  0.00    -0.617 A  
BRANCH   9  20
HETATM   20  C   UNL     1     -11.239  13.312  68.668  1.00  0.00    -0.274 A  
HETATM   21  C   UNL     1     -10.605  15.327  69.922  1.00  0.00    -0.291 A  
HETATM   22  C   UNL     1     -12.480  14.007  70.661  1.00  0.00    -0.435 A  
HETATM   23 CL   UNL     1     -11.876  16.184  72.138  1.00  0.00    -0.602 Cl 
HETATM   24  C   UNL     1     -10.438  14.464  68.833  1.00  0.00    -0.246 A  
HETATM   25  C   UNL     1     -11.640  15.105  70.821  1.00  0.00    -0.317 A  
HETATM   26  C   UNL     1     -12.252  13.097  69.618  1.00  0.00    -0.241 A  
ENDBRANCH   9  20
BRANCH  13  27
HETATM   27  N   UNL     1      -8.034   7.487  68.488  1.00  0.00    -0.122 NA 
HETATM   28  H   UNL     1      -7.084   7.420  68.126  1.00  0.00     0.000 HD 
BRANCH  27  29
HETATM   29  C   UNL     1      -8.518   6.379  69.235  1.00  0.00    -0.126 A  
HETATM   30  C   UNL     1      -9.736   5.733  68.988  1.00  0.00    -0.180 A  
HETATM   31  C   UNL     1     -10.128   4.615  69.739  1.00  0.00    -0.243 A  
HETATM   32  C   UNL     1      -9.315   4.148  70.769  1.00  0.00    -0.153 A  
HETATM   33  C   UNL     1      -8.136   4.814  71.082  1.00  0.00    -0.092 A  
HETATM   34 CL   UNL     1      -9.768   2.744  71.654  1.00  0.00    -0.222 Cl 
HETATM   35  C   UNL     1      -7.747   5.928  70.327  1.00  0.00    -0.096 A  
ENDBRANCH  27  29
ENDBRANCH  13  27
ENDBRANCH   4   6
ENDBRANCH   2   4
TORSDOF 5
ENDMDL
MODEL       19
REMARK 921   NORMALIZED FREE ENERGY PREDICTED BY IDOCK:   -6.96 KCAL/MOL
REMARK 922        TOTAL FREE ENERGY PREDICTED BY IDOCK:  -10.15 KCAL/MOL
REMARK 923 INTER-LIGAND FREE ENERGY PREDICTED BY IDOCK:   -8.62 KCAL/MOL
REMARK 924 INTRA-LIGAND FREE ENERGY PREDICTED BY IDOCK:   -1.53 KCAL/MOL
REMARK 927      BINDING AFFINITY PREDICTED BY RF-SCORE:    0.00 PKD
ROOT
HETATM    1  C   UNL     1     -12.164  12.688  70.457  1.00  0.00    -0.383 C  
HETATM    2  C   UNL     1     -11.718  11.321  69.935  1.00  0.00    -0.352 C  
HETATM    3  C   UNL     1     -12.202  10.229  70.885  1.00  0.00    -0.465 C  
ENDROOT
BRANCH   2   4
HETATM    4  N   UNL     1     -12.236  11.066  68.573  1.00  0.00    -0.781 NA 
HETATM    5  H   UNL     1     -13.234  11.147  68.376  1.00  0.00     0.000 HD 
BRANCH   4   6
HETATM    6  C   UNL     1     -11.406  10.737  67.630  1.00  0.00    -0.252 A  
HETATM    7  C   UNL     1     -10.527   9.544  67.666  1.00  0.00    -0.321 A  
HETATM    8  C   UNL     1      -9.799   9.037  66.664  1.00  0.00    -0.248 A  
HETATM    9  N   UNL     1      -9.066   7.818  66.692  1.00  0.00    -0.152 NA 
HETATM   10  C   UNL     1      -8.212   7.538  65.556  1.00  0.00    -0.135 A  
HETATM   11  C   UNL     1      -7.425   6.377  65.447  1.00  0.00    -0.084 A  
HETATM   12  C   UNL     1      -8.177   8.448  64.469  1.00  0.00    -0.146 A  
HETATM   13  C   UNL     1     -11.317  11.568  66.368  1.00  0.00    -0.176 A  
HETATM   14  N   UNL     1      -8.956   9.616  64.417  1.00  0.00    -0.232 NA 
HETATM   15  C   UNL     1      -6.583   6.155  64.350  1.00  0.00    -0.034 A  
HETATM   16  C   UNL     1      -7.350   8.199  63.364  1.00  0.00    -0.103 A  
HETATM   17  C   UNL     1     -10.507  11.141  65.389  1.00  0.00    -0.321 A  
HETATM   18  C   UNL     1      -9.710   9.888  65.434  1.00  0.00    -0.306 A  
HETATM   19  C   UNL     1      -6.546   7.066  63.307  1.00  0.00    -0.044 A  
BRANCH   9  20
HETATM   20  C   UNL     1      -9.254   6.895  67.792  1.00  0.00    -0.119 A  
HETATM   21  C   UNL     1     -10.556   5.111  68.868  1.00  0.00    -0.047 A  
HETATM   22  C   UNL     1      -8.646   6.039  70.004  1.00  0.00    -0.131 A  
HETATM   23 CL   UNL     1     -10.003   4.100  71.303  1.00  0.00    -0.246 Cl 
HETATM   24  C   UNL     1     -10.298   5.943  67.773  1.00  0.00    -0.262 A  
HETATM   25  C   UNL     1      -9.715   5.149  69.972  1.00  0.00    -0.205 A  
HETATM   26  C   UNL     1      -8.446   6.932  68.942  1.00  0.00    -0.125 A  
ENDBRANCH   9  20
BRANCH  13  27
HETATM   27  N   UNL     1     -12.057  12.751  66.353  1.00  0.00    -0.520 NA 
HETATM   28  H   UNL     1     -13.070  12.662  66.430  1.00  0.00     0.000 HD 
BRANCH  27  29
HETATM   29  C   UNL     1     -11.533  14.067  66.241  1.00  0.00    -0.351 A  
HETATM   30  C   UNL     1     -11.355  14.745  65.029  1.00  0.00    -0.391 A  
HETATM   31  C   UNL     1     -10.874  16.062  64.999  1.00  0.00    -0.421 A  
HETATM   32  C   UNL     1     -10.535  16.706  66.186  1.00  0.00    -0.285 A  
HETATM   33  C   UNL     1     -10.633  16.032  67.397  1.00  0.00    -0.316 A  
HETATM   34 CL   UNL     1      -9.996  18.339  66.155  1.00  0.00    -0.339 Cl 
HETATM   35  C   UNL     1     -11.118  14.718  67.422  1.00  0.00    -0.327 A  
ENDBRANCH  27  29
ENDBRANCH  13  27
ENDBRANCH   4   6
ENDBRANCH   2   4
TORSDOF 5
ENDMDL
MODEL       20
REMARK 921   NORMALIZED FREE ENERGY PREDICTED BY IDOCK:   -6.92 KCAL/MOL
REMARK 922        TOTAL FREE ENERGY PREDICTED BY IDOCK:  -10.10 KCAL/MOL
REMARK 923 INTER-LIGAND FREE ENERGY PREDICTED BY IDOCK:   -8.82 KCAL/MOL
REMARK 924 INTRA-LIGAND FREE ENERGY PREDICTED BY IDOCK:   -1.28 KCAL/MOL
REMARK 927      BINDING AFFINITY PREDICTED BY RF-SCORE:    0.00 PKD
ROOT
HETATM    1  C   UNL     1     -10.825  11.456  63.678  1.00  0.00    -0.459 C  
HETATM    2  C   UNL     1      -9.560  10.596  63.650  1.00  0.00    -0.314 C  
HETATM    3  C   UNL     1      -8.779  10.876  62.370  1.00  0.00    -0.355 C  
ENDROOT
BRANCH   2   4
HETATM    4  N   UNL     1      -8.703  10.855  64.828  1.00  0.00    -0.341 NA 
HETATM    5  H   UNL     1      -7.730  11.137  64.707  1.00  0.00     0.000 HD 
BRANCH   4   6
HETATM    6  C   UNL     1      -9.204  10.720  66.019  1.00  0.00    -0.187 A  
HETATM    7  C   UNL     1      -9.616   9.426  66.612  1.00  0.00    -0.250 A  
HETATM    8  C   UNL     1      -9.951   9.182  67.885  1.00  0.00    -0.186 A  
HETATM    9  N   UNL     1     -10.218   7.905  68.454  1.00  0.00    -0.198 NA 
HETATM   10  C   UNL     1     -10.725   7.883  69.810  1.00  0.00    -0.233 A  
HETATM   11  C   UNL     1     -11.039   6.698  70.500  1.00  0.00    -0.359 A  
HETATM   12  C   UNL     1     -10.889   9.104  70.514  1.00  0.00    -0.255 A  
HETATM   13  C   UNL     1      -9.362  11.925  66.921  1.00  0.00    -0.196 A  
HETATM   14  N   UNL     1     -10.559  10.356  69.971  1.00  0.00    -0.262 NA 
HETATM   15  C   UNL     1     -11.561   6.714  71.799  1.00  0.00    -0.347 A  
HETATM   16  C   UNL     1     -11.387   9.104  71.825  1.00  0.00    -0.451 A  
HETATM   17  C   UNL     1      -9.804  11.723  68.170  1.00  0.00    -0.190 A  
HETATM   18  C   UNL     1     -10.121  10.393  68.752  1.00  0.00    -0.187 A  
HETATM   19  C   UNL     1     -11.735   7.918  72.463  1.00  0.00    -0.423 A  
BRANCH   9  20
HETATM   20  C   UNL     1      -9.910   6.708  67.700  1.00  0.00    -0.126 A  
HETATM   21  C   UNL     1      -8.251   5.163  66.754  1.00  0.00    -0.108 A  
HETATM   22  C   UNL     1     -10.591   4.816  66.303  1.00  0.00    -0.246 A  
HETATM   23 CL   UNL     1      -8.871   3.060  65.187  1.00  0.00    -0.122 Cl 
HETATM   24  C   UNL     1      -8.578   6.259  67.559  1.00  0.00    -0.107 A  
HETATM   25  C   UNL     1      -9.263   4.433  66.145  1.00  0.00    -0.141 A  
HETATM   26  C   UNL     1     -10.906   5.968  67.038  1.00  0.00    -0.413 A  
ENDBRANCH   9  20
BRANCH  13  27
HETATM   27  N   UNL     1      -9.078  13.166  66.350  1.00  0.00    -0.447 NA 
HETATM   28  H   UNL     1      -8.625  13.161  65.437  1.00  0.00     0.000 HD 
BRANCH  27  29
HETATM   29  C   UNL     1      -9.362  14.436  66.921  1.00  0.00    -0.256 A  
HETATM   30  C   UNL     1     -10.653  14.944  67.114  1.00  0.00    -0.285 A  
HETATM   31  C   UNL     1     -10.857  16.189  67.727  1.00  0.00    -0.318 A  
HETATM   32  C   UNL     1      -9.766  16.955  68.128  1.00  0.00    -0.254 A  
HETATM   33  C   UNL     1      -8.473  16.508  67.884  1.00  0.00    -0.182 A  
HETATM   34 CL   UNL     1     -10.017  18.457  68.929  1.00  0.00    -0.399 Cl 
HETATM   35  C   UNL     1      -8.274  15.262  67.274  1.00  0.00    -0.230 A  
ENDBRANCH  27  29
ENDBRANCH  13  27
ENDBRANCH   4   6
ENDBRANCH   2   4
TORSDOF 5
ENDMDL
MODEL       21
REMARK 921   NORMALIZED FREE ENERGY PREDICTED BY IDOCK:   -6.88 KCAL/MOL
REMARK 922        TOTAL FREE ENERGY PREDICTED BY IDOCK:  -10.06 KCAL/MOL
REMARK 923 INTER-LIGAND FREE ENERGY PREDICTED BY IDOCK:   -8.80 KCAL/MOL
REMARK 924 INTRA-LIGAND FREE ENERGY PREDICTED BY IDOCK:   -1.25 KCAL/MOL
REMARK 927      BINDING AFFINITY PREDICTED BY RF-SCORE:    0.00 PKD
ROOT
HETATM    1  C   UNL     1     -13.190  13.168  71.945  1.00  0.00    -0.526 C  
HETATM    2  C   UNL     1     -13.087  14.382  71.019  1.00  0.00    -0.353 C  
HETATM    3  C   UNL     1     -13.589  15.625  71.748  1.00  0.00    -0.510 C  
ENDROOT
BRANCH   2   4
HETATM    4  N   UNL     1     -11.697  14.597  70.561  1.00  0.00    -0.287 NA 
HETATM    5  H   UNL     1     -11.085  15.248  71.054  1.00  0.00     0.000 HD 
BRANCH   4   6
HETATM    6  C   UNL     1     -11.264  13.947  69.524  1.00  0.00    -0.184 A  
HETATM    7  C   UNL     1     -10.768  12.550  69.557  1.00  0.00     0.248 A  
HETATM    8  C   UNL     1     -10.494  11.757  68.515  1.00  0.00    -0.215 A  
HETATM    9  N   UNL     1     -10.142  10.379  68.577  1.00  0.00    -0.164 NA 
HETATM   10  C   UNL     1      -9.725   9.752  67.341  1.00  0.00    -0.163 A  
HETATM   11  C   UNL     1      -9.342   8.400  67.249  1.00  0.00    -0.181 A  
HETATM   12  C   UNL     1      -9.725  10.506  66.139  1.00  0.00    -0.209 A  
HETATM   13  C   UNL     1     -11.282  14.593  68.155  1.00  0.00    -0.289 A  
HETATM   14  N   UNL     1     -10.140  11.846  66.072  1.00  0.00    -0.224 NA 
HETATM   15  C   UNL     1      -8.910   7.834  66.044  1.00  0.00    -0.189 A  
HETATM   16  C   UNL     1      -9.317   9.918  64.934  1.00  0.00    -0.329 A  
HETATM   17  C   UNL     1     -10.905  13.854  67.103  1.00  0.00    -0.288 A  
HETATM   18  C   UNL     1     -10.499  12.426  67.173  1.00  0.00    -0.219 A  
HETATM   19  C   UNL     1      -8.897   8.593  64.885  1.00  0.00    -0.076 A  
BRANCH   9  20
HETATM   20  C   UNL     1     -10.283   9.661  69.827  1.00  0.00    -0.237 A  
HETATM   21  C   UNL     1      -9.258   8.550  71.763  1.00  0.00    -0.316 A  
HETATM   22  C   UNL     1     -11.652   8.518  71.504  1.00  0.00    -0.352 A  
HETATM   23 CL   UNL     1     -10.651   7.243  73.663  1.00  0.00    -0.407 Cl 
HETATM   24  C   UNL     1      -9.152   9.328  70.605  1.00  0.00    -0.309 A  
HETATM   25  C   UNL     1     -10.512   8.165  72.218  1.00  0.00    -0.302 A  
HETATM   26  C   UNL     1     -11.533   9.222  70.297  1.00  0.00    -0.198 A  
ENDBRANCH   9  20
BRANCH  13  27
HETATM   27  N   UNL     1     -11.648  15.940  68.113  1.00  0.00    -0.287 NA 
HETATM   28  H   UNL     1     -12.640  16.152  68.207  1.00  0.00     0.000 HD 
BRANCH  27  29
HETATM   29  C   UNL     1     -10.766  17.043  67.952  1.00  0.00    -0.348 A  
HETATM   30  C   UNL     1     -10.256  17.806  69.009  1.00  0.00    -0.290 A  
HETATM   31  C   UNL     1      -9.354  18.854  68.776  1.00  0.00    -0.381 A  
HETATM   32  C   UNL     1      -8.973  19.169  67.474  1.00  0.00    -0.295 A  
HETATM   33  C   UNL     1      -9.518  18.474  66.402  1.00  0.00    -0.304 A  
HETATM   34 CL   UNL     1      -7.824  20.417  67.192  1.00  0.00    -0.368 Cl 
HETATM   35  C   UNL     1     -10.417  17.427  66.639  1.00  0.00    -0.253 A  
ENDBRANCH  27  29
ENDBRANCH  13  27
ENDBRANCH   4   6
ENDBRANCH   2   4
TORSDOF 5
ENDMDL
MODEL       22
REMARK 921   NORMALIZED FREE ENERGY PREDICTED BY IDOCK:   -6.82 KCAL/MOL
REMARK 922        TOTAL FREE ENERGY PREDICTED BY IDOCK:   -9.97 KCAL/MOL
REMARK 923 INTER-LIGAND FREE ENERGY PREDICTED BY IDOCK:   -9.24 KCAL/MOL
REMARK 924 INTRA-LIGAND FREE ENERGY PREDICTED BY IDOCK:   -0.74 KCAL/MOL
REMARK 927      BINDING AFFINITY PREDICTED BY RF-SCORE:    0.00 PKD
ROOT
HETATM    1  C   UNL     1     -11.530   7.696  71.783  1.00  0.00    -0.302 C  
HETATM    2  C   UNL     1     -10.399   8.244  72.655  1.00  0.00    -0.304 C  
HETATM    3  C   UNL     1      -9.738   7.097  73.413  1.00  0.00    -0.273 C  
ENDROOT
BRANCH   2   4
HETATM    4  N   UNL     1      -9.388   8.958  71.844  1.00  0.00    -0.352 NA 
HETATM    5  H   UNL     1      -8.466   9.161  72.231  1.00  0.00     0.000 HD 
BRANCH   4   6
HETATM    6  C   UNL     1      -9.688   9.325  70.636  1.00  0.00    -0.272 A  
HETATM    7  C   UNL     1     -10.538  10.493  70.301  1.00  0.00    -0.077 A  
HETATM    8  C   UNL     1     -10.730  11.044  69.097  1.00  0.00    -0.234 A  
HETATM    9  N   UNL     1     -11.448  12.242  68.826  1.00  0.00    -0.285 NA 
HETATM   10  C   UNL     1     -11.675  12.571  67.434  1.00  0.00    -0.366 A  
HETATM   11  C   UNL     1     -12.374  13.718  67.013  1.00  0.00    -0.289 A  
HETATM   12  C   UNL     1     -11.147  11.729  66.422  1.00  0.00    -0.307 A  
HETATM   13  C   UNL     1      -9.128   8.572  69.448  1.00  0.00    -0.150 A  
HETATM   14  N   UNL     1     -10.379  10.585  66.696  1.00  0.00    -0.236 NA 
HETATM   15  C   UNL     1     -12.606  13.988  65.659  1.00  0.00    -0.542 A  
HETATM   16  C   UNL     1     -11.363  12.027  65.069  1.00  0.00    -0.365 A  
HETATM   17  C   UNL     1      -9.398   9.040  68.221  1.00  0.00    -0.145 A  
HETATM   18  C   UNL     1     -10.183  10.268  67.936  1.00  0.00    -0.183 A  
HETATM   19  C   UNL     1     -12.100  13.142  64.686  1.00  0.00    -0.462 A  
BRANCH   9  20
HETATM   20  C   UNL     1     -11.849  13.099  69.922  1.00  0.00    -0.308 A  
HETATM   21  C   UNL     1     -13.175  13.461  71.958  1.00  0.00    -0.531 A  
HETATM   22  C   UNL     1     -11.863  15.268  71.057  1.00  0.00    -0.394 A  
HETATM   23 CL   UNL     1     -13.290  15.803  73.285  1.00  0.00    -0.660 Cl 
HETATM   24  C   UNL     1     -12.697  12.621  70.945  1.00  0.00    -0.274 A  
HETATM   25  C   UNL     1     -12.739  14.777  72.020  1.00  0.00    -0.329 A  
HETATM   26  C   UNL     1     -11.458  14.447  69.994  1.00  0.00    -0.295 A  
ENDBRANCH   9  20
BRANCH  13  27
HETATM   27  N   UNL     1      -8.411   7.410  69.735  1.00  0.00    -0.133 NA 
HETATM   28  H   UNL     1      -7.592   7.510  70.335  1.00  0.00     0.000 HD 
BRANCH  27  29
HETATM   29  C   UNL     1      -8.714   6.102  69.272  1.00  0.00    -0.122 A  
HETATM   30  C   UNL     1      -8.387   5.620  67.998  1.00  0.00    -0.100 A  
HETATM   31  C   UNL     1      -8.679   4.300  67.626  1.00  0.00    -0.116 A  
HETATM   32  C   UNL     1      -9.330   3.453  68.519  1.00  0.00    -0.168 A  
HETATM   33  C   UNL     1      -9.731   3.926  69.763  1.00  0.00    -0.227 A  
HETATM   34 CL   UNL     1      -9.639   1.817  68.084  1.00  0.00    -0.218 Cl 
HETATM   35  C   UNL     1      -9.434   5.244  70.131  1.00  0.00    -0.217 A  
ENDBRANCH  27  29
ENDBRANCH  13  27
ENDBRANCH   4   6
ENDBRANCH   2   4
TORSDOF 5
ENDMDL
MODEL       23
REMARK 921   NORMALIZED FREE ENERGY PREDICTED BY IDOCK:   -6.81 KCAL/MOL
REMARK 922        TOTAL FREE ENERGY PREDICTED BY IDOCK:   -9.96 KCAL/MOL
REMARK 923 INTER-LIGAND FREE ENERGY PREDICTED BY IDOCK:   -9.05 KCAL/MOL
REMARK 924 INTRA-LIGAND FREE ENERGY PREDICTED BY IDOCK:   -0.91 KCAL/MOL
REMARK 927      BINDING AFFINITY PREDICTED BY RF-SCORE:    0.00 PKD
ROOT
HETATM    1  C   UNL     1      -8.968  12.202  67.271  1.00  0.00    -0.184 C  
HETATM    2  C   UNL     1      -9.998  11.738  66.239  1.00  0.00    -0.218 C  
HETATM    3  C   UNL     1      -9.459  10.522  65.491  1.00  0.00    -0.265 C  
ENDROOT
BRANCH   2   4
HETATM    4  N   UNL     1     -11.290  11.403  66.876  1.00  0.00    -0.425 NA 
HETATM    5  H   UNL     1     -12.168  11.704  66.451  1.00  0.00     0.000 HD 
BRANCH   4   6
HETATM    6  C   UNL     1     -11.295  10.723  67.982  1.00  0.00    -0.307 A  
HETATM    7  C   UNL     1     -11.017   9.270  68.072  1.00  0.00    -0.076 A  
HETATM    8  C   UNL     1     -10.812   8.546  69.179  1.00  0.00    -0.029 A  
HETATM    9  N   UNL     1     -10.420   7.179  69.229  1.00  0.00    -0.207 NA 
HETATM   10  C   UNL     1     -10.415   6.544  70.530  1.00  0.00    -0.207 A  
HETATM   11  C   UNL     1     -10.058   5.198  70.733  1.00  0.00    -0.303 A  
HETATM   12  C   UNL     1     -10.750   7.304  71.680  1.00  0.00    -0.215 A  
HETATM   13  C   UNL     1     -11.554  11.415  69.303  1.00  0.00    -0.317 A  
HETATM   14  N   UNL     1     -11.069   8.671  71.632  1.00  0.00    -0.281 NA 
HETATM   15  C   UNL     1     -10.098   4.605  72.001  1.00  0.00    -0.262 A  
HETATM   16  C   UNL     1     -10.759   6.705  72.947  1.00  0.00    -0.285 A  
HETATM   17  C   UNL     1     -11.465  10.687  70.424  1.00  0.00    -0.422 A  
HETATM   18  C   UNL     1     -11.095   9.249  70.473  1.00  0.00    -0.265 A  
HETATM   19  C   UNL     1     -10.448   5.359  73.110  1.00  0.00    -0.251 A  
BRANCH   9  20
HETATM   20  C   UNL     1      -9.983   6.516  68.018  1.00  0.00    -0.134 A  
HETATM   21  C   UNL     1      -8.202   5.989  66.410  1.00  0.00    -0.112 A  
HETATM   22  C   UNL     1     -10.450   5.236  65.983  1.00  0.00    -0.187 A  
HETATM   23 CL   UNL     1      -8.591   4.609  64.129  1.00  0.00    -0.132 Cl 
HETATM   24  C   UNL     1      -8.627   6.538  67.625  1.00  0.00    -0.116 A  
HETATM   25  C   UNL     1      -9.114   5.321  65.603  1.00  0.00    -0.153 A  
HETATM   26  C   UNL     1     -10.886   5.865  67.158  1.00  0.00    -0.373 A  
ENDBRANCH   9  20
BRANCH  13  27
HETATM   27  N   UNL     1     -11.919  12.761  69.234  1.00  0.00    -0.276 NA 
HETATM   28  H   UNL     1     -12.025  13.163  68.303  1.00  0.00     0.000 HD 
BRANCH  27  29
HETATM   29  C   UNL     1     -12.157  13.622  70.339  1.00  0.00    -0.351 A  
HETATM   30  C   UNL     1     -13.112  13.382  71.335  1.00  0.00    -0.373 A  
HETATM   31  C   UNL     1     -13.260  14.255  72.422  1.00  0.00    -0.549 A  
HETATM   32  C   UNL     1     -12.471  15.399  72.508  1.00  0.00    -0.377 A  
HETATM   33  C   UNL     1     -11.566  15.699  71.497  1.00  0.00    -0.507 A  
HETATM   34 CL   UNL     1     -12.613  16.442  73.869  1.00  0.00    -0.590 Cl 
HETATM   35  C   UNL     1     -11.419  14.822  70.415  1.00  0.00    -0.303 A  
ENDBRANCH  27  29
ENDBRANCH  13  27
ENDBRANCH   4   6
ENDBRANCH   2   4
TORSDOF 5
ENDMDL
MODEL       24
REMARK 921   NORMALIZED FREE ENERGY PREDICTED BY IDOCK:   -6.76 KCAL/MOL
REMARK 922        TOTAL FREE ENERGY PREDICTED BY IDOCK:   -9.90 KCAL/MOL
REMARK 923 INTER-LIGAND FREE ENERGY PREDICTED BY IDOCK:   -8.34 KCAL/MOL
REMARK 924 INTRA-LIGAND FREE ENERGY PREDICTED BY IDOCK:   -1.56 KCAL/MOL
REMARK 927      BINDING AFFINITY PREDICTED BY RF-SCORE:    0.00 PKD
ROOT
HETATM    1  C   UNL     1     -12.407  12.806  70.690  1.00  0.00    -0.381 C  
HETATM    2  C   UNL     1     -12.034  11.349  70.411  1.00  0.00    -0.374 C  
HETATM    3  C   UNL     1     -12.763  10.438  71.393  1.00  0.00    -0.551 C  
ENDROOT
BRANCH   2   4
HETATM    4  N   UNL     1     -12.367  10.961  69.023  1.00  0.00    -0.731 NA 
HETATM    5  H   UNL     1     -13.329  11.022  68.687  1.00  0.00     0.000 HD 
BRANCH   4   6
HETATM    6  C   UNL     1     -11.423  10.540  68.238  1.00  0.00    -0.199 A  
HETATM    7  C   UNL     1     -10.515   9.411  68.551  1.00  0.00    -0.239 A  
HETATM    8  C   UNL     1      -9.658   8.800  67.723  1.00  0.00    -0.148 A  
HETATM    9  N   UNL     1      -8.893   7.637  68.016  1.00  0.00    -0.128 NA 
HETATM   10  C   UNL     1      -7.904   7.237  67.036  1.00  0.00    -0.112 A  
HETATM   11  C   UNL     1      -7.070   6.114  67.191  1.00  0.00    -0.070 A  
HETATM   12  C   UNL     1      -7.773   7.978  65.834  1.00  0.00    -0.092 A  
HETATM   13  C   UNL     1     -11.216  11.179  66.881  1.00  0.00    -0.186 A  
HETATM   14  N   UNL     1      -8.580   9.085  65.520  1.00  0.00    -0.157 NA 
HETATM   15  C   UNL     1      -6.099   5.776  66.239  1.00  0.00    -0.029 A  
HETATM   16  C   UNL     1      -6.816   7.612  64.876  1.00  0.00    -0.051 A  
HETATM   17  C   UNL     1     -10.284  10.656  66.073  1.00  0.00    -0.309 A  
HETATM   18  C   UNL     1      -9.456   9.465  66.395  1.00  0.00    -0.201 A  
HETATM   19  C   UNL     1      -5.972   6.526  65.081  1.00  0.00    -0.030 A  
BRANCH   9  20
HETATM   20  C   UNL     1      -9.176   6.877  69.216  1.00  0.00    -0.139 A  
HETATM   21  C   UNL     1     -10.526   5.199  70.397  1.00  0.00    -0.287 A  
HETATM   22  C   UNL     1      -8.807   6.394  71.587  1.00  0.00    -0.136 A  
HETATM   23 CL   UNL     1     -10.232   4.592  73.006  1.00  0.00    -0.204 Cl 
HETATM   24  C   UNL     1     -10.170   5.874  69.224  1.00  0.00    -0.275 A  
HETATM   25  C   UNL     1      -9.827   5.448  71.570  1.00  0.00    -0.168 A  
HETATM   26  C   UNL     1      -8.515   7.131  70.430  1.00  0.00    -0.140 A  
ENDBRANCH   9  20
BRANCH  13  27
HETATM   27  N   UNL     1     -11.989  12.308  66.606  1.00  0.00    -0.622 NA 
HETATM   28  H   UNL     1     -12.996  12.169  66.526  1.00  0.00     0.000 HD 
BRANCH  27  29
HETATM   29  C   UNL     1     -11.506  13.632  66.427  1.00  0.00    -0.338 A  
HETATM   30  C   UNL     1     -11.219  14.206  65.182  1.00  0.00    -0.337 A  
HETATM   31  C   UNL     1     -10.787  15.536  65.080  1.00  0.00    -0.468 A  
HETATM   32  C   UNL     1     -10.609  16.301  66.230  1.00  0.00    -0.255 A  
HETATM   33  C   UNL     1     -10.817  15.735  67.482  1.00  0.00    -0.315 A  
HETATM   34 CL   UNL     1     -10.132  17.949  66.103  1.00  0.00    -0.344 Cl 
HETATM   35  C   UNL     1     -11.251  14.407  67.579  1.00  0.00    -0.329 A  
ENDBRANCH  27  29
ENDBRANCH  13  27
ENDBRANCH   4   6
ENDBRANCH   2   4
TORSDOF 5
ENDMDL
MODEL       25
REMARK 921   NORMALIZED FREE ENERGY PREDICTED BY IDOCK:   -6.69 KCAL/MOL
REMARK 922        TOTAL FREE ENERGY PREDICTED BY IDOCK:   -9.81 KCAL/MOL
REMARK 923 INTER-LIGAND FREE ENERGY PREDICTED BY IDOCK:   -8.70 KCAL/MOL
REMARK 924 INTRA-LIGAND FREE ENERGY PREDICTED BY IDOCK:   -1.10 KCAL/MOL
REMARK 927      BINDING AFFINITY PREDICTED BY RF-SCORE:    0.00 PKD
ROOT
HETATM    1  C   UNL     1     -13.024   7.006  71.688  1.00  0.00    -0.400 C  
HETATM    2  C   UNL     1     -13.115   8.494  71.343  1.00  0.00    -0.230 C  
HETATM    3  C   UNL     1     -13.847   9.234  72.460  1.00  0.00    -0.453 C  
ENDROOT
BRANCH   2   4
HETATM    4  N   UNL     1     -11.775   9.087  71.143  1.00  0.00    -0.288 NA 
HETATM    5  H   UNL     1     -11.050   8.975  71.853  1.00  0.00     0.000 HD 
BRANCH   4   6
HETATM    6  C   UNL     1     -11.531   9.751  70.054  1.00  0.00    -0.180 A  
HETATM    7  C   UNL     1     -11.764  11.206  69.891  1.00  0.00    -0.433 A  
HETATM    8  C   UNL     1     -11.362  11.988  68.882  1.00  0.00    -0.278 A  
HETATM    9  N   UNL     1     -11.488  13.403  68.814  1.00  0.00    -0.282 NA 
HETATM   10  C   UNL     1     -11.137  14.035  67.560  1.00  0.00    -0.298 A  
HETATM   11  C   UNL     1     -11.217  15.424  67.343  1.00  0.00    -0.287 A  
HETATM   12  C   UNL     1     -10.649  13.241  66.491  1.00  0.00    -0.286 A  
HETATM   13  C   UNL     1     -10.929   9.054  68.853  1.00  0.00     0.054 A  
HETATM   14  N   UNL     1     -10.460  11.853  66.587  1.00  0.00    -0.211 NA 
HETATM   15  C   UNL     1     -10.902  15.998  66.105  1.00  0.00    -0.179 A  
HETATM   16  C   UNL     1     -10.310  13.833  65.266  1.00  0.00    -0.378 A  
HETATM   17  C   UNL     1     -10.618   9.798  67.783  1.00  0.00    -0.320 A  
HETATM   18  C   UNL     1     -10.788  11.271  67.697  1.00  0.00    -0.238 A  
HETATM   19  C   UNL     1     -10.448  15.203  65.066  1.00  0.00    -0.418 A  
BRANCH   9  20
HETATM   20  C   UNL     1     -11.885  14.144  69.995  1.00  0.00    -0.323 A  
HETATM   21  C   UNL     1     -11.288  15.549  71.918  1.00  0.00    -0.456 A  
HETATM   22  C   UNL     1     -13.564  14.812  71.646  1.00  0.00    -0.489 A  
HETATM   23 CL   UNL     1     -13.036  16.334  73.812  1.00  0.00    -0.515 Cl 
HETATM   24  C   UNL     1     -10.946  14.909  70.722  1.00  0.00    -0.088 A  
HETATM   25  C   UNL     1     -12.602  15.515  72.364  1.00  0.00    -0.400 A  
HETATM   26  C   UNL     1     -13.197  14.098  70.496  1.00  0.00    -0.016 A  
ENDBRANCH   9  20
BRANCH  13  27
HETATM   27  N   UNL     1     -10.796   7.667  68.946  1.00  0.00    -0.414 NA 
HETATM   28  H   UNL     1     -11.519   7.103  68.500  1.00  0.00     0.000 HD 
BRANCH  27  29
HETATM   29  C   UNL     1      -9.749   6.968  69.603  1.00  0.00    -0.157 A  
HETATM   30  C   UNL     1      -9.886   5.699  70.179  1.00  0.00    -0.250 A  
HETATM   31  C   UNL     1      -8.794   5.050  70.773  1.00  0.00    -0.156 A  
HETATM   32  C   UNL     1      -7.553   5.680  70.822  1.00  0.00    -0.091 A  
HETATM   33  C   UNL     1      -7.405   6.968  70.323  1.00  0.00    -0.084 A  
HETATM   34 CL   UNL     1      -6.200   4.863  71.501  1.00  0.00    -0.024 Cl 
HETATM   35  C   UNL     1      -8.498   7.611  69.729  1.00  0.00    -0.134 A  
ENDBRANCH  27  29
ENDBRANCH  13  27
ENDBRANCH   4   6
ENDBRANCH   2   4
TORSDOF 5
ENDMDL
MODEL       26
REMARK 921   NORMALIZED FREE ENERGY PREDICTED BY IDOCK:   -6.61 KCAL/MOL
REMARK 922        TOTAL FREE ENERGY PREDICTED BY IDOCK:   -9.71 KCAL/MOL
REMARK 923 INTER-LIGAND FREE ENERGY PREDICTED BY IDOCK:   -8.45 KCAL/MOL
REMARK 924 INTRA-LIGAND FREE ENERGY PREDICTED BY IDOCK:   -1.26 KCAL/MOL
REMARK 927      BINDING AFFINITY PREDICTED BY RF-SCORE:    0.00 PKD
ROOT
HETATM    1  C   UNL     1      -7.593   9.173  65.893  1.00  0.00    -0.095 C  
HETATM    2  C   UNL     1      -8.978   9.758  66.177  1.00  0.00    -0.152 C  
HETATM    3  C   UNL     1      -9.756   9.885  64.871  1.00  0.00    -0.332 C  
ENDROOT
BRANCH   2   4
HETATM    4  N   UNL     1      -9.734   8.920  67.133  1.00  0.00    -0.171 NA 
HETATM    5  H   UNL     1      -9.804   7.912  66.993  1.00  0.00     0.000 HD 
BRANCH   4   6
HETATM    6  C   UNL     1     -10.308   9.483  68.153  1.00  0.00    -0.208 A  
HETATM    7  C   UNL     1     -10.669  10.919  68.224  1.00  0.00    -0.244 A  
HETATM    8  C   UNL     1     -11.428  11.525  69.145  1.00  0.00    -0.297 A  
HETATM    9  N   UNL     1     -11.863  12.879  69.117  1.00  0.00    -0.308 NA 
HETATM   10  C   UNL     1     -12.538  13.377  70.297  1.00  0.00    -0.117 A  
HETATM   11  C   UNL     1     -13.018  14.695  70.416  1.00  0.00    -0.249 A  
HETATM   12  C   UNL     1     -12.772  12.503  71.388  1.00  0.00    -0.243 A  
HETATM   13  C   UNL     1     -10.696   8.659  69.361  1.00  0.00    -0.158 A  
HETATM   14  N   UNL     1     -12.402  11.148  71.382  1.00  0.00    -0.283 NA 
HETATM   15  C   UNL     1     -13.636  15.154  71.586  1.00  0.00    -0.560 A  
HETATM   16  C   UNL     1     -13.418  12.968  72.543  1.00  0.00    -0.522 A  
HETATM   17  C   UNL     1     -11.361   9.268  70.353  1.00  0.00    -0.283 A  
HETATM   18  C   UNL     1     -11.780  10.693  70.341  1.00  0.00    -0.353 A  
HETATM   19  C   UNL     1     -13.837  14.290  72.650  1.00  0.00    -0.489 A  
BRANCH   9  20
HETATM   20  C   UNL     1     -11.681  13.664  67.913  1.00  0.00    -0.360 A  
HETATM   21  C   UNL     1     -10.570  15.506  66.726  1.00  0.00    -0.307 A  
HETATM   22  C   UNL     1     -12.321  14.270  65.628  1.00  0.00    -0.416 A  
HETATM   23 CL   UNL     1     -11.196  16.282  64.223  1.00  0.00    -0.216 Cl 
HETATM   24  C   UNL     1     -10.694  14.672  67.844  1.00  0.00    -0.250 A  
HETATM   25  C   UNL     1     -11.372  15.287  65.614  1.00  0.00    -0.197 A  
HETATM   26  C   UNL     1     -12.502  13.495  66.784  1.00  0.00    -0.213 A  
ENDBRANCH   9  20
BRANCH  13  27
HETATM   27  N   UNL     1     -10.276   7.328  69.362  1.00  0.00    -0.187 NA 
HETATM   28  H   UNL     1     -10.301   6.835  68.469  1.00  0.00     0.000 HD 
BRANCH  27  29
HETATM   29  C   UNL     1      -9.817   6.594  70.488  1.00  0.00    -0.176 A  
HETATM   30  C   UNL     1      -8.508   6.646  70.983  1.00  0.00    -0.129 A  
HETATM   31  C   UNL     1      -8.137   5.927  72.130  1.00  0.00    -0.107 A  
HETATM   32  C   UNL     1      -9.071   5.123  72.778  1.00  0.00    -0.133 A  
HETATM   33  C   UNL     1     -10.357   4.997  72.268  1.00  0.00    -0.267 A  
HETATM   34 CL   UNL     1      -8.633   4.285  74.216  1.00  0.00    -0.096 Cl 
HETATM   35  C   UNL     1     -10.723   5.719  71.125  1.00  0.00    -0.327 A  
ENDBRANCH  27  29
ENDBRANCH  13  27
ENDBRANCH   4   6
ENDBRANCH   2   4
TORSDOF 5
ENDMDL
MODEL       27
REMARK 921   NORMALIZED FREE ENERGY PREDICTED BY IDOCK:   -6.60 KCAL/MOL
REMARK 922        TOTAL FREE ENERGY PREDICTED BY IDOCK:   -9.68 KCAL/MOL
REMARK 923 INTER-LIGAND FREE ENERGY PREDICTED BY IDOCK:   -9.02 KCAL/MOL
REMARK 924 INTRA-LIGAND FREE ENERGY PREDICTED BY IDOCK:   -0.66 KCAL/MOL
REMARK 927      BINDING AFFINITY PREDICTED BY RF-SCORE:    0.00 PKD
ROOT
HETATM    1  C   UNL     1     -10.364  11.431  65.173  1.00  0.00    -0.344 C  
HETATM    2  C   UNL     1     -10.731  12.747  65.863  1.00  0.00    -0.270 C  
HETATM    3  C   UNL     1     -12.243  12.949  65.807  1.00  0.00    -0.498 C  
ENDROOT
BRANCH   2   4
HETATM    4  N   UNL     1     -10.274  12.766  67.270  1.00  0.00    -0.231 NA 
HETATM    5  H   UNL     1      -9.718  13.547  67.621  1.00  0.00     0.000 HD 
BRANCH   4   6
HETATM    6  C   UNL     1     -10.588  11.779  68.053  1.00  0.00    -0.206 A  
HETATM    7  C   UNL     1     -10.122  10.384  67.869  1.00  0.00    -0.200 A  
HETATM    8  C   UNL     1     -10.239   9.365  68.729  1.00  0.00    -0.203 A  
HETATM    9  N   UNL     1      -9.669   8.070  68.580  1.00  0.00    -0.155 NA 
HETATM   10  C   UNL     1     -10.057   7.065  69.548  1.00  0.00    -0.173 A  
HETATM   11  C   UNL     1      -9.581   5.741  69.524  1.00  0.00    -0.181 A  
HETATM   12  C   UNL     1     -10.934   7.418  70.606  1.00  0.00    -0.256 A  
HETATM   13  C   UNL     1     -11.449  12.017  69.274  1.00  0.00    -0.301 A  
HETATM   14  N   UNL     1     -11.438   8.716  70.788  1.00  0.00    -0.271 NA 
HETATM   15  C   UNL     1     -10.004   4.785  70.455  1.00  0.00    -0.306 A  
HETATM   16  C   UNL     1     -11.327   6.457  71.549  1.00  0.00    -0.346 A  
HETATM   17  C   UNL     1     -11.676  10.984  70.097  1.00  0.00    -0.442 A  
HETATM   18  C   UNL     1     -11.114   9.620  69.919  1.00  0.00    -0.235 A  
HETATM   19  C   UNL     1     -10.878   5.143  71.469  1.00  0.00    -0.102 A  
BRANCH   9  20
HETATM   20  C   UNL     1      -8.693   7.834  67.536  1.00  0.00    -0.125 A  
HETATM   21  C   UNL     1      -6.369   7.918  66.744  1.00  0.00    -0.054 A  
HETATM   22  C   UNL     1      -8.113   7.217  65.238  1.00  0.00    -0.134 A  
HETATM   23 CL   UNL     1      -5.607   7.287  64.238  1.00  0.00    -0.033 Cl 
HETATM   24  C   UNL     1      -7.316   8.046  67.767  1.00  0.00    -0.093 A  
HETATM   25  C   UNL     1      -6.771   7.484  65.488  1.00  0.00    -0.045 A  
HETATM   26  C   UNL     1      -9.069   7.432  66.242  1.00  0.00    -0.195 A  
ENDBRANCH   9  20
BRANCH  13  27
HETATM   27  N   UNL     1     -11.984  13.299  69.412  1.00  0.00    -0.313 NA 
HETATM   28  H   UNL     1     -12.234  13.790  68.555  1.00  0.00     0.000 HD 
BRANCH  27  29
HETATM   29  C   UNL     1     -12.212  13.985  70.636  1.00  0.00    -0.372 A  
HETATM   30  C   UNL     1     -13.148  13.589  71.599  1.00  0.00    -0.459 A  
HETATM   31  C   UNL     1     -13.287  14.290  72.806  1.00  0.00    -0.621 A  
HETATM   32  C   UNL     1     -12.507  15.417  73.049  1.00  0.00    -0.431 A  
HETATM   33  C   UNL     1     -11.621  15.875  72.081  1.00  0.00    -0.515 A  
HETATM   34 CL   UNL     1     -12.636  16.246  74.551  1.00  0.00    -0.544 Cl 
HETATM   35  C   UNL     1     -11.484  15.169  70.879  1.00  0.00    -0.363 A  
ENDBRANCH  27  29
ENDBRANCH  13  27
ENDBRANCH   4   6
ENDBRANCH   2   4
TORSDOF 5
ENDMDL
MODEL       28
REMARK 921   NORMALIZED FREE ENERGY PREDICTED BY IDOCK:   -6.57 KCAL/MOL
REMARK 922        TOTAL FREE ENERGY PREDICTED BY IDOCK:   -9.65 KCAL/MOL
REMARK 923 INTER-LIGAND FREE ENERGY PREDICTED BY IDOCK:   -8.73 KCAL/MOL
REMARK 924 INTRA-LIGAND FREE ENERGY PREDICTED BY IDOCK:   -0.92 KCAL/MOL
REMARK 927      BINDING AFFINITY PREDICTED BY RF-SCORE:    0.00 PKD
ROOT
HETATM    1  C   UNL     1     -13.134  15.259  70.627  1.00  0.00    -0.407 C  
HETATM    2  C   UNL     1     -11.897  14.387  70.847  1.00  0.00    -0.283 C  
HETATM    3  C   UNL     1     -12.209  12.948  70.446  1.00  0.00    -0.381 C  
ENDROOT
BRANCH   2   4
HETATM    4  N   UNL     1     -10.739  14.884  70.072  1.00  0.00    -0.443 NA 
HETATM    5  H   UNL     1     -10.101  15.568  70.479  1.00  0.00     0.000 HD 
BRANCH   4   6
HETATM    6  C   UNL     1     -10.544  14.440  68.867  1.00  0.00    -0.247 A  
HETATM    7  C   UNL     1     -10.061  13.076  68.545  1.00  0.00    -0.195 A  
HETATM    8  C   UNL     1     -10.023  12.486  67.344  1.00  0.00    -0.207 A  
HETATM    9  N   UNL     1      -9.675  11.132  67.083  1.00  0.00    -0.176 NA 
HETATM   10  C   UNL     1      -9.538  10.744  65.695  1.00  0.00    -0.216 A  
HETATM   11  C   UNL     1      -9.192   9.443  65.285  1.00  0.00    -0.299 A  
HETATM   12  C   UNL     1      -9.794  11.696  64.676  1.00  0.00    -0.227 A  
HETATM   13  C   UNL     1     -10.855  15.315  67.672  1.00  0.00    -0.295 A  
HETATM   14  N   UNL     1     -10.205  13.014  64.938  1.00  0.00    -0.304 NA 
HETATM   15  C   UNL     1      -9.034   9.111  63.934  1.00  0.00    -0.008 A  
HETATM   16  C   UNL     1      -9.659  11.342  63.326  1.00  0.00    -0.373 A  
HETATM   17  C   UNL     1     -10.718  14.783  66.449  1.00  0.00    -0.313 A  
HETATM   18  C   UNL     1     -10.314  13.380  66.176  1.00  0.00    -0.295 A  
HETATM   19  C   UNL     1      -9.268  10.061  62.953  1.00  0.00    -0.311 A  
BRANCH   9  20
HETATM   20  C   UNL     1      -9.546  10.202  68.186  1.00  0.00    -0.139 A  
HETATM   21  C   UNL     1      -8.134   9.020  69.812  1.00  0.00    -0.109 A  
HETATM   22  C   UNL     1     -10.491   8.536  69.711  1.00  0.00    -0.220 A  
HETATM   23 CL   UNL     1      -9.048   7.154  71.528  1.00  0.00    -0.142 Cl 
HETATM   24  C   UNL     1      -8.298   9.986  68.813  1.00  0.00    -0.121 A  
HETATM   25  C   UNL     1      -9.237   8.313  70.271  1.00  0.00    -0.155 A  
HETATM   26  C   UNL     1     -10.633   9.441  68.649  1.00  0.00    -0.230 A  
ENDBRANCH   9  20
BRANCH  13  27
HETATM   27  N   UNL     1     -11.212  16.635  67.949  1.00  0.00    -0.202 NA 
HETATM   28  H   UNL     1     -12.171  16.799  68.256  1.00  0.00     0.000 HD 
BRANCH  27  29
HETATM   29  C   UNL     1     -10.367  17.772  67.844  1.00  0.00    -0.386 A  
HETATM   30  C   UNL     1      -9.529  18.229  68.868  1.00  0.00    -0.236 A  
HETATM   31  C   UNL     1      -8.686  19.335  68.677  1.00  0.00    -0.402 A  
HETATM   32  C   UNL     1      -8.697  20.015  67.462  1.00  0.00    -0.344 A  
HETATM   33  C   UNL     1      -9.571  19.627  66.453  1.00  0.00    -0.490 A  
HETATM   34 CL   UNL     1      -7.625  21.336  67.206  1.00  0.00    -0.131 Cl 
HETATM   35  C   UNL     1     -10.407  18.521  66.649  1.00  0.00    -0.442 A  
ENDBRANCH  27  29
ENDBRANCH  13  27
ENDBRANCH   4   6
ENDBRANCH   2   4
TORSDOF 5
ENDMDL
MODEL       29
REMARK 921   NORMALIZED FREE ENERGY PREDICTED BY IDOCK:   -6.54 KCAL/MOL
REMARK 922        TOTAL FREE ENERGY PREDICTED BY IDOCK:   -9.62 KCAL/MOL
REMARK 923 INTER-LIGAND FREE ENERGY PREDICTED BY IDOCK:   -8.51 KCAL/MOL
REMARK 924 INTRA-LIGAND FREE ENERGY PREDICTED BY IDOCK:   -1.11 KCAL/MOL
REMARK 927      BINDING AFFINITY PREDICTED BY RF-SCORE:    0.00 PKD
ROOT
HETATM    1  C   UNL     1      -9.511   8.636  67.436  1.00  0.00    -0.187 C  
HETATM    2  C   UNL     1      -9.667   7.661  68.604  1.00  0.00    -0.155 C  
HETATM    3  C   UNL     1      -8.720   8.059  69.732  1.00  0.00    -0.136 C  
ENDROOT
BRANCH   2   4
HETATM    4  N   UNL     1     -11.059   7.634  69.104  1.00  0.00    -0.431 NA 
HETATM    5  H   UNL     1     -11.684   6.869  68.849  1.00  0.00     0.000 HD 
BRANCH   4   6
HETATM    6  C   UNL     1     -11.476   8.594  69.872  1.00  0.00     0.152 A  
HETATM    7  C   UNL     1     -11.392  10.034  69.532  1.00  0.00    -0.220 A  
HETATM    8  C   UNL     1     -11.969  11.059  70.172  1.00  0.00    -0.360 A  
HETATM    9  N   UNL     1     -11.976  12.417  69.748  1.00  0.00    -0.310 NA 
HETATM   10  C   UNL     1     -12.516  13.391  70.674  1.00  0.00    -0.311 A  
HETATM   11  C   UNL     1     -12.582  14.769  70.397  1.00  0.00    -0.399 A  
HETATM   12  C   UNL     1     -13.043  12.956  71.916  1.00  0.00    -0.373 A  
HETATM   13  C   UNL     1     -12.140   8.280  71.195  1.00  0.00    -0.252 A  
HETATM   14  N   UNL     1     -13.097  11.605  72.299  1.00  0.00    -0.212 NA 
HETATM   15  C   UNL     1     -13.078  15.689  71.329  1.00  0.00    -0.542 A  
HETATM   16  C   UNL     1     -13.563  13.884  72.829  1.00  0.00    -0.493 A  
HETATM   17  C   UNL     1     -12.630   9.301  71.913  1.00  0.00    -0.468 A  
HETATM   18  C   UNL     1     -12.601  10.725  71.489  1.00  0.00    -0.395 A  
HETATM   19  C   UNL     1     -13.570  15.246  72.547  1.00  0.00    -0.613 A  
BRANCH   9  20
HETATM   20  C   UNL     1     -11.522  12.753  68.415  1.00  0.00    -0.311 A  
HETATM   21  C   UNL     1      -9.729  13.490  66.906  1.00  0.00    -0.261 A  
HETATM   22  C   UNL     1     -11.953  13.166  66.040  1.00  0.00    -0.488 A  
HETATM   23 CL   UNL     1     -10.080  13.997  64.283  1.00  0.00     0.302 Cl 
HETATM   24  C   UNL     1     -10.167  13.067  68.166  1.00  0.00    -0.239 A  
HETATM   25  C   UNL     1     -10.622  13.518  65.843  1.00  0.00    -0.284 A  
HETATM   26  C   UNL     1     -12.406  12.830  67.324  1.00  0.00     0.218 A  
ENDBRANCH   9  20
BRANCH  13  27
HETATM   27  N   UNL     1     -12.139   6.940  71.584  1.00  0.00    -0.335 NA 
HETATM   28  H   UNL     1     -12.969   6.393  71.356  1.00  0.00     0.000 HD 
BRANCH  27  29
HETATM   29  C   UNL     1     -11.092   6.266  72.268  1.00  0.00    -0.271 A  
HETATM   30  C   UNL     1     -10.608   6.635  73.529  1.00  0.00    -0.334 A  
HETATM   31  C   UNL     1      -9.600   5.894  74.164  1.00  0.00    -0.170 A  
HETATM   32  C   UNL     1      -9.044   4.788  73.527  1.00  0.00    -0.113 A  
HETATM   33  C   UNL     1      -9.454   4.442  72.245  1.00  0.00    -0.183 A  
HETATM   34 CL   UNL     1      -7.847   3.846  74.327  1.00  0.00    -0.081 Cl 
HETATM   35  C   UNL     1     -10.463   5.183  71.617  1.00  0.00    -0.255 A  
ENDBRANCH  27  29
ENDBRANCH  13  27
ENDBRANCH   4   6
ENDBRANCH   2   4
TORSDOF 5
ENDMDL
MODEL       30
REMARK 921   NORMALIZED FREE ENERGY PREDICTED BY IDOCK:   -6.50 KCAL/MOL
REMARK 922        TOTAL FREE ENERGY PREDICTED BY IDOCK:   -9.56 KCAL/MOL
REMARK 923 INTER-LIGAND FREE ENERGY PREDICTED BY IDOCK:   -8.55 KCAL/MOL
REMARK 924 INTRA-LIGAND FREE ENERGY PREDICTED BY IDOCK:   -1.01 KCAL/MOL
REMARK 927      BINDING AFFINITY PREDICTED BY RF-SCORE:    0.00 PKD
ROOT
HETATM    1  C   UNL     1     -10.625  16.863  69.585  1.00  0.00    -0.172 C  
HETATM    2  C   UNL     1     -11.448  15.573  69.587  1.00  0.00    -0.329 C  
HETATM    3  C   UNL     1     -12.604  15.706  70.574  1.00  0.00    -0.423 C  
ENDROOT
BRANCH   2   4
HETATM    4  N   UNL     1     -11.973  15.263  68.239  1.00  0.00    -0.529 NA 
HETATM    5  H   UNL     1     -12.816  15.723  67.895  1.00  0.00     0.000 HD 
BRANCH   4   6
HETATM    6  C   UNL     1     -11.347  14.400  67.498  1.00  0.00    -0.328 A  
HETATM    7  C   UNL     1     -10.999  13.025  67.929  1.00  0.00    -0.264 A  
HETATM    8  C   UNL     1     -10.537  12.024  67.168  1.00  0.00    -0.224 A  
HETATM    9  N   UNL     1     -10.333  10.679  67.583  1.00  0.00    -0.197 NA 
HETATM   10  C   UNL     1      -9.669   9.796  66.647  1.00  0.00    -0.201 A  
HETATM   11  C   UNL     1      -9.394   8.443  66.920  1.00  0.00    -0.221 A  
HETATM   12  C   UNL     1      -9.299  10.285  65.368  1.00  0.00    -0.207 A  
HETATM   13  C   UNL     1     -10.961  14.750  66.077  1.00  0.00    -0.328 A  
HETATM   14  N   UNL     1      -9.566  11.596  64.938  1.00  0.00    -0.196 NA 
HETATM   15  C   UNL     1      -8.719   7.626  66.005  1.00  0.00    -0.178 A  
HETATM   16  C   UNL     1      -8.649   9.448  64.450  1.00  0.00    -0.214 A  
HETATM   17  C   UNL     1     -10.392  13.797  65.326  1.00  0.00    -0.378 A  
HETATM   18  C   UNL     1     -10.142  12.402  65.772  1.00  0.00    -0.253 A  
HETATM   19  C   UNL     1      -8.346   8.128  64.769  1.00  0.00    -0.113 A  
BRANCH   9  20
HETATM   20  C   UNL     1     -10.849  10.239  68.863  1.00  0.00    -0.228 A  
HETATM   21  C   UNL     1     -10.518   9.062  70.994  1.00  0.00    -0.339 A  
HETATM   22  C   UNL     1     -12.687   9.959  70.456  1.00  0.00    -0.130 A  
HETATM   23 CL   UNL     1     -12.462   8.671  72.818  1.00  0.00    -0.284 Cl 
HETATM   24  C   UNL     1     -10.015   9.581  69.795  1.00  0.00    -0.234 A  
HETATM   25  C   UNL     1     -11.849   9.272  71.328  1.00  0.00    -0.343 A  
HETATM   26  C   UNL     1     -12.199  10.400  69.217  1.00  0.00     0.081 A  
ENDBRANCH   9  20
BRANCH  13  27
HETATM   27  N   UNL     1     -11.186  16.070  65.683  1.00  0.00    -0.034 NA 
HETATM   28  H   UNL     1     -12.044  16.257  65.165  1.00  0.00     0.000 HD 
BRANCH  27  29
HETATM   29  C   UNL     1     -10.332  17.177  65.936  1.00  0.00    -0.284 A  
HETATM   30  C   UNL     1     -10.760  18.510  65.979  1.00  0.00    -0.252 A  
HETATM   31  C   UNL     1      -9.867  19.548  66.280  1.00  0.00    -0.513 A  
HETATM   32  C   UNL     1      -8.524  19.265  66.513  1.00  0.00    -0.325 A  
HETATM   33  C   UNL     1      -8.057  17.961  66.406  1.00  0.00    -0.296 A  
HETATM   34 CL   UNL     1      -7.438  20.531  66.936  1.00  0.00    -0.345 Cl 
HETATM   35  C   UNL     1      -8.954  16.926  66.109  1.00  0.00    -0.271 A  
ENDBRANCH  27  29
ENDBRANCH  13  27
ENDBRANCH   4   6
ENDBRANCH   2   4
TORSDOF 5
ENDMDL
MODEL       31
REMARK 921   NORMALIZED FREE ENERGY PREDICTED BY IDOCK:   -6.46 KCAL/MOL
REMARK 922        TOTAL FREE ENERGY PREDICTED BY IDOCK:   -9.51 KCAL/MOL
REMARK 923 INTER-LIGAND FREE ENERGY PREDICTED BY IDOCK:   -8.85 KCAL/MOL
REMARK 924 INTRA-LIGAND FREE ENERGY PREDICTED BY IDOCK:   -0.66 KCAL/MOL
REMARK 927      BINDING AFFINITY PREDICTED BY RF-SCORE:    0.00 PKD
ROOT
HETATM    1  C   UNL     1     -13.726   8.715  71.428  1.00  0.00    -0.296 C  
HETATM    2  C   UNL     1     -12.239   8.506  71.720  1.00  0.00    -0.334 C  
HETATM    3  C   UNL     1     -11.674   7.453  70.771  1.00  0.00    -0.305 C  
ENDROOT
BRANCH   2   4
HETATM    4  N   UNL     1     -11.477   9.767  71.581  1.00  0.00    -0.325 NA 
HETATM    5  H   UNL     1     -11.018  10.184  72.391  1.00  0.00     0.000 HD 
BRANCH   4   6
HETATM    6  C   UNL     1     -11.401  10.336  70.417  1.00  0.00    -0.332 A  
HETATM    7  C   UNL     1     -10.597   9.820  69.283  1.00  0.00    -0.240 A  
HETATM    8  C   UNL     1     -10.621  10.235  68.011  1.00  0.00    -0.231 A  
HETATM    9  N   UNL     1      -9.933   9.636  66.919  1.00  0.00    -0.198 NA 
HETATM   10  C   UNL     1      -9.964  10.343  65.656  1.00  0.00    -0.272 A  
HETATM   11  C   UNL     1      -9.324   9.877  64.491  1.00  0.00    -0.336 A  
HETATM   12  C   UNL     1     -10.699  11.551  65.549  1.00  0.00    -0.272 A  
HETATM   13  C   UNL     1     -12.198  11.590  70.126  1.00  0.00    -0.308 A  
HETATM   14  N   UNL     1     -11.434  12.101  66.613  1.00  0.00    -0.383 NA 
HETATM   15  C   UNL     1      -9.345  10.604  63.295  1.00  0.00    -0.329 A  
HETATM   16  C   UNL     1     -10.735  12.254  64.337  1.00  0.00    -0.369 A  
HETATM   17  C   UNL     1     -12.152  12.092  68.885  1.00  0.00    -0.187 A  
HETATM   18  C   UNL     1     -11.400  11.490  67.754  1.00  0.00    -0.296 A  
HETATM   19  C   UNL     1     -10.051  11.793  63.216  1.00  0.00    -0.448 A  
BRANCH   9  20
HETATM   20  C   UNL     1      -9.306   8.342  67.091  1.00  0.00    -0.151 A  
HETATM   21  C   UNL     1      -9.493   5.899  67.261  1.00  0.00    -0.117 A  
HETATM   22  C   UNL     1      -7.350   6.951  67.577  1.00  0.00    -0.096 A  
HETATM   23 CL   UNL     1      -7.424   4.263  67.810  1.00  0.00    -0.068 Cl 
HETATM   24  C   UNL     1     -10.060   7.151  67.000  1.00  0.00    -0.308 A  
HETATM   25  C   UNL     1      -8.134   5.803  67.529  1.00  0.00    -0.102 A  
HETATM   26  C   UNL     1      -7.941   8.211  67.403  1.00  0.00    -0.117 A  
ENDBRANCH   9  20
BRANCH  13  27
HETATM   27  N   UNL     1     -12.881  12.152  71.206  1.00  0.00    -0.320 NA 
HETATM   28  H   UNL     1     -13.594  11.575  71.651  1.00  0.00     0.000 HD 
BRANCH  27  29
HETATM   29  C   UNL     1     -12.677  13.451  71.743  1.00  0.00    -0.223 A  
HETATM   30  C   UNL     1     -13.436  14.004  72.781  1.00  0.00    -0.576 A  
HETATM   31  C   UNL     1     -13.147  15.278  73.291  1.00  0.00    -0.630 A  
HETATM   32  C   UNL     1     -12.109  16.028  72.744  1.00  0.00    -0.531 A  
HETATM   33  C   UNL     1     -11.386  15.533  71.665  1.00  0.00    -0.462 A  
HETATM   34 CL   UNL     1     -11.718  17.567  73.404  1.00  0.00     0.468 Cl 
HETATM   35  C   UNL     1     -11.676  14.259  71.162  1.00  0.00    -0.154 A  
ENDBRANCH  27  29
ENDBRANCH  13  27
ENDBRANCH   4   6
ENDBRANCH   2   4
TORSDOF 5
ENDMDL
MODEL       32
REMARK 921   NORMALIZED FREE ENERGY PREDICTED BY IDOCK:   -6.42 KCAL/MOL
REMARK 922        TOTAL FREE ENERGY PREDICTED BY IDOCK:   -9.45 KCAL/MOL
REMARK 923 INTER-LIGAND FREE ENERGY PREDICTED BY IDOCK:   -8.20 KCAL/MOL
REMARK 924 INTRA-LIGAND FREE ENERGY PREDICTED BY IDOCK:   -1.26 KCAL/MOL
REMARK 927      BINDING AFFINITY PREDICTED BY RF-SCORE:    0.00 PKD
ROOT
HETATM    1  C   UNL     1      -7.964   5.882  70.798  1.00  0.00    -0.114 C  
HETATM    2  C   UNL     1      -8.337   6.893  69.711  1.00  0.00    -0.132 C  
HETATM    3  C   UNL     1      -9.592   6.420  68.983  1.00  0.00    -0.136 C  
ENDROOT
BRANCH   2   4
HETATM    4  N   UNL     1      -8.564   8.240  70.279  1.00  0.00    -0.125 NA 
HETATM    5  H   UNL     1      -8.164   8.493  71.183  1.00  0.00     0.000 HD 
BRANCH   4   6
HETATM    6  C   UNL     1      -9.279   9.096  69.614  1.00  0.00    -0.168 A  
HETATM    7  C   UNL     1      -8.999   9.517  68.221  1.00  0.00    -0.124 A  
HETATM    8  C   UNL     1      -9.788  10.234  67.411  1.00  0.00    -0.179 A  
HETATM    9  N   UNL     1      -9.550  10.514  66.037  1.00  0.00    -0.184 NA 
HETATM   10  C   UNL     1     -10.448  11.447  65.391  1.00  0.00    -0.280 A  
HETATM   11  C   UNL     1     -10.333  11.825  64.040  1.00  0.00    -0.401 A  
HETATM   12  C   UNL     1     -11.530  11.997  66.125  1.00  0.00    -0.339 A  
HETATM   13  C   UNL     1     -10.516   9.706  70.238  1.00  0.00    -0.283 A  
HETATM   14  N   UNL     1     -11.802  11.664  67.462  1.00  0.00    -0.624 NA 
HETATM   15  C   UNL     1     -11.198  12.758  63.456  1.00  0.00    -0.429 A  
HETATM   16  C   UNL     1     -12.407  12.909  65.520  1.00  0.00    -0.517 A  
HETATM   17  C   UNL     1     -11.267  10.519  69.483  1.00  0.00    -0.329 A  
HETATM   18  C   UNL     1     -10.995  10.844  68.059  1.00  0.00    -0.265 A  
HETATM   19  C   UNL     1     -12.237  13.300  64.196  1.00  0.00    -0.465 A  
BRANCH   9  20
HETATM   20  C   UNL     1      -8.490   9.816  65.339  1.00  0.00    -0.145 A  
HETATM   21  C   UNL     1      -7.671   7.809  64.185  1.00  0.00    -0.125 A  
HETATM   22  C   UNL     1      -6.175   9.658  64.559  1.00  0.00    -0.090 A  
HETATM   23 CL   UNL     1      -5.144   7.504  63.299  1.00  0.00    -0.033 Cl 
HETATM   24  C   UNL     1      -8.708   8.539  64.776  1.00  0.00    -0.055 A  
HETATM   25  C   UNL     1      -6.412   8.381  64.061  1.00  0.00    -0.071 A  
HETATM   26  C   UNL     1      -7.194  10.350  65.230  1.00  0.00    -0.106 A  
ENDBRANCH   9  20
BRANCH  13  27
HETATM   27  N   UNL     1     -10.743   9.405  71.582  1.00  0.00    -0.321 NA 
HETATM   28  H   UNL     1     -10.807  10.192  72.227  1.00  0.00     0.000 HD 
BRANCH  27  29
HETATM   29  C   UNL     1     -10.892   8.105  72.136  1.00  0.00    -0.303 A  
HETATM   30  C   UNL     1     -11.789   7.142  71.658  1.00  0.00    -0.340 A  
HETATM   31  C   UNL     1     -11.849   5.862  72.228  1.00  0.00    -0.266 A  
HETATM   32  C   UNL     1     -11.029   5.540  73.306  1.00  0.00    -0.292 A  
HETATM   33  C   UNL     1     -10.181   6.499  73.847  1.00  0.00    -0.353 A  
HETATM   34 CL   UNL     1     -11.063   3.954  73.970  1.00  0.00    -0.228 Cl 
HETATM   35  C   UNL     1     -10.122   7.776  73.272  1.00  0.00    -0.374 A  
ENDBRANCH  27  29
ENDBRANCH  13  27
ENDBRANCH   4   6
ENDBRANCH   2   4
TORSDOF 5
ENDMDL
MODEL       33
REMARK 921   NORMALIZED FREE ENERGY PREDICTED BY IDOCK:   -6.42 KCAL/MOL
REMARK 922        TOTAL FREE ENERGY PREDICTED BY IDOCK:   -9.45 KCAL/MOL
REMARK 923 INTER-LIGAND FREE ENERGY PREDICTED BY IDOCK:   -9.37 KCAL/MOL
REMARK 924 INTRA-LIGAND FREE ENERGY PREDICTED BY IDOCK:   -0.09 KCAL/MOL
REMARK 927      BINDING AFFINITY PREDICTED BY RF-SCORE:    0.00 PKD
ROOT
HETATM    1  C   UNL     1     -11.200   7.958  71.265  1.00  0.00    -0.283 C  
HETATM    2  C   UNL     1     -10.351   7.033  70.390  1.00  0.00    -0.202 C  
HETATM    3  C   UNL     1     -11.250   6.302  69.398  1.00  0.00    -0.489 C  
ENDROOT
BRANCH   2   4
HETATM    4  N   UNL     1      -9.306   7.785  69.661  1.00  0.00    -0.153 NA 
HETATM    5  H   UNL     1      -8.347   7.805  70.008  1.00  0.00     0.000 HD 
BRANCH   4   6
HETATM    6  C   UNL     1      -9.624   8.421  68.575  1.00  0.00    -0.149 A  
HETATM    7  C   UNL     1     -10.480   9.631  68.533  1.00  0.00    -0.241 A  
HETATM    8  C   UNL     1     -10.690  10.446  67.491  1.00  0.00    -0.287 A  
HETATM    9  N   UNL     1     -11.414  11.670  67.515  1.00  0.00    -0.432 NA 
HETATM   10  C   UNL     1     -11.662  12.312  66.242  1.00  0.00    -0.366 A  
HETATM   11  C   UNL     1     -12.368  13.522  66.108  1.00  0.00    -0.463 A  
HETATM   12  C   UNL     1     -11.146  11.731  65.055  1.00  0.00    -0.284 A  
HETATM   13  C   UNL     1      -9.079   7.968  67.237  1.00  0.00    -0.135 A  
HETATM   14  N   UNL     1     -10.372  10.559  65.045  1.00  0.00    -0.295 NA 
HETATM   15  C   UNL     1     -12.620  14.098  64.857  1.00  0.00    -0.362 A  
HETATM   16  C   UNL     1     -11.381  12.334  63.811  1.00  0.00    -0.534 A  
HETATM   17  C   UNL     1      -9.367   8.706  66.157  1.00  0.00    -0.291 A  
HETATM   18  C   UNL     1     -10.158   9.963  66.175  1.00  0.00    -0.245 A  
HETATM   19  C   UNL     1     -12.126  13.504  63.707  1.00  0.00    -0.482 A  
BRANCH   9  20
HETATM   20  C   UNL     1     -11.802  12.247  68.786  1.00  0.00    -0.306 A  
HETATM   21  C   UNL     1     -12.769  11.987  71.029  1.00  0.00    -0.337 A  
HETATM   22  C   UNL     1     -12.138  14.178  70.254  1.00  0.00    -0.412 A  
HETATM   23 CL   UNL     1     -13.208  14.031  72.728  1.00  0.00    -0.603 Cl 
HETATM   24  C   UNL     1     -12.298  11.437  69.831  1.00  0.00    -0.280 A  
HETATM   25  C   UNL     1     -12.668  13.355  71.242  1.00  0.00    -0.338 A  
HETATM   26  C   UNL     1     -11.749  13.632  69.022  1.00  0.00    -0.375 A  
ENDBRANCH   9  20
BRANCH  13  27
HETATM   27  N   UNL     1      -8.356   6.774  67.238  1.00  0.00    -0.120 NA 
HETATM   28  H   UNL     1      -7.532   6.734  67.837  1.00  0.00     0.000 HD 
BRANCH  27  29
HETATM   29  C   UNL     1      -8.659   5.610  66.482  1.00  0.00    -0.119 A  
HETATM   30  C   UNL     1      -9.948   5.254  66.066  1.00  0.00    -0.152 A  
HETATM   31  C   UNL     1     -10.166   4.111  65.282  1.00  0.00    -0.204 A  
HETATM   32  C   UNL     1      -9.095   3.294  64.930  1.00  0.00    -0.141 A  
HETATM   33  C   UNL     1      -7.816   3.584  65.390  1.00  0.00    -0.086 A  
HETATM   34 CL   UNL     1      -9.353   1.923  63.923  1.00  0.00    -0.110 Cl 
HETATM   35  C   UNL     1      -7.603   4.728  66.169  1.00  0.00    -0.090 A  
ENDBRANCH  27  29
ENDBRANCH  13  27
ENDBRANCH   4   6
ENDBRANCH   2   4
TORSDOF 5
ENDMDL
MODEL       34
REMARK 921   NORMALIZED FREE ENERGY PREDICTED BY IDOCK:   -6.35 KCAL/MOL
REMARK 922        TOTAL FREE ENERGY PREDICTED BY IDOCK:   -9.36 KCAL/MOL
REMARK 923 INTER-LIGAND FREE ENERGY PREDICTED BY IDOCK:   -8.68 KCAL/MOL
REMARK 924 INTRA-LIGAND FREE ENERGY PREDICTED BY IDOCK:   -0.69 KCAL/MOL
REMARK 927      BINDING AFFINITY PREDICTED BY RF-SCORE:    0.00 PKD
ROOT
HETATM    1  C   UNL     1     -10.878   6.501  66.990  1.00  0.00    -0.465 C  
HETATM    2  C   UNL     1      -9.696   7.467  66.887  1.00  0.00    -0.205 C  
HETATM    3  C   UNL     1      -8.492   6.740  66.297  1.00  0.00    -0.131 C  
ENDROOT
BRANCH   2   4
HETATM    4  N   UNL     1     -10.030   8.644  66.055  1.00  0.00    -0.460 NA 
HETATM    5  H   UNL     1      -9.887   8.618  65.045  1.00  0.00     0.000 HD 
BRANCH   4   6
HETATM    6  C   UNL     1     -10.505   9.709  66.624  1.00  0.00    -0.163 A  
HETATM    7  C   UNL     1     -11.091   9.740  67.986  1.00  0.00    -0.168 A  
HETATM    8  C   UNL     1     -11.418  10.819  68.709  1.00  0.00    -0.295 A  
HETATM    9  N   UNL     1     -11.858  10.821  70.062  1.00  0.00    -0.313 NA 
HETATM   10  C   UNL     1     -12.317  12.084  70.601  1.00  0.00    -0.304 A  
HETATM   11  C   UNL     1     -12.787  12.239  71.918  1.00  0.00    -0.318 A  
HETATM   12  C   UNL     1     -12.269  13.248  69.791  1.00  0.00    -0.222 A  
HETATM   13  C   UNL     1     -10.446  11.045  65.915  1.00  0.00    -0.240 A  
HETATM   14  N   UNL     1     -11.768  13.252  68.479  1.00  0.00    -0.332 NA 
HETATM   15  C   UNL     1     -13.257  13.468  72.397  1.00  0.00    -0.577 A  
HETATM   16  C   UNL     1     -12.716  14.478  70.292  1.00  0.00    -0.325 A  
HETATM   17  C   UNL     1     -10.872  12.130  66.577  1.00  0.00    -0.307 A  
HETATM   18  C   UNL     1     -11.371  12.126  67.977  1.00  0.00    -0.295 A  
HETATM   19  C   UNL     1     -13.222  14.589  71.584  1.00  0.00    -0.424 A  
BRANCH   9  20
HETATM   20  C   UNL     1     -11.763   9.608  70.847  1.00  0.00    -0.334 A  
HETATM   21  C   UNL     1     -10.402   7.984  72.088  1.00  0.00    -0.318 A  
HETATM   22  C   UNL     1     -12.759   7.584  71.799  1.00  0.00    -0.360 A  
HETATM   23 CL   UNL     1     -11.372   5.712  73.163  1.00  0.00    -0.280 Cl 
HETATM   24  C   UNL     1     -10.534   9.201  71.411  1.00  0.00    -0.414 A  
HETATM   25  C   UNL     1     -11.521   7.189  72.296  1.00  0.00    -0.271 A  
HETATM   26  C   UNL     1     -12.868   8.761  71.044  1.00  0.00    -0.031 A  
ENDBRANCH   9  20
BRANCH  13  27
HETATM   27  N   UNL     1      -9.994  11.024  64.595  1.00  0.00    -0.275 NA 
HETATM   28  H   UNL     1     -10.558  11.521  63.906  1.00  0.00     0.000 HD 
BRANCH  27  29
HETATM   29  C   UNL     1      -8.823  10.375  64.120  1.00  0.00    -0.214 A  
HETATM   30  C   UNL     1      -7.560  10.493  64.714  1.00  0.00     0.016 A  
HETATM   31  C   UNL     1      -6.456   9.786  64.216  1.00  0.00    -0.118 A  
HETATM   32  C   UNL     1      -6.599   8.972  63.096  1.00  0.00    -0.090 A  
HETATM   33  C   UNL     1      -7.823   8.893  62.443  1.00  0.00    -0.127 A  
HETATM   34 CL   UNL     1      -5.259   8.062  62.517  1.00  0.00    -0.058 Cl 
HETATM   35  C   UNL     1      -8.923   9.599  62.947  1.00  0.00    -0.260 A  
ENDBRANCH  27  29
ENDBRANCH  13  27
ENDBRANCH   4   6
ENDBRANCH   2   4
TORSDOF 5
ENDMDL
MODEL       35
REMARK 921   NORMALIZED FREE ENERGY PREDICTED BY IDOCK:   -6.26 KCAL/MOL
REMARK 922        TOTAL FREE ENERGY PREDICTED BY IDOCK:   -9.25 KCAL/MOL
REMARK 923 INTER-LIGAND FREE ENERGY PREDICTED BY IDOCK:   -7.90 KCAL/MOL
REMARK 924 INTRA-LIGAND FREE ENERGY PREDICTED BY IDOCK:   -1.35 KCAL/MOL
REMARK 927      BINDING AFFINITY PREDICTED BY RF-SCORE:    0.00 PKD
ROOT
HETATM    1  C   UNL     1     -11.798  14.655  71.539  1.00  0.00    -0.347 C  
HETATM    2  C   UNL     1     -11.984  13.302  70.849  1.00  0.00    -0.000 C  
HETATM    3  C   UNL     1     -13.145  12.554  71.498  1.00  0.00    -0.373 C  
ENDROOT
BRANCH   2   4
HETATM    4  N   UNL     1     -12.236  13.462  69.400  1.00  0.00    -0.253 NA 
HETATM    5  H   UNL     1     -12.941  14.121  69.069  1.00  0.00     0.000 HD 
BRANCH   4   6
HETATM    6  C   UNL     1     -11.550  12.754  68.555  1.00  0.00    -0.321 A  
HETATM    7  C   UNL     1     -10.885  11.471  68.884  1.00  0.00    -0.263 A  
HETATM    8  C   UNL     1     -10.334  10.597  68.033  1.00  0.00    -0.178 A  
HETATM    9  N   UNL     1      -9.817   9.313  68.364  1.00  0.00    -0.151 NA 
HETATM   10  C   UNL     1      -9.115   8.598  67.320  1.00  0.00    -0.133 A  
HETATM   11  C   UNL     1      -8.545   7.324  67.501  1.00  0.00    -0.122 A  
HETATM   12  C   UNL     1      -9.012   9.173  66.027  1.00  0.00    -0.181 A  
HETATM   13  C   UNL     1     -11.422  13.199  67.114  1.00  0.00    -0.334 A  
HETATM   14  N   UNL     1      -9.585  10.409  65.687  1.00  0.00    -0.209 NA 
HETATM   15  C   UNL     1      -7.842   6.675  66.479  1.00  0.00    -0.104 A  
HETATM   16  C   UNL     1      -8.330   8.499  65.004  1.00  0.00    -0.175 A  
HETATM   17  C   UNL     1     -10.776  12.392  66.261  1.00  0.00    -0.287 A  
HETATM   18  C   UNL     1     -10.200  11.069  66.616  1.00  0.00    -0.235 A  
HETATM   19  C   UNL     1      -7.734   7.262  65.229  1.00  0.00    -0.114 A  
BRANCH   9  20
HETATM   20  C   UNL     1     -10.071   8.757  69.678  1.00  0.00    -0.204 A  
HETATM   21  C   UNL     1      -9.410   8.476  72.027  1.00  0.00    -0.353 A  
HETATM   22  C   UNL     1     -11.340   7.305  71.186  1.00  0.00    -0.294 A  
HETATM   23 CL   UNL     1     -10.709   6.894  73.779  1.00  0.00    -0.330 Cl 
HETATM   24  C   UNL     1      -9.242   9.079  70.775  1.00  0.00    -0.299 A  
HETATM   25  C   UNL     1     -10.473   7.606  72.232  1.00  0.00    -0.237 A  
HETATM   26  C   UNL     1     -11.113   7.843  69.911  1.00  0.00    -0.123 A  
ENDBRANCH   9  20
BRANCH  13  27
HETATM   27  N   UNL     1     -11.952  14.453  66.805  1.00  0.00    -0.417 NA 
HETATM   28  H   UNL     1     -12.939  14.487  66.553  1.00  0.00     0.000 HD 
BRANCH  27  29
HETATM   29  C   UNL     1     -11.245  15.685  66.808  1.00  0.00    -0.083 A  
HETATM   30  C   UNL     1     -10.480  16.158  65.735  1.00  0.00    -0.384 A  
HETATM   31  C   UNL     1      -9.846  17.408  65.793  1.00  0.00    -0.028 A  
HETATM   32  C   UNL     1      -9.946  18.187  66.942  1.00  0.00    -0.342 A  
HETATM   33  C   UNL     1     -10.638  17.710  68.049  1.00  0.00    -0.379 A  
HETATM   34 CL   UNL     1      -9.214  19.743  66.994  1.00  0.00    -0.417 Cl 
HETATM   35  C   UNL     1     -11.273  16.463  67.985  1.00  0.00    -0.235 A  
ENDBRANCH  27  29
ENDBRANCH  13  27
ENDBRANCH   4   6
ENDBRANCH   2   4
TORSDOF 5
ENDMDL
MODEL       36
REMARK 921   NORMALIZED FREE ENERGY PREDICTED BY IDOCK:   -6.23 KCAL/MOL
REMARK 922        TOTAL FREE ENERGY PREDICTED BY IDOCK:   -9.21 KCAL/MOL
REMARK 923 INTER-LIGAND FREE ENERGY PREDICTED BY IDOCK:   -7.69 KCAL/MOL
REMARK 924 INTRA-LIGAND FREE ENERGY PREDICTED BY IDOCK:   -1.52 KCAL/MOL
REMARK 927      BINDING AFFINITY PREDICTED BY RF-SCORE:    0.00 PKD
ROOT
HETATM    1  C   UNL     1     -12.691  13.737  65.515  1.00  0.00    -0.530 C  
HETATM    2  C   UNL     1     -12.079  12.425  65.017  1.00  0.00    -0.407 C  
HETATM    3  C   UNL     1     -12.743  12.017  63.706  1.00  0.00    -0.516 C  
ENDROOT
BRANCH   2   4
HETATM    4  N   UNL     1     -10.617  12.549  64.822  1.00  0.00    -0.292 NA 
HETATM    5  H   UNL     1     -10.235  12.748  63.897  1.00  0.00     0.000 HD 
BRANCH   4   6
HETATM    6  C   UNL     1      -9.827  12.402  65.842  1.00  0.00    -0.252 A  
HETATM    7  C   UNL     1      -9.586  11.114  66.535  1.00  0.00    -0.222 A  
HETATM    8  C   UNL     1      -8.651  10.845  67.455  1.00  0.00    -0.127 A  
HETATM    9  N   UNL     1      -8.360   9.568  68.009  1.00  0.00    -0.118 NA 
HETATM   10  C   UNL     1      -7.422   9.527  69.110  1.00  0.00    -0.074 A  
HETATM   11  C   UNL     1      -7.043   8.339  69.762  1.00  0.00    -0.056 A  
HETATM   12  C   UNL     1      -6.812  10.729  69.552  1.00  0.00    -0.116 A  
HETATM   13  C   UNL     1      -9.041  13.581  66.375  1.00  0.00    -0.044 A  
HETATM   14  N   UNL     1      -7.050  11.978  68.956  1.00  0.00    -0.101 NA 
HETATM   15  C   UNL     1      -6.159   8.339  70.848  1.00  0.00    -0.033 A  
HETATM   16  C   UNL     1      -5.906  10.712  70.623  1.00  0.00    -0.112 A  
HETATM   17  C   UNL     1      -8.176  13.361  67.375  1.00  0.00    -0.188 A  
HETATM   18  C   UNL     1      -7.902  12.032  67.981  1.00  0.00    -0.145 A  
HETATM   19  C   UNL     1      -5.589   9.527  71.279  1.00  0.00    -0.071 A  
BRANCH   9  20
HETATM   20  C   UNL     1      -8.944   8.381  67.416  1.00  0.00    -0.134 A  
HETATM   21  C   UNL     1     -10.756   6.726  67.327  1.00  0.00    -0.423 A  
HETATM   22  C   UNL     1      -8.831   6.459  65.905  1.00  0.00    -0.142 A  
HETATM   23 CL   UNL     1     -10.741   4.560  65.725  1.00  0.00    -0.262 Cl 
HETATM   24  C   UNL     1     -10.219   7.923  67.815  1.00  0.00    -0.276 A  
HETATM   25  C   UNL     1     -10.067   6.009  66.358  1.00  0.00    -0.086 A  
HETATM   26  C   UNL     1      -8.257   7.611  66.462  1.00  0.00    -0.125 A  
ENDBRANCH   9  20
BRANCH  13  27
HETATM   27  N   UNL     1      -9.328  14.823  65.806  1.00  0.00    -0.514 NA 
HETATM   28  H   UNL     1      -9.443  14.850  64.794  1.00  0.00     0.000 HD 
BRANCH  27  29
HETATM   29  C   UNL     1      -9.473  16.051  66.505  1.00  0.00    -0.271 A  
HETATM   30  C   UNL     1      -8.572  17.119  66.418  1.00  0.00    -0.300 A  
HETATM   31  C   UNL     1      -8.805  18.321  67.103  1.00  0.00    -0.260 A  
HETATM   32  C   UNL     1      -9.933  18.456  67.908  1.00  0.00    -0.350 A  
HETATM   33  C   UNL     1     -10.806  17.387  68.070  1.00  0.00    -0.281 A  
HETATM   34 CL   UNL     1     -10.248  19.947  68.705  1.00  0.00    -0.552 Cl 
HETATM   35  C   UNL     1     -10.571  16.190  67.381  1.00  0.00    -0.311 A  
ENDBRANCH  27  29
ENDBRANCH  13  27
ENDBRANCH   4   6
ENDBRANCH   2   4
TORSDOF 5
ENDMDL
MODEL       37
REMARK 921   NORMALIZED FREE ENERGY PREDICTED BY IDOCK:   -6.13 KCAL/MOL
REMARK 922        TOTAL FREE ENERGY PREDICTED BY IDOCK:   -9.09 KCAL/MOL
REMARK 923 INTER-LIGAND FREE ENERGY PREDICTED BY IDOCK:   -8.02 KCAL/MOL
REMARK 924 INTRA-LIGAND FREE ENERGY PREDICTED BY IDOCK:   -1.07 KCAL/MOL
REMARK 927      BINDING AFFINITY PREDICTED BY RF-SCORE:    0.00 PKD
ROOT
HETATM    1  C   UNL     1      -6.300   9.701  67.074  1.00  0.00    -0.065 C  
HETATM    2  C   UNL     1      -6.501  10.877  66.116  1.00  0.00    -0.114 C  
HETATM    3  C   UNL     1      -5.631  10.681  64.878  1.00  0.00    -0.104 C  
ENDROOT
BRANCH   2   4
HETATM    4  N   UNL     1      -7.919  11.013  65.717  1.00  0.00    -0.340 NA 
HETATM    5  H   UNL     1      -8.184  10.983  64.731  1.00  0.00     0.000 HD 
BRANCH   4   6
HETATM    6  C   UNL     1      -8.824  11.172  66.634  1.00  0.00    -0.166 A  
HETATM    7  C   UNL     1      -9.425  10.066  67.418  1.00  0.00    -0.176 A  
HETATM    8  C   UNL     1     -10.207  10.164  68.500  1.00  0.00    -0.174 A  
HETATM    9  N   UNL     1     -10.663   9.085  69.307  1.00  0.00    -0.210 NA 
HETATM   10  C   UNL     1     -11.635   9.398  70.334  1.00  0.00    -0.192 A  
HETATM   11  C   UNL     1     -12.182   8.435  71.203  1.00  0.00    -0.248 A  
HETATM   12  C   UNL     1     -12.049  10.742  70.518  1.00  0.00    -0.366 A  
HETATM   13  C   UNL     1      -9.305  12.559  67.001  1.00  0.00    -0.210 A  
HETATM   14  N   UNL     1     -11.541  11.814  69.763  1.00  0.00    -0.306 NA 
HETATM   15  C   UNL     1     -13.146   8.766  72.162  1.00  0.00    -0.451 A  
HETATM   16  C   UNL     1     -12.995  11.065  71.501  1.00  0.00    -0.553 A  
HETATM   17  C   UNL     1     -10.176  12.678  68.012  1.00  0.00    -0.230 A  
HETATM   18  C   UNL     1     -10.685  11.546  68.829  1.00  0.00    -0.211 A  
HETATM   19  C   UNL     1     -13.553  10.082  72.312  1.00  0.00    -0.282 A  
BRANCH   9  20
HETATM   20  C   UNL     1     -10.099   7.764  69.122  1.00  0.00    -0.196 A  
HETATM   21  C   UNL     1     -10.292   5.476  68.250  1.00  0.00    -0.237 A  
HETATM   22  C   UNL     1      -8.360   6.094  69.547  1.00  0.00    -0.120 A  
HETATM   23 CL   UNL     1      -8.460   3.544  68.666  1.00  0.00    -0.094 Cl 
HETATM   24  C   UNL     1     -10.773   6.786  68.358  1.00  0.00    -0.284 A  
HETATM   25  C   UNL     1      -9.076   5.142  68.829  1.00  0.00    -0.114 A  
HETATM   26  C   UNL     1      -8.889   7.380  69.727  1.00  0.00    -0.141 A  
ENDBRANCH   9  20
BRANCH  13  27
HETATM   27  N   UNL     1      -8.831  13.607  66.209  1.00  0.00    -0.433 NA 
HETATM   28  H   UNL     1      -8.289  13.352  65.384  1.00  0.00     0.000 HD 
BRANCH  27  29
HETATM   29  C   UNL     1      -9.032  14.993  66.445  1.00  0.00    -0.251 A  
HETATM   30  C   UNL     1     -10.144  15.716  65.996  1.00  0.00    -0.355 A  
HETATM   31  C   UNL     1     -10.297  17.076  66.306  1.00  0.00    -0.309 A  
HETATM   32  C   UNL     1      -9.320  17.735  67.047  1.00  0.00    -0.259 A  
HETATM   33  C   UNL     1      -8.172  17.060  67.444  1.00  0.00    -0.199 A  
HETATM   34 CL   UNL     1      -9.533  19.388  67.475  1.00  0.00    -0.373 Cl 
HETATM   35  C   UNL     1      -8.025  15.702  67.134  1.00  0.00    -0.254 A  
ENDBRANCH  27  29
ENDBRANCH  13  27
ENDBRANCH   4   6
ENDBRANCH   2   4
TORSDOF 5
ENDMDL
MODEL       38
REMARK 921   NORMALIZED FREE ENERGY PREDICTED BY IDOCK:   -6.04 KCAL/MOL
REMARK 922        TOTAL FREE ENERGY PREDICTED BY IDOCK:   -8.97 KCAL/MOL
REMARK 923 INTER-LIGAND FREE ENERGY PREDICTED BY IDOCK:   -8.52 KCAL/MOL
REMARK 924 INTRA-LIGAND FREE ENERGY PREDICTED BY IDOCK:   -0.44 KCAL/MOL
REMARK 927      BINDING AFFINITY PREDICTED BY RF-SCORE:    0.00 PKD
ROOT
HETATM    1  C   UNL     1     -12.486   7.026  71.229  1.00  0.00    -0.430 C  
HETATM    2  C   UNL     1     -11.081   6.797  70.667  1.00  0.00    -0.291 C  
HETATM    3  C   UNL     1     -11.182   6.196  69.268  1.00  0.00    -0.438 C  
ENDROOT
BRANCH   2   4
HETATM    4  N   UNL     1     -10.306   8.056  70.618  1.00  0.00    -0.200 NA 
HETATM    5  H   UNL     1      -9.781   8.372  71.434  1.00  0.00     0.000 HD 
BRANCH   4   6
HETATM    6  C   UNL     1     -10.300   8.754  69.523  1.00  0.00    -0.213 A  
HETATM    7  C   UNL     1      -9.492   8.426  68.324  1.00  0.00    -0.147 A  
HETATM    8  C   UNL     1      -9.579   8.976  67.107  1.00  0.00    -0.167 A  
HETATM    9  N   UNL     1      -8.880   8.553  65.942  1.00  0.00    -0.173 NA 
HETATM   10  C   UNL     1      -8.994   9.391  64.767  1.00  0.00    -0.194 A  
HETATM   11  C   UNL     1      -8.354   9.104  63.546  1.00  0.00    -0.188 A  
HETATM   12  C   UNL     1      -9.814  10.547  64.810  1.00  0.00    -0.323 A  
HETATM   13  C   UNL     1     -11.190   9.972  69.390  1.00  0.00    -0.188 A  
HETATM   14  N   UNL     1     -10.557  10.922  65.942  1.00  0.00    -0.216 NA 
HETATM   15  C   UNL     1      -8.458   9.955  62.439  1.00  0.00    -0.175 A  
HETATM   16  C   UNL     1      -9.931  11.376  63.685  1.00  0.00    -0.402 A  
HETATM   17  C   UNL     1     -11.212  10.610  68.212  1.00  0.00    -0.362 A  
HETATM   18  C   UNL     1     -10.451  10.192  67.007  1.00  0.00    -0.240 A  
HETATM   19  C   UNL     1      -9.247  11.092  62.508  1.00  0.00    -0.337 A  
BRANCH   9  20
HETATM   20  C   UNL     1      -8.160   7.296  65.957  1.00  0.00    -0.121 A  
HETATM   21  C   UNL     1      -6.037   6.068  66.091  1.00  0.00    -0.032 A  
HETATM   22  C   UNL     1      -8.088   4.861  65.722  1.00  0.00    -0.112 A  
HETATM   23 CL   UNL     1      -5.823   3.395  65.827  1.00  0.00    -0.018 Cl 
HETATM   24  C   UNL     1      -6.764   7.261  66.171  1.00  0.00    -0.053 A  
HETATM   25  C   UNL     1      -6.706   4.869  65.886  1.00  0.00    -0.053 A  
HETATM   26  C   UNL     1      -8.800   6.069  65.714  1.00  0.00    -0.143 A  
ENDBRANCH   9  20
BRANCH  13  27
HETATM   27  N   UNL     1     -11.882  10.360  70.538  1.00  0.00    -0.310 NA 
HETATM   28  H   UNL     1     -12.105   9.628  71.212  1.00  0.00     0.000 HD 
BRANCH  27  29
HETATM   29  C   UNL     1     -12.305  11.678  70.856  1.00  0.00    -0.336 A  
HETATM   30  C   UNL     1     -11.851  12.831  70.205  1.00  0.00    -0.326 A  
HETATM   31  C   UNL     1     -12.348  14.098  70.543  1.00  0.00    -0.434 A  
HETATM   32  C   UNL     1     -13.289  14.227  71.562  1.00  0.00    -0.354 A  
HETATM   33  C   UNL     1     -13.703  13.108  72.274  1.00  0.00    -0.647 A  
HETATM   34 CL   UNL     1     -13.940  15.774  71.941  1.00  0.00    -0.434 Cl 
HETATM   35  C   UNL     1     -13.206  11.845  71.930  1.00  0.00    -0.467 A  
ENDBRANCH  27  29
ENDBRANCH  13  27
ENDBRANCH   4   6
ENDBRANCH   2   4
TORSDOF 5
ENDMDL
MODEL       39
REMARK 921   NORMALIZED FREE ENERGY PREDICTED BY IDOCK:   -5.96 KCAL/MOL
REMARK 922        TOTAL FREE ENERGY PREDICTED BY IDOCK:   -8.86 KCAL/MOL
REMARK 923 INTER-LIGAND FREE ENERGY PREDICTED BY IDOCK:   -7.81 KCAL/MOL
REMARK 924 INTRA-LIGAND FREE ENERGY PREDICTED BY IDOCK:   -1.05 KCAL/MOL
REMARK 927      BINDING AFFINITY PREDICTED BY RF-SCORE:    0.00 PKD
ROOT
HETATM    1  C   UNL     1      -7.080  10.018  65.589  1.00  0.00    -0.119 C  
HETATM    2  C   UNL     1      -7.779   9.582  64.299  1.00  0.00    -0.124 C  
HETATM    3  C   UNL     1      -7.125   8.310  63.769  1.00  0.00    -0.081 C  
ENDROOT
BRANCH   2   4
HETATM    4  N   UNL     1      -9.223   9.350  64.518  1.00  0.00    -0.430 NA 
HETATM    5  H   UNL     1      -9.835   9.127  63.732  1.00  0.00     0.000 HD 
BRANCH   4   6
HETATM    6  C   UNL     1      -9.704   9.434  65.721  1.00  0.00    -0.284 A  
HETATM    7  C   UNL     1     -10.080  10.705  66.386  1.00  0.00    -0.279 A  
HETATM    8  C   UNL     1     -10.756  10.857  67.532  1.00  0.00    -0.252 A  
HETATM    9  N   UNL     1     -11.214  12.087  68.079  1.00  0.00    -0.238 NA 
HETATM   10  C   UNL     1     -11.779  12.044  69.412  1.00  0.00    -0.340 A  
HETATM   11  C   UNL     1     -12.267  13.180  70.084  1.00  0.00    -0.360 A  
HETATM   12  C   UNL     1     -11.890  10.799  70.082  1.00  0.00    -0.343 A  
HETATM   13  C   UNL     1      -9.957   8.181  66.532  1.00  0.00    -0.232 A  
HETATM   14  N   UNL     1     -11.499   9.578  69.509  1.00  0.00     0.010 NA 
HETATM   15  C   UNL     1     -12.775  13.108  71.386  1.00  0.00    -0.390 A  
HETATM   16  C   UNL     1     -12.427  10.737  71.376  1.00  0.00    -0.478 A  
HETATM   17  C   UNL     1     -10.532   8.314  67.735  1.00  0.00    -0.280 A  
HETATM   18  C   UNL     1     -10.975   9.604  68.324  1.00  0.00    -0.121 A  
HETATM   19  C   UNL     1     -12.856  11.885  72.034  1.00  0.00    -0.248 A  
BRANCH   9  20
HETATM   20  C   UNL     1     -11.166  13.291  67.274  1.00  0.00    -0.292 A  
HETATM   21  C   UNL     1     -11.980  14.600  65.362  1.00  0.00    -0.275 A  
HETATM   22  C   UNL     1     -10.152  15.440  66.685  1.00  0.00    -0.273 A  
HETATM   23 CL   UNL     1     -10.937  16.964  64.600  1.00  0.00    -0.059 Cl 
HETATM   24  C   UNL     1     -12.074  13.491  66.211  1.00  0.00    -0.476 A  
HETATM   25  C   UNL     1     -11.031  15.580  65.616  1.00  0.00    -0.303 A  
HETATM   26  C   UNL     1     -10.193  14.285  67.479  1.00  0.00    -0.240 A  
ENDBRANCH   9  20
BRANCH  13  27
HETATM   27  N   UNL     1      -9.517   6.982  65.969  1.00  0.00    -0.397 NA 
HETATM   28  H   UNL     1      -9.473   6.938  64.952  1.00  0.00     0.000 HD 
BRANCH  27  29
HETATM   29  C   UNL     1      -9.124   5.817  66.681  1.00  0.00    -0.132 A  
HETATM   30  C   UNL     1      -9.958   4.717  66.916  1.00  0.00    -0.245 A  
HETATM   31  C   UNL     1      -9.486   3.580  67.589  1.00  0.00    -0.233 A  
HETATM   32  C   UNL     1      -8.176   3.545  68.061  1.00  0.00    -0.083 A  
HETATM   33  C   UNL     1      -7.349   4.650  67.905  1.00  0.00    -0.066 A  
HETATM   34 CL   UNL     1      -7.580   2.130  68.837  1.00  0.00    -0.043 Cl 
HETATM   35  C   UNL     1      -7.824   5.781  67.229  1.00  0.00    -0.102 A  
ENDBRANCH  27  29
ENDBRANCH  13  27
ENDBRANCH   4   6
ENDBRANCH   2   4
TORSDOF 5
ENDMDL
MODEL       40
REMARK 921   NORMALIZED FREE ENERGY PREDICTED BY IDOCK:   -5.94 KCAL/MOL
REMARK 922        TOTAL FREE ENERGY PREDICTED BY IDOCK:   -8.83 KCAL/MOL
REMARK 923 INTER-LIGAND FREE ENERGY PREDICTED BY IDOCK:   -7.48 KCAL/MOL
REMARK 924 INTRA-LIGAND FREE ENERGY PREDICTED BY IDOCK:   -1.35 KCAL/MOL
REMARK 927      BINDING AFFINITY PREDICTED BY RF-SCORE:    0.00 PKD
ROOT
HETATM    1  C   UNL     1      -5.470  11.844  70.274  1.00  0.00    -0.131 C  
HETATM    2  C   UNL     1      -6.106  10.510  69.880  1.00  0.00    -0.079 C  
HETATM    3  C   UNL     1      -5.471   9.383  70.689  1.00  0.00    -0.039 C  
ENDROOT
BRANCH   2   4
HETATM    4  N   UNL     1      -7.569  10.522  70.099  1.00  0.00    -0.433 NA 
HETATM    5  H   UNL     1      -7.951  10.454  71.043  1.00  0.00     0.000 HD 
BRANCH   4   6
HETATM    6  C   UNL     1      -8.362  10.621  69.075  1.00  0.00    -0.152 A  
HETATM    7  C   UNL     1      -8.870  11.902  68.529  1.00  0.00    -0.108 A  
HETATM    8  C   UNL     1      -9.522  12.096  67.377  1.00  0.00    -0.179 A  
HETATM    9  N   UNL     1      -9.884  13.353  66.817  1.00  0.00    -0.258 NA 
HETATM   10  C   UNL     1     -10.731  13.331  65.643  1.00  0.00    -0.282 A  
HETATM   11  C   UNL     1     -11.175  14.493  64.986  1.00  0.00    -0.384 A  
HETATM   12  C   UNL     1     -11.119  12.085  65.086  1.00  0.00    -0.318 A  
HETATM   13  C   UNL     1      -8.797   9.380  68.324  1.00  0.00    -0.128 A  
HETATM   14  N   UNL     1     -10.702  10.847  65.602  1.00  0.00    -0.163 NA 
HETATM   15  C   UNL     1     -12.022  14.437  63.873  1.00  0.00    -0.157 A  
HETATM   16  C   UNL     1     -11.946  12.043  63.955  1.00  0.00    -0.542 A  
HETATM   17  C   UNL     1      -9.546   9.540  67.225  1.00  0.00    -0.192 A  
HETATM   18  C   UNL     1      -9.958  10.852  66.663  1.00  0.00    -0.208 A  
HETATM   19  C   UNL     1     -12.409  13.210  63.356  1.00  0.00    -0.443 A  
BRANCH   9  20
HETATM   20  C   UNL     1      -9.345  14.571  67.387  1.00  0.00    -0.197 A  
HETATM   21  C   UNL     1      -9.597  16.515  68.867  1.00  0.00    -0.261 A  
HETATM   22  C   UNL     1      -7.622  16.306  67.505  1.00  0.00    -0.170 A  
HETATM   23 CL   UNL     1      -7.785  18.499  69.072  1.00  0.00    -0.233 Cl 
HETATM   24  C   UNL     1     -10.054  15.286  68.377  1.00  0.00    -0.220 A  
HETATM   25  C   UNL     1      -8.371  17.010  68.443  1.00  0.00    -0.241 A  
HETATM   26  C   UNL     1      -8.126  15.120  66.952  1.00  0.00    -0.194 A  
ENDBRANCH   9  20
BRANCH  13  27
HETATM   27  N   UNL     1      -8.416   8.157  68.879  1.00  0.00    -0.129 NA 
HETATM   28  H   UNL     1      -7.532   7.761  68.560  1.00  0.00     0.000 HD 
BRANCH  27  29
HETATM   29  C   UNL     1      -9.144   7.412  69.844  1.00  0.00    -0.141 A  
HETATM   30  C   UNL     1      -8.567   6.782  70.954  1.00  0.00    -0.137 A  
HETATM   31  C   UNL     1      -9.356   6.101  71.893  1.00  0.00    -0.157 A  
HETATM   32  C   UNL     1     -10.735   6.018  71.713  1.00  0.00    -0.244 A  
HETATM   33  C   UNL     1     -11.325   6.571  70.583  1.00  0.00    -0.409 A  
HETATM   34 CL   UNL     1     -11.710   5.230  72.891  1.00  0.00    -0.311 Cl 
HETATM   35  C   UNL     1     -10.533   7.254  69.651  1.00  0.00    -0.239 A  
ENDBRANCH  27  29
ENDBRANCH  13  27
ENDBRANCH   4   6
ENDBRANCH   2   4
TORSDOF 5
ENDMDL
MODEL       41
REMARK 921   NORMALIZED FREE ENERGY PREDICTED BY IDOCK:   -5.93 KCAL/MOL
REMARK 922        TOTAL FREE ENERGY PREDICTED BY IDOCK:   -8.82 KCAL/MOL
REMARK 923 INTER-LIGAND FREE ENERGY PREDICTED BY IDOCK:   -8.54 KCAL/MOL
REMARK 924 INTRA-LIGAND FREE ENERGY PREDICTED BY IDOCK:   -0.28 KCAL/MOL
REMARK 927      BINDING AFFINITY PREDICTED BY RF-SCORE:    0.00 PKD
ROOT
HETATM    1  C   UNL     1     -14.294   8.370  71.371  1.00  0.00    -0.425 C  
HETATM    2  C   UNL     1     -13.352   9.043  72.372  1.00  0.00    -0.460 C  
HETATM    3  C   UNL     1     -12.109   8.180  72.564  1.00  0.00    -0.377 C  
ENDROOT
BRANCH   2   4
HETATM    4  N   UNL     1     -12.959  10.396  71.920  1.00  0.00    -0.456 NA 
HETATM    5  H   UNL     1     -13.375  11.224  72.347  1.00  0.00     0.000 HD 
BRANCH   4   6
HETATM    6  C   UNL     1     -12.079  10.517  70.974  1.00  0.00    -0.387 A  
HETATM    7  C   UNL     1     -11.026   9.517  70.676  1.00  0.00    -0.370 A  
HETATM    8  C   UNL     1     -10.218   9.476  69.610  1.00  0.00    -0.218 A  
HETATM    9  N   UNL     1      -9.305   8.434  69.286  1.00  0.00    -0.154 NA 
HETATM   10  C   UNL     1      -8.407   8.668  68.175  1.00  0.00    -0.127 A  
HETATM   11  C   UNL     1      -7.447   7.733  67.744  1.00  0.00    -0.104 A  
HETATM   12  C   UNL     1      -8.502   9.880  67.443  1.00  0.00    -0.118 A  
HETATM   13  C   UNL     1     -12.107  11.720  70.054  1.00  0.00    -0.310 A  
HETATM   14  N   UNL     1      -9.452  10.876  67.724  1.00  0.00    -0.155 NA 
HETATM   15  C   UNL     1      -6.570   8.006  66.687  1.00  0.00    -0.056 A  
HETATM   16  C   UNL     1      -7.636  10.128  66.369  1.00  0.00    -0.108 A  
HETATM   17  C   UNL     1     -11.231  11.759  69.041  1.00  0.00    -0.324 A  
HETATM   18  C   UNL     1     -10.250  10.688  68.727  1.00  0.00    -0.190 A  
HETATM   19  C   UNL     1      -6.665   9.204  65.998  1.00  0.00    -0.076 A  
BRANCH   9  20
HETATM   20  C   UNL     1      -9.358   7.184  70.017  1.00  0.00    -0.154 A  
HETATM   21  C   UNL     1     -10.409   5.000  70.411  1.00  0.00    -0.297 A  
HETATM   22  C   UNL     1      -8.613   5.730  71.839  1.00  0.00    -0.134 A  
HETATM   23 CL   UNL     1      -9.695   3.319  72.392  1.00  0.00    -0.201 Cl 
HETATM   24  C   UNL     1     -10.275   6.171  69.658  1.00  0.00    -0.255 A  
HETATM   25  C   UNL     1      -9.562   4.775  71.488  1.00  0.00    -0.160 A  
HETATM   26  C   UNL     1      -8.543   6.941  71.136  1.00  0.00    -0.131 A  
ENDBRANCH   9  20
BRANCH  13  27
HETATM   27  N   UNL     1     -13.022  12.723  70.378  1.00  0.00     0.248 NA 
HETATM   28  H   UNL     1     -13.930  12.685  69.916  1.00  0.00     0.000 HD 
BRANCH  27  29
HETATM   29  C   UNL     1     -12.807  13.791  71.289  1.00  0.00    -0.357 A  
HETATM   30  C   UNL     1     -13.371  13.863  72.568  1.00  0.00    -0.656 A  
HETATM   31  C   UNL     1     -13.077  14.929  73.432  1.00  0.00    -0.506 A  
HETATM   32  C   UNL     1     -12.234  15.953  73.010  1.00  0.00    -0.504 A  
HETATM   33  C   UNL     1     -11.717  15.945  71.720  1.00  0.00    -0.575 A  
HETATM   34 CL   UNL     1     -11.829  17.232  74.087  1.00  0.00    -0.073 Cl 
HETATM   35  C   UNL     1     -12.012  14.877  70.863  1.00  0.00    -0.374 A  
ENDBRANCH  27  29
ENDBRANCH  13  27
ENDBRANCH   4   6
ENDBRANCH   2   4
TORSDOF 5
ENDMDL
MODEL       42
REMARK 921   NORMALIZED FREE ENERGY PREDICTED BY IDOCK:   -5.90 KCAL/MOL
REMARK 922        TOTAL FREE ENERGY PREDICTED BY IDOCK:   -8.78 KCAL/MOL
REMARK 923 INTER-LIGAND FREE ENERGY PREDICTED BY IDOCK:   -7.78 KCAL/MOL
REMARK 924 INTRA-LIGAND FREE ENERGY PREDICTED BY IDOCK:   -1.00 KCAL/MOL
REMARK 927      BINDING AFFINITY PREDICTED BY RF-SCORE:    0.00 PKD
ROOT
HETATM    1  C   UNL     1     -12.612  12.257  63.335  1.00  0.00    -0.545 C  
HETATM    2  C   UNL     1     -11.639  12.501  64.491  1.00  0.00    -0.348 C  
HETATM    3  C   UNL     1     -12.407  13.016  65.705  1.00  0.00    -0.504 C  
ENDROOT
BRANCH   2   4
HETATM    4  N   UNL     1     -10.903  11.268  64.848  1.00  0.00    -0.267 NA 
HETATM    5  H   UNL     1     -11.120  10.385  64.385  1.00  0.00     0.000 HD 
BRANCH   4   6
HETATM    6  C   UNL     1      -9.979  11.323  65.758  1.00  0.00    -0.237 A  
HETATM    7  C   UNL     1      -9.410  12.581  66.299  1.00  0.00    -0.177 A  
HETATM    8  C   UNL     1      -8.608  12.722  67.361  1.00  0.00    -0.194 A  
HETATM    9  N   UNL     1      -8.181  13.953  67.934  1.00  0.00    -0.149 NA 
HETATM   10  C   UNL     1      -7.182  13.880  68.979  1.00  0.00    -0.078 A  
HETATM   11  C   UNL     1      -6.660  15.012  69.632  1.00  0.00    -0.166 A  
HETATM   12  C   UNL     1      -6.713  12.613  69.409  1.00  0.00    -0.022 A  
HETATM   13  C   UNL     1      -9.438  10.051  66.375  1.00  0.00    -0.186 A  
HETATM   14  N   UNL     1      -7.189  11.398  68.888  1.00  0.00    -0.107 NA 
HETATM   15  C   UNL     1      -5.668  14.908  70.615  1.00  0.00    -0.141 A  
HETATM   16  C   UNL     1      -5.739  12.522  70.414  1.00  0.00    -0.170 A  
HETATM   17  C   UNL     1      -8.546  10.162  67.369  1.00  0.00    -0.122 A  
HETATM   18  C   UNL     1      -8.070  11.448  67.940  1.00  0.00    -0.126 A  
HETATM   19  C   UNL     1      -5.207  13.662  71.007  1.00  0.00    -0.151 A  
BRANCH   9  20
HETATM   20  C   UNL     1      -8.801  15.192  67.510  1.00  0.00    -0.182 A  
HETATM   21  C   UNL     1      -8.685  17.304  66.262  1.00  0.00    -0.259 A  
HETATM   22  C   UNL     1     -10.629  16.818  67.598  1.00  0.00    -0.325 A  
HETATM   23 CL   UNL     1     -10.619  19.181  66.293  1.00  0.00    -0.524 Cl 
HETATM   24  C   UNL     1      -8.148  16.059  66.606  1.00  0.00    -0.311 A  
HETATM   25  C   UNL     1      -9.935  17.669  66.745  1.00  0.00    -0.320 A  
HETATM   26  C   UNL     1     -10.046  15.610  68.010  1.00  0.00    -0.224 A  
ENDBRANCH   9  20
BRANCH  13  27
HETATM   27  N   UNL     1      -9.882   8.854  65.811  1.00  0.00    -0.465 NA 
HETATM   28  H   UNL     1     -10.329   8.912  64.897  1.00  0.00     0.000 HD 
BRANCH  27  29
HETATM   29  C   UNL     1      -9.772   7.562  66.392  1.00  0.00    -0.110 A  
HETATM   30  C   UNL     1      -8.775   6.633  66.067  1.00  0.00    -0.155 A  
HETATM   31  C   UNL     1      -8.702   5.392  66.716  1.00  0.00    -0.113 A  
HETATM   32  C   UNL     1      -9.648   5.055  67.681  1.00  0.00    -0.146 A  
HETATM   33  C   UNL     1     -10.689   5.927  67.972  1.00  0.00    -0.332 A  
HETATM   34 CL   UNL     1      -9.527   3.556  68.517  1.00  0.00    -0.226 Cl 
HETATM   35  C   UNL     1     -10.756   7.167  67.323  1.00  0.00    -0.399 A  
ENDBRANCH  27  29
ENDBRANCH  13  27
ENDBRANCH   4   6
ENDBRANCH   2   4
TORSDOF 5
ENDMDL
MODEL       43
REMARK 921   NORMALIZED FREE ENERGY PREDICTED BY IDOCK:   -5.86 KCAL/MOL
REMARK 922        TOTAL FREE ENERGY PREDICTED BY IDOCK:   -8.73 KCAL/MOL
REMARK 923 INTER-LIGAND FREE ENERGY PREDICTED BY IDOCK:   -7.92 KCAL/MOL
REMARK 924 INTRA-LIGAND FREE ENERGY PREDICTED BY IDOCK:   -0.81 KCAL/MOL
REMARK 927      BINDING AFFINITY PREDICTED BY RF-SCORE:    0.00 PKD
ROOT
HETATM    1  C   UNL     1     -12.222  13.256  63.231  1.00  0.00    -0.387 C  
HETATM    2  C   UNL     1     -11.840  12.002  64.021  1.00  0.00    -0.408 C  
HETATM    3  C   UNL     1     -10.358  11.702  63.818  1.00  0.00    -0.445 C  
ENDROOT
BRANCH   2   4
HETATM    4  N   UNL     1     -12.126  12.163  65.464  1.00  0.00    -0.514 NA 
HETATM    5  H   UNL     1     -13.087  12.267  65.791  1.00  0.00     0.000 HD 
BRANCH   4   6
HETATM    6  C   UNL     1     -11.140  12.171  66.309  1.00  0.00    -0.310 A  
HETATM    7  C   UNL     1     -10.501  10.953  66.861  1.00  0.00    -0.299 A  
HETATM    8  C   UNL     1      -9.370  10.877  67.573  1.00  0.00    -0.154 A  
HETATM    9  N   UNL     1      -8.712   9.683  67.980  1.00  0.00    -0.119 NA 
HETATM   10  C   UNL     1      -7.591   9.826  68.885  1.00  0.00    -0.081 A  
HETATM   11  C   UNL     1      -6.849   8.736  69.378  1.00  0.00    -0.049 A  
HETATM   12  C   UNL     1      -7.177  11.122  69.284  1.00  0.00    -0.112 A  
HETATM   13  C   UNL     1     -10.535  13.482  66.763  1.00  0.00    -0.273 A  
HETATM   14  N   UNL     1      -7.787  12.301  68.824  1.00  0.00    -0.052 NA 
HETATM   15  C   UNL     1      -5.792   8.908  70.280  1.00  0.00    -0.030 A  
HETATM   16  C   UNL     1      -6.099  11.281  70.166  1.00  0.00    -0.149 A  
HETATM   17  C   UNL     1      -9.465  13.436  67.570  1.00  0.00    -0.219 A  
HETATM   18  C   UNL     1      -8.803  12.188  68.028  1.00  0.00    -0.181 A  
HETATM   19  C   UNL     1      -5.416  10.181  70.675  1.00  0.00    -0.072 A  
BRANCH   9  20
HETATM   20  C   UNL     1      -9.134   8.411  67.430  1.00  0.00    -0.137 A  
HETATM   21  C   UNL     1     -10.587   6.433  67.528  1.00  0.00    -0.350 A  
HETATM   22  C   UNL     1      -8.865   6.561  65.849  1.00  0.00    -0.131 A  
HETATM   23 CL   UNL     1     -10.380   4.326  65.861  1.00  0.00    -0.208 Cl 
HETATM   24  C   UNL     1     -10.228   7.707  67.981  1.00  0.00    -0.248 A  
HETATM   25  C   UNL     1      -9.916   5.874  66.449  1.00  0.00    -0.116 A  
HETATM   26  C   UNL     1      -8.452   7.798  66.364  1.00  0.00    -0.136 A  
ENDBRANCH   9  20
BRANCH  13  27
HETATM   27  N   UNL     1     -11.184  14.642  66.338  1.00  0.00    -0.332 NA 
HETATM   28  H   UNL     1     -11.932  14.529  65.655  1.00  0.00     0.000 HD 
BRANCH  27  29
HETATM   29  C   UNL     1     -10.900  15.966  66.768  1.00  0.00    -0.228 A  
HETATM   30  C   UNL     1     -10.994  16.403  68.095  1.00  0.00    -0.339 A  
HETATM   31  C   UNL     1     -10.654  17.715  68.453  1.00  0.00    -0.318 A  
HETATM   32  C   UNL     1     -10.241  18.618  67.475  1.00  0.00    -0.386 A  
HETATM   33  C   UNL     1     -10.207  18.233  66.141  1.00  0.00    -0.393 A  
HETATM   34 CL   UNL     1      -9.771  20.212  67.920  1.00  0.00    -0.502 Cl 
HETATM   35  C   UNL     1     -10.545  16.920  65.789  1.00  0.00    -0.238 A  
ENDBRANCH  27  29
ENDBRANCH  13  27
ENDBRANCH   4   6
ENDBRANCH   2   4
TORSDOF 5
ENDMDL
MODEL       44
REMARK 921   NORMALIZED FREE ENERGY PREDICTED BY IDOCK:   -5.82 KCAL/MOL
REMARK 922        TOTAL FREE ENERGY PREDICTED BY IDOCK:   -8.68 KCAL/MOL
REMARK 923 INTER-LIGAND FREE ENERGY PREDICTED BY IDOCK:   -8.39 KCAL/MOL
REMARK 924 INTRA-LIGAND FREE ENERGY PREDICTED BY IDOCK:   -0.29 KCAL/MOL
REMARK 927      BINDING AFFINITY PREDICTED BY RF-SCORE:    0.00 PKD
ROOT
HETATM    1  C   UNL     1     -13.589   9.723  70.786  1.00  0.00     0.013 C  
HETATM    2  C   UNL     1     -12.373  10.462  71.347  1.00  0.00    -0.397 C  
HETATM    3  C   UNL     1     -11.193   9.501  71.450  1.00  0.00    -0.452 C  
ENDROOT
BRANCH   2   4
HETATM    4  N   UNL     1     -12.005  11.620  70.501  1.00  0.00    -0.448 NA 
HETATM    5  H   UNL     1     -12.173  12.572  70.828  1.00  0.00     0.000 HD 
BRANCH   4   6
HETATM    6  C   UNL     1     -11.467  11.409  69.339  1.00  0.00    -0.310 A  
HETATM    7  C   UNL     1     -10.698  10.194  68.979  1.00  0.00    -0.249 A  
HETATM    8  C   UNL     1     -10.286   9.820  67.761  1.00  0.00    -0.225 A  
HETATM    9  N   UNL     1      -9.662   8.586  67.428  1.00  0.00    -0.159 NA 
HETATM   10  C   UNL     1      -9.147   8.453  66.081  1.00  0.00    -0.189 A  
HETATM   11  C   UNL     1      -8.500   7.295  65.610  1.00  0.00    -0.138 A  
HETATM   12  C   UNL     1      -9.321   9.516  65.158  1.00  0.00    -0.252 A  
HETATM   13  C   UNL     1     -11.640  12.419  68.224  1.00  0.00    -0.333 A  
HETATM   14  N   UNL     1     -10.000  10.705  65.473  1.00  0.00    -0.256 NA 
HETATM   15  C   UNL     1      -7.982   7.213  64.312  1.00  0.00    -0.088 A  
HETATM   16  C   UNL     1      -8.822   9.410  63.853  1.00  0.00    -0.205 A  
HETATM   17  C   UNL     1     -11.138  12.118  67.018  1.00  0.00    -0.347 A  
HETATM   18  C   UNL     1     -10.450  10.846  66.680  1.00  0.00    -0.254 A  
HETATM   19  C   UNL     1      -8.144   8.271  63.431  1.00  0.00    -0.133 A  
BRANCH   9  20
HETATM   20  C   UNL     1      -9.633   7.513  68.401  1.00  0.00    -0.150 A  
HETATM   21  C   UNL     1      -8.410   6.209  70.085  1.00  0.00    -0.128 A  
HETATM   22  C   UNL     1     -10.656   5.574  69.490  1.00  0.00    -0.366 A  
HETATM   23 CL   UNL     1      -9.416   4.046  71.338  1.00  0.00    -0.215 Cl 
HETATM   24  C   UNL     1      -8.496   7.299  69.211  1.00  0.00    -0.133 A  
HETATM   25  C   UNL     1      -9.501   5.363  70.235  1.00  0.00    -0.163 A  
HETATM   26  C   UNL     1     -10.703   6.614  68.550  1.00  0.00    -0.308 A  
ENDBRANCH   9  20
BRANCH  13  27
HETATM   27  N   UNL     1     -12.271  13.616  68.567  1.00  0.00    -0.385 NA 
HETATM   28  H   UNL     1     -13.272  13.572  68.757  1.00  0.00     0.000 HD 
BRANCH  27  29
HETATM   29  C   UNL     1     -11.651  14.889  68.676  1.00  0.00    -0.318 A  
HETATM   30  C   UNL     1     -11.424  15.556  69.887  1.00  0.00    -0.338 A  
HETATM   31  C   UNL     1     -10.764  16.793  69.921  1.00  0.00    -0.123 A  
HETATM   32  C   UNL     1     -10.347  17.392  68.735  1.00  0.00    -0.357 A  
HETATM   33  C   UNL     1     -10.623  16.787  67.514  1.00  0.00    -0.309 A  
HETATM   34 CL   UNL     1      -9.489  18.882  68.779  1.00  0.00    -0.409 Cl 
HETATM   35  C   UNL     1     -11.280  15.551  67.486  1.00  0.00    -0.272 A  
ENDBRANCH  27  29
ENDBRANCH  13  27
ENDBRANCH   4   6
ENDBRANCH   2   4
TORSDOF 5
ENDMDL
MODEL       45
REMARK 921   NORMALIZED FREE ENERGY PREDICTED BY IDOCK:   -5.76 KCAL/MOL
REMARK 922        TOTAL FREE ENERGY PREDICTED BY IDOCK:   -8.61 KCAL/MOL
REMARK 923 INTER-LIGAND FREE ENERGY PREDICTED BY IDOCK:   -7.60 KCAL/MOL
REMARK 924 INTRA-LIGAND FREE ENERGY PREDICTED BY IDOCK:   -1.01 KCAL/MOL
REMARK 927      BINDING AFFINITY PREDICTED BY RF-SCORE:    0.00 PKD
ROOT
HETATM    1  C   UNL     1     -14.375   8.494  72.686  1.00  0.00    -0.206 C  
HETATM    2  C   UNL     1     -13.732   9.125  71.449  1.00  0.00    -0.266 C  
HETATM    3  C   UNL     1     -13.017  10.413  71.846  1.00  0.00    -0.555 C  
ENDROOT
BRANCH   2   4
HETATM    4  N   UNL     1     -12.776   8.199  70.804  1.00  0.00    -0.465 NA 
HETATM    5  H   UNL     1     -13.096   7.303  70.433  1.00  0.00     0.000 HD 
BRANCH   4   6
HETATM    6  C   UNL     1     -11.526   8.538  70.714  1.00  0.00    -0.253 A  
HETATM    7  C   UNL     1     -10.985   9.483  69.707  1.00  0.00    -0.245 A  
HETATM    8  C   UNL     1      -9.763  10.027  69.674  1.00  0.00    -0.229 A  
HETATM    9  N   UNL     1      -9.314  11.029  68.769  1.00  0.00    -0.192 NA 
HETATM   10  C   UNL     1      -7.904  11.358  68.800  1.00  0.00    -0.128 A  
HETATM   11  C   UNL     1      -7.315  12.322  67.960  1.00  0.00    -0.105 A  
HETATM   12  C   UNL     1      -7.057  10.716  69.739  1.00  0.00    -0.139 A  
HETATM   13  C   UNL     1     -10.515   7.998  71.703  1.00  0.00    -0.219 A  
HETATM   14  N   UNL     1      -7.520   9.778  70.677  1.00  0.00    -0.295 NA 
HETATM   15  C   UNL     1      -5.941  12.591  67.992  1.00  0.00    -0.081 A  
HETATM   16  C   UNL     1      -5.688  11.015  69.779  1.00  0.00    -0.062 A  
HETATM   17  C   UNL     1      -9.254   8.443  71.621  1.00  0.00    -0.271 A  
HETATM   18  C   UNL     1      -8.775   9.460  70.649  1.00  0.00    -0.211 A  
HETATM   19  C   UNL     1      -5.126  11.937  68.903  1.00  0.00    -0.050 A  
BRANCH   9  20
HETATM   20  C   UNL     1     -10.272  11.713  67.925  1.00  0.00    -0.189 A  
HETATM   21  C   UNL     1     -11.238  12.113  65.703  1.00  0.00    -0.381 A  
HETATM   22  C   UNL     1     -12.007  13.406  67.583  1.00  0.00    -0.362 A  
HETATM   23 CL   UNL     1     -13.133  13.959  65.193  1.00  0.00    -0.280 Cl 
HETATM   24  C   UNL     1     -10.389  11.397  66.554  1.00  0.00    -0.277 A  
HETATM   25  C   UNL     1     -12.059  13.103  66.227  1.00  0.00    -0.397 A  
HETATM   26  C   UNL     1     -11.090  12.746  68.415  1.00  0.00    -0.293 A  
ENDBRANCH   9  20
BRANCH  13  27
HETATM   27  N   UNL     1     -10.980   7.030  72.594  1.00  0.00    -0.262 NA 
HETATM   28  H   UNL     1     -11.825   7.253  73.119  1.00  0.00     0.000 HD 
BRANCH  27  29
HETATM   29  C   UNL     1     -10.386   5.763  72.839  1.00  0.00    -0.199 A  
HETATM   30  C   UNL     1      -9.983   5.312  74.102  1.00  0.00    -0.223 A  
HETATM   31  C   UNL     1      -9.444   4.028  74.275  1.00  0.00    -0.126 A  
HETATM   32  C   UNL     1      -9.277   3.190  73.176  1.00  0.00    -0.090 A  
HETATM   33  C   UNL     1      -9.601   3.638  71.902  1.00  0.00    -0.216 A  
HETATM   34 CL   UNL     1      -8.668   1.596  73.395  1.00  0.00    -0.061 Cl 
HETATM   35  C   UNL     1     -10.142   4.920  71.735  1.00  0.00    -0.267 A  
ENDBRANCH  27  29
ENDBRANCH  13  27
ENDBRANCH   4   6
ENDBRANCH   2   4
TORSDOF 5
ENDMDL
MODEL       46
REMARK 921   NORMALIZED FREE ENERGY PREDICTED BY IDOCK:   -5.71 KCAL/MOL
REMARK 922        TOTAL FREE ENERGY PREDICTED BY IDOCK:   -8.54 KCAL/MOL
REMARK 923 INTER-LIGAND FREE ENERGY PREDICTED BY IDOCK:   -7.05 KCAL/MOL
REMARK 924 INTRA-LIGAND FREE ENERGY PREDICTED BY IDOCK:   -1.48 KCAL/MOL
REMARK 927      BINDING AFFINITY PREDICTED BY RF-SCORE:    0.00 PKD
ROOT
HETATM    1  C   UNL     1      -5.156   7.985  65.021  1.00  0.00    -0.032 C  
HETATM    2  C   UNL     1      -6.176   9.031  65.473  1.00  0.00    -0.063 C  
HETATM    3  C   UNL     1      -6.076  10.263  64.578  1.00  0.00    -0.126 C  
ENDROOT
BRANCH   2   4
HETATM    4  N   UNL     1      -7.555   8.496  65.437  1.00  0.00    -0.085 NA 
HETATM    5  H   UNL     1      -7.947   8.138  64.566  1.00  0.00     0.000 HD 
BRANCH   4   6
HETATM    6  C   UNL     1      -8.260   8.487  66.527  1.00  0.00    -0.108 A  
HETATM    7  C   UNL     1      -8.972   9.667  67.074  1.00  0.00    -0.150 A  
HETATM    8  C   UNL     1      -9.866   9.691  68.070  1.00  0.00    -0.150 A  
HETATM    9  N   UNL     1     -10.628  10.817  68.488  1.00  0.00    -0.182 NA 
HETATM   10  C   UNL     1     -11.417  10.667  69.692  1.00  0.00    -0.291 A  
HETATM   11  C   UNL     1     -12.214  11.694  70.230  1.00  0.00    -0.401 A  
HETATM   12  C   UNL     1     -11.433   9.418  70.365  1.00  0.00    -0.223 A  
HETATM   13  C   UNL     1      -8.438   7.204  67.311  1.00  0.00    -0.122 A  
HETATM   14  N   UNL     1     -10.733   8.289  69.909  1.00  0.00    -0.240 NA 
HETATM   15  C   UNL     1     -12.937  11.526  71.417  1.00  0.00    -0.450 A  
HETATM   16  C   UNL     1     -12.184   9.254  71.538  1.00  0.00    -0.439 A  
HETATM   17  C   UNL     1      -9.244   7.226  68.382  1.00  0.00    -0.137 A  
HETATM   18  C   UNL     1     -10.008   8.414  68.842  1.00  0.00    -0.187 A  
HETATM   19  C   UNL     1     -12.923  10.305  72.072  1.00  0.00    -0.503 A  
BRANCH   9  20
HETATM   20  C   UNL     1     -10.640  12.015  67.673  1.00  0.00    -0.210 A  
HETATM   21  C   UNL     1     -11.486  13.247  65.724  1.00  0.00    -0.349 A  
HETATM   22  C   UNL     1      -9.764  14.226  67.093  1.00  0.00    -0.254 A  
HETATM   23 CL   UNL     1     -10.591  15.674  64.970  1.00  0.00    -0.450 Cl 
HETATM   24  C   UNL     1     -11.528  12.142  66.581  1.00  0.00    -0.426 A  
HETATM   25  C   UNL     1     -10.617  14.295  65.997  1.00  0.00    -0.300 A  
HETATM   26  C   UNL     1      -9.747  13.077  67.897  1.00  0.00    -0.218 A  
ENDBRANCH   9  20
BRANCH  13  27
HETATM   27  N   UNL     1      -7.697   6.105  66.874  1.00  0.00    -0.102 NA 
HETATM   28  H   UNL     1      -6.696   6.117  67.069  1.00  0.00     0.000 HD 
BRANCH  27  29
HETATM   29  C   UNL     1      -8.205   4.973  66.183  1.00  0.00    -0.109 A  
HETATM   30  C   UNL     1      -8.580   3.774  66.802  1.00  0.00    -0.108 A  
HETATM   31  C   UNL     1      -9.117   2.712  66.059  1.00  0.00    -0.113 A  
HETATM   32  C   UNL     1      -9.257   2.829  64.678  1.00  0.00    -0.135 A  
HETATM   33  C   UNL     1      -8.826   3.979  64.029  1.00  0.00    -0.120 A  
HETATM   34 CL   UNL     1      -9.966   1.549  63.774  1.00  0.00    -0.130 Cl 
HETATM   35  C   UNL     1      -8.293   5.038  64.776  1.00  0.00    -0.140 A  
ENDBRANCH  27  29
ENDBRANCH  13  27
ENDBRANCH   4   6
ENDBRANCH   2   4
TORSDOF 5
ENDMDL
MODEL       47
REMARK 921   NORMALIZED FREE ENERGY PREDICTED BY IDOCK:   -5.70 KCAL/MOL
REMARK 922        TOTAL FREE ENERGY PREDICTED BY IDOCK:   -8.53 KCAL/MOL
REMARK 923 INTER-LIGAND FREE ENERGY PREDICTED BY IDOCK:   -7.10 KCAL/MOL
REMARK 924 INTRA-LIGAND FREE ENERGY PREDICTED BY IDOCK:   -1.43 KCAL/MOL
REMARK 927      BINDING AFFINITY PREDICTED BY RF-SCORE:    0.00 PKD
ROOT
HETATM    1  C   UNL     1     -10.381   8.983  71.098  1.00  0.00    -0.362 C  
HETATM    2  C   UNL     1      -8.955   9.398  70.730  1.00  0.00    -0.191 C  
HETATM    3  C   UNL     1      -7.957   8.563  71.527  1.00  0.00    -0.169 C  
ENDROOT
BRANCH   2   4
HETATM    4  N   UNL     1      -8.700   9.236  69.281  1.00  0.00    -0.136 NA 
HETATM    5  H   UNL     1      -7.982   8.591  68.952  1.00  0.00     0.000 HD 
BRANCH   4   6
HETATM    6  C   UNL     1      -9.401   9.926  68.434  1.00  0.00    -0.133 A  
HETATM    7  C   UNL     1      -9.299  11.395  68.261  1.00  0.00    -0.187 A  
HETATM    8  C   UNL     1      -9.836  12.142  67.289  1.00  0.00    -0.196 A  
HETATM    9  N   UNL     1      -9.614  13.531  67.076  1.00  0.00    -0.240 NA 
HETATM   10  C   UNL     1     -10.424  14.178  66.065  1.00  0.00    -0.304 A  
HETATM   11  C   UNL     1     -10.321  15.546  65.750  1.00  0.00    -0.384 A  
HETATM   12  C   UNL     1     -11.350  13.410  65.315  1.00  0.00    -0.296 A  
HETATM   13  C   UNL     1     -10.374   9.232  67.504  1.00  0.00    -0.262 A  
HETATM   14  N   UNL     1     -11.515  12.025  65.481  1.00  0.00    -0.338 NA 
HETATM   15  C   UNL     1     -11.144  16.148  64.791  1.00  0.00    -0.345 A  
HETATM   16  C   UNL     1     -12.149  14.020  64.337  1.00  0.00    -0.486 A  
HETATM   17  C   UNL     1     -11.012   9.977  66.590  1.00  0.00     0.046 A  
HETATM   18  C   UNL     1     -10.811  11.435  66.395  1.00  0.00    -0.271 A  
HETATM   19  C   UNL     1     -12.059  15.385  64.083  1.00  0.00    -0.104 A  
BRANCH   9  20
HETATM   20  C   UNL     1      -8.565  14.208  67.810  1.00  0.00    -0.184 A  
HETATM   21  C   UNL     1      -7.879  15.759  69.587  1.00  0.00    -0.044 A  
HETATM   22  C   UNL     1      -6.212  14.801  68.136  1.00  0.00    -0.145 A  
HETATM   23 CL   UNL     1      -5.329  16.506  70.034  1.00  0.00    -0.169 Cl 
HETATM   24  C   UNL     1      -8.866  15.019  68.927  1.00  0.00    -0.201 A  
HETATM   25  C   UNL     1      -6.552  15.630  69.200  1.00  0.00    -0.140 A  
HETATM   26  C   UNL     1      -7.216  14.131  67.422  1.00  0.00    -0.124 A  
ENDBRANCH   9  20
BRANCH  13  27
HETATM   27  N   UNL     1     -10.564   7.866  67.717  1.00  0.00    -0.398 NA 
HETATM   28  H   UNL     1     -11.112   7.598  68.533  1.00  0.00     0.000 HD 
BRANCH  27  29
HETATM   29  C   UNL     1     -10.065   6.814  66.903  1.00  0.00    -0.202 A  
HETATM   30  C   UNL     1      -8.890   6.893  66.145  1.00  0.00    -0.163 A  
HETATM   31  C   UNL     1      -8.434   5.796  65.399  1.00  0.00    -0.151 A  
HETATM   32  C   UNL     1      -9.168   4.613  65.380  1.00  0.00    -0.155 A  
HETATM   33  C   UNL     1     -10.375   4.531  66.065  1.00  0.00    -0.276 A  
HETATM   34 CL   UNL     1      -8.582   3.250  64.510  1.00  0.00    -0.093 Cl 
HETATM   35  C   UNL     1     -10.824   5.628  66.811  1.00  0.00    -0.296 A  
ENDBRANCH  27  29
ENDBRANCH  13  27
ENDBRANCH   4   6
ENDBRANCH   2   4
TORSDOF 5
ENDMDL
MODEL       48
REMARK 921   NORMALIZED FREE ENERGY PREDICTED BY IDOCK:   -5.68 KCAL/MOL
REMARK 922        TOTAL FREE ENERGY PREDICTED BY IDOCK:   -8.50 KCAL/MOL
REMARK 923 INTER-LIGAND FREE ENERGY PREDICTED BY IDOCK:   -7.89 KCAL/MOL
REMARK 924 INTRA-LIGAND FREE ENERGY PREDICTED BY IDOCK:   -0.62 KCAL/MOL
REMARK 927      BINDING AFFINITY PREDICTED BY RF-SCORE:    0.00 PKD
ROOT
HETATM    1  C   UNL     1     -12.013  12.972  69.821  1.00  0.00    -0.377 C  
HETATM    2  C   UNL     1     -12.060  11.674  70.630  1.00  0.00    -0.335 C  
HETATM    3  C   UNL     1     -13.059  11.821  71.774  1.00  0.00    -0.480 C  
ENDROOT
BRANCH   2   4
HETATM    4  N   UNL     1     -12.435  10.521  69.782  1.00  0.00    -0.547 NA 
HETATM    5  H   UNL     1     -13.391  10.164  69.789  1.00  0.00     0.000 HD 
BRANCH   4   6
HETATM    6  C   UNL     1     -11.533   9.968  69.029  1.00  0.00    -0.012 A  
HETATM    7  C   UNL     1     -11.201  10.415  67.655  1.00  0.00    -0.287 A  
HETATM    8  C   UNL     1     -10.165  10.029  66.900  1.00  0.00    -0.238 A  
HETATM    9  N   UNL     1      -9.800  10.569  65.636  1.00  0.00    -0.236 NA 
HETATM   10  C   UNL     1      -8.743   9.893  64.913  1.00  0.00    -0.176 A  
HETATM   11  C   UNL     1      -8.279  10.308  63.650  1.00  0.00    -0.158 A  
HETATM   12  C   UNL     1      -8.100   8.774  65.501  1.00  0.00    -0.115 A  
HETATM   13  C   UNL     1     -10.705   8.814  69.552  1.00  0.00    -0.188 A  
HETATM   14  N   UNL     1      -8.418   8.287  66.780  1.00  0.00    -0.119 NA 
HETATM   15  C   UNL     1      -7.279   9.611  62.963  1.00  0.00    -0.110 A  
HETATM   16  C   UNL     1      -7.080   8.101  64.814  1.00  0.00    -0.079 A  
HETATM   17  C   UNL     1      -9.730   8.332  68.768  1.00  0.00    -0.160 A  
HETATM   18  C   UNL     1      -9.375   8.870  67.430  1.00  0.00    -0.136 A  
HETATM   19  C   UNL     1      -6.677   8.506  63.545  1.00  0.00    -0.085 A  
BRANCH   9  20
HETATM   20  C   UNL     1     -10.433  11.785  65.167  1.00  0.00    -0.283 A  
HETATM   21  C   UNL     1     -10.738  14.217  65.327  1.00  0.00    -0.374 A  
HETATM   22  C   UNL     1     -12.073  12.951  63.773  1.00  0.00    -0.583 A  
HETATM   23 CL   UNL     1     -12.521  15.611  63.865  1.00  0.00     0.150 Cl 
HETATM   24  C   UNL     1     -10.070  13.043  65.695  1.00  0.00    -0.276 A  
HETATM   25  C   UNL     1     -11.725  14.167  64.351  1.00  0.00    -0.392 A  
HETATM   26  C   UNL     1     -11.462  11.766  64.210  1.00  0.00    -0.386 A  
ENDBRANCH   9  20
BRANCH  13  27
HETATM   27  N   UNL     1     -11.068   8.310  70.802  1.00  0.00    -0.255 NA 
HETATM   28  H   UNL     1     -11.540   8.951  71.438  1.00  0.00     0.000 HD 
BRANCH  27  29
HETATM   29  C   UNL     1     -10.842   6.988  71.270  1.00  0.00    -0.235 A  
HETATM   30  C   UNL     1      -9.843   6.137  70.780  1.00  0.00    -0.220 A  
HETATM   31  C   UNL     1      -9.649   4.858  71.323  1.00  0.00    -0.229 A  
HETATM   32  C   UNL     1     -10.476   4.405  72.347  1.00  0.00    -0.149 A  
HETATM   33  C   UNL     1     -11.521   5.200  72.803  1.00  0.00    -0.284 A  
HETATM   34 CL   UNL     1     -10.204   2.859  73.051  1.00  0.00    -0.212 Cl 
HETATM   35  C   UNL     1     -11.708   6.477  72.260  1.00  0.00    -0.320 A  
ENDBRANCH  27  29
ENDBRANCH  13  27
ENDBRANCH   4   6
ENDBRANCH   2   4
TORSDOF 5
ENDMDL
MODEL       49
REMARK 921   NORMALIZED FREE ENERGY PREDICTED BY IDOCK:   -5.60 KCAL/MOL
REMARK 922        TOTAL FREE ENERGY PREDICTED BY IDOCK:   -8.40 KCAL/MOL
REMARK 923 INTER-LIGAND FREE ENERGY PREDICTED BY IDOCK:   -9.04 KCAL/MOL
REMARK 924 INTRA-LIGAND FREE ENERGY PREDICTED BY IDOCK:    0.64 KCAL/MOL
REMARK 927      BINDING AFFINITY PREDICTED BY RF-SCORE:    0.00 PKD
ROOT
HETATM    1  C   UNL     1      -9.891  15.478  67.658  1.00  0.00    -0.213 C  
HETATM    2  C   UNL     1      -9.183  14.551  66.668  1.00  0.00    -0.266 C  
HETATM    3  C   UNL     1      -7.983  13.898  67.348  1.00  0.00    -0.184 C  
ENDROOT
BRANCH   2   4
HETATM    4  N   UNL     1     -10.098  13.508  66.153  1.00  0.00    -0.298 NA 
HETATM    5  H   UNL     1     -10.660  13.681  65.319  1.00  0.00     0.000 HD 
BRANCH   4   6
HETATM    6  C   UNL     1     -10.177  12.372  66.775  1.00  0.00    -0.219 A  
HETATM    7  C   UNL     1     -10.728  12.201  68.141  1.00  0.00    -0.238 A  
HETATM    8  C   UNL     1     -11.021  11.054  68.765  1.00  0.00    -0.221 A  
HETATM    9  N   UNL     1     -11.668  10.924  70.026  1.00  0.00    -0.313 NA 
HETATM   10  C   UNL     1     -11.739   9.595  70.594  1.00  0.00    -0.280 A  
HETATM   11  C   UNL     1     -12.342   9.314  71.835  1.00  0.00    -0.454 A  
HETATM   12  C   UNL     1     -11.214   8.496  69.868  1.00  0.00    -0.032 A  
HETATM   13  C   UNL     1      -9.732  11.095  66.094  1.00  0.00    -0.218 A  
HETATM   14  N   UNL     1     -10.639   8.620  68.592  1.00  0.00    -0.175 NA 
HETATM   15  C   UNL     1     -12.363   8.021  72.372  1.00  0.00    -0.299 A  
HETATM   16  C   UNL     1     -11.266   7.201  70.405  1.00  0.00    -0.320 A  
HETATM   17  C   UNL     1      -9.912   9.938  66.744  1.00  0.00    -0.272 A  
HETATM   18  C   UNL     1     -10.551   9.806  68.079  1.00  0.00    -0.243 A  
HETATM   19  C   UNL     1     -11.825   6.963  71.656  1.00  0.00    -0.363 A  
BRANCH   9  20
HETATM   20  C   UNL     1     -12.277  12.086  70.640  1.00  0.00    -0.316 A  
HETATM   21  C   UNL     1     -12.519  14.526  70.790  1.00  0.00    -0.420 A  
HETATM   22  C   UNL     1     -13.680  13.117  72.361  1.00  0.00    -0.640 A  
HETATM   23 CL   UNL     1     -14.014  15.781  72.648  1.00  0.00    -0.632 Cl 
HETATM   24  C   UNL     1     -12.019  13.386  70.150  1.00  0.00    -0.396 A  
HETATM   25  C   UNL     1     -13.364  14.385  71.882  1.00  0.00    -0.374 A  
HETATM   26  C   UNL     1     -13.105  11.982  71.770  1.00  0.00    -0.460 A  
ENDBRANCH   9  20
BRANCH  13  27
HETATM   27  N   UNL     1      -9.117  11.242  64.850  1.00  0.00    -0.379 NA 
HETATM   28  H   UNL     1      -9.325  12.093  64.329  1.00  0.00     0.000 HD 
BRANCH  27  29
HETATM   29  C   UNL     1      -8.227  10.317  64.241  1.00  0.00    -0.157 A  
HETATM   30  C   UNL     1      -8.544   9.535  63.123  1.00  0.00    -0.218 A  
HETATM   31  C   UNL     1      -7.598   8.675  62.548  1.00  0.00    -0.112 A  
HETATM   32  C   UNL     1      -6.327   8.566  63.106  1.00  0.00    -0.086 A  
HETATM   33  C   UNL     1      -6.008   9.275  64.257  1.00  0.00    -0.072 A  
HETATM   34 CL   UNL     1      -5.147   7.553  62.369  1.00  0.00    -0.040 Cl 
HETATM   35  C   UNL     1      -6.955  10.136  64.826  1.00  0.00    -0.126 A  
ENDBRANCH  27  29
ENDBRANCH  13  27
ENDBRANCH   4   6
ENDBRANCH   2   4
TORSDOF 5
ENDMDL
MODEL       50
REMARK 921   NORMALIZED FREE ENERGY PREDICTED BY IDOCK:   -5.56 KCAL/MOL
REMARK 922        TOTAL FREE ENERGY PREDICTED BY IDOCK:   -8.35 KCAL/MOL
REMARK 923 INTER-LIGAND FREE ENERGY PREDICTED BY IDOCK:   -6.78 KCAL/MOL
REMARK 924 INTRA-LIGAND FREE ENERGY PREDICTED BY IDOCK:   -1.57 KCAL/MOL
REMARK 927      BINDING AFFINITY PREDICTED BY RF-SCORE:    0.00 PKD
ROOT
HETATM    1  C   UNL     1      -8.797   9.172  70.922  1.00  0.00    -0.292 C  
HETATM    2  C   UNL     1      -7.397   9.642  70.522  1.00  0.00    -0.131 C  
HETATM    3  C   UNL     1      -6.357   8.960  71.405  1.00  0.00    -0.073 C  
ENDROOT
BRANCH   2   4
HETATM    4  N   UNL     1      -7.115   9.352  69.098  1.00  0.00    -0.061 NA 
HETATM    5  H   UNL     1      -6.239   8.906  68.826  1.00  0.00     0.000 HD 
BRANCH   4   6
HETATM    6  C   UNL     1      -7.996   9.672  68.200  1.00  0.00    -0.100 A  
HETATM    7  C   UNL     1      -8.468  11.054  67.944  1.00  0.00    -0.128 A  
HETATM    8  C   UNL     1      -9.215  11.484  66.920  1.00  0.00    -0.176 A  
HETATM    9  N   UNL     1      -9.545  12.838  66.631  1.00  0.00    -0.249 NA 
HETATM   10  C   UNL     1     -10.503  13.068  65.570  1.00  0.00    -0.285 A  
HETATM   11  C   UNL     1     -10.930  14.351  65.178  1.00  0.00    -0.380 A  
HETATM   12  C   UNL     1     -11.027  11.965  64.850  1.00  0.00    -0.313 A  
HETATM   13  C   UNL     1      -8.584   8.610  67.295  1.00  0.00    -0.125 A  
HETATM   14  N   UNL     1     -10.644  10.635  65.094  1.00  0.00    -0.195 NA 
HETATM   15  C   UNL     1     -11.885  14.537  64.170  1.00  0.00    -0.290 A  
HETATM   16  C   UNL     1     -11.961  12.167  63.824  1.00  0.00    -0.607 A  
HETATM   17  C   UNL     1      -9.426   9.001  66.328  1.00  0.00    -0.306 A  
HETATM   18  C   UNL     1      -9.802  10.412  66.052  1.00  0.00    -0.232 A  
HETATM   19  C   UNL     1     -12.401  13.444  63.492  1.00  0.00    -0.398 A  
BRANCH   9  20
HETATM   20  C   UNL     1      -8.873  13.905  67.343  1.00  0.00    -0.207 A  
HETATM   21  C   UNL     1      -6.839  15.210  67.784  1.00  0.00    -0.190 A  
HETATM   22  C   UNL     1      -8.827  15.635  69.074  1.00  0.00    -0.243 A  
HETATM   23 CL   UNL     1      -6.655  17.123  69.673  1.00  0.00    -0.188 Cl 
HETATM   24  C   UNL     1      -7.536  14.250  67.042  1.00  0.00     0.175 A  
HETATM   25  C   UNL     1      -7.495  15.913  68.785  1.00  0.00    -0.170 A  
HETATM   26  C   UNL     1      -9.495  14.611  68.387  1.00  0.00    -0.209 A  
ENDBRANCH   9  20
BRANCH  13  27
HETATM   27  N   UNL     1      -8.234   7.290  67.583  1.00  0.00    -0.114 NA 
HETATM   28  H   UNL     1      -7.521   6.863  66.993  1.00  0.00     0.000 HD 
BRANCH  27  29
HETATM   29  C   UNL     1      -8.777   6.487  68.622  1.00  0.00    -0.123 A  
HETATM   30  C   UNL     1     -10.148   6.327  68.861  1.00  0.00    -0.200 A  
HETATM   31  C   UNL     1     -10.612   5.480  69.878  1.00  0.00    -0.387 A  
HETATM   32  C   UNL     1      -9.704   4.804  70.689  1.00  0.00    -0.200 A  
HETATM   33  C   UNL     1      -8.338   4.999  70.520  1.00  0.00    -0.101 A  
HETATM   34 CL   UNL     1     -10.271   3.722  71.901  1.00  0.00    -0.186 Cl 
HETATM   35  C   UNL     1      -7.880   5.844  69.501  1.00  0.00    -0.098 A  
ENDBRANCH  27  29
ENDBRANCH  13  27
ENDBRANCH   4   6
ENDBRANCH   2   4
TORSDOF 5
ENDMDL
MODEL       51
REMARK 921   NORMALIZED FREE ENERGY PREDICTED BY IDOCK:   -5.43 KCAL/MOL
REMARK 922        TOTAL FREE ENERGY PREDICTED BY IDOCK:   -8.18 KCAL/MOL
REMARK 923 INTER-LIGAND FREE ENERGY PREDICTED BY IDOCK:   -6.96 KCAL/MOL
REMARK 924 INTRA-LIGAND FREE ENERGY PREDICTED BY IDOCK:   -1.22 KCAL/MOL
REMARK 927      BINDING AFFINITY PREDICTED BY RF-SCORE:    0.00 PKD
ROOT
HETATM    1  C   UNL     1      -5.993   9.106  65.374  1.00  0.00    -0.058 C  
HETATM    2  C   UNL     1      -6.603  10.328  64.684  1.00  0.00    -0.092 C  
HETATM    3  C   UNL     1      -5.962  10.513  63.312  1.00  0.00    -0.100 C  
ENDROOT
BRANCH   2   4
HETATM    4  N   UNL     1      -8.069  10.192  64.539  1.00  0.00    -0.158 NA 
HETATM    5  H   UNL     1      -8.494  10.146  63.612  1.00  0.00     0.000 HD 
BRANCH   4   6
HETATM    6  C   UNL     1      -8.809  10.131  65.604  1.00  0.00    -0.165 A  
HETATM    7  C   UNL     1      -9.163  11.299  66.446  1.00  0.00    -0.206 A  
HETATM    8  C   UNL     1     -10.067  11.350  67.432  1.00  0.00    -0.184 A  
HETATM    9  N   UNL     1     -10.477  12.516  68.136  1.00  0.00    -0.222 NA 
HETATM   10  C   UNL     1     -11.346  12.322  69.278  1.00  0.00    -0.256 A  
HETATM   11  C   UNL     1     -11.827  13.379  70.073  1.00  0.00    -0.364 A  
HETATM   12  C   UNL     1     -11.777  11.013  69.613  1.00  0.00    -0.329 A  
HETATM   13  C   UNL     1      -9.412   8.813  66.041  1.00  0.00    -0.233 A  
HETATM   14  N   UNL     1     -11.424   9.873  68.872  1.00  0.00    -0.008 NA 
HETATM   15  C   UNL     1     -12.637  13.154  71.193  1.00  0.00    -0.403 A  
HETATM   16  C   UNL     1     -12.611  10.804  70.720  1.00  0.00    -0.476 A  
HETATM   17  C   UNL     1     -10.236   8.816  67.098  1.00  0.00    -0.346 A  
HETATM   18  C   UNL     1     -10.633  10.029  67.859  1.00  0.00    -0.250 A  
HETATM   19  C   UNL     1     -13.030  11.865  71.517  1.00  0.00    -0.427 A  
BRANCH   9  20
HETATM   20  C   UNL     1     -10.079  13.822  67.651  1.00  0.00    -0.242 A  
HETATM   21  C   UNL     1     -10.400  15.697  66.098  1.00  0.00    -0.329 A  
HETATM   22  C   UNL     1      -8.541  15.726  67.629  1.00  0.00    -0.173 A  
HETATM   23 CL   UNL     1      -8.768  17.837  65.961  1.00  0.00    -0.110 Cl 
HETATM   24  C   UNL     1     -10.823  14.482  66.648  1.00  0.00    -0.311 A  
HETATM   25  C   UNL     1      -9.270  16.324  66.606  1.00  0.00    -0.244 A  
HETATM   26  C   UNL     1      -8.920  14.466  68.115  1.00  0.00    -0.185 A  
ENDBRANCH   9  20
BRANCH  13  27
HETATM   27  N   UNL     1      -9.011   7.683  65.326  1.00  0.00    -0.366 NA 
HETATM   28  H   UNL     1      -9.081   7.731  64.310  1.00  0.00     0.000 HD 
BRANCH  27  29
HETATM   29  C   UNL     1      -8.514   6.473  65.881  1.00  0.00    -0.147 A  
HETATM   30  C   UNL     1      -7.902   6.373  67.137  1.00  0.00    -0.108 A  
HETATM   31  C   UNL     1      -7.476   5.135  67.639  1.00  0.00    -0.083 A  
HETATM   32  C   UNL     1      -7.632   3.983  66.873  1.00  0.00    -0.084 A  
HETATM   33  C   UNL     1      -8.170   4.063  65.594  1.00  0.00    -0.105 A  
HETATM   34 CL   UNL     1      -7.160   2.456  67.510  1.00  0.00    -0.048 Cl 
HETATM   35  C   UNL     1      -8.597   5.302  65.099  1.00  0.00    -0.151 A  
ENDBRANCH  27  29
ENDBRANCH  13  27
ENDBRANCH   4   6
ENDBRANCH   2   4
TORSDOF 5
ENDMDL
MODEL       52
REMARK 921   NORMALIZED FREE ENERGY PREDICTED BY IDOCK:   -5.40 KCAL/MOL
REMARK 922        TOTAL FREE ENERGY PREDICTED BY IDOCK:   -8.14 KCAL/MOL
REMARK 923 INTER-LIGAND FREE ENERGY PREDICTED BY IDOCK:   -6.67 KCAL/MOL
REMARK 924 INTRA-LIGAND FREE ENERGY PREDICTED BY IDOCK:   -1.47 KCAL/MOL
REMARK 927      BINDING AFFINITY PREDICTED BY RF-SCORE:    0.00 PKD
ROOT
HETATM    1  C   UNL     1     -10.858  11.554  65.243  1.00  0.00    -0.319 C  
HETATM    2  C   UNL     1      -9.708  10.957  64.430  1.00  0.00    -0.290 C  
HETATM    3  C   UNL     1      -9.569  11.712  63.111  1.00  0.00    -0.348 C  
ENDROOT
BRANCH   2   4
HETATM    4  N   UNL     1      -8.432  11.013  65.176  1.00  0.00    -0.375 NA 
HETATM    5  H   UNL     1      -7.565  11.264  64.700  1.00  0.00     0.000 HD 
BRANCH   4   6
HETATM    6  C   UNL     1      -8.427  10.736  66.445  1.00  0.00    -0.158 A  
HETATM    7  C   UNL     1      -8.767   9.411  67.015  1.00  0.00    -0.135 A  
HETATM    8  C   UNL     1      -8.598   8.997  68.277  1.00  0.00    -0.130 A  
HETATM    9  N   UNL     1      -8.815   7.679  68.765  1.00  0.00    -0.131 NA 
HETATM   10  C   UNL     1      -8.731   7.487  70.198  1.00  0.00    -0.142 A  
HETATM   11  C   UNL     1      -8.928   6.243  70.825  1.00  0.00    -0.144 A  
HETATM   12  C   UNL     1      -8.401   8.586  71.032  1.00  0.00    -0.147 A  
HETATM   13  C   UNL     1      -8.013  11.787  67.453  1.00  0.00    -0.155 A  
HETATM   14  N   UNL     1      -8.120   9.870  70.537  1.00  0.00    -0.206 NA 
HETATM   15  C   UNL     1      -8.875   6.099  72.217  1.00  0.00    -0.137 A  
HETATM   16  C   UNL     1      -8.323   8.422  72.422  1.00  0.00    -0.219 A  
HETATM   17  C   UNL     1      -7.943  11.429  68.743  1.00  0.00    -0.122 A  
HETATM   18  C   UNL     1      -8.209  10.061  69.259  1.00  0.00    -0.147 A  
HETATM   19  C   UNL     1      -8.571   7.189  73.017  1.00  0.00    -0.144 A  
BRANCH   9  20
HETATM   20  C   UNL     1      -9.032   6.596  67.828  1.00  0.00    -0.112 A  
HETATM   21  C   UNL     1     -10.573   5.119  66.612  1.00  0.00    -0.295 A  
HETATM   22  C   UNL     1      -8.197   4.786  66.408  1.00  0.00    -0.107 A  
HETATM   23 CL   UNL     1      -9.780   3.082  65.036  1.00  0.00    -0.072 Cl 
HETATM   24  C   UNL     1     -10.338   6.225  67.438  1.00  0.00    -0.262 A  
HETATM   25  C   UNL     1      -9.498   4.417  66.084  1.00  0.00    -0.174 A  
HETATM   26  C   UNL     1      -7.970   5.839  67.306  1.00  0.00    -0.102 A  
ENDBRANCH   9  20
BRANCH  13  27
HETATM   27  N   UNL     1      -7.787  13.070  66.952  1.00  0.00    -0.401 NA 
HETATM   28  H   UNL     1      -7.084  13.161  66.219  1.00  0.00     0.000 HD 
BRANCH  27  29
HETATM   29  C   UNL     1      -8.445  14.259  67.366  1.00  0.00    -0.203 A  
HETATM   30  C   UNL     1      -8.035  15.052  68.445  1.00  0.00    -0.131 A  
HETATM   31  C   UNL     1      -8.708  16.240  68.767  1.00  0.00    -0.244 A  
HETATM   32  C   UNL     1      -9.821  16.632  68.028  1.00  0.00    -0.245 A  
HETATM   33  C   UNL     1     -10.293  15.827  66.998  1.00  0.00    -0.292 A  
HETATM   34 CL   UNL     1     -10.614  18.116  68.388  1.00  0.00    -0.291 Cl 
HETATM   35  C   UNL     1      -9.615  14.644  66.678  1.00  0.00    -0.294 A  
ENDBRANCH  27  29
ENDBRANCH  13  27
ENDBRANCH   4   6
ENDBRANCH   2   4
TORSDOF 5
ENDMDL
MODEL       53
REMARK 921   NORMALIZED FREE ENERGY PREDICTED BY IDOCK:   -5.38 KCAL/MOL
REMARK 922        TOTAL FREE ENERGY PREDICTED BY IDOCK:   -8.12 KCAL/MOL
REMARK 923 INTER-LIGAND FREE ENERGY PREDICTED BY IDOCK:   -7.63 KCAL/MOL
REMARK 924 INTRA-LIGAND FREE ENERGY PREDICTED BY IDOCK:   -0.48 KCAL/MOL
REMARK 927      BINDING AFFINITY PREDICTED BY RF-SCORE:    0.00 PKD
ROOT
HETATM    1  C   UNL     1     -12.390  13.373  66.838  1.00  0.00    -0.262 C  
HETATM    2  C   UNL     1     -12.065  13.022  65.384  1.00  0.00    -0.444 C  
HETATM    3  C   UNL     1     -11.961  14.302  64.561  1.00  0.00    -0.478 C  
ENDROOT
BRANCH   2   4
HETATM    4  N   UNL     1     -10.804  12.256  65.282  1.00  0.00    -0.284 NA 
HETATM    5  H   UNL     1     -10.663  11.594  64.518  1.00  0.00     0.000 HD 
BRANCH   4   6
HETATM    6  C   UNL     1      -9.879  12.434  66.175  1.00  0.00    -0.252 A  
HETATM    7  C   UNL     1      -9.324  13.756  66.554  1.00  0.00    -0.249 A  
HETATM    8  C   UNL     1      -8.523  14.039  67.588  1.00  0.00    -0.191 A  
HETATM    9  N   UNL     1      -8.111  15.336  68.002  1.00  0.00    -0.134 NA 
HETATM   10  C   UNL     1      -7.109  15.405  69.045  1.00  0.00    -0.144 A  
HETATM   11  C   UNL     1      -6.601  16.616  69.551  1.00  0.00    -0.212 A  
HETATM   12  C   UNL     1      -6.624  14.207  69.628  1.00  0.00    -0.120 A  
HETATM   13  C   UNL     1      -9.321  11.255  66.943  1.00  0.00    -0.177 A  
HETATM   14  N   UNL     1      -7.085  12.931  69.264  1.00  0.00     0.031 NA 
HETATM   15  C   UNL     1      -5.606  16.647  70.536  1.00  0.00    -0.118 A  
HETATM   16  C   UNL     1      -5.648  14.253  70.634  1.00  0.00    -0.156 A  
HETATM   17  C   UNL     1      -8.429  11.500  67.913  1.00  0.00    -0.142 A  
HETATM   18  C   UNL     1      -7.968  12.853  68.319  1.00  0.00    -0.151 A  
HETATM   19  C   UNL     1      -5.129  15.465  71.079  1.00  0.00    -0.149 A  
BRANCH   9  20
HETATM   20  C   UNL     1      -8.746  16.505  67.430  1.00  0.00    -0.182 A  
HETATM   21  C   UNL     1      -8.617  18.521  66.032  1.00  0.00    -0.019 A  
HETATM   22  C   UNL     1     -10.648  18.033  67.231  1.00  0.00    -0.358 A  
HETATM   23 CL   UNL     1     -10.629  20.290  65.748  1.00  0.00    -0.361 Cl 
HETATM   24  C   UNL     1      -8.056  17.335  66.519  1.00  0.00    -0.313 A  
HETATM   25  C   UNL     1      -9.920  18.854  66.376  1.00  0.00    -0.393 A  
HETATM   26  C   UNL     1     -10.050  16.893  67.786  1.00  0.00    -0.292 A  
ENDBRANCH   9  20
BRANCH  13  27
HETATM   27  N   UNL     1      -9.752   9.992  66.534  1.00  0.00    -0.189 NA 
HETATM   28  H   UNL     1      -9.809   9.827  65.530  1.00  0.00     0.000 HD 
BRANCH  27  29
HETATM   29  C   UNL     1     -10.117   8.915  67.385  1.00  0.00    -0.227 A  
HETATM   30  C   UNL     1     -10.291   7.594  66.955  1.00  0.00    -0.400 A  
HETATM   31  C   UNL     1     -10.609   6.572  67.863  1.00  0.00    -0.313 A  
HETATM   32  C   UNL     1     -10.785   6.870  69.211  1.00  0.00    -0.238 A  
HETATM   33  C   UNL     1     -10.690   8.183  69.654  1.00  0.00    -0.196 A  
HETATM   34 CL   UNL     1     -11.121   5.610  70.334  1.00  0.00    -0.283 Cl 
HETATM   35  C   UNL     1     -10.369   9.199  68.744  1.00  0.00    -0.235 A  
ENDBRANCH  27  29
ENDBRANCH  13  27
ENDBRANCH   4   6
ENDBRANCH   2   4
TORSDOF 5
ENDMDL
MODEL       54
REMARK 921   NORMALIZED FREE ENERGY PREDICTED BY IDOCK:   -5.38 KCAL/MOL
REMARK 922        TOTAL FREE ENERGY PREDICTED BY IDOCK:   -8.11 KCAL/MOL
REMARK 923 INTER-LIGAND FREE ENERGY PREDICTED BY IDOCK:   -7.43 KCAL/MOL
REMARK 924 INTRA-LIGAND FREE ENERGY PREDICTED BY IDOCK:   -0.68 KCAL/MOL
REMARK 927      BINDING AFFINITY PREDICTED BY RF-SCORE:    0.00 PKD
ROOT
HETATM    1  C   UNL     1     -11.118  16.177  69.828  1.00  0.00    -0.350 C  
HETATM    2  C   UNL     1     -10.922  14.715  69.423  1.00  0.00    -0.257 C  
HETATM    3  C   UNL     1     -11.793  14.400  68.210  1.00  0.00    -0.361 C  
ENDROOT
BRANCH   2   4
HETATM    4  N   UNL     1      -9.505  14.425  69.112  1.00  0.00    -0.404 NA 
HETATM    5  H   UNL     1      -8.769  15.061  69.419  1.00  0.00     0.000 HD 
BRANCH   4   6
HETATM    6  C   UNL     1      -9.210  13.351  68.445  1.00  0.00    -0.149 A  
HETATM    7  C   UNL     1      -9.673  11.989  68.801  1.00  0.00    -0.029 A  
HETATM    8  C   UNL     1      -9.576  10.875  68.065  1.00  0.00    -0.162 A  
HETATM    9  N   UNL     1     -10.143   9.609  68.378  1.00  0.00    -0.169 NA 
HETATM   10  C   UNL     1      -9.777   8.496  67.526  1.00  0.00    -0.162 A  
HETATM   11  C   UNL     1     -10.254   7.186  67.716  1.00  0.00    -0.234 A  
HETATM   12  C   UNL     1      -8.924   8.719  66.415  1.00  0.00    -0.158 A  
HETATM   13  C   UNL     1      -8.375  13.441  67.185  1.00  0.00    -0.139 A  
HETATM   14  N   UNL     1      -8.423   9.985  66.070  1.00  0.00    -0.129 NA 
HETATM   15  C   UNL     1      -9.852   6.126  66.895  1.00  0.00    -0.194 A  
HETATM   16  C   UNL     1      -8.552   7.653  65.583  1.00  0.00    -0.142 A  
HETATM   17  C   UNL     1      -8.168  12.318  66.485  1.00  0.00     0.110 A  
HETATM   18  C   UNL     1      -8.727  10.986  66.834  1.00  0.00    -0.148 A  
HETATM   19  C   UNL     1      -9.001   6.359  65.826  1.00  0.00    -0.068 A  
BRANCH   9  20
HETATM   20  C   UNL     1     -11.096   9.500  69.463  1.00  0.00    -0.142 A  
HETATM   21  C   UNL     1     -13.098  10.328  70.621  1.00  0.00    -0.292 A  
HETATM   22  C   UNL     1     -11.848   8.500  71.567  1.00  0.00    -0.353 A  
HETATM   23 CL   UNL     1     -14.016   9.327  72.948  1.00  0.00    -0.216 Cl 
HETATM   24  C   UNL     1     -12.222  10.351  69.530  1.00  0.00    -0.068 A  
HETATM   25  C   UNL     1     -12.918   9.387  71.626  1.00  0.00    -0.391 A  
HETATM   26  C   UNL     1     -10.923   8.586  70.517  1.00  0.00    -0.263 A  
ENDBRANCH   9  20
BRANCH  13  27
HETATM   27  N   UNL     1      -7.843  14.696  66.885  1.00  0.00    -0.329 NA 
HETATM   28  H   UNL     1      -6.828  14.760  66.808  1.00  0.00     0.000 HD 
BRANCH  27  29
HETATM   29  C   UNL     1      -8.581  15.892  66.678  1.00  0.00    -0.285 A  
HETATM   30  C   UNL     1      -9.691  15.998  65.830  1.00  0.00    -0.378 A  
HETATM   31  C   UNL     1     -10.399  17.202  65.710  1.00  0.00    -0.253 A  
HETATM   32  C   UNL     1      -9.984  18.327  66.419  1.00  0.00    -0.380 A  
HETATM   33  C   UNL     1      -8.844  18.270  67.211  1.00  0.00    -0.255 A  
HETATM   34 CL   UNL     1     -10.884  19.789  66.315  1.00  0.00    -0.483 Cl 
HETATM   35  C   UNL     1      -8.142  17.064  67.330  1.00  0.00    -0.193 A  
ENDBRANCH  27  29
ENDBRANCH  13  27
ENDBRANCH   4   6
ENDBRANCH   2   4
TORSDOF 5
ENDMDL
MODEL       55
REMARK 921   NORMALIZED FREE ENERGY PREDICTED BY IDOCK:   -5.38 KCAL/MOL
REMARK 922        TOTAL FREE ENERGY PREDICTED BY IDOCK:   -8.11 KCAL/MOL
REMARK 923 INTER-LIGAND FREE ENERGY PREDICTED BY IDOCK:   -7.49 KCAL/MOL
REMARK 924 INTRA-LIGAND FREE ENERGY PREDICTED BY IDOCK:   -0.62 KCAL/MOL
REMARK 927      BINDING AFFINITY PREDICTED BY RF-SCORE:    0.00 PKD
ROOT
HETATM    1  C   UNL     1      -5.855  10.483  65.601  1.00  0.00    -0.127 C  
HETATM    2  C   UNL     1      -6.667  10.730  66.874  1.00  0.00    -0.099 C  
HETATM    3  C   UNL     1      -6.164  11.995  67.563  1.00  0.00    -0.113 C  
ENDROOT
BRANCH   2   4
HETATM    4  N   UNL     1      -8.111  10.860  66.578  1.00  0.00    -0.149 NA 
HETATM    5  H   UNL     1      -8.442  10.866  65.613  1.00  0.00     0.000 HD 
BRANCH   4   6
HETATM    6  C   UNL     1      -8.952  10.968  67.562  1.00  0.00    -0.137 A  
HETATM    7  C   UNL     1      -9.610  12.233  67.966  1.00  0.00    -0.206 A  
HETATM    8  C   UNL     1     -10.622  12.387  68.829  1.00  0.00    -0.183 A  
HETATM    9  N   UNL     1     -11.318  13.598  69.101  1.00  0.00    -0.273 NA 
HETATM   10  C   UNL     1     -12.270  13.578  70.191  1.00  0.00    -0.330 A  
HETATM   11  C   UNL     1     -13.027  14.699  70.580  1.00  0.00    -0.367 A  
HETATM   12  C   UNL     1     -12.498  12.369  70.898  1.00  0.00    -0.274 A  
HETATM   13  C   UNL     1      -9.358   9.745  68.357  1.00  0.00    -0.133 A  
HETATM   14  N   UNL     1     -11.859  11.159  70.579  1.00  0.00    -0.355 NA 
HETATM   15  C   UNL     1     -13.914  14.654  71.662  1.00  0.00    -0.546 A  
HETATM   16  C   UNL     1     -13.410  12.331  71.961  1.00  0.00    -0.491 A  
HETATM   17  C   UNL     1     -10.292   9.892  69.306  1.00  0.00    -0.235 A  
HETATM   18  C   UNL     1     -10.990  11.166  69.618  1.00  0.00    -0.192 A  
HETATM   19  C   UNL     1     -14.107  13.469  72.354  1.00  0.00    -0.563 A  
BRANCH   9  20
HETATM   20  C   UNL     1     -11.104  14.752  68.252  1.00  0.00    -0.274 A  
HETATM   21  C   UNL     1     -10.585  17.140  68.008  1.00  0.00    -0.374 A  
HETATM   22  C   UNL     1     -11.131  15.837  66.058  1.00  0.00    -0.085 A  
HETATM   23 CL   UNL     1     -10.601  18.453  65.656  1.00  0.00    -0.304 Cl 
HETATM   24  C   UNL     1     -10.700  15.990  68.798  1.00  0.00    -0.282 A  
HETATM   25  C   UNL     1     -10.781  17.053  66.637  1.00  0.00    -0.092 A  
HETATM   26  C   UNL     1     -11.332  14.709  66.866  1.00  0.00    -0.361 A  
ENDBRANCH   9  20
BRANCH  13  27
HETATM   27  N   UNL     1      -8.677   8.563  68.062  1.00  0.00    -0.141 NA 
HETATM   28  H   UNL     1      -7.729   8.473  68.428  1.00  0.00     0.000 HD 
BRANCH  27  29
HETATM   29  C   UNL     1      -9.179   7.474  67.302  1.00  0.00    -0.131 A  
HETATM   30  C   UNL     1     -10.274   6.686  67.679  1.00  0.00    -0.220 A  
HETATM   31  C   UNL     1     -10.743   5.654  66.853  1.00  0.00    -0.350 A  
HETATM   32  C   UNL     1     -10.099   5.378  65.650  1.00  0.00     0.173 A  
HETATM   33  C   UNL     1      -8.967   6.096  65.285  1.00  0.00     0.104 A  
HETATM   34 CL   UNL     1     -10.706   4.148  64.611  1.00  0.00    -0.233 Cl 
HETATM   35  C   UNL     1      -8.504   7.128  66.111  1.00  0.00    -0.143 A  
ENDBRANCH  27  29
ENDBRANCH  13  27
ENDBRANCH   4   6
ENDBRANCH   2   4
TORSDOF 5
ENDMDL
MODEL       56
REMARK 921   NORMALIZED FREE ENERGY PREDICTED BY IDOCK:   -5.37 KCAL/MOL
REMARK 922        TOTAL FREE ENERGY PREDICTED BY IDOCK:   -8.10 KCAL/MOL
REMARK 923 INTER-LIGAND FREE ENERGY PREDICTED BY IDOCK:   -7.52 KCAL/MOL
REMARK 924 INTRA-LIGAND FREE ENERGY PREDICTED BY IDOCK:   -0.58 KCAL/MOL
REMARK 927      BINDING AFFINITY PREDICTED BY RF-SCORE:    0.00 PKD
ROOT
HETATM    1  C   UNL     1      -8.419  10.350  66.419  1.00  0.00    -0.138 C  
HETATM    2  C   UNL     1      -9.906   9.989  66.400  1.00  0.00    -0.224 C  
HETATM    3  C   UNL     1     -10.647  10.927  65.452  1.00  0.00    -0.243 C  
ENDROOT
BRANCH   2   4
HETATM    4  N   UNL     1     -10.116   8.585  65.983  1.00  0.00    -0.425 NA 
HETATM    5  H   UNL     1     -10.374   8.365  65.020  1.00  0.00     0.000 HD 
BRANCH   4   6
HETATM    6  C   UNL     1      -9.970   7.636  66.857  1.00  0.00    -0.255 A  
HETATM    7  C   UNL     1     -10.302   7.763  68.296  1.00  0.00    -0.239 A  
HETATM    8  C   UNL     1     -10.364   6.786  69.208  1.00  0.00    -0.200 A  
HETATM    9  N   UNL     1     -10.811   6.919  70.552  1.00  0.00    -0.242 NA 
HETATM   10  C   UNL     1     -10.640   5.770  71.418  1.00  0.00    -0.253 A  
HETATM   11  C   UNL     1     -11.028   5.756  72.771  1.00  0.00    -0.314 A  
HETATM   12  C   UNL     1     -10.089   4.574  70.891  1.00  0.00    -0.158 A  
HETATM   13  C   UNL     1      -9.470   6.273  66.427  1.00  0.00    -0.133 A  
HETATM   14  N   UNL     1      -9.715   4.427  69.545  1.00  0.00    -0.205 NA 
HETATM   15  C   UNL     1     -10.816   4.640  73.590  1.00  0.00    -0.375 A  
HETATM   16  C   UNL     1      -9.909   3.454  71.715  1.00  0.00    -0.229 A  
HETATM   17  C   UNL     1      -9.416   5.302  67.349  1.00  0.00    -0.137 A  
HETATM   18  C   UNL     1      -9.844   5.452  68.763  1.00  0.00    -0.150 A  
HETATM   19  C   UNL     1     -10.257   3.487  73.062  1.00  0.00    -0.234 A  
BRANCH   9  20
HETATM   20  C   UNL     1     -11.467   8.140  70.971  1.00  0.00    -0.279 A  
HETATM   21  C   UNL     1     -13.426   9.280  71.919  1.00  0.00    -0.497 A  
HETATM   22  C   UNL     1     -11.557  10.581  71.135  1.00  0.00    -0.230 A  
HETATM   23 CL   UNL     1     -13.655  11.956  72.135  1.00  0.00    -0.371 Cl 
HETATM   24  C   UNL     1     -12.733   8.107  71.597  1.00  0.00    -0.343 A  
HETATM   25  C   UNL     1     -12.825  10.513  71.704  1.00  0.00    -0.475 A  
HETATM   26  C   UNL     1     -10.905   9.406  70.733  1.00  0.00    -0.372 A  
ENDBRANCH   9  20
BRANCH  13  27
HETATM   27  N   UNL     1      -9.054   6.158  65.099  1.00  0.00    -0.355 NA 
HETATM   28  H   UNL     1      -9.374   6.877  64.452  1.00  0.00     0.000 HD 
BRANCH  27  29
HETATM   29  C   UNL     1      -8.226   5.134  64.567  1.00  0.00    -0.133 A  
HETATM   30  C   UNL     1      -6.831   5.104  64.687  1.00  0.00    -0.049 A  
HETATM   31  C   UNL     1      -6.082   4.035  64.174  1.00  0.00    -0.018 A  
HETATM   32  C   UNL     1      -6.722   2.995  63.505  1.00  0.00    -0.032 A  
HETATM   33  C   UNL     1      -8.096   3.035  63.307  1.00  0.00    -0.080 A  
HETATM   34 CL   UNL     1      -5.810   1.657  62.922  1.00  0.00    -0.008 Cl 
HETATM   35  C   UNL     1      -8.840   4.103  63.825  1.00  0.00    -0.124 A  
ENDBRANCH  27  29
ENDBRANCH  13  27
ENDBRANCH   4   6
ENDBRANCH   2   4
TORSDOF 5
ENDMDL
MODEL       57
REMARK 921   NORMALIZED FREE ENERGY PREDICTED BY IDOCK:   -5.36 KCAL/MOL
REMARK 922        TOTAL FREE ENERGY PREDICTED BY IDOCK:   -8.09 KCAL/MOL
REMARK 923 INTER-LIGAND FREE ENERGY PREDICTED BY IDOCK:   -6.96 KCAL/MOL
REMARK 924 INTRA-LIGAND FREE ENERGY PREDICTED BY IDOCK:   -1.13 KCAL/MOL
REMARK 927      BINDING AFFINITY PREDICTED BY RF-SCORE:    0.00 PKD
ROOT
HETATM    1  C   UNL     1     -11.495  10.621  68.171  1.00  0.00    -0.303 C  
HETATM    2  C   UNL     1     -10.401  10.932  69.195  1.00  0.00    -0.208 C  
HETATM    3  C   UNL     1     -10.620  10.089  70.448  1.00  0.00    -0.343 C  
ENDROOT
BRANCH   2   4
HETATM    4  N   UNL     1      -9.053  10.671  68.643  1.00  0.00    -0.162 NA 
HETATM    5  H   UNL     1      -8.276  11.294  68.864  1.00  0.00     0.000 HD 
BRANCH   4   6
HETATM    6  C   UNL     1      -8.872   9.639  67.876  1.00  0.00    -0.119 A  
HETATM    7  C   UNL     1      -8.984   8.231  68.324  1.00  0.00    -0.136 A  
HETATM    8  C   UNL     1      -9.005   7.131  67.562  1.00  0.00    -0.121 A  
HETATM    9  N   UNL     1      -9.243   5.802  68.010  1.00  0.00    -0.109 NA 
HETATM   10  C   UNL     1      -9.057   4.740  67.044  1.00  0.00    -0.118 A  
HETATM   11  C   UNL     1      -9.249   3.378  67.344  1.00  0.00    -0.228 A  
HETATM   12  C   UNL     1      -8.697   5.063  65.711  1.00  0.00    -0.135 A  
HETATM   13  C   UNL     1      -8.563   9.827  66.406  1.00  0.00    -0.124 A  
HETATM   14  N   UNL     1      -8.531   6.382  65.257  1.00  0.00    -0.133 NA 
HETATM   15  C   UNL     1      -9.026   2.373  66.395  1.00  0.00    -0.124 A  
HETATM   16  C   UNL     1      -8.504   4.048  64.763  1.00  0.00    -0.107 A  
HETATM   17  C   UNL     1      -8.467   8.733  65.637  1.00  0.00    -0.174 A  
HETATM   18  C   UNL     1      -8.676   7.342  66.114  1.00  0.00    -0.155 A  
HETATM   19  C   UNL     1      -8.653   2.707  65.103  1.00  0.00    -0.103 A  
BRANCH   9  20
HETATM   20  C   UNL     1      -9.721   5.577  69.359  1.00  0.00    -0.160 A  
HETATM   21  C   UNL     1     -11.443   5.893  71.082  1.00  0.00    -0.152 A  
HETATM   22  C   UNL     1      -9.393   4.761  71.644  1.00  0.00    -0.194 A  
HETATM   23 CL   UNL     1     -11.194   5.061  73.632  1.00  0.00    -0.343 Cl 
HETATM   24  C   UNL     1     -11.003   6.013  69.758  1.00  0.00    -0.471 A  
HETATM   25  C   UNL     1     -10.642   5.248  72.014  1.00  0.00    -0.216 A  
HETATM   26  C   UNL     1      -8.921   4.963  70.338  1.00  0.00    -0.151 A  
ENDBRANCH   9  20
BRANCH  13  27
HETATM   27  N   UNL     1      -8.351  11.140  65.982  1.00  0.00    -0.272 NA 
HETATM   28  H   UNL     1      -7.384  11.461  65.940  1.00  0.00     0.000 HD 
BRANCH  27  29
HETATM   29  C   UNL     1      -9.355  12.071  65.603  1.00  0.00    -0.078 A  
HETATM   30  C   UNL     1      -9.565  13.304  66.231  1.00  0.00    -0.244 A  
HETATM   31  C   UNL     1     -10.548  14.193  65.772  1.00  0.00    -0.306 A  
HETATM   32  C   UNL     1     -11.354  13.842  64.692  1.00  0.00    -0.375 A  
HETATM   33  C   UNL     1     -11.216  12.595  64.096  1.00  0.00    -0.437 A  
HETATM   34 CL   UNL     1     -12.523  14.954  64.094  1.00  0.00    -0.318 Cl 
HETATM   35  C   UNL     1     -10.230  11.712  64.556  1.00  0.00    -0.337 A  
ENDBRANCH  27  29
ENDBRANCH  13  27
ENDBRANCH   4   6
ENDBRANCH   2   4
TORSDOF 5
ENDMDL
MODEL       58
REMARK 921   NORMALIZED FREE ENERGY PREDICTED BY IDOCK:   -5.36 KCAL/MOL
REMARK 922        TOTAL FREE ENERGY PREDICTED BY IDOCK:   -8.08 KCAL/MOL
REMARK 923 INTER-LIGAND FREE ENERGY PREDICTED BY IDOCK:   -6.50 KCAL/MOL
REMARK 924 INTRA-LIGAND FREE ENERGY PREDICTED BY IDOCK:   -1.59 KCAL/MOL
REMARK 927      BINDING AFFINITY PREDICTED BY RF-SCORE:    0.00 PKD
ROOT
HETATM    1  C   UNL     1      -9.682   8.582  68.204  1.00  0.00    -0.175 C  
HETATM    2  C   UNL     1     -10.190   9.997  68.491  1.00  0.00    -0.175 C  
HETATM    3  C   UNL     1     -11.340   9.934  69.491  1.00  0.00    -0.172 C  
ENDROOT
BRANCH   2   4
HETATM    4  N   UNL     1      -9.112  10.862  69.019  1.00  0.00    -0.314 NA 
HETATM    5  H   UNL     1      -8.573  10.575  69.836  1.00  0.00     0.000 HD 
BRANCH   4   6
HETATM    6  C   UNL     1      -8.862  11.993  68.431  1.00  0.00    -0.149 A  
HETATM    7  C   UNL     1      -9.637  13.238  68.645  1.00  0.00    -0.053 A  
HETATM    8  C   UNL     1      -9.326  14.473  68.234  1.00  0.00    -0.203 A  
HETATM    9  N   UNL     1     -10.022  15.669  68.564  1.00  0.00    -0.208 NA 
HETATM   10  C   UNL     1      -9.615  16.877  67.877  1.00  0.00    -0.244 A  
HETATM   11  C   UNL     1     -10.216  18.131  68.095  1.00  0.00    -0.400 A  
HETATM   12  C   UNL     1      -8.535  16.829  66.959  1.00  0.00    -0.199 A  
HETATM   13  C   UNL     1      -7.686  12.117  67.486  1.00  0.00    -0.159 A  
HETATM   14  N   UNL     1      -7.806  15.659  66.690  1.00  0.00    -0.180 NA 
HETATM   15  C   UNL     1      -9.821  19.274  67.388  1.00  0.00    -0.425 A  
HETATM   16  C   UNL     1      -8.131  17.986  66.279  1.00  0.00    -0.259 A  
HETATM   17  C   UNL     1      -7.418  13.324  66.969  1.00  0.00     0.200 A  
HETATM   18  C   UNL     1      -8.171  14.566  67.283  1.00  0.00    -0.208 A  
HETATM   19  C   UNL     1      -8.777  19.202  66.479  1.00  0.00    -0.348 A  
BRANCH   9  20
HETATM   20  C   UNL     1     -11.035  15.645  69.599  1.00  0.00    -0.288 A  
HETATM   21  C   UNL     1     -11.644  15.756  71.976  1.00  0.00    -0.541 A  
HETATM   22  C   UNL     1     -13.348  15.318  70.331  1.00  0.00    -0.087 A  
HETATM   23 CL   UNL     1     -14.146  15.394  72.909  1.00  0.00    -0.388 Cl 
HETATM   24  C   UNL     1     -10.698  15.873  70.951  1.00  0.00     0.045 A  
HETATM   25  C   UNL     1     -12.971  15.498  71.658  1.00  0.00    -0.464 A  
HETATM   26  C   UNL     1     -12.380  15.348  69.317  1.00  0.00    -0.127 A  
ENDBRANCH   9  20
BRANCH  13  27
HETATM   27  N   UNL     1      -7.004  10.936  67.189  1.00  0.00    -0.092 NA 
HETATM   28  H   UNL     1      -6.283  10.642  67.847  1.00  0.00     0.000 HD 
BRANCH  27  29
HETATM   29  C   UNL     1      -7.220  10.105  66.057  1.00  0.00    -0.118 A  
HETATM   30  C   UNL     1      -6.391   9.037  65.693  1.00  0.00    -0.063 A  
HETATM   31  C   UNL     1      -6.693   8.231  64.586  1.00  0.00    -0.068 A  
HETATM   32  C   UNL     1      -7.817   8.505  63.811  1.00  0.00    -0.150 A  
HETATM   33  C   UNL     1      -8.617   9.602  64.106  1.00  0.00    -0.209 A  
HETATM   34 CL   UNL     1      -8.218   7.484  62.485  1.00  0.00    -0.112 Cl 
HETATM   35  C   UNL     1      -8.313  10.402  65.215  1.00  0.00    -0.166 A  
ENDBRANCH  27  29
ENDBRANCH  13  27
ENDBRANCH   4   6
ENDBRANCH   2   4
TORSDOF 5
ENDMDL
MODEL       59
REMARK 921   NORMALIZED FREE ENERGY PREDICTED BY IDOCK:   -5.34 KCAL/MOL
REMARK 922        TOTAL FREE ENERGY PREDICTED BY IDOCK:   -8.06 KCAL/MOL
REMARK 923 INTER-LIGAND FREE ENERGY PREDICTED BY IDOCK:   -6.98 KCAL/MOL
REMARK 924 INTRA-LIGAND FREE ENERGY PREDICTED BY IDOCK:   -1.09 KCAL/MOL
REMARK 927      BINDING AFFINITY PREDICTED BY RF-SCORE:    0.00 PKD
ROOT
HETATM    1  C   UNL     1     -11.642  11.226  68.093  1.00  0.00    -0.359 C  
HETATM    2  C   UNL     1     -10.718  11.417  69.297  1.00  0.00    -0.151 C  
HETATM    3  C   UNL     1     -11.172  10.513  70.438  1.00  0.00    -0.378 C  
ENDROOT
BRANCH   2   4
HETATM    4  N   UNL     1      -9.310  11.122  68.951  1.00  0.00    -0.335 NA 
HETATM    5  H   UNL     1      -8.553  11.674  69.354  1.00  0.00     0.000 HD 
BRANCH   4   6
HETATM    6  C   UNL     1      -9.050  10.151  68.129  1.00  0.00    -0.128 A  
HETATM    7  C   UNL     1      -9.139   8.713  68.477  1.00  0.00    -0.138 A  
HETATM    8  C   UNL     1      -9.078   7.667  67.643  1.00  0.00    -0.129 A  
HETATM    9  N   UNL     1      -9.295   6.304  67.988  1.00  0.00    -0.116 NA 
HETATM   10  C   UNL     1      -9.018   5.315  66.967  1.00  0.00    -0.112 A  
HETATM   11  C   UNL     1      -9.180   3.931  67.165  1.00  0.00    -0.197 A  
HETATM   12  C   UNL     1      -8.594   5.739  65.682  1.00  0.00    -0.151 A  
HETATM   13  C   UNL     1      -8.665  10.447  66.696  1.00  0.00    -0.135 A  
HETATM   14  N   UNL     1      -8.449   7.090  65.326  1.00  0.00    -0.099 NA 
HETATM   15  C   UNL     1      -8.868   3.000  66.167  1.00  0.00    -0.143 A  
HETATM   16  C   UNL     1      -8.313   4.797  64.682  1.00  0.00    -0.130 A  
HETATM   17  C   UNL     1      -8.488   9.411  65.864  1.00  0.00    -0.135 A  
HETATM   18  C   UNL     1      -8.675   7.985  66.235  1.00  0.00    -0.153 A  
HETATM   19  C   UNL     1      -8.435   3.432  64.924  1.00  0.00    -0.101 A  
BRANCH   9  20
HETATM   20  C   UNL     1      -9.840   5.973  69.289  1.00  0.00    -0.152 A  
HETATM   21  C   UNL     1     -11.653   6.146  70.937  1.00  0.00    -0.259 A  
HETATM   22  C   UNL     1      -9.624   4.987  71.519  1.00  0.00    -0.213 A  
HETATM   23 CL   UNL     1     -11.529   5.123  73.427  1.00  0.00    -0.311 Cl 
HETATM   24  C   UNL     1     -11.146   6.369  69.652  1.00  0.00    -0.465 A  
HETATM   25  C   UNL     1     -10.895   5.436  71.860  1.00  0.00    -0.186 A  
HETATM   26  C   UNL     1      -9.086   5.291  70.260  1.00  0.00    -0.169 A  
ENDBRANCH   9  20
BRANCH  13  27
HETATM   27  N   UNL     1      -8.475  11.792  66.372  1.00  0.00    -0.342 NA 
HETATM   28  H   UNL     1      -7.570  12.199  66.608  1.00  0.00     0.000 HD 
BRANCH  27  29
HETATM   29  C   UNL     1      -9.422  12.645  65.746  1.00  0.00    -0.033 A  
HETATM   30  C   UNL     1     -10.313  12.236  64.745  1.00  0.00    -0.320 A  
HETATM   31  C   UNL     1     -11.253  13.125  64.204  1.00  0.00    -0.433 A  
HETATM   32  C   UNL     1     -11.291  14.447  64.640  1.00  0.00    -0.371 A  
HETATM   33  C   UNL     1     -10.372  14.899  65.579  1.00  0.00    -0.388 A  
HETATM   34 CL   UNL     1     -12.480  15.524  64.017  1.00  0.00    -0.033 Cl 
HETATM   35  C   UNL     1      -9.438  14.006  66.119  1.00  0.00    -0.210 A  
ENDBRANCH  27  29
ENDBRANCH  13  27
ENDBRANCH   4   6
ENDBRANCH   2   4
TORSDOF 5
ENDMDL
MODEL       60
REMARK 921   NORMALIZED FREE ENERGY PREDICTED BY IDOCK:   -5.34 KCAL/MOL
REMARK 922        TOTAL FREE ENERGY PREDICTED BY IDOCK:   -8.06 KCAL/MOL
REMARK 923 INTER-LIGAND FREE ENERGY PREDICTED BY IDOCK:   -6.71 KCAL/MOL
REMARK 924 INTRA-LIGAND FREE ENERGY PREDICTED BY IDOCK:   -1.36 KCAL/MOL
REMARK 927      BINDING AFFINITY PREDICTED BY RF-SCORE:    0.00 PKD
ROOT
HETATM    1  C   UNL     1     -10.952   6.671  66.967  1.00  0.00    -0.463 C  
HETATM    2  C   UNL     1     -10.597   7.222  68.349  1.00  0.00    -0.170 C  
HETATM    3  C   UNL     1     -11.324   6.417  69.422  1.00  0.00    -0.443 C  
ENDROOT
BRANCH   2   4
HETATM    4  N   UNL     1      -9.138   7.178  68.591  1.00  0.00    -0.134 NA 
HETATM    5  H   UNL     1      -8.641   6.287  68.589  1.00  0.00     0.000 HD 
BRANCH   4   6
HETATM    6  C   UNL     1      -8.498   8.287  68.806  1.00  0.00    -0.125 A  
HETATM    7  C   UNL     1      -8.668   9.522  68.004  1.00  0.00    -0.120 A  
HETATM    8  C   UNL     1      -8.198  10.745  68.279  1.00  0.00    -0.124 A  
HETATM    9  N   UNL     1      -8.486  11.937  67.558  1.00  0.00    -0.153 NA 
HETATM   10  C   UNL     1      -7.741  13.123  67.925  1.00  0.00    -0.147 A  
HETATM   11  C   UNL     1      -7.912  14.371  67.297  1.00  0.00    -0.204 A  
HETATM   12  C   UNL     1      -6.810  13.060  68.994  1.00  0.00    -0.081 A  
HETATM   13  C   UNL     1      -7.530   8.398  69.965  1.00  0.00    -0.063 A  
HETATM   14  N   UNL     1      -6.582  11.897  69.748  1.00  0.00    -0.076 NA 
HETATM   15  C   UNL     1      -7.150  15.490  67.654  1.00  0.00    -0.199 A  
HETATM   16  C   UNL     1      -6.074  14.195  69.360  1.00  0.00    -0.104 A  
HETATM   17  C   UNL     1      -6.958   9.587  70.197  1.00  0.00    -0.092 A  
HETATM   18  C   UNL     1      -7.227  10.823  69.418  1.00  0.00    -0.132 A  
HETATM   19  C   UNL     1      -6.230  15.403  68.687  1.00  0.00    -0.096 A  
BRANCH   9  20
HETATM   20  C   UNL     1      -9.536  11.934  66.560  1.00  0.00    -0.217 A  
HETATM   21  C   UNL     1     -10.266  11.535  64.249  1.00  0.00    -0.361 A  
HETATM   22  C   UNL     1     -11.821  12.446  65.846  1.00  0.00    -0.467 A  
HETATM   23 CL   UNL     1     -12.743  12.076  63.336  1.00  0.00    -0.651 Cl 
HETATM   24  C   UNL     1      -9.295  11.455  65.253  1.00  0.00    -0.192 A  
HETATM   25  C   UNL     1     -11.533  12.013  64.556  1.00  0.00    -0.319 A  
HETATM   26  C   UNL     1     -10.817  12.446  66.826  1.00  0.00    -0.283 A  
ENDBRANCH   9  20
BRANCH  13  27
HETATM   27  N   UNL     1      -7.276   7.221  70.672  1.00  0.00    -0.065 NA 
HETATM   28  H   UNL     1      -6.325   6.857  70.633  1.00  0.00     0.000 HD 
BRANCH  27  29
HETATM   29  C   UNL     1      -8.217   6.484  71.439  1.00  0.00    -0.120 A  
HETATM   30  C   UNL     1      -9.123   7.058  72.340  1.00  0.00    -0.147 A  
HETATM   31  C   UNL     1     -10.056   6.270  73.031  1.00  0.00    -0.197 A  
HETATM   32  C   UNL     1     -10.072   4.890  72.848  1.00  0.00    -0.166 A  
HETATM   33  C   UNL     1      -9.137   4.286  72.015  1.00  0.00    -0.158 A  
HETATM   34 CL   UNL     1     -11.251   3.929  73.652  1.00  0.00    -0.322 Cl 
HETATM   35  C   UNL     1      -8.210   5.077  71.325  1.00  0.00    -0.116 A  
ENDBRANCH  27  29
ENDBRANCH  13  27
ENDBRANCH   4   6
ENDBRANCH   2   4
TORSDOF 5
ENDMDL
MODEL       61
REMARK 921   NORMALIZED FREE ENERGY PREDICTED BY IDOCK:   -5.33 KCAL/MOL
REMARK 922        TOTAL FREE ENERGY PREDICTED BY IDOCK:   -8.05 KCAL/MOL
REMARK 923 INTER-LIGAND FREE ENERGY PREDICTED BY IDOCK:   -7.26 KCAL/MOL
REMARK 924 INTRA-LIGAND FREE ENERGY PREDICTED BY IDOCK:   -0.79 KCAL/MOL
REMARK 927      BINDING AFFINITY PREDICTED BY RF-SCORE:    0.00 PKD
ROOT
HETATM    1  C   UNL     1     -13.251   9.103  71.347  1.00  0.00    -0.359 C  
HETATM    2  C   UNL     1     -11.889   9.579  71.856  1.00  0.00    -0.279 C  
HETATM    3  C   UNL     1     -11.089   8.385  72.368  1.00  0.00    -0.431 C  
ENDROOT
BRANCH   2   4
HETATM    4  N   UNL     1     -11.128  10.277  70.796  1.00  0.00    -0.380 NA 
HETATM    5  H   UNL     1     -10.925  11.273  70.877  1.00  0.00     0.000 HD 
BRANCH   4   6
HETATM    6  C   UNL     1     -10.722   9.606  69.761  1.00  0.00    -0.245 A  
HETATM    7  C   UNL     1      -9.743   8.494  69.815  1.00  0.00    -0.179 A  
HETATM    8  C   UNL     1      -9.427   7.637  68.837  1.00  0.00    -0.149 A  
HETATM    9  N   UNL     1      -8.579   6.501  68.956  1.00  0.00    -0.125 NA 
HETATM   10  C   UNL     1      -8.239   5.804  67.733  1.00  0.00    -0.101 A  
HETATM   11  C   UNL     1      -7.406   4.670  67.694  1.00  0.00    -0.074 A  
HETATM   12  C   UNL     1      -8.788   6.245  66.502  1.00  0.00    -0.138 A  
HETATM   13  C   UNL     1     -11.284   9.906  68.388  1.00  0.00    -0.074 A  
HETATM   14  N   UNL     1      -9.681   7.325  66.400  1.00  0.00    -0.129 NA 
HETATM   15  C   UNL     1      -7.069   4.040  66.490  1.00  0.00    -0.064 A  
HETATM   16  C   UNL     1      -8.465   5.587  65.307  1.00  0.00    -0.147 A  
HETATM   17  C   UNL     1     -10.897   9.131  67.366  1.00  0.00    -0.140 A  
HETATM   18  C   UNL     1      -9.979   7.969  67.483  1.00  0.00    -0.194 A  
HETATM   19  C   UNL     1      -7.599   4.499  65.295  1.00  0.00    -0.081 A  
BRANCH   9  20
HETATM   20  C   UNL     1      -8.159   6.056  70.269  1.00  0.00    -0.111 A  
HETATM   21  C   UNL     1      -6.443   5.939  72.022  1.00  0.00    -0.050 A  
HETATM   22  C   UNL     1      -8.524   4.763  72.315  1.00  0.00    -0.119 A  
HETATM   23 CL   UNL     1      -6.714   4.536  74.306  1.00  0.00    -0.063 Cl 
HETATM   24  C   UNL     1      -6.907   6.438  70.800  1.00  0.00    -0.063 A  
HETATM   25  C   UNL     1      -7.263   5.119  72.784  1.00  0.00    -0.089 A  
HETATM   26  C   UNL     1      -8.948   5.194  71.050  1.00  0.00    -0.159 A  
ENDBRANCH   9  20
BRANCH  13  27
HETATM   27  N   UNL     1     -12.129  11.014  68.295  1.00  0.00    -0.788 NA 
HETATM   28  H   UNL     1     -13.040  10.938  68.747  1.00  0.00     0.000 HD 
BRANCH  27  29
HETATM   29  C   UNL     1     -11.839  12.235  67.631  1.00  0.00    -0.264 A  
HETATM   30  C   UNL     1     -11.693  13.470  68.277  1.00  0.00    -0.394 A  
HETATM   31  C   UNL     1     -11.361  14.628  67.560  1.00  0.00    -0.361 A  
HETATM   32  C   UNL     1     -11.201  14.569  66.178  1.00  0.00    -0.339 A  
HETATM   33  C   UNL     1     -11.411  13.373  65.502  1.00  0.00    -0.310 A  
HETATM   34 CL   UNL     1     -10.741  15.977  65.304  1.00  0.00    -0.429 Cl 
HETATM   35  C   UNL     1     -11.739  12.218  66.224  1.00  0.00    -0.431 A  
ENDBRANCH  27  29
ENDBRANCH  13  27
ENDBRANCH   4   6
ENDBRANCH   2   4
TORSDOF 5
ENDMDL
MODEL       62
REMARK 921   NORMALIZED FREE ENERGY PREDICTED BY IDOCK:   -5.31 KCAL/MOL
REMARK 922        TOTAL FREE ENERGY PREDICTED BY IDOCK:   -8.02 KCAL/MOL
REMARK 923 INTER-LIGAND FREE ENERGY PREDICTED BY IDOCK:   -7.57 KCAL/MOL
REMARK 924 INTRA-LIGAND FREE ENERGY PREDICTED BY IDOCK:   -0.45 KCAL/MOL
REMARK 927      BINDING AFFINITY PREDICTED BY RF-SCORE:    0.00 PKD
ROOT
HETATM    1  C   UNL     1     -10.811   5.826  66.743  1.00  0.00    -0.327 C  
HETATM    2  C   UNL     1      -9.640   6.811  66.786  1.00  0.00    -0.166 C  
HETATM    3  C   UNL     1      -8.326   6.039  66.859  1.00  0.00    -0.105 C  
ENDROOT
BRANCH   2   4
HETATM    4  N   UNL     1      -9.636   7.700  65.604  1.00  0.00    -0.223 NA 
HETATM    5  H   UNL     1      -9.422   7.326  64.678  1.00  0.00     0.000 HD 
BRANCH   4   6
HETATM    6  C   UNL     1      -9.907   8.960  65.757  1.00  0.00    -0.036 A  
HETATM    7  C   UNL     1     -10.466   9.552  66.996  1.00  0.00    -0.302 A  
HETATM    8  C   UNL     1     -10.586  10.851  67.297  1.00  0.00    -0.251 A  
HETATM    9  N   UNL     1     -11.008  11.388  68.545  1.00  0.00    -0.204 NA 
HETATM   10  C   UNL     1     -11.227  12.818  68.604  1.00  0.00    -0.282 A  
HETATM   11  C   UNL     1     -11.650  13.489  69.767  1.00  0.00    -0.313 A  
HETATM   12  C   UNL     1     -10.976  13.611  67.455  1.00  0.00    -0.268 A  
HETATM   13  C   UNL     1      -9.614   9.945  64.645  1.00  0.00    -0.252 A  
HETATM   14  N   UNL     1     -10.494  13.084  66.246  1.00  0.00    -0.272 NA 
HETATM   15  C   UNL     1     -11.887  14.869  69.780  1.00  0.00    -0.356 A  
HETATM   16  C   UNL     1     -11.191  14.996  67.490  1.00  0.00    -0.333 A  
HETATM   17  C   UNL     1      -9.832  11.246  64.882  1.00  0.00    -0.310 A  
HETATM   18  C   UNL     1     -10.310  11.803  66.173  1.00  0.00    -0.230 A  
HETATM   19  C   UNL     1     -11.657  15.624  68.641  1.00  0.00    -0.391 A  
BRANCH   9  20
HETATM   20  C   UNL     1     -11.127  10.516  69.696  1.00  0.00    -0.283 A  
HETATM   21  C   UNL     1     -10.117   8.910  71.255  1.00  0.00    -0.365 A  
HETATM   22  C   UNL     1     -12.463   9.421  71.430  1.00  0.00    -0.435 A  
HETATM   23 CL   UNL     1     -11.482   7.623  73.189  1.00  0.00    -0.283 Cl 
HETATM   24  C   UNL     1     -10.003   9.831  70.208  1.00  0.00    -0.309 A  
HETATM   25  C   UNL     1     -11.345   8.724  71.875  1.00  0.00    -0.361 A  
HETATM   26  C   UNL     1     -12.362  10.275  70.322  1.00  0.00    -0.267 A  
ENDBRANCH   9  20
BRANCH  13  27
HETATM   27  N   UNL     1      -9.184   9.399  63.434  1.00  0.00    -0.441 NA 
HETATM   28  H   UNL     1      -9.643   9.735  62.588  1.00  0.00     0.000 HD 
BRANCH  27  29
HETATM   29  C   UNL     1      -8.167   8.421  63.270  1.00  0.00    -0.119 A  
HETATM   30  C   UNL     1      -6.835   8.593  63.665  1.00  0.00    -0.088 A  
HETATM   31  C   UNL     1      -5.894   7.563  63.512  1.00  0.00    -0.049 A  
HETATM   32  C   UNL     1      -6.273   6.356  62.932  1.00  0.00    -0.030 A  
HETATM   33  C   UNL     1      -7.571   6.183  62.466  1.00  0.00    -0.072 A  
HETATM   34 CL   UNL     1      -5.135   5.073  62.794  1.00  0.00    -0.009 Cl 
HETATM   35  C   UNL     1      -8.507   7.213  62.624  1.00  0.00     0.163 A  
ENDBRANCH  27  29
ENDBRANCH  13  27
ENDBRANCH   4   6
ENDBRANCH   2   4
TORSDOF 5
ENDMDL
MODEL       63
REMARK 921   NORMALIZED FREE ENERGY PREDICTED BY IDOCK:   -5.29 KCAL/MOL
REMARK 922        TOTAL FREE ENERGY PREDICTED BY IDOCK:   -8.00 KCAL/MOL
REMARK 923 INTER-LIGAND FREE ENERGY PREDICTED BY IDOCK:   -6.59 KCAL/MOL
REMARK 924 INTRA-LIGAND FREE ENERGY PREDICTED BY IDOCK:   -1.41 KCAL/MOL
REMARK 927      BINDING AFFINITY PREDICTED BY RF-SCORE:    0.00 PKD
ROOT
HETATM    1  C   UNL     1      -8.851   8.629  71.081  1.00  0.00    -0.249 C  
HETATM    2  C   UNL     1      -7.693   9.500  70.588  1.00  0.00    -0.124 C  
HETATM    3  C   UNL     1      -6.440   9.193  71.403  1.00  0.00    -0.067 C  
ENDROOT
BRANCH   2   4
HETATM    4  N   UNL     1      -7.424   9.279  69.150  1.00  0.00    -0.071 NA 
HETATM    5  H   UNL     1      -6.575   8.798  68.852  1.00  0.00     0.000 HD 
BRANCH   4   6
HETATM    6  C   UNL     1      -8.280   9.705  68.272  1.00  0.00    -0.106 A  
HETATM    7  C   UNL     1      -8.634  11.130  68.071  1.00  0.00    -0.140 A  
HETATM    8  C   UNL     1      -9.349  11.660  67.071  1.00  0.00    -0.181 A  
HETATM    9  N   UNL     1      -9.564  13.046  66.834  1.00  0.00    -0.236 NA 
HETATM   10  C   UNL     1     -10.506  13.397  65.791  1.00  0.00    -0.290 A  
HETATM   11  C   UNL     1     -10.825  14.724  65.450  1.00  0.00    -0.372 A  
HETATM   12  C   UNL     1     -11.125  12.368  65.036  1.00  0.00    -0.304 A  
HETATM   13  C   UNL     1      -8.961   8.731  67.335  1.00  0.00    -0.133 A  
HETATM   14  N   UNL     1     -10.856  11.003  65.228  1.00  0.00    -0.162 NA 
HETATM   15  C   UNL     1     -11.766  15.027  64.459  1.00  0.00    -0.372 A  
HETATM   16  C   UNL     1     -12.046  12.687  64.027  1.00  0.00    -0.542 A  
HETATM   17  C   UNL     1      -9.773   9.228  66.391  1.00  0.00    -0.325 A  
HETATM   18  C   UNL     1     -10.030  10.674  66.170  1.00  0.00    -0.228 A  
HETATM   19  C   UNL     1     -12.377  14.008  63.746  1.00  0.00    -0.195 A  
BRANCH   9  20
HETATM   20  C   UNL     1      -8.799  14.026  67.578  1.00  0.00    -0.199 A  
HETATM   21  C   UNL     1      -6.743  15.337  67.869  1.00  0.00    -0.167 A  
HETATM   22  C   UNL     1      -8.490  15.485  69.520  1.00  0.00    -0.211 A  
HETATM   23 CL   UNL     1      -6.274  16.960  69.969  1.00  0.00    -0.153 Cl 
HETATM   24  C   UNL     1      -7.539  14.467  67.116  1.00  0.00    -0.045 A  
HETATM   25  C   UNL     1      -7.232  15.858  69.059  1.00  0.00    -0.177 A  
HETATM   26  C   UNL     1      -9.247  14.544  68.806  1.00  0.00    -0.162 A  
ENDBRANCH   9  20
BRANCH  13  27
HETATM   27  N   UNL     1      -8.723   7.376  67.571  1.00  0.00    -0.124 NA 
HETATM   28  H   UNL     1      -8.213   7.139  68.422  1.00  0.00     0.000 HD 
BRANCH  27  29
HETATM   29  C   UNL     1      -9.123   6.297  66.739  1.00  0.00    -0.135 A  
HETATM   30  C   UNL     1     -10.412   5.750  66.722  1.00  0.00    -0.350 A  
HETATM   31  C   UNL     1     -10.747   4.713  65.839  1.00  0.00    -0.171 A  
HETATM   32  C   UNL     1      -9.783   4.190  64.981  1.00  0.00    -0.194 A  
HETATM   33  C   UNL     1      -8.478   4.665  65.027  1.00  0.00    -0.133 A  
HETATM   34 CL   UNL     1     -10.207   2.956  63.860  1.00  0.00    -0.166 Cl 
HETATM   35  C   UNL     1      -8.149   5.703  65.908  1.00  0.00    -0.111 A  
ENDBRANCH  27  29
ENDBRANCH  13  27
ENDBRANCH   4   6
ENDBRANCH   2   4
TORSDOF 5
ENDMDL
MODEL       64
REMARK 921   NORMALIZED FREE ENERGY PREDICTED BY IDOCK:   -5.28 KCAL/MOL
REMARK 922        TOTAL FREE ENERGY PREDICTED BY IDOCK:   -7.98 KCAL/MOL
REMARK 923 INTER-LIGAND FREE ENERGY PREDICTED BY IDOCK:   -6.62 KCAL/MOL
REMARK 924 INTRA-LIGAND FREE ENERGY PREDICTED BY IDOCK:   -1.37 KCAL/MOL
REMARK 927      BINDING AFFINITY PREDICTED BY RF-SCORE:    0.00 PKD
ROOT
HETATM    1  C   UNL     1      -5.407  12.241  71.194  1.00  0.00    -0.103 C  
HETATM    2  C   UNL     1      -6.063  11.958  69.841  1.00  0.00    -0.153 C  
HETATM    3  C   UNL     1      -5.151  11.060  69.010  1.00  0.00    -0.041 C  
ENDROOT
BRANCH   2   4
HETATM    4  N   UNL     1      -7.386  11.317  70.004  1.00  0.00    -0.363 NA 
HETATM    5  H   UNL     1      -7.677  10.957  70.913  1.00  0.00     0.000 HD 
BRANCH   4   6
HETATM    6  C   UNL     1      -8.173  11.217  68.976  1.00  0.00    -0.021 A  
HETATM    7  C   UNL     1      -8.876  12.360  68.345  1.00  0.00    -0.129 A  
HETATM    8  C   UNL     1      -9.538  12.369  67.182  1.00  0.00    -0.206 A  
HETATM    9  N   UNL     1     -10.093  13.510  66.540  1.00  0.00    -0.275 NA 
HETATM   10  C   UNL     1     -10.912  13.273  65.370  1.00  0.00    -0.284 A  
HETATM   11  C   UNL     1     -11.532  14.302  64.636  1.00  0.00    -0.389 A  
HETATM   12  C   UNL     1     -11.086  11.947  64.896  1.00  0.00    -0.307 A  
HETATM   13  C   UNL     1      -8.391   9.876  68.308  1.00  0.00    -0.110 A  
HETATM   14  N   UNL     1     -10.478  10.830  65.494  1.00  0.00    -0.230 NA 
HETATM   15  C   UNL     1     -12.346  14.034  63.529  1.00  0.00     0.034 A  
HETATM   16  C   UNL     1     -11.882  11.696  63.770  1.00  0.00    -0.382 A  
HETATM   17  C   UNL     1      -9.144   9.838  67.201  1.00  0.00    -0.152 A  
HETATM   18  C   UNL     1      -9.758  11.026  66.553  1.00  0.00    -0.198 A  
HETATM   19  C   UNL     1     -12.522  12.730  63.095  1.00  0.00    -0.187 A  
BRANCH   9  20
HETATM   20  C   UNL     1      -9.766  14.835  67.027  1.00  0.00    -0.237 A  
HETATM   21  C   UNL     1      -8.207  16.729  67.142  1.00  0.00    -0.210 A  
HETATM   22  C   UNL     1     -10.236  16.780  68.438  1.00  0.00    -0.296 A  
HETATM   23 CL   UNL     1      -8.599  18.914  68.670  1.00  0.00    -0.385 Cl 
HETATM   24  C   UNL     1      -8.589  15.493  66.608  1.00  0.00    -0.325 A  
HETATM   25  C   UNL     1      -9.044  17.376  68.041  1.00  0.00    -0.259 A  
HETATM   26  C   UNL     1     -10.571  15.502  67.967  1.00  0.00    -0.270 A  
ENDBRANCH   9  20
BRANCH  13  27
HETATM   27  N   UNL     1      -7.822   8.770  68.943  1.00  0.00    -0.102 NA 
HETATM   28  H   UNL     1      -7.088   8.957  69.625  1.00  0.00     0.000 HD 
BRANCH  27  29
HETATM   29  C   UNL     1      -8.171   7.410  68.729  1.00  0.00    -0.129 A  
HETATM   30  C   UNL     1      -7.569   6.582  67.773  1.00  0.00    -0.106 A  
HETATM   31  C   UNL     1      -7.934   5.234  67.649  1.00  0.00    -0.100 A  
HETATM   32  C   UNL     1      -8.932   4.705  68.465  1.00  0.00    -0.110 A  
HETATM   33  C   UNL     1      -9.596   5.521  69.372  1.00  0.00    -0.196 A  
HETATM   34 CL   UNL     1      -9.342   3.038  68.351  1.00  0.00    -0.249 Cl 
HETATM   35  C   UNL     1      -9.225   6.867  69.494  1.00  0.00    -0.148 A  
ENDBRANCH  27  29
ENDBRANCH  13  27
ENDBRANCH   4   6
ENDBRANCH   2   4
TORSDOF 5
ENDMDL
MODEL       65
REMARK 921   NORMALIZED FREE ENERGY PREDICTED BY IDOCK:   -5.24 KCAL/MOL
REMARK 922        TOTAL FREE ENERGY PREDICTED BY IDOCK:   -7.93 KCAL/MOL
REMARK 923 INTER-LIGAND FREE ENERGY PREDICTED BY IDOCK:   -7.21 KCAL/MOL
REMARK 924 INTRA-LIGAND FREE ENERGY PREDICTED BY IDOCK:   -0.72 KCAL/MOL
REMARK 927      BINDING AFFINITY PREDICTED BY RF-SCORE:    0.00 PKD
ROOT
HETATM    1  C   UNL     1      -5.168  11.292  70.783  1.00  0.00    -0.119 C  
HETATM    2  C   UNL     1      -6.201  11.486  69.672  1.00  0.00    -0.124 C  
HETATM    3  C   UNL     1      -7.351  10.501  69.866  1.00  0.00    -0.116 C  
ENDROOT
BRANCH   2   4
HETATM    4  N   UNL     1      -6.724  12.870  69.654  1.00  0.00    -0.335 NA 
HETATM    5  H   UNL     1      -6.467  13.529  70.390  1.00  0.00     0.000 HD 
BRANCH   4   6
HETATM    6  C   UNL     1      -7.515  13.237  68.691  1.00  0.00    -0.099 A  
HETATM    7  C   UNL     1      -8.218  12.300  67.783  1.00  0.00    -0.161 A  
HETATM    8  C   UNL     1      -9.188  12.588  66.906  1.00  0.00    -0.211 A  
HETATM    9  N   UNL     1      -9.934  11.650  66.140  1.00  0.00    -0.214 NA 
HETATM   10  C   UNL     1     -10.822  12.184  65.130  1.00  0.00    -0.300 A  
HETATM   11  C   UNL     1     -11.617  11.379  64.292  1.00  0.00    -0.097 A  
HETATM   12  C   UNL     1     -10.944  13.590  64.979  1.00  0.00    -0.335 A  
HETATM   13  C   UNL     1      -7.808  14.704  68.461  1.00  0.00    -0.133 A  
HETATM   14  N   UNL     1     -10.257  14.512  65.786  1.00  0.00    -0.317 NA 
HETATM   15  C   UNL     1     -12.440  11.928  63.301  1.00  0.00    -0.506 A  
HETATM   16  C   UNL     1     -11.793  14.127  64.002  1.00  0.00    -0.301 A  
HETATM   17  C   UNL     1      -8.695  15.028  67.510  1.00  0.00    -0.194 A  
HETATM   18  C   UNL     1      -9.444  14.048  66.682  1.00  0.00    -0.287 A  
HETATM   19  C   UNL     1     -12.529  13.303  63.156  1.00  0.00    -0.063 A  
BRANCH   9  20
HETATM   20  C   UNL     1      -9.831  10.237  66.442  1.00  0.00    -0.217 A  
HETATM   21  C   UNL     1     -10.374   8.332  67.896  1.00  0.00    -0.278 A  
HETATM   22  C   UNL     1      -8.899   8.013  66.019  1.00  0.00    -0.196 A  
HETATM   23 CL   UNL     1      -9.398   5.845  67.548  1.00  0.00    -0.111 Cl 
HETATM   24  C   UNL     1     -10.537   9.673  67.528  1.00  0.00    -0.339 A  
HETATM   25  C   UNL     1      -9.570   7.503  67.126  1.00  0.00    -0.161 A  
HETATM   26  C   UNL     1      -8.996   9.377  65.708  1.00  0.00    -0.227 A  
ENDBRANCH   9  20
BRANCH  13  27
HETATM   27  N   UNL     1      -7.080  15.608  69.236  1.00  0.00    -0.175 NA 
HETATM   28  H   UNL     1      -6.725  15.269  70.129  1.00  0.00     0.000 HD 
BRANCH  27  29
HETATM   29  C   UNL     1      -6.786  16.956  68.896  1.00  0.00    -0.209 A  
HETATM   30  C   UNL     1      -7.681  18.022  69.053  1.00  0.00    -0.121 A  
HETATM   31  C   UNL     1      -7.306  19.336  68.738  1.00  0.00    -0.381 A  
HETATM   32  C   UNL     1      -6.034  19.594  68.232  1.00  0.00    -0.228 A  
HETATM   33  C   UNL     1      -5.151  18.547  67.999  1.00  0.00    -0.167 A  
HETATM   34 CL   UNL     1      -5.553  21.211  67.897  1.00  0.00    -0.361 Cl 
HETATM   35  C   UNL     1      -5.530  17.237  68.319  1.00  0.00    -0.133 A  
ENDBRANCH  27  29
ENDBRANCH  13  27
ENDBRANCH   4   6
ENDBRANCH   2   4
TORSDOF 5
ENDMDL
MODEL       66
REMARK 921   NORMALIZED FREE ENERGY PREDICTED BY IDOCK:   -5.22 KCAL/MOL
REMARK 922        TOTAL FREE ENERGY PREDICTED BY IDOCK:   -7.91 KCAL/MOL
REMARK 923 INTER-LIGAND FREE ENERGY PREDICTED BY IDOCK:   -7.51 KCAL/MOL
REMARK 924 INTRA-LIGAND FREE ENERGY PREDICTED BY IDOCK:   -0.40 KCAL/MOL
REMARK 927      BINDING AFFINITY PREDICTED BY RF-SCORE:    0.00 PKD
ROOT
HETATM    1  C   UNL     1     -10.206   7.699  71.230  1.00  0.00    -0.204 C  
HETATM    2  C   UNL     1      -9.172   8.440  72.080  1.00  0.00    -0.234 C  
HETATM    3  C   UNL     1      -8.368   7.434  72.899  1.00  0.00    -0.140 C  
ENDROOT
BRANCH   2   4
HETATM    4  N   UNL     1      -8.259   9.247  71.241  1.00  0.00    -0.325 NA 
HETATM    5  H   UNL     1      -7.362   9.564  71.610  1.00  0.00     0.000 HD 
BRANCH   4   6
HETATM    6  C   UNL     1      -8.614   9.549  70.029  1.00  0.00    -0.215 A  
HETATM    7  C   UNL     1      -9.738  10.452  69.685  1.00  0.00    -0.158 A  
HETATM    8  C   UNL     1     -10.038  10.961  68.484  1.00  0.00    -0.183 A  
HETATM    9  N   UNL     1     -11.046  11.926  68.208  1.00  0.00    -0.221 NA 
HETATM   10  C   UNL     1     -11.315  12.216  66.815  1.00  0.00    -0.342 A  
HETATM   11  C   UNL     1     -12.286  13.142  66.390  1.00  0.00    -0.300 A  
HETATM   12  C   UNL     1     -10.550  11.575  65.808  1.00  0.00    -0.263 A  
HETATM   13  C   UNL     1      -7.837   9.006  68.848  1.00  0.00    -0.095 A  
HETATM   14  N   UNL     1      -9.509  10.674  66.089  1.00  0.00    -0.173 NA 
HETATM   15  C   UNL     1     -12.545  13.373  65.034  1.00  0.00    -0.459 A  
HETATM   16  C   UNL     1     -10.800  11.836  64.454  1.00  0.00    -0.389 A  
HETATM   17  C   UNL     1      -8.189   9.413  67.621  1.00  0.00    -0.114 A  
HETATM   18  C   UNL     1      -9.269  10.391  67.330  1.00  0.00    -0.142 A  
HETATM   19  C   UNL     1     -11.801  12.720  64.064  1.00  0.00    -0.506 A  
BRANCH   9  20
HETATM   20  C   UNL     1     -11.696  12.616  69.304  1.00  0.00    -0.322 A  
HETATM   21  C   UNL     1     -12.267  14.710  70.454  1.00  0.00    -0.391 A  
HETATM   22  C   UNL     1     -12.889  12.603  71.442  1.00  0.00    -0.358 A  
HETATM   23 CL   UNL     1     -13.557  14.829  72.816  1.00  0.00    -0.551 Cl 
HETATM   24  C   UNL     1     -11.732  14.027  69.356  1.00  0.00    -0.365 A  
HETATM   25  C   UNL     1     -12.862  13.993  71.484  1.00  0.00    -0.362 A  
HETATM   26  C   UNL     1     -12.273  11.922  70.382  1.00  0.00    -0.399 A  
ENDBRANCH   9  20
BRANCH  13  27
HETATM   27  N   UNL     1      -6.840   8.074  69.141  1.00  0.00    -0.051 NA 
HETATM   28  H   UNL     1      -6.284   8.241  69.979  1.00  0.00     0.000 HD 
BRANCH  27  29
HETATM   29  C   UNL     1      -6.528   6.915  68.382  1.00  0.00    -0.039 A  
HETATM   30  C   UNL     1      -5.495   6.844  67.438  1.00  0.00    -0.013 A  
HETATM   31  C   UNL     1      -5.215   5.650  66.758  1.00  0.00    -0.005 A  
HETATM   32  C   UNL     1      -5.989   4.517  66.994  1.00  0.00    -0.023 A  
HETATM   33  C   UNL     1      -7.066   4.578  67.871  1.00  0.00    -0.064 A  
HETATM   34 CL   UNL     1      -5.613   3.037  66.202  1.00  0.00    -0.017 Cl 
HETATM   35  C   UNL     1      -7.339   5.772  68.551  1.00  0.00    -0.084 A  
ENDBRANCH  27  29
ENDBRANCH  13  27
ENDBRANCH   4   6
ENDBRANCH   2   4
TORSDOF 5
ENDMDL
MODEL       67
REMARK 921   NORMALIZED FREE ENERGY PREDICTED BY IDOCK:   -5.17 KCAL/MOL
REMARK 922        TOTAL FREE ENERGY PREDICTED BY IDOCK:   -7.85 KCAL/MOL
REMARK 923 INTER-LIGAND FREE ENERGY PREDICTED BY IDOCK:   -7.50 KCAL/MOL
REMARK 924 INTRA-LIGAND FREE ENERGY PREDICTED BY IDOCK:   -0.35 KCAL/MOL
REMARK 927      BINDING AFFINITY PREDICTED BY RF-SCORE:    0.00 PKD
ROOT
HETATM    1  C   UNL     1     -10.167  12.205  66.097  1.00  0.00    -0.254 C  
HETATM    2  C   UNL     1      -9.615  10.925  66.728  1.00  0.00    -0.183 C  
HETATM    3  C   UNL     1      -8.720  11.283  67.910  1.00  0.00    -0.138 C  
ENDROOT
BRANCH   2   4
HETATM    4  N   UNL     1     -10.704  10.029  67.175  1.00  0.00    -0.239 NA 
HETATM    5  H   UNL     1     -11.460   9.777  66.538  1.00  0.00     0.000 HD 
BRANCH   4   6
HETATM    6  C   UNL     1     -10.686   9.567  68.389  1.00  0.00    -0.186 A  
HETATM    7  C   UNL     1     -10.074   8.276  68.785  1.00  0.00    -0.212 A  
HETATM    8  C   UNL     1      -9.845   7.828  70.025  1.00  0.00    -0.181 A  
HETATM    9  N   UNL     1      -9.140   6.643  70.374  1.00  0.00    -0.152 NA 
HETATM   10  C   UNL     1      -9.150   6.259  71.770  1.00  0.00    -0.144 A  
HETATM   11  C   UNL     1      -8.503   5.110  72.262  1.00  0.00    -0.125 A  
HETATM   12  C   UNL     1      -9.809   7.084  72.716  1.00  0.00    -0.174 A  
HETATM   13  C   UNL     1     -11.277  10.377  69.523  1.00  0.00    -0.269 A  
HETATM   14  N   UNL     1     -10.444   8.290  72.376  1.00  0.00    -0.314 NA 
HETATM   15  C   UNL     1      -8.562   4.748  73.613  1.00  0.00    -0.104 A  
HETATM   16  C   UNL     1      -9.836   6.726  74.071  1.00  0.00    -0.334 A  
HETATM   17  C   UNL     1     -11.160   9.897  70.768  1.00  0.00    -0.417 A  
HETATM   18  C   UNL     1     -10.459   8.637  71.128  1.00  0.00    -0.227 A  
HETATM   19  C   UNL     1      -9.229   5.557  74.520  1.00  0.00    -0.126 A  
BRANCH   9  20
HETATM   20  C   UNL     1      -8.399   5.926  69.356  1.00  0.00    -0.114 A  
HETATM   21  C   UNL     1      -8.289   4.139  67.675  1.00  0.00    -0.098 A  
HETATM   22  C   UNL     1      -6.329   5.462  68.134  1.00  0.00    -0.039 A  
HETATM   23 CL   UNL     1      -6.069   3.517  66.280  1.00  0.00    -0.024 Cl 
HETATM   24  C   UNL     1      -9.013   4.909  68.592  1.00  0.00    -0.130 A  
HETATM   25  C   UNL     1      -6.953   4.433  67.436  1.00  0.00    -0.063 A  
HETATM   26  C   UNL     1      -7.036   6.171  69.116  1.00  0.00    -0.070 A  
ENDBRANCH   9  20
BRANCH  13  27
HETATM   27  N   UNL     1     -11.949  11.546  69.162  1.00  0.00    -0.330 NA 
HETATM   28  H   UNL     1     -12.173  11.663  68.174  1.00  0.00     0.000 HD 
BRANCH  27  29
HETATM   29  C   UNL     1     -12.349  12.588  70.041  1.00  0.00    -0.084 A  
HETATM   30  C   UNL     1     -12.213  13.953  69.760  1.00  0.00    -0.388 A  
HETATM   31  C   UNL     1     -12.673  14.927  70.658  1.00  0.00    -0.422 A  
HETATM   32  C   UNL     1     -13.250  14.543  71.866  1.00  0.00    -0.359 A  
HETATM   33  C   UNL     1     -13.332  13.198  72.203  1.00  0.00    -0.621 A  
HETATM   34 CL   UNL     1     -13.864  15.735  72.944  1.00  0.00    -0.641 Cl 
HETATM   35  C   UNL     1     -12.874  12.229  71.301  1.00  0.00    -0.337 A  
ENDBRANCH  27  29
ENDBRANCH  13  27
ENDBRANCH   4   6
ENDBRANCH   2   4
TORSDOF 5
ENDMDL
MODEL       68
REMARK 921   NORMALIZED FREE ENERGY PREDICTED BY IDOCK:   -5.10 KCAL/MOL
REMARK 922        TOTAL FREE ENERGY PREDICTED BY IDOCK:   -7.75 KCAL/MOL
REMARK 923 INTER-LIGAND FREE ENERGY PREDICTED BY IDOCK:   -6.63 KCAL/MOL
REMARK 924 INTRA-LIGAND FREE ENERGY PREDICTED BY IDOCK:   -1.13 KCAL/MOL
REMARK 927      BINDING AFFINITY PREDICTED BY RF-SCORE:    0.00 PKD
ROOT
HETATM    1  C   UNL     1      -9.238  10.366  67.481  1.00  0.00    -0.156 C  
HETATM    2  C   UNL     1      -9.006  10.741  68.946  1.00  0.00    -0.153 C  
HETATM    3  C   UNL     1      -8.916   9.474  69.791  1.00  0.00    -0.214 C  
ENDROOT
BRANCH   2   4
HETATM    4  N   UNL     1      -7.773  11.543  69.111  1.00  0.00    -0.336 NA 
HETATM    5  H   UNL     1      -6.986  11.175  69.646  1.00  0.00     0.000 HD 
BRANCH   4   6
HETATM    6  C   UNL     1      -7.705  12.720  68.568  1.00  0.00    -0.113 A  
HETATM    7  C   UNL     1      -8.776  13.742  68.647  1.00  0.00    -0.051 A  
HETATM    8  C   UNL     1      -8.703  15.030  68.287  1.00  0.00    -0.166 A  
HETATM    9  N   UNL     1      -9.706  16.018  68.494  1.00  0.00    -0.208 NA 
HETATM   10  C   UNL     1      -9.491  17.311  67.878  1.00  0.00    -0.266 A  
HETATM   11  C   UNL     1     -10.397  18.382  67.990  1.00  0.00    -0.410 A  
HETATM   12  C   UNL     1      -8.297  17.547  67.150  1.00  0.00    -0.216 A  
HETATM   13  C   UNL     1      -6.456  13.148  67.827  1.00  0.00    -0.153 A  
HETATM   14  N   UNL     1      -7.279  16.590  67.008  1.00  0.00    -0.190 NA 
HETATM   15  C   UNL     1     -10.174  19.609  67.353  1.00  0.00    -0.561 A  
HETATM   16  C   UNL     1      -8.074  18.790  66.540  1.00  0.00    -0.302 A  
HETATM   17  C   UNL     1      -6.401  14.402  67.357  1.00  0.00     0.136 A  
HETATM   18  C   UNL     1      -7.466  15.422  67.538  1.00  0.00    -0.189 A  
HETATM   19  C   UNL     1      -9.012  19.814  66.627  1.00  0.00    -0.437 A  
BRANCH   9  20
HETATM   20  C   UNL     1     -10.837  15.722  69.349  1.00  0.00    -0.269 A  
HETATM   21  C   UNL     1     -12.005  15.992  71.493  1.00  0.00    -0.539 A  
HETATM   22  C   UNL     1     -12.901  14.497  69.831  1.00  0.00     0.015 A  
HETATM   23 CL   UNL     1     -14.269  14.687  72.151  1.00  0.00    -0.579 Cl 
HETATM   24  C   UNL     1     -10.974  16.338  70.612  1.00  0.00    -0.179 A  
HETATM   25  C   UNL     1     -12.976  15.086  71.089  1.00  0.00    -0.390 A  
HETATM   26  C   UNL     1     -11.817  14.781  68.988  1.00  0.00    -0.337 A  
ENDBRANCH   9  20
BRANCH  13  27
HETATM   27  N   UNL     1      -5.477  12.170  67.651  1.00  0.00    -0.081 NA 
HETATM   28  H   UNL     1      -4.597  12.303  68.149  1.00  0.00     0.000 HD 
BRANCH  27  29
HETATM   29  C   UNL     1      -5.590  11.007  66.843  1.00  0.00    -0.076 A  
HETATM   30  C   UNL     1      -5.857  11.023  65.469  1.00  0.00     0.031 A  
HETATM   31  C   UNL     1      -5.910   9.835  64.726  1.00  0.00    -0.087 A  
HETATM   32  C   UNL     1      -5.724   8.609  65.361  1.00  0.00    -0.047 A  
HETATM   33  C   UNL     1      -5.529   8.558  66.736  1.00  0.00    -0.036 A  
HETATM   34 CL   UNL     1      -5.734   7.154  64.442  1.00  0.00    -0.033 Cl 
HETATM   35  C   UNL     1      -5.474   9.748  67.472  1.00  0.00    -0.036 A  
ENDBRANCH  27  29
ENDBRANCH  13  27
ENDBRANCH   4   6
ENDBRANCH   2   4
TORSDOF 5
ENDMDL
MODEL       69
REMARK 921   NORMALIZED FREE ENERGY PREDICTED BY IDOCK:   -5.10 KCAL/MOL
REMARK 922        TOTAL FREE ENERGY PREDICTED BY IDOCK:   -7.75 KCAL/MOL
REMARK 923 INTER-LIGAND FREE ENERGY PREDICTED BY IDOCK:   -6.96 KCAL/MOL
REMARK 924 INTRA-LIGAND FREE ENERGY PREDICTED BY IDOCK:   -0.80 KCAL/MOL
REMARK 927      BINDING AFFINITY PREDICTED BY RF-SCORE:    0.00 PKD
ROOT
HETATM    1  C   UNL     1     -11.237  11.230  65.016  1.00  0.00    -0.082 C  
HETATM    2  C   UNL     1      -9.921  10.456  64.914  1.00  0.00    -0.339 C  
HETATM    3  C   UNL     1      -9.215  10.820  63.611  1.00  0.00    -0.268 C  
ENDROOT
BRANCH   2   4
HETATM    4  N   UNL     1      -9.034  10.742  66.063  1.00  0.00    -0.174 NA 
HETATM    5  H   UNL     1      -8.167  11.264  65.929  1.00  0.00     0.000 HD 
BRANCH   4   6
HETATM    6  C   UNL     1      -9.371  10.322  67.244  1.00  0.00    -0.149 A  
HETATM    7  C   UNL     1      -9.702   8.914  67.569  1.00  0.00    -0.216 A  
HETATM    8  C   UNL     1      -9.865   8.374  68.783  1.00  0.00    -0.173 A  
HETATM    9  N   UNL     1     -10.055   6.994  69.070  1.00  0.00    -0.175 NA 
HETATM   10  C   UNL     1     -10.376   6.645  70.438  1.00  0.00    -0.199 A  
HETATM   11  C   UNL     1     -10.597   5.323  70.869  1.00  0.00    -0.247 A  
HETATM   12  C   UNL     1     -10.443   7.665  71.422  1.00  0.00    -0.208 A  
HETATM   13  C   UNL     1      -9.406  11.281  68.415  1.00  0.00    -0.181 A  
HETATM   14  N   UNL     1     -10.186   9.018  71.146  1.00  0.00    -0.266 NA 
HETATM   15  C   UNL     1     -10.941   5.024  72.193  1.00  0.00    -0.122 A  
HETATM   16  C   UNL     1     -10.761   7.348  72.750  1.00  0.00    -0.362 A  
HETATM   17  C   UNL     1      -9.677  10.784  69.629  1.00  0.00     0.086 A  
HETATM   18  C   UNL     1      -9.916   9.347  69.923  1.00  0.00    -0.212 A  
HETATM   19  C   UNL     1     -11.023   6.037  73.135  1.00  0.00    -0.269 A  
BRANCH   9  20
HETATM   20  C   UNL     1      -9.852   6.011  68.025  1.00  0.00    -0.124 A  
HETATM   21  C   UNL     1      -8.375   4.448  66.838  1.00  0.00    -0.101 A  
HETATM   22  C   UNL     1     -10.627   4.784  66.054  1.00  0.00    -0.300 A  
HETATM   23 CL   UNL     1      -9.101   3.056  64.649  1.00  0.00    -0.129 Cl 
HETATM   24  C   UNL     1      -8.623   5.326  67.899  1.00  0.00    -0.103 A  
HETATM   25  C   UNL     1      -9.387   4.165  65.931  1.00  0.00    -0.163 A  
HETATM   26  C   UNL     1     -10.841   5.730  67.066  1.00  0.00    -0.328 A  
ENDBRANCH   9  20
BRANCH  13  27
HETATM   27  N   UNL     1      -9.199  12.629  68.115  1.00  0.00    -0.206 NA 
HETATM   28  H   UNL     1      -8.451  13.104  68.620  1.00  0.00     0.000 HD 
BRANCH  27  29
HETATM   29  C   UNL     1      -9.932  13.400  67.175  1.00  0.00    -0.242 A  
HETATM   30  C   UNL     1      -9.356  14.102  66.109  1.00  0.00    -0.166 A  
HETATM   31  C   UNL     1     -10.149  14.807  65.192  1.00  0.00    -0.358 A  
HETATM   32  C   UNL     1     -11.532  14.841  65.350  1.00  0.00    -0.341 A  
HETATM   33  C   UNL     1     -12.125  14.214  66.439  1.00  0.00    -0.475 A  
HETATM   34 CL   UNL     1     -12.510  15.659  64.195  1.00  0.00    -0.027 Cl 
HETATM   35  C   UNL     1     -11.328  13.509  67.350  1.00  0.00    -0.338 A  
ENDBRANCH  27  29
ENDBRANCH  13  27
ENDBRANCH   4   6
ENDBRANCH   2   4
TORSDOF 5
ENDMDL
MODEL       70
REMARK 921   NORMALIZED FREE ENERGY PREDICTED BY IDOCK:   -5.01 KCAL/MOL
REMARK 922        TOTAL FREE ENERGY PREDICTED BY IDOCK:   -7.63 KCAL/MOL
REMARK 923 INTER-LIGAND FREE ENERGY PREDICTED BY IDOCK:   -6.48 KCAL/MOL
REMARK 924 INTRA-LIGAND FREE ENERGY PREDICTED BY IDOCK:   -1.15 KCAL/MOL
REMARK 927      BINDING AFFINITY PREDICTED BY RF-SCORE:    0.00 PKD
ROOT
HETATM    1  C   UNL     1     -12.470  13.315  66.779  1.00  0.00    -0.086 C  
HETATM    2  C   UNL     1     -12.271  13.092  65.278  1.00  0.00    -0.455 C  
HETATM    3  C   UNL     1     -12.439  14.416  64.539  1.00  0.00    -0.362 C  
ENDROOT
BRANCH   2   4
HETATM    4  N   UNL     1     -10.939  12.520  64.987  1.00  0.00    -0.286 NA 
HETATM    5  H   UNL     1     -10.749  12.087  64.083  1.00  0.00     0.000 HD 
BRANCH   4   6
HETATM    6  C   UNL     1     -10.013  12.575  65.896  1.00  0.00    -0.257 A  
HETATM    7  C   UNL     1      -9.396  13.829  66.389  1.00  0.00    -0.215 A  
HETATM    8  C   UNL     1      -8.590  13.981  67.447  1.00  0.00    -0.203 A  
HETATM    9  N   UNL     1      -8.116  15.216  67.972  1.00  0.00    -0.130 NA 
HETATM   10  C   UNL     1      -7.121  15.145  69.021  1.00  0.00    -0.140 A  
HETATM   11  C   UNL     1      -6.556  16.281  69.631  1.00  0.00    -0.175 A  
HETATM   12  C   UNL     1      -6.701  13.878  69.501  1.00  0.00    -0.062 A  
HETATM   13  C   UNL     1      -9.522  11.308  66.563  1.00  0.00    -0.193 A  
HETATM   14  N   UNL     1      -7.223  12.664  69.026  1.00  0.00    -0.044 NA 
HETATM   15  C   UNL     1      -5.569  16.177  70.618  1.00  0.00    -0.052 A  
HETATM   16  C   UNL     1      -5.732  13.789  70.510  1.00  0.00    -0.164 A  
HETATM   17  C   UNL     1      -8.627  11.423  67.553  1.00  0.00    -0.137 A  
HETATM   18  C   UNL     1      -8.101  12.711  68.075  1.00  0.00    -0.161 A  
HETATM   19  C   UNL     1      -5.156  14.930  71.059  1.00  0.00    -0.137 A  
BRANCH   9  20
HETATM   20  C   UNL     1      -8.688  16.460  67.499  1.00  0.00    -0.178 A  
HETATM   21  C   UNL     1      -8.524  18.477  66.107  1.00  0.00    -0.153 A  
HETATM   22  C   UNL     1     -10.412  18.196  67.576  1.00  0.00    -0.425 A  
HETATM   23 CL   UNL     1     -10.342  20.466  66.115  1.00  0.00    -0.361 Cl 
HETATM   24  C   UNL     1      -8.040  17.226  66.505  1.00  0.00    -0.313 A  
HETATM   25  C   UNL     1      -9.721  18.948  66.631  1.00  0.00    -0.347 A  
HETATM   26  C   UNL     1      -9.876  16.985  68.036  1.00  0.00    -0.275 A  
ENDBRANCH   9  20
BRANCH  13  27
HETATM   27  N   UNL     1     -10.012  10.107  66.045  1.00  0.00    -0.244 NA 
HETATM   28  H   UNL     1     -10.981   9.875  66.258  1.00  0.00     0.000 HD 
BRANCH  27  29
HETATM   29  C   UNL     1      -9.287   9.180  65.250  1.00  0.00    -0.156 A  
HETATM   30  C   UNL     1      -8.772   7.967  65.725  1.00  0.00    -0.175 A  
HETATM   31  C   UNL     1      -8.104   7.078  64.870  1.00  0.00    -0.107 A  
HETATM   32  C   UNL     1      -7.919   7.409  63.530  1.00  0.00    -0.071 A  
HETATM   33  C   UNL     1      -8.357   8.637  63.048  1.00  0.00    -0.153 A  
HETATM   34 CL   UNL     1      -7.150   6.296  62.468  1.00  0.00    -0.041 Cl 
HETATM   35  C   UNL     1      -9.025   9.519  63.906  1.00  0.00    -0.217 A  
ENDBRANCH  27  29
ENDBRANCH  13  27
ENDBRANCH   4   6
ENDBRANCH   2   4
TORSDOF 5
ENDMDL
MODEL       71
REMARK 921   NORMALIZED FREE ENERGY PREDICTED BY IDOCK:   -5.00 KCAL/MOL
REMARK 922        TOTAL FREE ENERGY PREDICTED BY IDOCK:   -7.62 KCAL/MOL
REMARK 923 INTER-LIGAND FREE ENERGY PREDICTED BY IDOCK:   -6.56 KCAL/MOL
REMARK 924 INTRA-LIGAND FREE ENERGY PREDICTED BY IDOCK:   -1.06 KCAL/MOL
REMARK 927      BINDING AFFINITY PREDICTED BY RF-SCORE:    0.00 PKD
ROOT
HETATM    1  C   UNL     1      -7.767  10.299  65.700  1.00  0.00    -0.148 C  
HETATM    2  C   UNL     1      -8.780  10.565  64.584  1.00  0.00    -0.183 C  
HETATM    3  C   UNL     1      -8.565   9.567  63.450  1.00  0.00    -0.215 C  
ENDROOT
BRANCH   2   4
HETATM    4  N   UNL     1     -10.170  10.468  65.081  1.00  0.00    -0.306 NA 
HETATM    5  H   UNL     1     -10.935  10.901  64.563  1.00  0.00     0.000 HD 
BRANCH   4   6
HETATM    6  C   UNL     1     -10.406   9.827  66.185  1.00  0.00    -0.144 A  
HETATM    7  C   UNL     1     -10.018   8.418  66.435  1.00  0.00    -0.291 A  
HETATM    8  C   UNL     1     -10.048   7.757  67.598  1.00  0.00    -0.196 A  
HETATM    9  N   UNL     1      -9.549   6.445  67.833  1.00  0.00    -0.122 NA 
HETATM   10  C   UNL     1      -9.833   5.855  69.124  1.00  0.00    -0.156 A  
HETATM   11  C   UNL     1      -9.410   4.566  69.497  1.00  0.00    -0.221 A  
HETATM   12  C   UNL     1     -10.542   6.609  70.095  1.00  0.00    -0.221 A  
HETATM   13  C   UNL     1     -11.081  10.526  67.346  1.00  0.00    -0.252 A  
HETATM   14  N   UNL     1     -10.971   7.929  69.882  1.00  0.00    -0.220 NA 
HETATM   15  C   UNL     1      -9.733   4.012  70.742  1.00  0.00    -0.263 A  
HETATM   16  C   UNL     1     -10.833   6.052  71.349  1.00  0.00    -0.328 A  
HETATM   17  C   UNL     1     -11.226   9.848  68.492  1.00  0.00    -0.129 A  
HETATM   18  C   UNL     1     -10.741   8.463  68.725  1.00  0.00    -0.051 A  
HETATM   19  C   UNL     1     -10.444   4.756  71.669  1.00  0.00    -0.163 A  
BRANCH   9  20
HETATM   20  C   UNL     1      -8.736   5.798  66.824  1.00  0.00    -0.116 A  
HETATM   21  C   UNL     1      -6.537   5.396  65.807  1.00  0.00    -0.044 A  
HETATM   22  C   UNL     1      -8.505   4.442  64.799  1.00  0.00    -0.123 A  
HETATM   23 CL   UNL     1      -6.153   3.941  63.572  1.00  0.00    -0.017 Cl 
HETATM   24  C   UNL     1      -7.330   5.931  66.828  1.00  0.00    -0.079 A  
HETATM   25  C   UNL     1      -7.128   4.635  64.807  1.00  0.00    -0.062 A  
HETATM   26  C   UNL     1      -9.304   5.054  65.775  1.00  0.00    -0.167 A  
ENDBRANCH   9  20
BRANCH  13  27
HETATM   27  N   UNL     1     -11.547  11.819  67.101  1.00  0.00    -0.544 NA 
HETATM   28  H   UNL     1     -12.431  11.903  66.600  1.00  0.00     0.000 HD 
BRANCH  27  29
HETATM   29  C   UNL     1     -10.907  13.027  67.485  1.00  0.00    -0.247 A  
HETATM   30  C   UNL     1      -9.878  13.640  66.759  1.00  0.00    -0.271 A  
HETATM   31  C   UNL     1      -9.323  14.859  67.175  1.00  0.00    -0.227 A  
HETATM   32  C   UNL     1      -9.774  15.465  68.345  1.00  0.00    -0.211 A  
HETATM   33  C   UNL     1     -10.743  14.843  69.123  1.00  0.00    -0.253 A  
HETATM   34 CL   UNL     1      -9.133  16.986  68.828  1.00  0.00    -0.267 Cl 
HETATM   35  C   UNL     1     -11.296  13.628  68.701  1.00  0.00    -0.321 A  
ENDBRANCH  27  29
ENDBRANCH  13  27
ENDBRANCH   4   6
ENDBRANCH   2   4
TORSDOF 5
ENDMDL
MODEL       72
REMARK 921   NORMALIZED FREE ENERGY PREDICTED BY IDOCK:   -4.99 KCAL/MOL
REMARK 922        TOTAL FREE ENERGY PREDICTED BY IDOCK:   -7.61 KCAL/MOL
REMARK 923 INTER-LIGAND FREE ENERGY PREDICTED BY IDOCK:   -6.67 KCAL/MOL
REMARK 924 INTRA-LIGAND FREE ENERGY PREDICTED BY IDOCK:   -0.94 KCAL/MOL
REMARK 927      BINDING AFFINITY PREDICTED BY RF-SCORE:    0.00 PKD
ROOT
HETATM    1  C   UNL     1     -11.137   6.687  66.988  1.00  0.00    -0.395 C  
HETATM    2  C   UNL     1     -11.147   6.016  68.363  1.00  0.00    -0.177 C  
HETATM    3  C   UNL     1      -9.911   5.133  68.509  1.00  0.00    -0.221 C  
ENDROOT
BRANCH   2   4
HETATM    4  N   UNL     1     -11.181   7.015  69.453  1.00  0.00    -0.473 NA 
HETATM    5  H   UNL     1     -11.987   7.071  70.077  1.00  0.00     0.000 HD 
BRANCH   4   6
HETATM    6  C   UNL     1     -10.174   7.821  69.607  1.00  0.00    -0.206 A  
HETATM    7  C   UNL     1      -9.811   8.898  68.656  1.00  0.00    -0.179 A  
HETATM    8  C   UNL     1      -8.921   9.881  68.838  1.00  0.00    -0.153 A  
HETATM    9  N   UNL     1      -8.686  10.975  67.959  1.00  0.00    -0.133 NA 
HETATM   10  C   UNL     1      -7.561  11.835  68.266  1.00  0.00    -0.122 A  
HETATM   11  C   UNL     1      -7.203  12.950  67.486  1.00  0.00    -0.149 A  
HETATM   12  C   UNL     1      -6.786  11.582  69.427  1.00  0.00    -0.099 A  
HETATM   13  C   UNL     1      -9.303   7.727  70.841  1.00  0.00    -0.153 A  
HETATM   14  N   UNL     1      -7.066  10.542  70.328  1.00  0.00    -0.251 NA 
HETATM   15  C   UNL     1      -6.088  13.740  67.792  1.00  0.00    -0.140 A  
HETATM   16  C   UNL     1      -5.689  12.398  69.737  1.00  0.00    -0.113 A  
HETATM   17  C   UNL     1      -8.329   8.634  70.995  1.00  0.00    -0.193 A  
HETATM   18  C   UNL     1      -8.057   9.754  70.057  1.00  0.00    -0.189 A  
HETATM   19  C   UNL     1      -5.330  13.464  68.919  1.00  0.00    -0.073 A  
BRANCH   9  20
HETATM   20  C   UNL     1      -9.600  11.222  66.863  1.00  0.00    -0.191 A  
HETATM   21  C   UNL     1     -10.201  10.946  64.498  1.00  0.00    -0.422 A  
HETATM   22  C   UNL     1     -11.577  12.317  65.921  1.00  0.00    -0.450 A  
HETATM   23 CL   UNL     1     -12.335  12.113  63.338  1.00  0.00    -0.669 Cl 
HETATM   24  C   UNL     1      -9.385  10.641  65.594  1.00  0.00    -0.239 A  
HETATM   25  C   UNL     1     -11.306  11.768  64.672  1.00  0.00    -0.256 A  
HETATM   26  C   UNL     1     -10.706  12.080  66.995  1.00  0.00    -0.280 A  
ENDBRANCH   9  20
BRANCH  13  27
HETATM   27  N   UNL     1      -9.562   6.657  71.700  1.00  0.00    -0.163 NA 
HETATM   28  H   UNL     1     -10.359   6.752  72.328  1.00  0.00     0.000 HD 
BRANCH  27  29
HETATM   29  C   UNL     1      -8.818   5.450  71.781  1.00  0.00    -0.135 A  
HETATM   30  C   UNL     1      -9.379   4.194  72.046  1.00  0.00    -0.184 A  
HETATM   31  C   UNL     1      -8.587   3.036  72.066  1.00  0.00    -0.094 A  
HETATM   32  C   UNL     1      -7.215   3.128  71.850  1.00  0.00    -0.039 A  
HETATM   33  C   UNL     1      -6.621   4.370  71.656  1.00  0.00    -0.026 A  
HETATM   34 CL   UNL     1      -6.251   1.703  71.820  1.00  0.00    -0.013 Cl 
HETATM   35  C   UNL     1      -7.417   5.522  71.634  1.00  0.00    -0.093 A  
ENDBRANCH  27  29
ENDBRANCH  13  27
ENDBRANCH   4   6
ENDBRANCH   2   4
TORSDOF 5
ENDMDL
MODEL       73
REMARK 921   NORMALIZED FREE ENERGY PREDICTED BY IDOCK:   -4.88 KCAL/MOL
REMARK 922        TOTAL FREE ENERGY PREDICTED BY IDOCK:   -7.47 KCAL/MOL
REMARK 923 INTER-LIGAND FREE ENERGY PREDICTED BY IDOCK:   -7.40 KCAL/MOL
REMARK 924 INTRA-LIGAND FREE ENERGY PREDICTED BY IDOCK:   -0.06 KCAL/MOL
REMARK 927      BINDING AFFINITY PREDICTED BY RF-SCORE:    0.00 PKD
ROOT
HETATM    1  C   UNL     1     -12.983  13.405  71.392  1.00  0.00    -0.412 C  
HETATM    2  C   UNL     1     -12.694  14.550  70.419  1.00  0.00    -0.322 C  
HETATM    3  C   UNL     1     -11.540  15.394  70.952  1.00  0.00    -0.396 C  
ENDROOT
BRANCH   2   4
HETATM    4  N   UNL     1     -12.363  14.043  69.069  1.00  0.00    -0.501 NA 
HETATM    5  H   UNL     1     -13.032  14.137  68.304  1.00  0.00     0.000 HD 
BRANCH   4   6
HETATM    6  C   UNL     1     -11.212  13.476  68.869  1.00  0.00    -0.275 A  
HETATM    7  C   UNL     1     -10.848  12.125  69.356  1.00  0.00    -0.032 A  
HETATM    8  C   UNL     1      -9.770  11.402  69.029  1.00  0.00    -0.012 A  
HETATM    9  N   UNL     1      -9.511  10.057  69.412  1.00  0.00    -0.211 NA 
HETATM   10  C   UNL     1      -8.207   9.520  69.086  1.00  0.00    -0.111 A  
HETATM   11  C   UNL     1      -7.806   8.209  69.407  1.00  0.00    -0.105 A  
HETATM   12  C   UNL     1      -7.278  10.323  68.376  1.00  0.00    -0.080 A  
HETATM   13  C   UNL     1     -10.147  14.179  68.055  1.00  0.00    -0.233 A  
HETATM   14  N   UNL     1      -7.565  11.627  67.939  1.00  0.00    -0.108 NA 
HETATM   15  C   UNL     1      -6.524   7.733  69.109  1.00  0.00    -0.036 A  
HETATM   16  C   UNL     1      -6.007   9.824  68.059  1.00  0.00    -0.043 A  
HETATM   17  C   UNL     1      -9.008  13.519  67.805  1.00  0.00    -0.201 A  
HETATM   18  C   UNL     1      -8.721  12.128  68.240  1.00  0.00    -0.178 A  
HETATM   19  C   UNL     1      -5.623   8.541  68.433  1.00  0.00    -0.038 A  
BRANCH   9  20
HETATM   20  C   UNL     1     -10.562   9.275  70.031  1.00  0.00    -0.228 A  
HETATM   21  C   UNL     1     -12.347   9.068  71.705  1.00  0.00    -0.438 A  
HETATM   22  C   UNL     1     -11.785   7.175  70.327  1.00  0.00    -0.226 A  
HETATM   23 CL   UNL     1     -13.751   6.810  72.141  1.00  0.00    -0.087 Cl 
HETATM   24  C   UNL     1     -11.394   9.835  71.026  1.00  0.00    -0.460 A  
HETATM   25  C   UNL     1     -12.552   7.745  71.337  1.00  0.00    -0.317 A  
HETATM   26  C   UNL     1     -10.770   7.922  69.711  1.00  0.00    -0.233 A  
ENDBRANCH   9  20
BRANCH  13  27
HETATM   27  N   UNL     1     -10.427  15.492  67.672  1.00  0.00    -0.273 NA 
HETATM   28  H   UNL     1     -11.403  15.719  67.485  1.00  0.00     0.000 HD 
BRANCH  27  29
HETATM   29  C   UNL     1      -9.481  16.540  67.520  1.00  0.00    -0.224 A  
HETATM   30  C   UNL     1      -8.843  16.859  66.315  1.00  0.00    -0.314 A  
HETATM   31  C   UNL     1      -7.952  17.939  66.229  1.00  0.00    -0.279 A  
HETATM   32  C   UNL     1      -7.667  18.696  67.362  1.00  0.00    -0.228 A  
HETATM   33  C   UNL     1      -8.229  18.358  68.587  1.00  0.00    -0.316 A  
HETATM   34 CL   UNL     1      -6.617  20.054  67.247  1.00  0.00    -0.229 Cl 
HETATM   35  C   UNL     1      -9.121  17.281  68.666  1.00  0.00    -0.260 A  
ENDBRANCH  27  29
ENDBRANCH  13  27
ENDBRANCH   4   6
ENDBRANCH   2   4
TORSDOF 5
ENDMDL
MODEL       74
REMARK 921   NORMALIZED FREE ENERGY PREDICTED BY IDOCK:   -4.86 KCAL/MOL
REMARK 922        TOTAL FREE ENERGY PREDICTED BY IDOCK:   -7.45 KCAL/MOL
REMARK 923 INTER-LIGAND FREE ENERGY PREDICTED BY IDOCK:   -7.53 KCAL/MOL
REMARK 924 INTRA-LIGAND FREE ENERGY PREDICTED BY IDOCK:    0.09 KCAL/MOL
REMARK 927      BINDING AFFINITY PREDICTED BY RF-SCORE:    0.00 PKD
ROOT
HETATM    1  C   UNL     1      -8.521  10.801  66.611  1.00  0.00    -0.142 C  
HETATM    2  C   UNL     1      -9.981  10.372  66.455  1.00  0.00    -0.217 C  
HETATM    3  C   UNL     1     -10.679  11.289  65.455  1.00  0.00    -0.283 C  
ENDROOT
BRANCH   2   4
HETATM    4  N   UNL     1     -10.088   8.967  66.006  1.00  0.00    -0.416 NA 
HETATM    5  H   UNL     1     -10.263   8.750  65.024  1.00  0.00     0.000 HD 
BRANCH   4   6
HETATM    6  C   UNL     1      -9.955   8.012  66.876  1.00  0.00    -0.268 A  
HETATM    7  C   UNL     1     -10.302   8.133  68.312  1.00  0.00    -0.241 A  
HETATM    8  C   UNL     1     -10.378   7.151  69.218  1.00  0.00    -0.203 A  
HETATM    9  N   UNL     1     -10.838   7.278  70.558  1.00  0.00    -0.237 NA 
HETATM   10  C   UNL     1     -10.683   6.124  71.419  1.00  0.00    -0.255 A  
HETATM   11  C   UNL     1     -11.084   6.104  72.768  1.00  0.00    -0.294 A  
HETATM   12  C   UNL     1     -10.133   4.928  70.891  1.00  0.00    -0.222 A  
HETATM   13  C   UNL     1      -9.458   6.649  66.443  1.00  0.00    -0.123 A  
HETATM   14  N   UNL     1      -9.745   4.786  69.548  1.00  0.00    -0.184 NA 
HETATM   15  C   UNL     1     -10.887   4.982  73.582  1.00  0.00    -0.369 A  
HETATM   16  C   UNL     1      -9.967   3.803  71.710  1.00  0.00    -0.227 A  
HETATM   17  C   UNL     1      -9.419   5.672  67.360  1.00  0.00    -0.116 A  
HETATM   18  C   UNL     1      -9.861   5.816  68.771  1.00  0.00    -0.139 A  
HETATM   19  C   UNL     1     -10.328   3.830  73.053  1.00  0.00    -0.243 A  
BRANCH   9  20
HETATM   20  C   UNL     1     -11.492   8.501  70.977  1.00  0.00    -0.273 A  
HETATM   21  C   UNL     1     -13.339   9.629  72.138  1.00  0.00    -0.545 A  
HETATM   22  C   UNL     1     -11.703  10.940  70.952  1.00  0.00    -0.265 A  
HETATM   23 CL   UNL     1     -13.693  12.300  72.167  1.00  0.00    -0.373 Cl 
HETATM   24  C   UNL     1     -12.637   8.466  71.804  1.00  0.00    -0.378 A  
HETATM   25  C   UNL     1     -12.857  10.864  71.726  1.00  0.00    -0.404 A  
HETATM   26  C   UNL     1     -11.054   9.765  70.546  1.00  0.00    -0.384 A  
ENDBRANCH   9  20
BRANCH  13  27
HETATM   27  N   UNL     1      -9.029   6.539  65.119  1.00  0.00    -0.349 NA 
HETATM   28  H   UNL     1      -9.395   5.756  64.579  1.00  0.00     0.000 HD 
BRANCH  27  29
HETATM   29  C   UNL     1      -8.131   7.416  64.454  1.00  0.00    -0.070 A  
HETATM   30  C   UNL     1      -8.468   8.195  63.340  1.00  0.00     0.091 A  
HETATM   31  C   UNL     1      -7.541   9.074  62.763  1.00  0.00    -0.106 A  
HETATM   32  C   UNL     1      -6.250   9.161  63.279  1.00  0.00    -0.090 A  
HETATM   33  C   UNL     1      -5.866   8.348  64.338  1.00  0.00    -0.064 A  
HETATM   34 CL   UNL     1      -5.128  10.278  62.606  1.00  0.00    -0.097 Cl 
HETATM   35  C   UNL     1      -6.798   7.474  64.913  1.00  0.00    -0.047 A  
ENDBRANCH  27  29
ENDBRANCH  13  27
ENDBRANCH   4   6
ENDBRANCH   2   4
TORSDOF 5
ENDMDL
MODEL       75
REMARK 921   NORMALIZED FREE ENERGY PREDICTED BY IDOCK:   -4.86 KCAL/MOL
REMARK 922        TOTAL FREE ENERGY PREDICTED BY IDOCK:   -7.44 KCAL/MOL
REMARK 923 INTER-LIGAND FREE ENERGY PREDICTED BY IDOCK:   -6.76 KCAL/MOL
REMARK 924 INTRA-LIGAND FREE ENERGY PREDICTED BY IDOCK:   -0.67 KCAL/MOL
REMARK 927      BINDING AFFINITY PREDICTED BY RF-SCORE:    0.00 PKD
ROOT
HETATM    1  C   UNL     1     -11.005   4.224  64.910  1.00  0.00    -0.057 C  
HETATM    2  C   UNL     1      -9.976   4.841  65.861  1.00  0.00    -0.228 C  
HETATM    3  C   UNL     1      -8.762   5.311  65.065  1.00  0.00    -0.136 C  
ENDROOT
BRANCH   2   4
HETATM    4  N   UNL     1     -10.551   5.975  66.617  1.00  0.00    -0.423 NA 
HETATM    5  H   UNL     1     -11.560   6.126  66.635  1.00  0.00     0.000 HD 
BRANCH   4   6
HETATM    6  C   UNL     1      -9.756   6.777  67.258  1.00  0.00    -0.140 A  
HETATM    7  C   UNL     1      -9.559   8.207  66.922  1.00  0.00    -0.269 A  
HETATM    8  C   UNL     1      -8.917   9.134  67.644  1.00  0.00    -0.123 A  
HETATM    9  N   UNL     1      -8.854  10.526  67.358  1.00  0.00    -0.132 NA 
HETATM   10  C   UNL     1      -7.968  11.326  68.178  1.00  0.00    -0.131 A  
HETATM   11  C   UNL     1      -7.798  12.713  68.009  1.00  0.00    -0.149 A  
HETATM   12  C   UNL     1      -7.251  10.711  69.236  1.00  0.00    -0.113 A  
HETATM   13  C   UNL     1      -8.984   6.284  68.464  1.00  0.00    -0.123 A  
HETATM   14  N   UNL     1      -7.370   9.349  69.557  1.00  0.00    -0.068 NA 
HETATM   15  C   UNL     1      -6.906  13.450  68.797  1.00  0.00    -0.101 A  
HETATM   16  C   UNL     1      -6.382  11.467  70.036  1.00  0.00    -0.132 A  
HETATM   17  C   UNL     1      -8.242   7.170  69.143  1.00  0.00    -0.122 A  
HETATM   18  C   UNL     1      -8.145   8.617  68.820  1.00  0.00    -0.116 A  
HETATM   19  C   UNL     1      -6.197  12.827  69.812  1.00  0.00    -0.108 A  
BRANCH   9  20
HETATM   20  C   UNL     1      -9.711  11.086  66.333  1.00  0.00    -0.201 A  
HETATM   21  C   UNL     1     -10.084  11.713  63.988  1.00  0.00    -0.362 A  
HETATM   22  C   UNL     1     -11.758  12.235  65.638  1.00  0.00    -0.440 A  
HETATM   23 CL   UNL     1     -12.280  12.997  63.101  1.00  0.00    -0.503 Cl 
HETATM   24  C   UNL     1      -9.315  11.090  64.977  1.00  0.00    -0.250 A  
HETATM   25  C   UNL     1     -11.313  12.266  64.320  1.00  0.00    -0.352 A  
HETATM   26  C   UNL     1     -10.943  11.688  66.640  1.00  0.00    -0.349 A  
ENDBRANCH   9  20
BRANCH  13  27
HETATM   27  N   UNL     1      -9.074   4.919  68.739  1.00  0.00    -0.107 NA 
HETATM   28  H   UNL     1      -8.834   4.279  67.982  1.00  0.00     0.000 HD 
BRANCH  27  29
HETATM   29  C   UNL     1      -9.467   4.336  69.973  1.00  0.00    -0.184 A  
HETATM   30  C   UNL     1      -9.291   2.986  70.300  1.00  0.00    -0.228 A  
HETATM   31  C   UNL     1      -9.664   2.490  71.558  1.00  0.00    -0.222 A  
HETATM   32  C   UNL     1     -10.247   3.339  72.496  1.00  0.00    -0.146 A  
HETATM   33  C   UNL     1     -10.500   4.666  72.172  1.00  0.00    -0.219 A  
HETATM   34 CL   UNL     1     -10.654   2.745  74.058  1.00  0.00    -0.230 Cl 
HETATM   35  C   UNL     1     -10.122   5.157  70.916  1.00  0.00    -0.302 A  
ENDBRANCH  27  29
ENDBRANCH  13  27
ENDBRANCH   4   6
ENDBRANCH   2   4
TORSDOF 5
ENDMDL
MODEL       76
REMARK 921   NORMALIZED FREE ENERGY PREDICTED BY IDOCK:   -4.82 KCAL/MOL
REMARK 922        TOTAL FREE ENERGY PREDICTED BY IDOCK:   -7.38 KCAL/MOL
REMARK 923 INTER-LIGAND FREE ENERGY PREDICTED BY IDOCK:   -6.36 KCAL/MOL
REMARK 924 INTRA-LIGAND FREE ENERGY PREDICTED BY IDOCK:   -1.02 KCAL/MOL
REMARK 927      BINDING AFFINITY PREDICTED BY RF-SCORE:    0.00 PKD
ROOT
HETATM    1  C   UNL     1     -10.368  12.367  63.243  1.00  0.00    -0.158 C  
HETATM    2  C   UNL     1     -10.243  10.875  63.560  1.00  0.00    -0.317 C  
HETATM    3  C   UNL     1      -8.811  10.417  63.303  1.00  0.00    -0.219 C  
ENDROOT
BRANCH   2   4
HETATM    4  N   UNL     1     -10.620  10.587  64.961  1.00  0.00    -0.155 NA 
HETATM    5  H   UNL     1     -11.574  10.309  65.193  1.00  0.00     0.000 HD 
BRANCH   4   6
HETATM    6  C   UNL     1      -9.721  10.691  65.893  1.00  0.00    -0.223 A  
HETATM    7  C   UNL     1      -9.211  11.977  66.424  1.00  0.00    -0.216 A  
HETATM    8  C   UNL     1      -8.442  12.167  67.503  1.00  0.00    -0.169 A  
HETATM    9  N   UNL     1      -8.073  13.422  68.063  1.00  0.00    -0.147 NA 
HETATM   10  C   UNL     1      -7.099  13.403  69.134  1.00  0.00    -0.007 A  
HETATM   11  C   UNL     1      -6.634  14.565  69.778  1.00  0.00    -0.158 A  
HETATM   12  C   UNL     1      -6.598  12.161  69.600  1.00  0.00    -0.029 A  
HETATM   13  C   UNL     1      -9.153   9.450  66.548  1.00  0.00    -0.153 A  
HETATM   14  N   UNL     1      -7.018  10.921  69.091  1.00  0.00    -0.085 NA 
HETATM   15  C   UNL     1      -5.665  14.514  70.787  1.00  0.00    -0.177 A  
HETATM   16  C   UNL     1      -5.648  12.123  70.631  1.00  0.00    -0.157 A  
HETATM   17  C   UNL     1      -8.292   9.611  67.562  1.00  0.00    -0.118 A  
HETATM   18  C   UNL     1      -7.875  10.923  68.120  1.00  0.00    -0.114 A  
HETATM   19  C   UNL     1      -5.171  13.292  71.215  1.00  0.00    -0.184 A  
BRANCH   9  20
HETATM   20  C   UNL     1      -8.724  14.630  67.600  1.00  0.00    -0.177 A  
HETATM   21  C   UNL     1      -8.638  16.740  66.344  1.00  0.00    -0.338 A  
HETATM   22  C   UNL     1     -10.624  16.174  67.584  1.00  0.00    -0.315 A  
HETATM   23 CL   UNL     1     -10.651  18.529  66.265  1.00  0.00    -0.419 Cl 
HETATM   24  C   UNL     1      -8.065  15.521  66.723  1.00  0.00    -0.247 A  
HETATM   25  C   UNL     1      -9.926  17.051  66.761  1.00  0.00    -0.295 A  
HETATM   26  C   UNL     1     -10.010  14.996  68.033  1.00  0.00    -0.219 A  
ENDBRANCH   9  20
BRANCH  13  27
HETATM   27  N   UNL     1      -9.541   8.228  65.997  1.00  0.00    -0.432 NA 
HETATM   28  H   UNL     1      -9.972   8.254  65.073  1.00  0.00     0.000 HD 
BRANCH  27  29
HETATM   29  C   UNL     1      -9.392   6.951  66.601  1.00  0.00    -0.163 A  
HETATM   30  C   UNL     1      -8.212   6.198  66.574  1.00  0.00    -0.111 A  
HETATM   31  C   UNL     1      -8.125   4.963  67.233  1.00  0.00    -0.106 A  
HETATM   32  C   UNL     1      -9.233   4.453  67.904  1.00  0.00    -0.136 A  
HETATM   33  C   UNL     1     -10.438   5.144  67.887  1.00  0.00    -0.100 A  
HETATM   34 CL   UNL     1      -9.111   2.964  68.758  1.00  0.00    -0.193 Cl 
HETATM   35  C   UNL     1     -10.518   6.379  67.230  1.00  0.00    -0.326 A  
ENDBRANCH  27  29
ENDBRANCH  13  27
ENDBRANCH   4   6
ENDBRANCH   2   4
TORSDOF 5
ENDMDL
MODEL       77
REMARK 921   NORMALIZED FREE ENERGY PREDICTED BY IDOCK:   -4.79 KCAL/MOL
REMARK 922        TOTAL FREE ENERGY PREDICTED BY IDOCK:   -7.35 KCAL/MOL
REMARK 923 INTER-LIGAND FREE ENERGY PREDICTED BY IDOCK:   -6.50 KCAL/MOL
REMARK 924 INTRA-LIGAND FREE ENERGY PREDICTED BY IDOCK:   -0.85 KCAL/MOL
REMARK 927      BINDING AFFINITY PREDICTED BY RF-SCORE:    0.00 PKD
ROOT
HETATM    1  C   UNL     1      -5.505   8.146  63.699  1.00  0.00    -0.053 C  
HETATM    2  C   UNL     1      -6.431   9.073  64.489  1.00  0.00    -0.071 C  
HETATM    3  C   UNL     1      -6.472  10.444  63.821  1.00  0.00    -0.033 C  
ENDROOT
BRANCH   2   4
HETATM    4  N   UNL     1      -7.799   8.520  64.583  1.00  0.00    -0.123 NA 
HETATM    5  H   UNL     1      -8.279   8.183  63.748  1.00  0.00     0.000 HD 
BRANCH   4   6
HETATM    6  C   UNL     1      -8.384   8.468  65.741  1.00  0.00    -0.140 A  
HETATM    7  C   UNL     1      -9.069   9.614  66.386  1.00  0.00    -0.191 A  
HETATM    8  C   UNL     1      -9.852   9.590  67.471  1.00  0.00    -0.167 A  
HETATM    9  N   UNL     1     -10.599  10.683  67.992  1.00  0.00    -0.194 NA 
HETATM   10  C   UNL     1     -11.250  10.485  69.270  1.00  0.00    -0.262 A  
HETATM   11  C   UNL     1     -12.017  11.476  69.911  1.00  0.00    -0.426 A  
HETATM   12  C   UNL     1     -11.155   9.225  69.914  1.00  0.00    -0.181 A  
HETATM   13  C   UNL     1      -8.437   7.166  66.512  1.00  0.00    -0.125 A  
HETATM   14  N   UNL     1     -10.473   8.127  69.362  1.00  0.00    -0.222 NA 
HETATM   15  C   UNL     1     -12.603  11.263  71.164  1.00  0.00    -0.501 A  
HETATM   16  C   UNL     1     -11.771   9.016  71.156  1.00  0.00    -0.366 A  
HETATM   17  C   UNL     1      -9.124   7.143  67.663  1.00  0.00    -0.127 A  
HETATM   18  C   UNL     1      -9.871   8.296  68.227  1.00  0.00    -0.172 A  
HETATM   19  C   UNL     1     -12.481  10.031  71.788  1.00  0.00    -0.475 A  
BRANCH   9  20
HETATM   20  C   UNL     1     -10.736  11.894  67.208  1.00  0.00    -0.236 A  
HETATM   21  C   UNL     1      -9.780  13.990  66.357  1.00  0.00    -0.309 A  
HETATM   22  C   UNL     1     -12.082  13.458  65.891  1.00  0.00    -0.486 A  
HETATM   23 CL   UNL     1     -11.161  15.801  64.916  1.00  0.00    -0.435 Cl 
HETATM   24  C   UNL     1      -9.642  12.769  67.026  1.00  0.00    -0.229 A  
HETATM   25  C   UNL     1     -10.996  14.320  65.775  1.00  0.00    -0.305 A  
HETATM   26  C   UNL     1     -11.962  12.277  66.638  1.00  0.00    -0.257 A  
ENDBRANCH   9  20
BRANCH  13  27
HETATM   27  N   UNL     1      -7.712   6.100  65.975  1.00  0.00    -0.090 NA 
HETATM   28  H   UNL     1      -7.495   6.145  64.980  1.00  0.00     0.000 HD 
BRANCH  27  29
HETATM   29  C   UNL     1      -7.250   4.960  66.685  1.00  0.00    -0.080 A  
HETATM   30  C   UNL     1      -7.536   3.637  66.326  1.00  0.00    -0.080 A  
HETATM   31  C   UNL     1      -7.006   2.559  67.049  1.00  0.00    -0.048 A  
HETATM   32  C   UNL     1      -6.204   2.795  68.162  1.00  0.00    -0.028 A  
HETATM   33  C   UNL     1      -5.962   4.097  68.584  1.00  0.00    -0.026 A  
HETATM   34 CL   UNL     1      -5.508   1.474  69.017  1.00  0.00    -0.013 Cl 
HETATM   35  C   UNL     1      -6.491   5.170  67.856  1.00  0.00    -0.048 A  
ENDBRANCH  27  29
ENDBRANCH  13  27
ENDBRANCH   4   6
ENDBRANCH   2   4
TORSDOF 5
ENDMDL
MODEL       78
REMARK 921   NORMALIZED FREE ENERGY PREDICTED BY IDOCK:   -4.78 KCAL/MOL
REMARK 922        TOTAL FREE ENERGY PREDICTED BY IDOCK:   -7.34 KCAL/MOL
REMARK 923 INTER-LIGAND FREE ENERGY PREDICTED BY IDOCK:   -5.97 KCAL/MOL
REMARK 924 INTRA-LIGAND FREE ENERGY PREDICTED BY IDOCK:   -1.37 KCAL/MOL
REMARK 927      BINDING AFFINITY PREDICTED BY RF-SCORE:    0.00 PKD
ROOT
HETATM    1  C   UNL     1     -10.915   6.871  66.989  1.00  0.00    -0.404 C  
HETATM    2  C   UNL     1     -10.479   7.011  68.448  1.00  0.00    -0.201 C  
HETATM    3  C   UNL     1     -11.252   6.017  69.310  1.00  0.00    -0.367 C  
ENDROOT
BRANCH   2   4
HETATM    4  N   UNL     1      -9.025   6.786  68.603  1.00  0.00    -0.126 NA 
HETATM    5  H   UNL     1      -8.621   5.869  68.408  1.00  0.00     0.000 HD 
BRANCH   4   6
HETATM    6  C   UNL     1      -8.269   7.768  68.991  1.00  0.00    -0.126 A  
HETATM    7  C   UNL     1      -8.354   9.150  68.461  1.00  0.00    -0.123 A  
HETATM    8  C   UNL     1      -7.754  10.246  68.941  1.00  0.00    -0.098 A  
HETATM    9  N   UNL     1      -7.956  11.580  68.491  1.00  0.00    -0.139 NA 
HETATM   10  C   UNL     1      -7.081  12.597  69.036  1.00  0.00    -0.028 A  
HETATM   11  C   UNL     1      -7.158  13.957  68.680  1.00  0.00    -0.110 A  
HETATM   12  C   UNL     1      -6.113  12.237  70.007  1.00  0.00    -0.130 A  
HETATM   13  C   UNL     1      -7.243   7.556  70.083  1.00  0.00    -0.068 A  
HETATM   14  N   UNL     1      -5.965  10.930  70.500  1.00  0.00    -0.199 NA 
HETATM   15  C   UNL     1      -6.273  14.909  69.200  1.00  0.00    -0.105 A  
HETATM   16  C   UNL     1      -5.251  13.206  70.542  1.00  0.00    -0.122 A  
HETATM   17  C   UNL     1      -6.545   8.619  70.507  1.00  0.00    -0.039 A  
HETATM   18  C   UNL     1      -6.728  10.006  70.007  1.00  0.00    -0.112 A  
HETATM   19  C   UNL     1      -5.319  14.534  70.133  1.00  0.00    -0.101 A  
BRANCH   9  20
HETATM   20  C   UNL     1      -9.046  11.871  67.583  1.00  0.00    -0.179 A  
HETATM   21  C   UNL     1     -11.394  12.494  67.216  1.00  0.00    -0.373 A  
HETATM   22  C   UNL     1      -9.994  11.970  65.328  1.00  0.00    -0.273 A  
HETATM   23 CL   UNL     1     -12.559  12.619  64.790  1.00  0.00    -0.561 Cl 
HETATM   24  C   UNL     1     -10.300  12.303  68.069  1.00  0.00    -0.220 A  
HETATM   25  C   UNL     1     -11.229  12.346  65.846  1.00  0.00    -0.336 A  
HETATM   26  C   UNL     1      -8.926  11.694  66.194  1.00  0.00    -0.180 A  
ENDBRANCH   9  20
BRANCH  13  27
HETATM   27  N   UNL     1      -7.073   6.243  70.525  1.00  0.00    -0.067 NA 
HETATM   28  H   UNL     1      -6.159   5.819  70.369  1.00  0.00     0.000 HD 
BRANCH  27  29
HETATM   29  C   UNL     1      -8.052   5.443  71.171  1.00  0.00    -0.111 A  
HETATM   30  C   UNL     1      -8.372   4.131  70.797  1.00  0.00    -0.086 A  
HETATM   31  C   UNL     1      -9.320   3.384  71.511  1.00  0.00    -0.210 A  
HETATM   32  C   UNL     1      -9.983   3.956  72.594  1.00  0.00    -0.157 A  
HETATM   33  C   UNL     1      -9.739   5.278  72.942  1.00  0.00    -0.164 A  
HETATM   34 CL   UNL     1     -11.106   3.023  73.504  1.00  0.00    -0.320 Cl 
HETATM   35  C   UNL     1      -8.788   6.019  72.228  1.00  0.00    -0.138 A  
ENDBRANCH  27  29
ENDBRANCH  13  27
ENDBRANCH   4   6
ENDBRANCH   2   4
TORSDOF 5
ENDMDL
MODEL       79
REMARK 921   NORMALIZED FREE ENERGY PREDICTED BY IDOCK:   -4.71 KCAL/MOL
REMARK 922        TOTAL FREE ENERGY PREDICTED BY IDOCK:   -7.25 KCAL/MOL
REMARK 923 INTER-LIGAND FREE ENERGY PREDICTED BY IDOCK:   -6.19 KCAL/MOL
REMARK 924 INTRA-LIGAND FREE ENERGY PREDICTED BY IDOCK:   -1.06 KCAL/MOL
REMARK 927      BINDING AFFINITY PREDICTED BY RF-SCORE:    0.00 PKD
ROOT
HETATM    1  C   UNL     1     -12.063  12.761  63.740  1.00  0.00    -0.596 C  
HETATM    2  C   UNL     1     -11.227  11.597  64.276  1.00  0.00    -0.319 C  
HETATM    3  C   UNL     1      -9.752  11.986  64.278  1.00  0.00    -0.104 C  
ENDROOT
BRANCH   2   4
HETATM    4  N   UNL     1     -11.646  11.212  65.642  1.00  0.00     0.121 NA 
HETATM    5  H   UNL     1     -12.636  11.172  65.886  1.00  0.00     0.000 HD 
BRANCH   4   6
HETATM    6  C   UNL     1     -10.740  10.927  66.526  1.00  0.00    -0.209 A  
HETATM    7  C   UNL     1      -9.981   9.655  66.568  1.00  0.00    -0.313 A  
HETATM    8  C   UNL     1      -8.909   9.368  67.317  1.00  0.00    -0.128 A  
HETATM    9  N   UNL     1      -8.124   8.184  67.242  1.00  0.00    -0.119 NA 
HETATM   10  C   UNL     1      -7.107   8.004  68.257  1.00  0.00    -0.088 A  
HETATM   11  C   UNL     1      -6.260   6.881  68.315  1.00  0.00    -0.034 A  
HETATM   12  C   UNL     1      -6.911   9.013  69.235  1.00  0.00    -0.050 A  
HETATM   13  C   UNL     1     -10.361  11.941  67.585  1.00  0.00    -0.200 A  
HETATM   14  N   UNL     1      -7.642  10.211  69.262  1.00  0.00    -0.104 NA 
HETATM   15  C   UNL     1      -5.311   6.722  69.332  1.00  0.00    -0.014 A  
HETATM   16  C   UNL     1      -5.937   8.853  70.231  1.00  0.00    -0.030 A  
HETATM   17  C   UNL     1      -9.361  11.633  68.423  1.00  0.00    -0.191 A  
HETATM   18  C   UNL     1      -8.568  10.378  68.371  1.00  0.00    -0.128 A  
HETATM   19  C   UNL     1      -5.148   7.709  70.291  1.00  0.00    -0.023 A  
BRANCH   9  20
HETATM   20  C   UNL     1      -8.319   7.265  66.140  1.00  0.00    -0.133 A  
HETATM   21  C   UNL     1      -9.208   5.144  65.276  1.00  0.00    -0.094 A  
HETATM   22  C   UNL     1      -7.907   6.564  63.830  1.00  0.00    -0.109 A  
HETATM   23 CL   UNL     1      -8.808   4.252  62.765  1.00  0.00    -0.107 Cl 
HETATM   24  C   UNL     1      -9.090   6.092  66.299  1.00  0.00    -0.160 A  
HETATM   25  C   UNL     1      -8.632   5.395  64.038  1.00  0.00    -0.018 A  
HETATM   26  C   UNL     1      -7.718   7.468  64.885  1.00  0.00    -0.115 A  
ENDBRANCH   9  20
BRANCH  13  27
HETATM   27  N   UNL     1     -11.131  13.104  67.631  1.00  0.00    -0.261 NA 
HETATM   28  H   UNL     1     -11.534  13.425  66.751  1.00  0.00     0.000 HD 
BRANCH  27  29
HETATM   29  C   UNL     1     -11.406  13.882  68.787  1.00  0.00    -0.277 A  
HETATM   30  C   UNL     1     -12.035  13.391  69.938  1.00  0.00    -0.408 A  
HETATM   31  C   UNL     1     -12.233  14.208  71.060  1.00  0.00    -0.432 A  
HETATM   32  C   UNL     1     -11.828  15.540  71.031  1.00  0.00    -0.382 A  
HETATM   33  C   UNL     1     -11.267  16.074  69.877  1.00  0.00    -0.361 A  
HETATM   34 CL   UNL     1     -12.020  16.528  72.426  1.00  0.00    -0.533 Cl 
HETATM   35  C   UNL     1     -11.068  15.252  68.760  1.00  0.00    -0.273 A  
ENDBRANCH  27  29
ENDBRANCH  13  27
ENDBRANCH   4   6
ENDBRANCH   2   4
TORSDOF 5
ENDMDL
MODEL       80
REMARK 921   NORMALIZED FREE ENERGY PREDICTED BY IDOCK:   -4.64 KCAL/MOL
REMARK 922        TOTAL FREE ENERGY PREDICTED BY IDOCK:   -7.16 KCAL/MOL
REMARK 923 INTER-LIGAND FREE ENERGY PREDICTED BY IDOCK:   -6.81 KCAL/MOL
REMARK 924 INTRA-LIGAND FREE ENERGY PREDICTED BY IDOCK:   -0.35 KCAL/MOL
REMARK 927      BINDING AFFINITY PREDICTED BY RF-SCORE:    0.00 PKD
ROOT
HETATM    1  C   UNL     1      -6.496   9.571  70.047  1.00  0.00    -0.061 C  
HETATM    2  C   UNL     1      -7.078   8.284  70.637  1.00  0.00    -0.042 C  
HETATM    3  C   UNL     1      -8.035   8.630  71.774  1.00  0.00    -0.151 C  
ENDROOT
BRANCH   2   4
HETATM    4  N   UNL     1      -7.785   7.489  69.609  1.00  0.00    -0.098 NA 
HETATM    5  H   UNL     1      -7.984   6.501  69.767  1.00  0.00     0.000 HD 
BRANCH   4   6
HETATM    6  C   UNL     1      -8.150   8.063  68.503  1.00  0.00    -0.125 A  
HETATM    7  C   UNL     1      -9.278   9.018  68.388  1.00  0.00    -0.137 A  
HETATM    8  C   UNL     1      -9.589   9.791  67.340  1.00  0.00    -0.155 A  
HETATM    9  N   UNL     1     -10.600  10.791  67.304  1.00  0.00    -0.241 NA 
HETATM   10  C   UNL     1     -10.881  11.396  66.019  1.00  0.00    -0.249 A  
HETATM   11  C   UNL     1     -11.856  12.392  65.828  1.00  0.00    -0.467 A  
HETATM   12  C   UNL     1     -10.123  11.008  64.884  1.00  0.00    -0.300 A  
HETATM   13  C   UNL     1      -7.383   7.812  67.223  1.00  0.00    -0.092 A  
HETATM   14  N   UNL     1      -9.078  10.071  64.940  1.00  0.00    -0.202 NA 
HETATM   15  C   UNL     1     -12.127  12.931  64.564  1.00  0.00    -0.473 A  
HETATM   16  C   UNL     1     -10.385  11.577  63.630  1.00  0.00    -0.467 A  
HETATM   17  C   UNL     1      -7.745   8.492  66.127  1.00  0.00    -0.093 A  
HETATM   18  C   UNL     1      -8.828   9.507  66.080  1.00  0.00    -0.156 A  
HETATM   19  C   UNL     1     -11.390  12.524  63.464  1.00  0.00    -0.556 A  
BRANCH   9  20
HETATM   20  C   UNL     1     -11.242  11.204  68.535  1.00  0.00    -0.258 A  
HETATM   21  C   UNL     1     -12.494  10.637  70.570  1.00  0.00    -0.445 A  
HETATM   22  C   UNL     1     -12.028  12.945  70.067  1.00  0.00    -0.380 A  
HETATM   23 CL   UNL     1     -13.430  12.458  72.321  1.00  0.00    -0.573 Cl 
HETATM   24  C   UNL     1     -11.785  10.253  69.427  1.00  0.00    -0.166 A  
HETATM   25  C   UNL     1     -12.595  11.983  70.896  1.00  0.00    -0.253 A  
HETATM   26  C   UNL     1     -11.395  12.559  68.876  1.00  0.00    -0.346 A  
ENDBRANCH   9  20
BRANCH  13  27
HETATM   27  N   UNL     1      -6.382   6.840  67.284  1.00  0.00    -0.045 NA 
HETATM   28  H   UNL     1      -5.524   7.092  67.773  1.00  0.00     0.000 HD 
BRANCH  27  29
HETATM   29  C   UNL     1      -6.447   5.535  66.728  1.00  0.00    -0.047 A  
HETATM   30  C   UNL     1      -7.495   4.633  66.951  1.00  0.00    -0.086 A  
HETATM   31  C   UNL     1      -7.514   3.375  66.331  1.00  0.00    -0.076 A  
HETATM   32  C   UNL     1      -6.464   2.993  65.500  1.00  0.00    -0.032 A  
HETATM   33  C   UNL     1      -5.376   3.839  65.318  1.00  0.00    -0.009 A  
HETATM   34 CL   UNL     1      -6.512   1.473  64.696  1.00  0.00    -0.018 Cl 
HETATM   35  C   UNL     1      -5.364   5.095  65.937  1.00  0.00    -0.013 A  
ENDBRANCH  27  29
ENDBRANCH  13  27
ENDBRANCH   4   6
ENDBRANCH   2   4
TORSDOF 5
ENDMDL
MODEL       81
REMARK 921   NORMALIZED FREE ENERGY PREDICTED BY IDOCK:   -4.64 KCAL/MOL
REMARK 922        TOTAL FREE ENERGY PREDICTED BY IDOCK:   -7.15 KCAL/MOL
REMARK 923 INTER-LIGAND FREE ENERGY PREDICTED BY IDOCK:   -7.26 KCAL/MOL
REMARK 924 INTRA-LIGAND FREE ENERGY PREDICTED BY IDOCK:    0.11 KCAL/MOL
REMARK 927      BINDING AFFINITY PREDICTED BY RF-SCORE:    0.00 PKD
ROOT
HETATM    1  C   UNL     1     -10.006  11.640  65.784  1.00  0.00    -0.270 C  
HETATM    2  C   UNL     1      -9.364  10.282  65.495  1.00  0.00    -0.199 C  
HETATM    3  C   UNL     1      -8.069  10.149  66.290  1.00  0.00    -0.124 C  
ENDROOT
BRANCH   2   4
HETATM    4  N   UNL     1     -10.277   9.168  65.834  1.00  0.00    -0.315 NA 
HETATM    5  H   UNL     1     -11.111   8.995  65.271  1.00  0.00     0.000 HD 
BRANCH   4   6
HETATM    6  C   UNL     1     -10.006   8.414  66.855  1.00  0.00    -0.271 A  
HETATM    7  C   UNL     1     -10.314   8.766  68.262  1.00  0.00    -0.252 A  
HETATM    8  C   UNL     1     -10.246   7.970  69.336  1.00  0.00    -0.210 A  
HETATM    9  N   UNL     1     -10.671   8.299  70.653  1.00  0.00    -0.216 NA 
HETATM   10  C   UNL     1     -10.354   7.351  71.701  1.00  0.00    -0.196 A  
HETATM   11  C   UNL     1     -10.704   7.543  73.051  1.00  0.00    -0.438 A  
HETATM   12  C   UNL     1      -9.689   6.143  71.372  1.00  0.00    -0.167 A  
HETATM   13  C   UNL     1      -9.371   7.055  66.653  1.00  0.00    -0.165 A  
HETATM   14  N   UNL     1      -9.334   5.792  70.059  1.00  0.00    -0.145 NA 
HETATM   15  C   UNL     1     -10.351   6.623  74.045  1.00  0.00    -0.377 A  
HETATM   16  C   UNL     1      -9.366   5.216  72.373  1.00  0.00    -0.155 A  
HETATM   17  C   UNL     1      -9.188   6.279  67.731  1.00  0.00    -0.115 A  
HETATM   18  C   UNL     1      -9.594   6.639  69.113  1.00  0.00    -0.135 A  
HETATM   19  C   UNL     1      -9.682   5.457  73.707  1.00  0.00    -0.154 A  
BRANCH   9  20
HETATM   20  C   UNL     1     -11.446   9.502  70.876  1.00  0.00    -0.334 A  
HETATM   21  C   UNL     1     -11.831  11.889  70.446  1.00  0.00    -0.329 A  
HETATM   22  C   UNL     1     -13.217  10.730  72.038  1.00  0.00    -0.466 A  
HETATM   23 CL   UNL     1     -13.729  13.356  71.673  1.00  0.00    -0.307 Cl 
HETATM   24  C   UNL     1     -11.158  10.693  70.173  1.00  0.00    -0.341 A  
HETATM   25  C   UNL     1     -12.872  11.897  71.364  1.00  0.00    -0.307 A  
HETATM   26  C   UNL     1     -12.481   9.555  71.826  1.00  0.00    -0.484 A  
ENDBRANCH   9  20
BRANCH  13  27
HETATM   27  N   UNL     1      -8.978   6.744  65.351  1.00  0.00    -0.365 NA 
HETATM   28  H   UNL     1      -9.342   7.336  64.605  1.00  0.00     0.000 HD 
BRANCH  27  29
HETATM   29  C   UNL     1      -8.118   5.680  64.966  1.00  0.00    -0.122 A  
HETATM   30  C   UNL     1      -8.548   4.374  64.704  1.00  0.00    -0.134 A  
HETATM   31  C   UNL     1      -7.647   3.384  64.284  1.00  0.00    -0.076 A  
HETATM   32  C   UNL     1      -6.294   3.687  64.150  1.00  0.00    -0.023 A  
HETATM   33  C   UNL     1      -5.829   4.956  64.472  1.00  0.00    -0.017 A  
HETATM   34 CL   UNL     1      -5.197   2.490  63.582  1.00  0.00    -0.007 Cl 
HETATM   35  C   UNL     1      -6.734   5.942  64.888  1.00  0.00    -0.047 A  
ENDBRANCH  27  29
ENDBRANCH  13  27
ENDBRANCH   4   6
ENDBRANCH   2   4
TORSDOF 5
ENDMDL
MODEL       82
REMARK 921   NORMALIZED FREE ENERGY PREDICTED BY IDOCK:   -4.63 KCAL/MOL
REMARK 922        TOTAL FREE ENERGY PREDICTED BY IDOCK:   -7.14 KCAL/MOL
REMARK 923 INTER-LIGAND FREE ENERGY PREDICTED BY IDOCK:   -7.67 KCAL/MOL
REMARK 924 INTRA-LIGAND FREE ENERGY PREDICTED BY IDOCK:    0.53 KCAL/MOL
REMARK 927      BINDING AFFINITY PREDICTED BY RF-SCORE:    0.00 PKD
ROOT
HETATM    1  C   UNL     1      -8.711   8.794  71.246  1.00  0.00    -0.273 C  
HETATM    2  C   UNL     1      -9.818   7.831  71.678  1.00  0.00    -0.163 C  
HETATM    3  C   UNL     1     -10.963   8.618  72.309  1.00  0.00    -0.392 C  
ENDROOT
BRANCH   2   4
HETATM    4  N   UNL     1     -10.324   7.039  70.535  1.00  0.00    -0.200 NA 
HETATM    5  H   UNL     1     -10.741   6.121  70.688  1.00  0.00     0.000 HD 
BRANCH   4   6
HETATM    6  C   UNL     1     -10.229   7.526  69.335  1.00  0.00    -0.204 A  
HETATM    7  C   UNL     1     -10.718   8.867  68.935  1.00  0.00    -0.132 A  
HETATM    8  C   UNL     1     -10.486   9.510  67.784  1.00  0.00    -0.254 A  
HETATM    9  N   UNL     1     -10.861  10.848  67.478  1.00  0.00    -0.252 NA 
HETATM   10  C   UNL     1     -10.658  11.292  66.115  1.00  0.00    -0.258 A  
HETATM   11  C   UNL     1     -10.987  12.584  65.665  1.00  0.00    -0.323 A  
HETATM   12  C   UNL     1     -10.066  10.411  65.174  1.00  0.00    -0.308 A  
HETATM   13  C   UNL     1      -9.545   6.734  68.241  1.00  0.00    -0.127 A  
HETATM   14  N   UNL     1      -9.634   9.115  65.500  1.00  0.00    -0.231 NA 
HETATM   15  C   UNL     1     -10.810  12.970  64.330  1.00  0.00    -0.409 A  
HETATM   16  C   UNL     1      -9.869  10.820  63.848  1.00  0.00    -0.389 A  
HETATM   17  C   UNL     1      -9.397   7.314  67.042  1.00  0.00    -0.181 A  
HETATM   18  C   UNL     1      -9.826   8.697  66.711  1.00  0.00    -0.253 A  
HETATM   19  C   UNL     1     -10.250  12.088  63.421  1.00  0.00    -0.457 A  
BRANCH   9  20
HETATM   20  C   UNL     1     -11.350  11.712  68.533  1.00  0.00    -0.274 A  
HETATM   21  C   UNL     1     -11.466  13.934  69.573  1.00  0.00    -0.332 A  
HETATM   22  C   UNL     1     -12.521  12.058  70.655  1.00  0.00    -0.335 A  
HETATM   23 CL   UNL     1     -12.704  14.440  71.913  1.00  0.00    -0.408 Cl 
HETATM   24  C   UNL     1     -11.087  13.100  68.515  1.00  0.00    -0.296 A  
HETATM   25  C   UNL     1     -12.200  13.412  70.630  1.00  0.00    -0.350 A  
HETATM   26  C   UNL     1     -12.062  11.211  69.636  1.00  0.00    -0.406 A  
ENDBRANCH   9  20
BRANCH  13  27
HETATM   27  N   UNL     1      -9.168   5.430  68.567  1.00  0.00    -0.108 NA 
HETATM   28  H   UNL     1      -9.626   4.677  68.055  1.00  0.00     0.000 HD 
BRANCH  27  29
HETATM   29  C   UNL     1      -8.207   5.055  69.543  1.00  0.00    -0.085 A  
HETATM   30  C   UNL     1      -6.925   5.610  69.642  1.00  0.00    -0.063 A  
HETATM   31  C   UNL     1      -6.044   5.221  70.662  1.00  0.00    -0.022 A  
HETATM   32  C   UNL     1      -6.428   4.247  71.580  1.00  0.00    -0.019 A  
HETATM   33  C   UNL     1      -7.666   3.627  71.461  1.00  0.00    -0.057 A  
HETATM   34 CL   UNL     1      -5.370   3.809  72.863  1.00  0.00     0.000 Cl 
HETATM   35  C   UNL     1      -8.544   4.022  70.443  1.00  0.00    -0.109 A  
ENDBRANCH  27  29
ENDBRANCH  13  27
ENDBRANCH   4   6
ENDBRANCH   2   4
TORSDOF 5
ENDMDL
MODEL       83
REMARK 921   NORMALIZED FREE ENERGY PREDICTED BY IDOCK:   -4.38 KCAL/MOL
REMARK 922        TOTAL FREE ENERGY PREDICTED BY IDOCK:   -6.82 KCAL/MOL
REMARK 923 INTER-LIGAND FREE ENERGY PREDICTED BY IDOCK:   -6.05 KCAL/MOL
REMARK 924 INTRA-LIGAND FREE ENERGY PREDICTED BY IDOCK:   -0.77 KCAL/MOL
REMARK 927      BINDING AFFINITY PREDICTED BY RF-SCORE:    0.00 PKD
ROOT
HETATM    1  C   UNL     1     -12.063  10.354  69.349  1.00  0.00    -0.085 C  
HETATM    2  C   UNL     1     -11.132  10.168  70.549  1.00  0.00    -0.327 C  
HETATM    3  C   UNL     1     -11.417   8.824  71.213  1.00  0.00    -0.355 C  
ENDROOT
BRANCH   2   4
HETATM    4  N   UNL     1      -9.710  10.238  70.147  1.00  0.00    -0.387 NA 
HETATM    5  H   UNL     1      -8.998  10.531  70.817  1.00  0.00     0.000 HD 
BRANCH   4   6
HETATM    6  C   UNL     1      -9.378   9.923  68.932  1.00  0.00    -0.170 A  
HETATM    7  C   UNL     1      -8.945   8.571  68.506  1.00  0.00    -0.139 A  
HETATM    8  C   UNL     1      -8.778   8.124  67.255  1.00  0.00    -0.124 A  
HETATM    9  N   UNL     1      -8.487   6.785  66.873  1.00  0.00    -0.113 NA 
HETATM   10  C   UNL     1      -8.183   6.551  65.477  1.00  0.00    -0.138 A  
HETATM   11  C   UNL     1      -7.869   5.283  64.954  1.00  0.00    -0.095 A  
HETATM   12  C   UNL     1      -8.230   7.634  64.561  1.00  0.00    -0.049 A  
HETATM   13  C   UNL     1      -9.459  10.954  67.827  1.00  0.00    -0.157 A  
HETATM   14  N   UNL     1      -8.586   8.941  64.932  1.00  0.00    -0.181 NA 
HETATM   15  C   UNL     1      -7.545   5.098  63.604  1.00  0.00    -0.069 A  
HETATM   16  C   UNL     1      -7.931   7.430  63.207  1.00  0.00    -0.086 A  
HETATM   17  C   UNL     1      -9.188  10.559  66.575  1.00  0.00    -0.183 A  
HETATM   18  C   UNL     1      -8.843   9.168  66.182  1.00  0.00    -0.158 A  
HETATM   19  C   UNL     1      -7.576   6.172  62.729  1.00  0.00    -0.079 A  
BRANCH   9  20
HETATM   20  C   UNL     1      -8.575   5.725  67.856  1.00  0.00    -0.101 A  
HETATM   21  C   UNL     1      -7.525   4.366  69.612  1.00  0.00    -0.051 A  
HETATM   22  C   UNL     1      -9.775   3.870  68.911  1.00  0.00    -0.121 A  
HETATM   23 CL   UNL     1      -8.731   2.288  70.834  1.00  0.00    -0.104 Cl 
HETATM   24  C   UNL     1      -7.496   5.447  68.724  1.00  0.00    -0.075 A  
HETATM   25  C   UNL     1      -8.674   3.594  69.715  1.00  0.00    -0.075 A  
HETATM   26  C   UNL     1      -9.708   4.899  67.961  1.00  0.00    -0.202 A  
ENDBRANCH   9  20
BRANCH  13  27
HETATM   27  N   UNL     1      -9.764  12.258  68.220  1.00  0.00    -0.218 NA 
HETATM   28  H   UNL     1      -9.739  12.457  69.219  1.00  0.00     0.000 HD 
BRANCH  27  29
HETATM   29  C   UNL     1     -10.107  13.334  67.358  1.00  0.00    -0.233 A  
HETATM   30  C   UNL     1      -9.213  14.330  66.945  1.00  0.00    -0.268 A  
HETATM   31  C   UNL     1      -9.612  15.338  66.055  1.00  0.00    -0.372 A  
HETATM   32  C   UNL     1     -10.924  15.377  65.591  1.00  0.00    -0.326 A  
HETATM   33  C   UNL     1     -11.851  14.445  66.041  1.00  0.00    -0.379 A  
HETATM   34 CL   UNL     1     -11.400  16.581  64.457  1.00  0.00    -0.254 Cl 
HETATM   35  C   UNL     1     -11.447  13.438  66.927  1.00  0.00    -0.376 A  
ENDBRANCH  27  29
ENDBRANCH  13  27
ENDBRANCH   4   6
ENDBRANCH   2   4
TORSDOF 5
ENDMDL
MODEL       84
REMARK 921   NORMALIZED FREE ENERGY PREDICTED BY IDOCK:   -4.27 KCAL/MOL
REMARK 922        TOTAL FREE ENERGY PREDICTED BY IDOCK:   -6.68 KCAL/MOL
REMARK 923 INTER-LIGAND FREE ENERGY PREDICTED BY IDOCK:   -5.90 KCAL/MOL
REMARK 924 INTRA-LIGAND FREE ENERGY PREDICTED BY IDOCK:   -0.77 KCAL/MOL
REMARK 927      BINDING AFFINITY PREDICTED BY RF-SCORE:    0.00 PKD
ROOT
HETATM    1  C   UNL     1      -9.301   7.279  66.361  1.00  0.00    -0.199 C  
HETATM    2  C   UNL     1      -8.338   7.338  67.549  1.00  0.00    -0.116 C  
HETATM    3  C   UNL     1      -6.958   7.774  67.067  1.00  0.00    -0.077 C  
ENDROOT
BRANCH   2   4
HETATM    4  N   UNL     1      -8.822   8.267  68.593  1.00  0.00    -0.134 NA 
HETATM    5  H   UNL     1      -9.528   7.966  69.265  1.00  0.00     0.000 HD 
BRANCH   4   6
HETATM    6  C   UNL     1      -8.339   9.471  68.644  1.00  0.00    -0.117 A  
HETATM    7  C   UNL     1      -8.708  10.561  67.710  1.00  0.00    -0.122 A  
HETATM    8  C   UNL     1      -8.407  11.862  67.815  1.00  0.00    -0.149 A  
HETATM    9  N   UNL     1      -8.883  12.905  66.972  1.00  0.00    -0.211 NA 
HETATM   10  C   UNL     1      -8.303  14.218  67.160  1.00  0.00    -0.180 A  
HETATM   11  C   UNL     1      -8.669  15.343  66.398  1.00  0.00    -0.307 A  
HETATM   12  C   UNL     1      -7.339  14.416  68.182  1.00  0.00    -0.130 A  
HETATM   13  C   UNL     1      -7.361   9.856  69.733  1.00  0.00    -0.129 A  
HETATM   14  N   UNL     1      -6.925  13.397  69.057  1.00  0.00    -0.106 NA 
HETATM   15  C   UNL     1      -8.062  16.591  66.583  1.00  0.00    -0.314 A  
HETATM   16  C   UNL     1      -6.760  15.678  68.375  1.00  0.00    -0.116 A  
HETATM   17  C   UNL     1      -6.955  11.132  69.794  1.00  0.00    -0.053 A  
HETATM   18  C   UNL     1      -7.422  12.213  68.888  1.00  0.00    -0.027 A  
HETATM   19  C   UNL     1      -7.107  16.760  67.572  1.00  0.00    -0.171 A  
BRANCH   9  20
HETATM   20  C   UNL     1      -9.953  12.634  66.034  1.00  0.00    -0.258 A  
HETATM   21  C   UNL     1     -10.690  11.882  63.815  1.00  0.00    -0.476 A  
HETATM   22  C   UNL     1     -12.313  12.713  65.388  1.00  0.00    -0.499 A  
HETATM   23 CL   UNL     1     -13.251  11.938  62.978  1.00  0.00     0.130 Cl 
HETATM   24  C   UNL     1      -9.685  12.059  64.772  1.00  0.00    -0.108 A  
HETATM   25  C   UNL     1     -12.005  12.192  64.136  1.00  0.00    -0.408 A  
HETATM   26  C   UNL     1     -11.289  12.972  66.311  1.00  0.00    -0.354 A  
ENDBRANCH   9  20
BRANCH  13  27
HETATM   27  N   UNL     1      -6.920   8.822  70.561  1.00  0.00    -0.042 NA 
HETATM   28  H   UNL     1      -5.917   8.641  70.578  1.00  0.00     0.000 HD 
BRANCH  27  29
HETATM   29  C   UNL     1      -7.737   7.999  71.382  1.00  0.00    -0.089 A  
HETATM   30  C   UNL     1      -8.737   8.482  72.236  1.00  0.00    -0.261 A  
HETATM   31  C   UNL     1      -9.536   7.605  72.984  1.00  0.00    -0.292 A  
HETATM   32  C   UNL     1      -9.323   6.231  72.906  1.00  0.00    -0.139 A  
HETATM   33  C   UNL     1      -8.291   5.729  72.123  1.00  0.00    -0.115 A  
HETATM   34 CL   UNL     1     -10.338   5.152  73.781  1.00  0.00    -0.244 Cl 
HETATM   35  C   UNL     1      -7.498   6.609  71.375  1.00  0.00    -0.088 A  
ENDBRANCH  27  29
ENDBRANCH  13  27
ENDBRANCH   4   6
ENDBRANCH   2   4
TORSDOF 5
ENDMDL
MODEL       85
REMARK 921   NORMALIZED FREE ENERGY PREDICTED BY IDOCK:   -4.24 KCAL/MOL
REMARK 922        TOTAL FREE ENERGY PREDICTED BY IDOCK:   -6.64 KCAL/MOL
REMARK 923 INTER-LIGAND FREE ENERGY PREDICTED BY IDOCK:   -6.82 KCAL/MOL
REMARK 924 INTRA-LIGAND FREE ENERGY PREDICTED BY IDOCK:    0.17 KCAL/MOL
REMARK 927      BINDING AFFINITY PREDICTED BY RF-SCORE:    0.00 PKD
ROOT
HETATM    1  C   UNL     1     -12.001   9.058  70.250  1.00  0.00     0.167 C  
HETATM    2  C   UNL     1     -11.286  10.357  69.874  1.00  0.00    -0.306 C  
HETATM    3  C   UNL     1      -9.853  10.320  70.396  1.00  0.00     0.251 C  
ENDROOT
BRANCH   2   4
HETATM    4  N   UNL     1     -11.282  10.569  68.410  1.00  0.00    -0.332 NA 
HETATM    5  H   UNL     1     -11.694   9.875  67.787  1.00  0.00     0.000 HD 
BRANCH   4   6
HETATM    6  C   UNL     1     -10.747  11.649  67.928  1.00  0.00    -0.202 A  
HETATM    7  C   UNL     1     -11.078  13.022  68.379  1.00  0.00    -0.292 A  
HETATM    8  C   UNL     1     -10.439  14.158  68.075  1.00  0.00    -0.240 A  
HETATM    9  N   UNL     1     -10.701  15.443  68.625  1.00  0.00    -0.238 NA 
HETATM   10  C   UNL     1     -10.003  16.566  68.035  1.00  0.00    -0.245 A  
HETATM   11  C   UNL     1     -10.166  17.895  68.468  1.00  0.00    -0.393 A  
HETATM   12  C   UNL     1      -9.074  16.338  66.987  1.00  0.00    -0.207 A  
HETATM   13  C   UNL     1      -9.676  11.561  66.861  1.00  0.00    -0.186 A  
HETATM   14  N   UNL     1      -8.767  15.058  66.495  1.00  0.00    -0.255 NA 
HETATM   15  C   UNL     1      -9.501  18.962  67.852  1.00  0.00    -0.346 A  
HETATM   16  C   UNL     1      -8.394  17.412  66.397  1.00  0.00    -0.302 A  
HETATM   17  C   UNL     1      -9.095  12.698  66.456  1.00  0.00    -0.163 A  
HETATM   18  C   UNL     1      -9.398  14.046  67.001  1.00  0.00    -0.250 A  
HETATM   19  C   UNL     1      -8.614  18.721  66.815  1.00  0.00    -0.296 A  
BRANCH   9  20
HETATM   20  C   UNL     1     -11.579  15.565  69.771  1.00  0.00    -0.334 A  
HETATM   21  C   UNL     1     -11.907  16.103  72.145  1.00  0.00    -0.626 A  
HETATM   22  C   UNL     1     -13.755  15.263  70.850  1.00  0.00    -0.363 A  
HETATM   23 CL   UNL     1     -14.244  15.795  73.451  1.00  0.00     0.512 Cl 
HETATM   24  C   UNL     1     -11.102  16.070  71.001  1.00  0.00    -0.238 A  
HETATM   25  C   UNL     1     -13.238  15.717  72.058  1.00  0.00    -0.412 A  
HETATM   26  C   UNL     1     -12.920  15.148  69.729  1.00  0.00     0.177 A  
ENDBRANCH   9  20
BRANCH  13  27
HETATM   27  N   UNL     1      -9.420  10.288  66.347  1.00  0.00    -0.168 NA 
HETATM   28  H   UNL     1      -9.194  10.229  65.355  1.00  0.00     0.000 HD 
BRANCH  27  29
HETATM   29  C   UNL     1      -9.445   9.070  67.077  1.00  0.00    -0.163 A  
HETATM   30  C   UNL     1      -8.454   8.672  67.983  1.00  0.00    -0.127 A  
HETATM   31  C   UNL     1      -8.569   7.474  68.702  1.00  0.00    -0.129 A  
HETATM   32  C   UNL     1      -9.667   6.642  68.499  1.00  0.00    -0.131 A  
HETATM   33  C   UNL     1     -10.628   6.976  67.553  1.00  0.00    -0.351 A  
HETATM   34 CL   UNL     1      -9.836   5.199  69.420  1.00  0.00    -0.250 Cl 
HETATM   35  C   UNL     1     -10.511   8.176  66.840  1.00  0.00    -0.379 A  
ENDBRANCH  27  29
ENDBRANCH  13  27
ENDBRANCH   4   6
ENDBRANCH   2   4
TORSDOF 5
ENDMDL
MODEL       86
REMARK 921   NORMALIZED FREE ENERGY PREDICTED BY IDOCK:   -4.21 KCAL/MOL
REMARK 922        TOTAL FREE ENERGY PREDICTED BY IDOCK:   -6.60 KCAL/MOL
REMARK 923 INTER-LIGAND FREE ENERGY PREDICTED BY IDOCK:   -5.16 KCAL/MOL
REMARK 924 INTRA-LIGAND FREE ENERGY PREDICTED BY IDOCK:   -1.44 KCAL/MOL
REMARK 927      BINDING AFFINITY PREDICTED BY RF-SCORE:    0.00 PKD
ROOT
HETATM    1  C   UNL     1      -5.356   4.583  69.406  1.00  0.00    -0.008 C  
HETATM    2  C   UNL     1      -6.734   5.246  69.470  1.00  0.00    -0.052 C  
HETATM    3  C   UNL     1      -7.817   4.172  69.475  1.00  0.00    -0.053 C  
ENDROOT
BRANCH   2   4
HETATM    4  N   UNL     1      -6.868   6.101  70.670  1.00  0.00    -0.060 NA 
HETATM    5  H   UNL     1      -6.332   5.894  71.513  1.00  0.00     0.000 HD 
BRANCH   4   6
HETATM    6  C   UNL     1      -7.676   7.116  70.637  1.00  0.00    -0.094 A  
HETATM    7  C   UNL     1      -7.822   8.034  69.482  1.00  0.00    -0.105 A  
HETATM    8  C   UNL     1      -8.759   8.971  69.298  1.00  0.00    -0.138 A  
HETATM    9  N   UNL     1      -8.951   9.749  68.122  1.00  0.00    -0.119 NA 
HETATM   10  C   UNL     1      -9.919  10.823  68.195  1.00  0.00    -0.160 A  
HETATM   11  C   UNL     1     -10.210  11.679  67.116  1.00  0.00    -0.240 A  
HETATM   12  C   UNL     1     -10.651  11.023  69.394  1.00  0.00    -0.174 A  
HETATM   13  C   UNL     1      -8.584   7.407  71.813  1.00  0.00    -0.115 A  
HETATM   14  N   UNL     1     -10.508  10.208  70.529  1.00  0.00    -0.201 NA 
HETATM   15  C   UNL     1     -11.127  12.730  67.232  1.00  0.00    -0.314 A  
HETATM   16  C   UNL     1     -11.587  12.063  69.487  1.00  0.00    -0.389 A  
HETATM   17  C   UNL     1      -9.460   8.416  71.698  1.00  0.00    -0.281 A  
HETATM   18  C   UNL     1      -9.632   9.254  70.484  1.00  0.00    -0.262 A  
HETATM   19  C   UNL     1     -11.817  12.923  68.418  1.00  0.00    -0.357 A  
BRANCH   9  20
HETATM   20  C   UNL     1      -8.241   9.398  66.909  1.00  0.00    -0.116 A  
HETATM   21  C   UNL     1      -6.268   9.625  65.464  1.00  0.00    -0.069 A  
HETATM   22  C   UNL     1      -8.137   8.296  64.726  1.00  0.00    -0.151 A  
HETATM   23 CL   UNL     1      -6.040   8.481  63.035  1.00  0.00    -0.085 Cl 
HETATM   24  C   UNL     1      -6.931   9.871  66.671  1.00  0.00    -0.086 A  
HETATM   25  C   UNL     1      -6.867   8.820  64.504  1.00  0.00    -0.077 A  
HETATM   26  C   UNL     1      -8.833   8.619  65.900  1.00  0.00    -0.221 A  
ENDBRANCH   9  20
BRANCH  13  27
HETATM   27  N   UNL     1      -8.393   6.622  72.950  1.00  0.00    -0.118 NA 
HETATM   28  H   UNL     1      -7.757   6.984  73.660  1.00  0.00     0.000 HD 
BRANCH  27  29
HETATM   29  C   UNL     1      -9.002   5.365  73.213  1.00  0.00    -0.120 A  
HETATM   30  C   UNL     1      -8.333   4.263  73.759  1.00  0.00    -0.093 A  
HETATM   31  C   UNL     1      -9.012   3.066  74.033  1.00  0.00    -0.083 A  
HETATM   32  C   UNL     1     -10.367   2.951  73.735  1.00  0.00    -0.139 A  
HETATM   33  C   UNL     1     -11.039   4.004  73.126  1.00  0.00    -0.242 A  
HETATM   34 CL   UNL     1     -11.213   1.503  74.121  1.00  0.00    -0.204 Cl 
HETATM   35  C   UNL     1     -10.358   5.198  72.858  1.00  0.00    -0.238 A  
ENDBRANCH  27  29
ENDBRANCH  13  27
ENDBRANCH   4   6
ENDBRANCH   2   4
TORSDOF 5
ENDMDL
MODEL       87
REMARK 921   NORMALIZED FREE ENERGY PREDICTED BY IDOCK:   -4.13 KCAL/MOL
REMARK 922        TOTAL FREE ENERGY PREDICTED BY IDOCK:   -6.50 KCAL/MOL
REMARK 923 INTER-LIGAND FREE ENERGY PREDICTED BY IDOCK:   -6.01 KCAL/MOL
REMARK 924 INTRA-LIGAND FREE ENERGY PREDICTED BY IDOCK:   -0.49 KCAL/MOL
REMARK 927      BINDING AFFINITY PREDICTED BY RF-SCORE:    0.00 PKD
ROOT
HETATM    1  C   UNL     1     -13.090  12.568  70.857  1.00  0.00     0.066 C  
HETATM    2  C   UNL     1     -12.894  11.260  71.626  1.00  0.00    -0.405 C  
HETATM    3  C   UNL     1     -14.100  11.011  72.527  1.00  0.00     1.021 C  
ENDROOT
BRANCH   2   4
HETATM    4  N   UNL     1     -12.709  10.115  70.707  1.00  0.00    -0.450 NA 
HETATM    5  H   UNL     1     -13.507   9.545  70.425  1.00  0.00     0.000 HD 
BRANCH   4   6
HETATM    6  C   UNL     1     -11.519   9.842  70.266  1.00  0.00    -0.281 A  
HETATM    7  C   UNL     1     -11.003  10.256  68.939  1.00  0.00    -0.279 A  
HETATM    8  C   UNL     1      -9.742  10.186  68.495  1.00  0.00    -0.154 A  
HETATM    9  N   UNL     1      -9.253  10.708  67.266  1.00  0.00    -0.143 NA 
HETATM   10  C   UNL     1      -7.890  10.377  66.907  1.00  0.00    -0.114 A  
HETATM   11  C   UNL     1      -7.273  10.815  65.720  1.00  0.00    -0.057 A  
HETATM   12  C   UNL     1      -7.102   9.601  67.795  1.00  0.00    -0.081 A  
HETATM   13  C   UNL     1     -10.534   9.092  71.137  1.00  0.00    -0.315 A  
HETATM   14  N   UNL     1      -7.569   9.147  69.040  1.00  0.00    -0.074 NA 
HETATM   15  C   UNL     1      -5.964  10.447  65.387  1.00  0.00    -0.131 A  
HETATM   16  C   UNL     1      -5.783   9.263  67.462  1.00  0.00    -0.042 A  
HETATM   17  C   UNL     1      -9.291   8.909  70.670  1.00  0.00    -0.256 A  
HETATM   18  C   UNL     1      -8.792   9.420  69.367  1.00  0.00    -0.159 A  
HETATM   19  C   UNL     1      -5.217   9.671  66.259  1.00  0.00    -0.039 A  
BRANCH   9  20
HETATM   20  C   UNL     1     -10.093  11.586  66.477  1.00  0.00    -0.213 A  
HETATM   21  C   UNL     1     -10.922  12.329  64.288  1.00  0.00    -0.392 A  
HETATM   22  C   UNL     1     -11.601  13.504  66.277  1.00  0.00    -0.374 A  
HETATM   23 CL   UNL     1     -12.566  14.434  63.934  1.00  0.00    -0.086 Cl 
HETATM   24  C   UNL     1     -10.196  11.430  65.077  1.00  0.00    -0.333 A  
HETATM   25  C   UNL     1     -11.639  13.351  64.895  1.00  0.00    -0.330 A  
HETATM   26  C   UNL     1     -10.800  12.655  67.055  1.00  0.00    -0.282 A  
ENDBRANCH   9  20
BRANCH  13  27
HETATM   27  N   UNL     1     -11.028   8.604  72.348  1.00  0.00    -0.321 NA 
HETATM   28  H   UNL     1     -11.400   9.289  73.004  1.00  0.00     0.000 HD 
BRANCH  27  29
HETATM   29  C   UNL     1     -11.060   7.242  72.751  1.00  0.00    -0.319 A  
HETATM   30  C   UNL     1     -11.776   6.239  72.087  1.00  0.00    -0.368 A  
HETATM   31  C   UNL     1     -11.724   4.905  72.518  1.00  0.00     0.136 A  
HETATM   32  C   UNL     1     -10.974   4.565  73.641  1.00  0.00    -0.304 A  
HETATM   33  C   UNL     1     -10.312   5.552  74.362  1.00  0.00    -0.282 A  
HETATM   34 CL   UNL     1     -10.866   2.922  74.138  1.00  0.00    -0.248 Cl 
HETATM   35  C   UNL     1     -10.364   6.882  73.925  1.00  0.00    -0.398 A  
ENDBRANCH  27  29
ENDBRANCH  13  27
ENDBRANCH   4   6
ENDBRANCH   2   4
TORSDOF 5
ENDMDL
MODEL       88
REMARK 921   NORMALIZED FREE ENERGY PREDICTED BY IDOCK:   -4.00 KCAL/MOL
REMARK 922        TOTAL FREE ENERGY PREDICTED BY IDOCK:   -6.33 KCAL/MOL
REMARK 923 INTER-LIGAND FREE ENERGY PREDICTED BY IDOCK:   -5.26 KCAL/MOL
REMARK 924 INTRA-LIGAND FREE ENERGY PREDICTED BY IDOCK:   -1.08 KCAL/MOL
REMARK 927      BINDING AFFINITY PREDICTED BY RF-SCORE:    0.00 PKD
ROOT
HETATM    1  C   UNL     1     -11.776   6.804  71.280  1.00  0.00    -0.384 C  
HETATM    2  C   UNL     1     -11.591   7.913  70.242  1.00  0.00    -0.011 C  
HETATM    3  C   UNL     1     -11.528   9.266  70.945  1.00  0.00    -0.367 C  
ENDROOT
BRANCH   2   4
HETATM    4  N   UNL     1     -10.365   7.705  69.441  1.00  0.00    -0.211 NA 
HETATM    5  H   UNL     1     -10.283   6.898  68.821  1.00  0.00     0.000 HD 
BRANCH   4   6
HETATM    6  C   UNL     1      -9.394   8.562  69.535  1.00  0.00    -0.161 A  
HETATM    7  C   UNL     1      -9.310   9.821  68.757  1.00  0.00    -0.150 A  
HETATM    8  C   UNL     1      -8.455  10.836  68.938  1.00  0.00    -0.149 A  
HETATM    9  N   UNL     1      -8.481  12.087  68.260  1.00  0.00    -0.165 NA 
HETATM   10  C   UNL     1      -7.364  12.980  68.487  1.00  0.00    -0.115 A  
HETATM   11  C   UNL     1      -7.248  14.245  67.882  1.00  0.00    -0.166 A  
HETATM   12  C   UNL     1      -6.337  12.598  69.388  1.00  0.00    -0.112 A  
HETATM   13  C   UNL     1      -8.266   8.332  70.517  1.00  0.00    -0.114 A  
HETATM   14  N   UNL     1      -6.352  11.392  70.107  1.00  0.00    -0.163 NA 
HETATM   15  C   UNL     1      -6.137  15.069  68.096  1.00  0.00    -0.144 A  
HETATM   16  C   UNL     1      -5.243  13.446  69.615  1.00  0.00    -0.086 A  
HETATM   17  C   UNL     1      -7.331   9.285  70.638  1.00  0.00    -0.129 A  
HETATM   18  C   UNL     1      -7.336  10.575  69.900  1.00  0.00    -0.108 A  
HETATM   19  C   UNL     1      -5.133  14.670  68.964  1.00  0.00    -0.087 A  
BRANCH   9  20
HETATM   20  C   UNL     1      -9.628  12.438  67.449  1.00  0.00    -0.184 A  
HETATM   21  C   UNL     1     -10.721  12.546  65.252  1.00  0.00    -0.318 A  
HETATM   22  C   UNL     1     -11.827  13.480  67.177  1.00  0.00    -0.430 A  
HETATM   23 CL   UNL     1     -13.125  13.683  64.819  1.00  0.00     0.002 Cl 
HETATM   24  C   UNL     1      -9.666  12.128  66.071  1.00  0.00    -0.258 A  
HETATM   25  C   UNL     1     -11.807  13.203  65.814  1.00  0.00    -0.397 A  
HETATM   26  C   UNL     1     -10.727  13.138  67.977  1.00  0.00    -0.248 A  
ENDBRANCH   9  20
BRANCH  13  27
HETATM   27  N   UNL     1      -8.268   7.107  71.185  1.00  0.00    -0.111 NA 
HETATM   28  H   UNL     1      -8.563   7.114  72.161  1.00  0.00     0.000 HD 
BRANCH  27  29
HETATM   29  C   UNL     1      -7.899   5.851  70.634  1.00  0.00    -0.105 A  
HETATM   30  C   UNL     1      -6.895   5.675  69.674  1.00  0.00    -0.061 A  
HETATM   31  C   UNL     1      -6.553   4.397  69.207  1.00  0.00    -0.040 A  
HETATM   32  C   UNL     1      -7.237   3.279  69.678  1.00  0.00    -0.041 A  
HETATM   33  C   UNL     1      -8.286   3.431  70.577  1.00  0.00    -0.088 A  
HETATM   34 CL   UNL     1      -6.783   1.707  69.149  1.00  0.00    -0.029 Cl 
HETATM   35  C   UNL     1      -8.621   4.709  71.042  1.00  0.00    -0.128 A  
ENDBRANCH  27  29
ENDBRANCH  13  27
ENDBRANCH   4   6
ENDBRANCH   2   4
TORSDOF 5
ENDMDL
MODEL       89
REMARK 921   NORMALIZED FREE ENERGY PREDICTED BY IDOCK:   -3.93 KCAL/MOL
REMARK 922        TOTAL FREE ENERGY PREDICTED BY IDOCK:   -6.24 KCAL/MOL
REMARK 923 INTER-LIGAND FREE ENERGY PREDICTED BY IDOCK:   -4.90 KCAL/MOL
REMARK 924 INTRA-LIGAND FREE ENERGY PREDICTED BY IDOCK:   -1.34 KCAL/MOL
REMARK 927      BINDING AFFINITY PREDICTED BY RF-SCORE:    0.00 PKD
ROOT
HETATM    1  C   UNL     1     -11.468  15.318  71.401  1.00  0.00    -0.444 C  
HETATM    2  C   UNL     1     -10.906  14.771  70.088  1.00  0.00    -0.074 C  
HETATM    3  C   UNL     1     -11.812  15.187  68.932  1.00  0.00    -0.337 C  
ENDROOT
BRANCH   2   4
HETATM    4  N   UNL     1      -9.529  15.254  69.845  1.00  0.00    -0.454 NA 
HETATM    5  H   UNL     1      -9.227  16.158  70.211  1.00  0.00     0.000 HD 
BRANCH   4   6
HETATM    6  C   UNL     1      -8.710  14.516  69.160  1.00  0.00     0.032 A  
HETATM    7  C   UNL     1      -8.713  13.033  69.167  1.00  0.00     0.676 A  
HETATM    8  C   UNL     1      -8.041  12.212  68.351  1.00  0.00    -0.149 A  
HETATM    9  N   UNL     1      -8.163  10.796  68.297  1.00  0.00    -0.118 NA 
HETATM   10  C   UNL     1      -7.222  10.086  67.456  1.00  0.00    -0.089 A  
HETATM   11  C   UNL     1      -7.217   8.687  67.309  1.00  0.00    -0.080 A  
HETATM   12  C   UNL     1      -6.269  10.819  66.703  1.00  0.00    -0.092 A  
HETATM   13  C   UNL     1      -7.689  15.156  68.244  1.00  0.00    -0.117 A  
HETATM   14  N   UNL     1      -6.198  12.222  66.707  1.00  0.00    -0.145 NA 
HETATM   15  C   UNL     1      -6.270   8.030  66.514  1.00  0.00    -0.050 A  
HETATM   16  C   UNL     1      -5.344  10.150  65.889  1.00  0.00    -0.049 A  
HETATM   17  C   UNL     1      -6.922  14.351  67.495  1.00  0.00    -0.182 A  
HETATM   18  C   UNL     1      -7.022  12.869  67.469  1.00  0.00    -0.149 A  
HETATM   19  C   UNL     1      -5.332   8.761  65.803  1.00  0.00    -0.034 A  
BRANCH   9  20
HETATM   20  C   UNL     1      -9.242  10.143  69.011  1.00  0.00    -0.185 A  
HETATM   21  C   UNL     1     -11.621   9.557  69.188  1.00  0.00     0.327 A  
HETATM   22  C   UNL     1     -10.113   8.955  70.966  1.00  0.00    -0.324 A  
HETATM   23 CL   UNL     1     -12.704   8.271  71.294  1.00  0.00    -0.252 Cl 
HETATM   24  C   UNL     1     -10.546  10.095  68.470  1.00  0.00    -0.245 A  
HETATM   25  C   UNL     1     -11.394   8.971  70.426  1.00  0.00    -0.210 A  
HETATM   26  C   UNL     1      -9.056   9.575  70.283  1.00  0.00    -0.296 A  
ENDBRANCH   9  20
BRANCH  13  27
HETATM   27  N   UNL     1      -7.597  16.547  68.298  1.00  0.00    -0.164 NA 
HETATM   28  H   UNL     1      -6.879  16.939  68.907  1.00  0.00     0.000 HD 
BRANCH  27  29
HETATM   29  C   UNL     1      -8.409  17.469  67.584  1.00  0.00    -0.214 A  
HETATM   30  C   UNL     1      -8.284  18.861  67.669  1.00  0.00    -0.290 A  
HETATM   31  C   UNL     1      -9.093  19.710  66.899  1.00  0.00    -0.415 A  
HETATM   32  C   UNL     1     -10.059  19.171  66.053  1.00  0.00    -0.373 A  
HETATM   33  C   UNL     1     -10.253  17.796  66.002  1.00  0.00    -0.296 A  
HETATM   34 CL   UNL     1     -11.013  20.208  65.067  1.00  0.00     0.159 Cl 
HETATM   35  C   UNL     1      -9.441  16.953  66.771  1.00  0.00    -0.269 A  
ENDBRANCH  27  29
ENDBRANCH  13  27
ENDBRANCH   4   6
ENDBRANCH   2   4
TORSDOF 5
ENDMDL
MODEL       90
REMARK 921   NORMALIZED FREE ENERGY PREDICTED BY IDOCK:   -3.80 KCAL/MOL
REMARK 922        TOTAL FREE ENERGY PREDICTED BY IDOCK:   -6.07 KCAL/MOL
REMARK 923 INTER-LIGAND FREE ENERGY PREDICTED BY IDOCK:   -6.35 KCAL/MOL
REMARK 924 INTRA-LIGAND FREE ENERGY PREDICTED BY IDOCK:    0.28 KCAL/MOL
REMARK 927      BINDING AFFINITY PREDICTED BY RF-SCORE:    0.00 PKD
ROOT
HETATM    1  C   UNL     1     -10.438  12.714  65.698  1.00  0.00    -0.298 C  
HETATM    2  C   UNL     1      -9.610  11.483  65.324  1.00  0.00    -0.218 C  
HETATM    3  C   UNL     1      -8.347  11.438  66.179  1.00  0.00    -0.071 C  
ENDROOT
BRANCH   2   4
HETATM    4  N   UNL     1     -10.383  10.234  65.505  1.00  0.00    -0.224 NA 
HETATM    5  H   UNL     1     -11.155  10.010  64.877  1.00  0.00     0.000 HD 
BRANCH   4   6
HETATM    6  C   UNL     1     -10.068   9.428  66.473  1.00  0.00    -0.262 A  
HETATM    7  C   UNL     1     -10.334   9.696  67.906  1.00  0.00    -0.271 A  
HETATM    8  C   UNL     1     -10.220   8.842  68.931  1.00  0.00    -0.206 A  
HETATM    9  N   UNL     1     -10.604   9.090  70.278  1.00  0.00    -0.208 NA 
HETATM   10  C   UNL     1     -10.241   8.090  71.260  1.00  0.00    -0.192 A  
HETATM   11  C   UNL     1     -10.548   8.201  72.629  1.00  0.00    -0.414 A  
HETATM   12  C   UNL     1      -9.571   6.912  70.841  1.00  0.00    -0.164 A  
HETATM   13  C   UNL     1      -9.423   8.092  66.174  1.00  0.00    -0.122 A  
HETATM   14  N   UNL     1      -9.256   6.641  69.499  1.00  0.00    -0.143 NA 
HETATM   15  C   UNL     1     -10.150   7.231  73.557  1.00  0.00    -0.387 A  
HETATM   16  C   UNL     1      -9.204   5.935  71.778  1.00  0.00    -0.157 A  
HETATM   17  C   UNL     1      -9.194   7.259  67.199  1.00  0.00    -0.156 A  
HETATM   18  C   UNL     1      -9.559   7.535  68.612  1.00  0.00    -0.151 A  
HETATM   19  C   UNL     1      -9.478   6.097  73.132  1.00  0.00    -0.138 A  
BRANCH   9  20
HETATM   20  C   UNL     1     -11.387  10.267  70.594  1.00  0.00    -0.347 A  
HETATM   21  C   UNL     1     -13.243  11.318  71.812  1.00  0.00    -0.480 A  
HETATM   22  C   UNL     1     -11.973  12.617  70.231  1.00  0.00    -0.363 A  
HETATM   23 CL   UNL     1     -13.998  13.884  71.488  1.00  0.00    -0.310 Cl 
HETATM   24  C   UNL     1     -12.412  10.220  71.565  1.00  0.00    -0.524 A  
HETATM   25  C   UNL     1     -13.006  12.519  71.158  1.00  0.00    -0.148 A  
HETATM   26  C   UNL     1     -11.200  11.488  69.922  1.00  0.00    -0.183 A  
ENDBRANCH   9  20
BRANCH  13  27
HETATM   27  N   UNL     1      -9.070   7.860  64.844  1.00  0.00    -0.138 NA 
HETATM   28  H   UNL     1      -9.542   8.423  64.136  1.00  0.00     0.000 HD 
BRANCH  27  29
HETATM   29  C   UNL     1      -8.115   6.915  64.383  1.00  0.00    -0.052 A  
HETATM   30  C   UNL     1      -6.782   6.868  64.808  1.00  0.00    -0.043 A  
HETATM   31  C   UNL     1      -5.906   5.876  64.342  1.00  0.00    -0.025 A  
HETATM   32  C   UNL     1      -6.351   4.934  63.419  1.00  0.00    -0.026 A  
HETATM   33  C   UNL     1      -7.648   5.000  62.924  1.00  0.00    -0.063 A  
HETATM   34 CL   UNL     1      -5.295   3.683  62.888  1.00  0.00    -0.005 Cl 
HETATM   35  C   UNL     1      -8.519   5.991  63.395  1.00  0.00     0.142 A  
ENDBRANCH  27  29
ENDBRANCH  13  27
ENDBRANCH   4   6
ENDBRANCH   2   4
TORSDOF 5
ENDMDL
MODEL       91
REMARK 921   NORMALIZED FREE ENERGY PREDICTED BY IDOCK:   -3.80 KCAL/MOL
REMARK 922        TOTAL FREE ENERGY PREDICTED BY IDOCK:   -6.06 KCAL/MOL
REMARK 923 INTER-LIGAND FREE ENERGY PREDICTED BY IDOCK:   -5.60 KCAL/MOL
REMARK 924 INTRA-LIGAND FREE ENERGY PREDICTED BY IDOCK:   -0.46 KCAL/MOL
REMARK 927      BINDING AFFINITY PREDICTED BY RF-SCORE:    0.00 PKD
ROOT
HETATM    1  C   UNL     1     -10.285  15.535  65.964  1.00  0.00    -0.349 C  
HETATM    2  C   UNL     1     -10.406  14.131  66.561  1.00  0.00    -0.284 C  
HETATM    3  C   UNL     1     -11.622  13.427  65.968  1.00  0.00    -0.375 C  
ENDROOT
BRANCH   2   4
HETATM    4  N   UNL     1      -9.188  13.329  66.310  1.00  0.00    -0.461 NA 
HETATM    5  H   UNL     1      -8.917  13.088  65.356  1.00  0.00     0.000 HD 
BRANCH   4   6
HETATM    6  C   UNL     1      -8.470  12.934  67.317  1.00  0.00    -0.197 A  
HETATM    7  C   UNL     1      -8.559  11.589  67.933  1.00  0.00    -0.143 A  
HETATM    8  C   UNL     1      -7.729  11.047  68.832  1.00  0.00    -0.140 A  
HETATM    9  N   UNL     1      -7.766   9.708  69.310  1.00  0.00    -0.088 NA 
HETATM   10  C   UNL     1      -6.879   9.375  70.405  1.00  0.00    -0.089 A  
HETATM   11  C   UNL     1      -6.810   8.095  70.985  1.00  0.00    -0.043 A  
HETATM   12  C   UNL     1      -5.998  10.364  70.914  1.00  0.00    -0.042 A  
HETATM   13  C   UNL     1      -7.425  13.852  67.915  1.00  0.00    -0.152 A  
HETATM   14  N   UNL     1      -5.916  11.665  70.392  1.00  0.00    -0.221 NA 
HETATM   15  C   UNL     1      -5.965   7.817  72.066  1.00  0.00    -0.036 A  
HETATM   16  C   UNL     1      -5.136  10.064  71.979  1.00  0.00    -0.058 A  
HETATM   17  C   UNL     1      -6.651  13.370  68.897  1.00  0.00    -0.107 A  
HETATM   18  C   UNL     1      -6.718  11.982  69.424  1.00  0.00    -0.070 A  
HETATM   19  C   UNL     1      -5.127   8.802  72.564  1.00  0.00    -0.047 A  
BRANCH   9  20
HETATM   20  C   UNL     1      -8.616   8.737  68.651  1.00  0.00    -0.134 A  
HETATM   21  C   UNL     1     -10.573   7.253  68.695  1.00  0.00    -0.194 A  
HETATM   22  C   UNL     1      -9.116   7.242  66.778  1.00  0.00    -0.172 A  
HETATM   23 CL   UNL     1     -11.218   5.550  66.709  1.00  0.00     0.102 Cl 
HETATM   24  C   UNL     1      -9.793   8.262  69.271  1.00  0.00    -0.186 A  
HETATM   25  C   UNL     1     -10.240   6.762  67.440  1.00  0.00    -0.197 A  
HETATM   26  C   UNL     1      -8.288   8.189  67.399  1.00  0.00    -0.122 A  
ENDBRANCH   9  20
BRANCH  13  27
HETATM   27  N   UNL     1      -7.392  15.157  67.420  1.00  0.00    -0.200 NA 
HETATM   28  H   UNL     1      -7.676  15.289  66.450  1.00  0.00     0.000 HD 
BRANCH  27  29
HETATM   29  C   UNL     1      -7.001  16.317  68.141  1.00  0.00    -0.128 A  
HETATM   30  C   UNL     1      -6.257  16.295  69.328  1.00  0.00    -0.169 A  
HETATM   31  C   UNL     1      -5.868  17.484  69.961  1.00  0.00    -0.234 A  
HETATM   32  C   UNL     1      -6.246  18.713  69.426  1.00  0.00    -0.265 A  
HETATM   33  C   UNL     1      -7.044  18.763  68.290  1.00  0.00    -0.278 A  
HETATM   34 CL   UNL     1      -5.722  20.173  70.171  1.00  0.00    -0.327 Cl 
HETATM   35  C   UNL     1      -7.428  17.572  67.659  1.00  0.00    -0.195 A  
ENDBRANCH  27  29
ENDBRANCH  13  27
ENDBRANCH   4   6
ENDBRANCH   2   4
TORSDOF 5
ENDMDL
MODEL       92
REMARK 921   NORMALIZED FREE ENERGY PREDICTED BY IDOCK:   -3.78 KCAL/MOL
REMARK 922        TOTAL FREE ENERGY PREDICTED BY IDOCK:   -6.04 KCAL/MOL
REMARK 923 INTER-LIGAND FREE ENERGY PREDICTED BY IDOCK:   -6.50 KCAL/MOL
REMARK 924 INTRA-LIGAND FREE ENERGY PREDICTED BY IDOCK:    0.45 KCAL/MOL
REMARK 927      BINDING AFFINITY PREDICTED BY RF-SCORE:    0.00 PKD
ROOT
HETATM    1  C   UNL     1      -5.532   8.805  68.841  1.00  0.00    -0.037 C  
HETATM    2  C   UNL     1      -6.917   8.165  68.719  1.00  0.00    -0.067 C  
HETATM    3  C   UNL     1      -7.631   8.232  70.066  1.00  0.00    -0.072 C  
ENDROOT
BRANCH   2   4
HETATM    4  N   UNL     1      -7.733   8.836  67.684  1.00  0.00    -0.101 NA 
HETATM    5  H   UNL     1      -7.665   8.549  66.707  1.00  0.00     0.000 HD 
BRANCH   4   6
HETATM    6  C   UNL     1      -8.538   9.793  68.032  1.00  0.00    -0.122 A  
HETATM    7  C   UNL     1      -9.634   9.649  69.020  1.00  0.00    -0.168 A  
HETATM    8  C   UNL     1     -10.369  10.622  69.571  1.00  0.00    -0.182 A  
HETATM    9  N   UNL     1     -11.327  10.466  70.611  1.00  0.00    -0.334 NA 
HETATM   10  C   UNL     1     -12.130  11.623  70.945  1.00  0.00    -0.207 A  
HETATM   11  C   UNL     1     -13.120  11.617  71.945  1.00  0.00    -0.490 A  
HETATM   12  C   UNL     1     -11.903  12.849  70.268  1.00  0.00    -0.213 A  
HETATM   13  C   UNL     1      -8.366  11.183  67.456  1.00  0.00    -0.122 A  
HETATM   14  N   UNL     1     -10.908  13.016  69.290  1.00  0.00    -0.075 NA 
HETATM   15  C   UNL     1     -13.903  12.745  72.219  1.00  0.00    -0.395 A  
HETATM   16  C   UNL     1     -12.676  13.979  70.571  1.00  0.00    -0.347 A  
HETATM   17  C   UNL     1      -9.166  12.157  67.910  1.00  0.00    -0.188 A  
HETATM   18  C   UNL     1     -10.195  11.984  68.968  1.00  0.00     0.040 A  
HETATM   19  C   UNL     1     -13.681  13.928  71.532  1.00  0.00    -0.323 A  
BRANCH   9  20
HETATM   20  C   UNL     1     -11.409   9.208  71.325  1.00  0.00    -0.336 A  
HETATM   21  C   UNL     1     -10.424   7.584  72.883  1.00  0.00    -0.372 A  
HETATM   22  C   UNL     1     -12.503   7.066  71.783  1.00  0.00    -0.393 A  
HETATM   23 CL   UNL     1     -11.518   5.189  73.454  1.00  0.00    -0.311 Cl 
HETATM   24  C   UNL     1     -10.415   8.836  72.258  1.00  0.00    -0.317 A  
HETATM   25  C   UNL     1     -11.481   6.712  72.657  1.00  0.00    -0.183 A  
HETATM   26  C   UNL     1     -12.443   8.285  71.091  1.00  0.00    -0.189 A  
ENDBRANCH   9  20
BRANCH  13  27
HETATM   27  N   UNL     1      -7.408  11.320  66.450  1.00  0.00    -0.302 NA 
HETATM   28  H   UNL     1      -6.891  12.198  66.422  1.00  0.00     0.000 HD 
BRANCH  27  29
HETATM   29  C   UNL     1      -7.087  10.351  65.462  1.00  0.00    -0.133 A  
HETATM   30  C   UNL     1      -5.815   9.791  65.290  1.00  0.00    -0.071 A  
HETATM   31  C   UNL     1      -5.582   8.804  64.321  1.00  0.00    -0.064 A  
HETATM   32  C   UNL     1      -6.618   8.388  63.489  1.00  0.00    -0.084 A  
HETATM   33  C   UNL     1      -7.872   8.979  63.588  1.00  0.00    -0.137 A  
HETATM   34 CL   UNL     1      -6.348   7.140  62.336  1.00  0.00    -0.052 Cl 
HETATM   35  C   UNL     1      -8.100   9.961  64.560  1.00  0.00    -0.149 A  
ENDBRANCH  27  29
ENDBRANCH  13  27
ENDBRANCH   4   6
ENDBRANCH   2   4
TORSDOF 5
ENDMDL
MODEL       93
REMARK 921   NORMALIZED FREE ENERGY PREDICTED BY IDOCK:   -3.71 KCAL/MOL
REMARK 922        TOTAL FREE ENERGY PREDICTED BY IDOCK:   -5.96 KCAL/MOL
REMARK 923 INTER-LIGAND FREE ENERGY PREDICTED BY IDOCK:   -5.05 KCAL/MOL
REMARK 924 INTRA-LIGAND FREE ENERGY PREDICTED BY IDOCK:   -0.91 KCAL/MOL
REMARK 927      BINDING AFFINITY PREDICTED BY RF-SCORE:    0.00 PKD
ROOT
HETATM    1  C   UNL     1     -12.717  12.338  64.014  1.00  0.00    -0.457 C  
HETATM    2  C   UNL     1     -11.515  12.193  64.949  1.00  0.00    -0.325 C  
HETATM    3  C   UNL     1     -10.230  12.476  64.178  1.00  0.00    -0.376 C  
ENDROOT
BRANCH   2   4
HETATM    4  N   UNL     1     -11.617  13.107  66.108  1.00  0.00    -0.338 NA 
HETATM    5  H   UNL     1     -12.444  13.692  66.233  1.00  0.00     0.000 HD 
BRANCH   4   6
HETATM    6  C   UNL     1     -10.642  13.157  66.964  1.00  0.00    -0.258 A  
HETATM    7  C   UNL     1     -10.103  11.982  67.688  1.00  0.00    -0.205 A  
HETATM    8  C   UNL     1      -8.988  11.920  68.427  1.00  0.00    -0.163 A  
HETATM    9  N   UNL     1      -8.427  10.747  69.005  1.00  0.00    -0.152 NA 
HETATM   10  C   UNL     1      -7.308  10.929  69.905  1.00  0.00     0.088 A  
HETATM   11  C   UNL     1      -6.655   9.864  70.555  1.00  0.00    -0.120 A  
HETATM   12  C   UNL     1      -6.800  12.233  70.133  1.00  0.00     0.713 A  
HETATM   13  C   UNL     1      -9.944  14.469  67.249  1.00  0.00    -0.236 A  
HETATM   14  N   UNL     1      -7.314  13.380  69.505  1.00  0.00     0.285 NA 
HETATM   15  C   UNL     1      -5.597  10.078  71.446  1.00  0.00    -0.036 A  
HETATM   16  C   UNL     1      -5.722  12.431  71.007  1.00  0.00     0.041 A  
HETATM   17  C   UNL     1      -8.889  14.455  68.076  1.00  0.00    -0.178 A  
HETATM   18  C   UNL     1      -8.328  13.235  68.712  1.00  0.00     0.105 A  
HETATM   19  C   UNL     1      -5.129  11.363  71.673  1.00  0.00     0.021 A  
BRANCH   9  20
HETATM   20  C   UNL     1      -8.938   9.446  68.623  1.00  0.00    -0.132 A  
HETATM   21  C   UNL     1      -9.034   7.592  67.016  1.00  0.00    -0.143 A  
HETATM   22  C   UNL     1     -10.430   7.538  68.977  1.00  0.00    -0.216 A  
HETATM   23 CL   UNL     1     -10.647   5.449  67.281  1.00  0.00    -0.274 Cl 
HETATM   24  C   UNL     1      -8.482   8.801  67.453  1.00  0.00    -0.116 A  
HETATM   25  C   UNL     1      -9.993   6.955  67.792  1.00  0.00    -0.148 A  
HETATM   26  C   UNL     1      -9.938   8.793  69.365  1.00  0.00    -0.196 A  
ENDBRANCH   9  20
BRANCH  13  27
HETATM   27  N   UNL     1     -10.498  15.606  66.658  1.00  0.00    -0.296 NA 
HETATM   28  H   UNL     1     -11.459  15.530  66.326  1.00  0.00     0.000 HD 
BRANCH  27  29
HETATM   29  C   UNL     1      -9.850  16.857  66.477  1.00  0.00    -0.296 A  
HETATM   30  C   UNL     1     -10.513  18.090  66.437  1.00  0.00    -0.345 A  
HETATM   31  C   UNL     1      -9.801  19.291  66.300  1.00  0.00    -0.456 A  
HETATM   32  C   UNL     1      -8.415  19.267  66.171  1.00  0.00    -0.269 A  
HETATM   33  C   UNL     1      -7.738  18.054  66.135  1.00  0.00    -0.266 A  
HETATM   34 CL   UNL     1      -7.536  20.742  66.058  1.00  0.00     0.019 Cl 
HETATM   35  C   UNL     1      -8.453  16.857  66.276  1.00  0.00    -0.322 A  
ENDBRANCH  27  29
ENDBRANCH  13  27
ENDBRANCH   4   6
ENDBRANCH   2   4
TORSDOF 5
ENDMDL
MODEL       94
REMARK 921   NORMALIZED FREE ENERGY PREDICTED BY IDOCK:   -3.64 KCAL/MOL
REMARK 922        TOTAL FREE ENERGY PREDICTED BY IDOCK:   -5.87 KCAL/MOL
REMARK 923 INTER-LIGAND FREE ENERGY PREDICTED BY IDOCK:   -4.78 KCAL/MOL
REMARK 924 INTRA-LIGAND FREE ENERGY PREDICTED BY IDOCK:   -1.09 KCAL/MOL
REMARK 927      BINDING AFFINITY PREDICTED BY RF-SCORE:    0.00 PKD
ROOT
HETATM    1  C   UNL     1      -7.221  10.348  70.003  1.00  0.00    -0.143 C  
HETATM    2  C   UNL     1      -7.916  10.549  68.655  1.00  0.00    -0.124 C  
HETATM    3  C   UNL     1      -8.134  12.039  68.409  1.00  0.00    -0.154 C  
ENDROOT
BRANCH   2   4
HETATM    4  N   UNL     1      -7.127   9.967  67.546  1.00  0.00    -0.087 NA 
HETATM    5  H   UNL     1      -6.360  10.494  67.127  1.00  0.00     0.000 HD 
BRANCH   4   6
HETATM    6  C   UNL     1      -7.422   8.780  67.113  1.00  0.00    -0.088 A  
HETATM    7  C   UNL     1      -7.391   7.553  67.944  1.00  0.00    -0.099 A  
HETATM    8  C   UNL     1      -7.863   6.341  67.628  1.00  0.00    -0.106 A  
HETATM    9  N   UNL     1      -7.934   5.215  68.495  1.00  0.00    -0.086 NA 
HETATM   10  C   UNL     1      -8.326   3.953  67.902  1.00  0.00    -0.093 A  
HETATM   11  C   UNL     1      -8.434   2.755  68.632  1.00  0.00    -0.095 A  
HETATM   12  C   UNL     1      -8.659   3.903  66.524  1.00  0.00    -0.111 A  
HETATM   13  C   UNL     1      -7.877   8.580  65.683  1.00  0.00    -0.102 A  
HETATM   14  N   UNL     1      -8.653   5.032  65.689  1.00  0.00    -0.130 NA 
HETATM   15  C   UNL     1      -8.782   1.544  68.020  1.00  0.00    -0.113 A  
HETATM   16  C   UNL     1      -9.033   2.689  65.930  1.00  0.00    -0.131 A  
HETATM   17  C   UNL     1      -8.251   7.349  65.306  1.00  0.00    -0.128 A  
HETATM   18  C   UNL     1      -8.287   6.164  66.201  1.00  0.00    -0.128 A  
HETATM   19  C   UNL     1      -9.082   1.511  66.667  1.00  0.00    -0.065 A  
BRANCH   9  20
HETATM   20  C   UNL     1      -7.689   5.386  69.912  1.00  0.00    -0.080 A  
HETATM   21  C   UNL     1      -6.312   4.940  71.896  1.00  0.00    -0.030 A  
HETATM   22  C   UNL     1      -8.368   6.172  72.129  1.00  0.00    -0.110 A  
HETATM   23 CL   UNL     1      -6.959   5.732  74.389  1.00  0.00    -0.080 Cl 
HETATM   24  C   UNL     1      -6.519   4.871  70.514  1.00  0.00    -0.030 A  
HETATM   25  C   UNL     1      -7.229   5.609  72.695  1.00  0.00    -0.090 A  
HETATM   26  C   UNL     1      -8.615   6.023  70.756  1.00  0.00    -0.135 A  
ENDBRANCH   9  20
BRANCH  13  27
HETATM   27  N   UNL     1      -7.817   9.701  64.853  1.00  0.00    -0.117 NA 
HETATM   28  H   UNL     1      -6.920   9.900  64.411  1.00  0.00     0.000 HD 
BRANCH  27  29
HETATM   29  C   UNL     1      -8.887  10.590  64.568  1.00  0.00    -0.200 A  
HETATM   30  C   UNL     1      -9.653  11.242  65.542  1.00  0.00    -0.259 A  
HETATM   31  C   UNL     1     -10.667  12.143  65.185  1.00  0.00    -0.333 A  
HETATM   32  C   UNL     1     -10.945  12.380  63.841  1.00  0.00    -0.414 A  
HETATM   33  C   UNL     1     -10.249  11.693  62.853  1.00  0.00    -0.146 A  
HETATM   34 CL   UNL     1     -12.150  13.526  63.401  1.00  0.00    -0.473 Cl 
HETATM   35  C   UNL     1      -9.236  10.797  63.216  1.00  0.00    -0.295 A  
ENDBRANCH  27  29
ENDBRANCH  13  27
ENDBRANCH   4   6
ENDBRANCH   2   4
TORSDOF 5
ENDMDL
MODEL       95
REMARK 921   NORMALIZED FREE ENERGY PREDICTED BY IDOCK:   -3.61 KCAL/MOL
REMARK 922        TOTAL FREE ENERGY PREDICTED BY IDOCK:   -5.82 KCAL/MOL
REMARK 923 INTER-LIGAND FREE ENERGY PREDICTED BY IDOCK:   -5.74 KCAL/MOL
REMARK 924 INTRA-LIGAND FREE ENERGY PREDICTED BY IDOCK:   -0.08 KCAL/MOL
REMARK 927      BINDING AFFINITY PREDICTED BY RF-SCORE:    0.00 PKD
ROOT
HETATM    1  C   UNL     1      -9.967   9.111  68.236  1.00  0.00    -0.199 C  
HETATM    2  C   UNL     1     -10.174  10.435  68.974  1.00  0.00    -0.217 C  
HETATM    3  C   UNL     1     -10.860  10.172  70.311  1.00  0.00    -0.370 C  
ENDROOT
BRANCH   2   4
HETATM    4  N   UNL     1      -8.891  11.136  69.198  1.00  0.00    -0.384 NA 
HETATM    5  H   UNL     1      -8.198  10.753  69.842  1.00  0.00     0.000 HD 
BRANCH   4   6
HETATM    6  C   UNL     1      -8.656  12.246  68.566  1.00  0.00    -0.068 A  
HETATM    7  C   UNL     1      -9.505  13.458  68.658  1.00  0.00    -0.039 A  
HETATM    8  C   UNL     1      -9.228  14.685  68.200  1.00  0.00    -0.192 A  
HETATM    9  N   UNL     1     -10.005  15.857  68.415  1.00  0.00    -0.219 NA 
HETATM   10  C   UNL     1      -9.611  17.048  67.691  1.00  0.00    -0.249 A  
HETATM   11  C   UNL     1     -10.287  18.278  67.797  1.00  0.00    -0.419 A  
HETATM   12  C   UNL     1      -8.469  17.009  66.852  1.00  0.00    -0.216 A  
HETATM   13  C   UNL     1      -7.425  12.384  67.697  1.00  0.00    -0.138 A  
HETATM   14  N   UNL     1      -7.665  15.867  66.697  1.00  0.00    -0.213 NA 
HETATM   15  C   UNL     1      -9.901  19.401  67.056  1.00  0.00    -0.440 A  
HETATM   16  C   UNL     1      -8.076  18.149  66.136  1.00  0.00    -0.198 A  
HETATM   17  C   UNL     1      -7.181  13.575  67.133  1.00  0.00     0.164 A  
HETATM   18  C   UNL     1      -8.015  14.789  67.325  1.00  0.00    -0.205 A  
HETATM   19  C   UNL     1      -8.795  19.337  66.224  1.00  0.00    -0.341 A  
BRANCH   9  20
HETATM   20  C   UNL     1     -11.085  15.832  69.379  1.00  0.00    -0.314 A  
HETATM   21  C   UNL     1     -11.967  16.424  71.594  1.00  0.00    -0.278 A  
HETATM   22  C   UNL     1     -13.296  15.073  70.108  1.00  0.00     0.227 A  
HETATM   23 CL   UNL     1     -14.371  15.634  72.519  1.00  0.00    -0.520 Cl 
HETATM   24  C   UNL     1     -10.976  16.517  70.610  1.00  0.00     0.002 A  
HETATM   25  C   UNL     1     -13.133  15.717  71.329  1.00  0.00    -0.340 A  
HETATM   26  C   UNL     1     -12.262  15.095  69.160  1.00  0.00    -0.185 A  
ENDBRANCH   9  20
BRANCH  13  27
HETATM   27  N   UNL     1      -6.666  11.227  67.513  1.00  0.00    -0.069 NA 
HETATM   28  H   UNL     1      -6.364  11.019  66.561  1.00  0.00     0.000 HD 
BRANCH  27  29
HETATM   29  C   UNL     1      -6.274  10.312  68.526  1.00  0.00    -0.047 A  
HETATM   30  C   UNL     1      -6.020  10.669  69.857  1.00  0.00    -0.076 A  
HETATM   31  C   UNL     1      -5.681   9.702  70.814  1.00  0.00    -0.066 A  
HETATM   32  C   UNL     1      -5.563   8.365  70.442  1.00  0.00    -0.025 A  
HETATM   33  C   UNL     1      -5.739   7.993  69.115  1.00  0.00    -0.034 A  
HETATM   34 CL   UNL     1      -5.201   7.171  71.627  1.00  0.00    -0.027 Cl 
HETATM   35  C   UNL     1      -6.081   8.962  68.163  1.00  0.00    -0.050 A  
ENDBRANCH  27  29
ENDBRANCH  13  27
ENDBRANCH   4   6
ENDBRANCH   2   4
TORSDOF 5
ENDMDL
MODEL       96
REMARK 921   NORMALIZED FREE ENERGY PREDICTED BY IDOCK:   -3.30 KCAL/MOL
REMARK 922        TOTAL FREE ENERGY PREDICTED BY IDOCK:   -5.43 KCAL/MOL
REMARK 923 INTER-LIGAND FREE ENERGY PREDICTED BY IDOCK:   -5.27 KCAL/MOL
REMARK 924 INTRA-LIGAND FREE ENERGY PREDICTED BY IDOCK:   -0.16 KCAL/MOL
REMARK 927      BINDING AFFINITY PREDICTED BY RF-SCORE:    0.00 PKD
ROOT
HETATM    1  C   UNL     1      -6.537   7.640  70.217  1.00  0.00    -0.038 C  
HETATM    2  C   UNL     1      -7.340   6.508  69.572  1.00  0.00    -0.091 C  
HETATM    3  C   UNL     1      -8.677   6.357  70.291  1.00  0.00    -0.143 C  
ENDROOT
BRANCH   2   4
HETATM    4  N   UNL     1      -7.569   6.760  68.133  1.00  0.00    -0.105 NA 
HETATM    5  H   UNL     1      -7.563   5.987  67.466  1.00  0.00     0.000 HD 
BRANCH   4   6
HETATM    6  C   UNL     1      -7.778   7.975  67.727  1.00  0.00    -0.110 A  
HETATM    7  C   UNL     1      -8.893   8.834  68.193  1.00  0.00    -0.141 A  
HETATM    8  C   UNL     1      -9.060  10.144  67.974  1.00  0.00    -0.131 A  
HETATM    9  N   UNL     1     -10.071  10.968  68.541  1.00  0.00    -0.183 NA 
HETATM   10  C   UNL     1     -10.171  12.324  68.041  1.00  0.00    -0.206 A  
HETATM   11  C   UNL     1     -11.125  13.251  68.501  1.00  0.00    -0.294 A  
HETATM   12  C   UNL     1      -9.250  12.777  67.062  1.00  0.00    -0.221 A  
HETATM   13  C   UNL     1      -6.828   8.625  66.744  1.00  0.00    -0.069 A  
HETATM   14  N   UNL     1      -8.209  11.979  66.557  1.00  0.00    -0.058 NA 
HETATM   15  C   UNL     1     -11.216  14.543  67.971  1.00  0.00    -0.308 A  
HETATM   16  C   UNL     1      -9.335  14.083  66.560  1.00  0.00    -0.274 A  
HETATM   17  C   UNL     1      -7.038   9.909  66.420  1.00  0.00    -0.096 A  
HETATM   18  C   UNL     1      -8.119  10.759  66.981  1.00  0.00    -0.124 A  
HETATM   19  C   UNL     1     -10.320  14.961  67.000  1.00  0.00    -0.264 A  
BRANCH   9  20
HETATM   20  C   UNL     1     -10.892  10.455  69.618  1.00  0.00    -0.277 A  
HETATM   21  C   UNL     1     -11.112   9.117  71.666  1.00  0.00    -0.445 A  
HETATM   22  C   UNL     1     -13.069  10.125  70.689  1.00  0.00    -0.274 A  
HETATM   23 CL   UNL     1     -13.450   8.662  72.925  1.00  0.00    -0.175 Cl 
HETATM   24  C   UNL     1     -10.323   9.704  70.671  1.00  0.00    -0.365 A  
HETATM   25  C   UNL     1     -12.481   9.347  71.681  1.00  0.00    -0.378 A  
HETATM   26  C   UNL     1     -12.285  10.636  69.644  1.00  0.00    -0.277 A  
ENDBRANCH   9  20
BRANCH  13  27
HETATM   27  N   UNL     1      -5.831   7.805  66.213  1.00  0.00    -0.036 NA 
HETATM   28  H   UNL     1      -4.877   7.973  66.531  1.00  0.00     0.000 HD 
BRANCH  27  29
HETATM   29  C   UNL     1      -6.021   6.759  65.271  1.00  0.00    -0.035 A  
HETATM   30  C   UNL     1      -6.738   6.893  64.076  1.00  0.00    -0.049 A  
HETATM   31  C   UNL     1      -6.845   5.827  63.171  1.00  0.00    -0.036 A  
HETATM   32  C   UNL     1      -6.257   4.601  63.468  1.00  0.00    -0.022 A  
HETATM   33  C   UNL     1      -5.601   4.417  64.679  1.00  0.00    -0.014 A  
HETATM   34 CL   UNL     1      -6.341   3.309  62.334  1.00  0.00    -0.017 Cl 
HETATM   35  C   UNL     1      -5.494   5.486  65.578  1.00  0.00    -0.013 A  
ENDBRANCH  27  29
ENDBRANCH  13  27
ENDBRANCH   4   6
ENDBRANCH   2   4
TORSDOF 5
ENDMDL
MODEL       97
REMARK 921   NORMALIZED FREE ENERGY PREDICTED BY IDOCK:   -3.25 KCAL/MOL
REMARK 922        TOTAL FREE ENERGY PREDICTED BY IDOCK:   -5.37 KCAL/MOL
REMARK 923 INTER-LIGAND FREE ENERGY PREDICTED BY IDOCK:   -6.04 KCAL/MOL
REMARK 924 INTRA-LIGAND FREE ENERGY PREDICTED BY IDOCK:    0.68 KCAL/MOL
REMARK 927      BINDING AFFINITY PREDICTED BY RF-SCORE:    0.00 PKD
ROOT
HETATM    1  C   UNL     1     -11.145   6.703  67.672  1.00  0.00    -0.357 C  
HETATM    2  C   UNL     1     -10.296   7.961  67.481  1.00  0.00    -0.259 C  
HETATM    3  C   UNL     1      -8.856   7.675  67.897  1.00  0.00    -0.126 C  
ENDROOT
BRANCH   2   4
HETATM    4  N   UNL     1     -10.329   8.429  66.078  1.00  0.00    -0.145 NA 
HETATM    5  H   UNL     1     -10.403   7.759  65.312  1.00  0.00     0.000 HD 
BRANCH   4   6
HETATM    6  C   UNL     1     -10.262   9.702  65.832  1.00  0.00    -0.149 A  
HETATM    7  C   UNL     1     -10.818  10.756  66.715  1.00  0.00    -0.256 A  
HETATM    8  C   UNL     1     -10.620  12.077  66.632  1.00  0.00    -0.232 A  
HETATM    9  N   UNL     1     -11.061  13.053  67.569  1.00  0.00    -0.258 NA 
HETATM   10  C   UNL     1     -10.885  14.443  67.202  1.00  0.00    -0.292 A  
HETATM   11  C   UNL     1     -11.278  15.516  68.023  1.00  0.00    -0.332 A  
HETATM   12  C   UNL     1     -10.254  14.766  65.974  1.00  0.00    -0.304 A  
HETATM   13  C   UNL     1      -9.544  10.205  64.598  1.00  0.00    -0.315 A  
HETATM   14  N   UNL     1      -9.758  13.798  65.085  1.00  0.00    -0.062 NA 
HETATM   15  C   UNL     1     -11.124  16.849  67.623  1.00  0.00    -0.064 A  
HETATM   16  C   UNL     1     -10.081  16.106  65.597  1.00  0.00    -0.366 A  
HETATM   17  C   UNL     1      -9.429  11.530  64.432  1.00  0.00    -0.100 A  
HETATM   18  C   UNL     1      -9.925  12.551  65.391  1.00  0.00    -0.219 A  
HETATM   19  C   UNL     1     -10.525  17.145  66.409  1.00  0.00    -0.255 A  
BRANCH   9  20
HETATM   20  C   UNL     1     -11.589  12.629  68.849  1.00  0.00    -0.317 A  
HETATM   21  C   UNL     1     -12.481  10.854  70.294  1.00  0.00    -0.383 A  
HETATM   22  C   UNL     1     -12.400  13.120  71.106  1.00  0.00    -0.295 A  
HETATM   23 CL   UNL     1     -13.422  11.269  72.785  1.00  0.00     0.932 Cl 
HETATM   24  C   UNL     1     -11.879  11.269  69.101  1.00  0.00    -0.423 A  
HETATM   25  C   UNL     1     -12.720  11.780  71.300  1.00  0.00    -0.316 A  
HETATM   26  C   UNL     1     -11.880  13.544  69.875  1.00  0.00    -0.386 A  
ENDBRANCH   9  20
BRANCH  13  27
HETATM   27  N   UNL     1      -9.103   9.232  63.701  1.00  0.00    -0.413 NA 
HETATM   28  H   UNL     1      -9.531   9.229  62.776  1.00  0.00     0.000 HD 
BRANCH  27  29
HETATM   29  C   UNL     1      -8.113   8.245  63.955  1.00  0.00    -0.124 A  
HETATM   30  C   UNL     1      -7.125   8.354  64.941  1.00  0.00    -0.079 A  
HETATM   31  C   UNL     1      -6.207   7.317  65.165  1.00  0.00    -0.038 A  
HETATM   32  C   UNL     1      -6.251   6.167  64.381  1.00  0.00    -0.030 A  
HETATM   33  C   UNL     1      -7.175   6.063  63.348  1.00  0.00    -0.052 A  
HETATM   34 CL   UNL     1      -5.162   4.872  64.691  1.00  0.00    -0.012 Cl 
HETATM   35  C   UNL     1      -8.091   7.100  63.130  1.00  0.00    -0.014 A  
ENDBRANCH  27  29
ENDBRANCH  13  27
ENDBRANCH   4   6
ENDBRANCH   2   4
TORSDOF 5
ENDMDL
MODEL       98
REMARK 921   NORMALIZED FREE ENERGY PREDICTED BY IDOCK:   -2.66 KCAL/MOL
REMARK 922        TOTAL FREE ENERGY PREDICTED BY IDOCK:   -4.60 KCAL/MOL
REMARK 923 INTER-LIGAND FREE ENERGY PREDICTED BY IDOCK:   -5.36 KCAL/MOL
REMARK 924 INTRA-LIGAND FREE ENERGY PREDICTED BY IDOCK:    0.76 KCAL/MOL
REMARK 927      BINDING AFFINITY PREDICTED BY RF-SCORE:    0.00 PKD
ROOT
HETATM    1  C   UNL     1     -10.696  11.079  64.391  1.00  0.00    -0.340 C  
HETATM    2  C   UNL     1      -9.761   9.918  64.733  1.00  0.00    -0.235 C  
HETATM    3  C   UNL     1      -8.331  10.283  64.346  1.00  0.00    -0.166 C  
ENDROOT
BRANCH   2   4
HETATM    4  N   UNL     1      -9.820   9.580  66.172  1.00  0.00    -0.256 NA 
HETATM    5  H   UNL     1     -10.511   8.914  66.518  1.00  0.00     0.000 HD 
BRANCH   4   6
HETATM    6  C   UNL     1      -8.984  10.143  66.990  1.00  0.00    -0.135 A  
HETATM    7  C   UNL     1      -8.740  11.603  67.066  1.00  0.00    -0.173 A  
HETATM    8  C   UNL     1      -8.050  12.267  68.002  1.00  0.00    -0.156 A  
HETATM    9  N   UNL     1      -7.941  13.681  68.120  1.00  0.00    -0.137 NA 
HETATM   10  C   UNL     1      -7.010  14.188  69.106  1.00  0.00    -0.111 A  
HETATM   11  C   UNL     1      -6.791  15.560  69.331  1.00  0.00    -0.176 A  
HETATM   12  C   UNL     1      -6.296  13.277  69.926  1.00  0.00    -0.051 A  
HETATM   13  C   UNL     1      -8.209   9.305  67.985  1.00  0.00    -0.115 A  
HETATM   14  N   UNL     1      -6.460  11.884  69.852  1.00  0.00    -0.099 NA 
HETATM   15  C   UNL     1      -5.857  16.016  70.270  1.00  0.00    -0.119 A  
HETATM   16  C   UNL     1      -5.385  13.748  70.881  1.00  0.00    -0.156 A  
HETATM   17  C   UNL     1      -7.421   9.940  68.865  1.00  0.00    -0.081 A  
HETATM   18  C   UNL     1      -7.276  11.415  68.962  1.00  0.00    -0.118 A  
HETATM   19  C   UNL     1      -5.153  15.110  71.046  1.00  0.00    -0.141 A  
BRANCH   9  20
HETATM   20  C   UNL     1      -8.796  14.534  67.320  1.00  0.00    -0.208 A  
HETATM   21  C   UNL     1     -10.200  14.866  65.332  1.00  0.00    -0.409 A  
HETATM   22  C   UNL     1      -9.797  16.712  66.825  1.00  0.00    -0.280 A  
HETATM   23 CL   UNL     1     -11.340  17.216  64.668  1.00  0.00     0.342 Cl 
HETATM   24  C   UNL     1      -9.451  14.035  66.172  1.00  0.00    -0.210 A  
HETATM   25  C   UNL     1     -10.386  16.199  65.675  1.00  0.00    -0.382 A  
HETATM   26  C   UNL     1      -8.975  15.896  67.615  1.00  0.00    -0.193 A  
ENDBRANCH   9  20
BRANCH  13  27
HETATM   27  N   UNL     1      -8.344   7.921  67.865  1.00  0.00    -0.125 NA 
HETATM   28  H   UNL     1      -8.131   7.514  66.955  1.00  0.00     0.000 HD 
BRANCH  27  29
HETATM   29  C   UNL     1      -8.750   7.027  68.891  1.00  0.00    -0.131 A  
HETATM   30  C   UNL     1      -9.814   7.265  69.771  1.00  0.00    -0.177 A  
HETATM   31  C   UNL     1     -10.187   6.314  70.732  1.00  0.00    -0.238 A  
HETATM   32  C   UNL     1      -9.478   5.121  70.842  1.00  0.00    -0.167 A  
HETATM   33  C   UNL     1      -8.374   4.889  70.031  1.00  0.00    -0.073 A  
HETATM   34 CL   UNL     1      -9.969   3.931  71.983  1.00  0.00    -0.244 Cl 
HETATM   35  C   UNL     1      -8.007   5.841  69.070  1.00  0.00    -0.098 A  
ENDBRANCH  27  29
ENDBRANCH  13  27
ENDBRANCH   4   6
ENDBRANCH   2   4
TORSDOF 5
ENDMDL
MODEL       99
REMARK 921   NORMALIZED FREE ENERGY PREDICTED BY IDOCK:   -2.56 KCAL/MOL
REMARK 922        TOTAL FREE ENERGY PREDICTED BY IDOCK:   -4.47 KCAL/MOL
REMARK 923 INTER-LIGAND FREE ENERGY PREDICTED BY IDOCK:   -4.15 KCAL/MOL
REMARK 924 INTRA-LIGAND FREE ENERGY PREDICTED BY IDOCK:   -0.31 KCAL/MOL
REMARK 927      BINDING AFFINITY PREDICTED BY RF-SCORE:    0.00 PKD
ROOT
HETATM    1  C   UNL     1     -10.280   7.374  67.340  1.00  0.00    -0.315 C  
HETATM    2  C   UNL     1      -8.814   7.077  67.665  1.00  0.00    -0.119 C  
HETATM    3  C   UNL     1      -8.510   5.613  67.360  1.00  0.00    -0.106 C  
ENDROOT
BRANCH   2   4
HETATM    4  N   UNL     1      -7.901   7.951  66.896  1.00  0.00    -0.102 NA 
HETATM    5  H   UNL     1      -7.689   7.743  65.919  1.00  0.00     0.000 HD 
BRANCH   4   6
HETATM    6  C   UNL     1      -7.372   8.984  67.477  1.00  0.00    -0.081 A  
HETATM    7  C   UNL     1      -7.798  10.385  67.245  1.00  0.00    -0.106 A  
HETATM    8  C   UNL     1      -7.442  11.471  67.941  1.00  0.00    -0.103 A  
HETATM    9  N   UNL     1      -7.966  12.784  67.776  1.00  0.00    -0.143 NA 
HETATM   10  C   UNL     1      -7.323  13.847  68.520  1.00  0.00    -0.116 A  
HETATM   11  C   UNL     1      -7.726  15.193  68.453  1.00  0.00    -0.118 A  
HETATM   12  C   UNL     1      -6.251  13.536  69.396  1.00  0.00    -0.107 A  
HETATM   13  C   UNL     1      -6.273   8.804  68.502  1.00  0.00    -0.053 A  
HETATM   14  N   UNL     1      -5.784  12.229  69.607  1.00  0.00    -0.090 NA 
HETATM   15  C   UNL     1      -7.059  16.202  69.158  1.00  0.00    -0.209 A  
HETATM   16  C   UNL     1      -5.610  14.552  70.119  1.00  0.00    -0.119 A  
HETATM   17  C   UNL     1      -5.818   9.893  69.137  1.00  0.00    -0.034 A  
HETATM   18  C   UNL     1      -6.337  11.270  68.935  1.00  0.00    -0.055 A  
HETATM   19  C   UNL     1      -6.000  15.882  69.993  1.00  0.00    -0.156 A  
BRANCH   9  20
HETATM   20  C   UNL     1      -9.137  12.988  66.948  1.00  0.00    -0.227 A  
HETATM   21  C   UNL     1     -11.312  12.204  66.118  1.00  0.00    -0.414 A  
HETATM   22  C   UNL     1     -10.370  14.241  65.245  1.00  0.00    -0.417 A  
HETATM   23 CL   UNL     1     -12.755  13.480  64.234  1.00  0.00    -0.166 Cl 
HETATM   24  C   UNL     1     -10.217  12.078  66.981  1.00  0.00    -0.224 A  
HETATM   25  C   UNL     1     -11.392  13.298  65.267  1.00  0.00    -0.295 A  
HETATM   26  C   UNL     1      -9.234  14.062  66.047  1.00  0.00     0.026 A  
ENDBRANCH   9  20
BRANCH  13  27
HETATM   27  N   UNL     1      -5.785   7.506  68.663  1.00  0.00    -0.023 NA 
HETATM   28  H   UNL     1      -5.140   7.164  67.952  1.00  0.00     0.000 HD 
BRANCH  27  29
HETATM   29  C   UNL     1      -6.103   6.616  69.724  1.00  0.00    -0.026 A  
HETATM   30  C   UNL     1      -6.958   6.931  70.788  1.00  0.00    -0.066 A  
HETATM   31  C   UNL     1      -7.262   5.984  71.777  1.00  0.00    -0.088 A  
HETATM   32  C   UNL     1      -6.688   4.717  71.728  1.00  0.00    -0.038 A  
HETATM   33  C   UNL     1      -5.781   4.401  70.724  1.00  0.00    -0.013 A  
HETATM   34 CL   UNL     1      -7.102   3.538  72.910  1.00  0.00    -0.044 Cl 
HETATM   35  C   UNL     1      -5.483   5.349  69.736  1.00  0.00    -0.008 A  
ENDBRANCH  27  29
ENDBRANCH  13  27
ENDBRANCH   4   6
ENDBRANCH   2   4
TORSDOF 5
ENDMDL
MODEL      100
REMARK 921   NORMALIZED FREE ENERGY PREDICTED BY IDOCK:   -2.55 KCAL/MOL
REMARK 922        TOTAL FREE ENERGY PREDICTED BY IDOCK:   -4.46 KCAL/MOL
REMARK 923 INTER-LIGAND FREE ENERGY PREDICTED BY IDOCK:   -5.52 KCAL/MOL
REMARK 924 INTRA-LIGAND FREE ENERGY PREDICTED BY IDOCK:    1.07 KCAL/MOL
REMARK 927      BINDING AFFINITY PREDICTED BY RF-SCORE:    0.00 PKD
ROOT
HETATM    1  C   UNL     1     -10.418   7.234  70.043  1.00  0.00    -0.234 C  
HETATM    2  C   UNL     1      -9.879   8.306  69.094  1.00  0.00    -0.179 C  
HETATM    3  C   UNL     1     -10.760   8.379  67.851  1.00  0.00    -0.141 C  
ENDROOT
BRANCH   2   4
HETATM    4  N   UNL     1      -9.824   9.632  69.749  1.00  0.00    -0.214 NA 
HETATM    5  H   UNL     1     -10.194   9.757  70.692  1.00  0.00     0.000 HD 
BRANCH   4   6
HETATM    6  C   UNL     1      -9.302  10.634  69.111  1.00  0.00    -0.160 A  
HETATM    7  C   UNL     1      -9.841  12.014  69.133  1.00  0.00     0.294 A  
HETATM    8  C   UNL     1      -9.258  13.126  68.668  1.00  0.00     0.029 A  
HETATM    9  N   UNL     1      -9.742  14.455  68.818  1.00  0.00    -0.214 NA 
HETATM   10  C   UNL     1      -9.042  15.495  68.094  1.00  0.00    -0.184 A  
HETATM   11  C   UNL     1      -9.409  16.853  68.140  1.00  0.00    -0.240 A  
HETATM   12  C   UNL     1      -7.901  15.161  67.320  1.00  0.00    -0.211 A  
HETATM   13  C   UNL     1      -8.032  10.449  68.307  1.00  0.00    -0.111 A  
HETATM   14  N   UNL     1      -7.386  13.857  67.231  1.00  0.00    -0.090 NA 
HETATM   15  C   UNL     1      -8.731  17.829  67.400  1.00  0.00    -0.235 A  
HETATM   16  C   UNL     1      -7.214  16.153  66.606  1.00  0.00    -0.098 A  
HETATM   17  C   UNL     1      -7.485  11.530  67.735  1.00  0.00    -0.101 A  
HETATM   18  C   UNL     1      -8.014  12.913  67.858  1.00  0.00    -0.156 A  
HETATM   19  C   UNL     1      -7.632  17.479  66.632  1.00  0.00    -0.286 A  
BRANCH   9  20
HETATM   20  C   UNL     1     -10.843  14.717  69.722  1.00  0.00    -0.198 A  
HETATM   21  C   UNL     1     -13.203  14.421  70.334  1.00  0.00     0.022 A  
HETATM   22  C   UNL     1     -11.806  15.873  71.653  1.00  0.00    -0.565 A  
HETATM   23 CL   UNL     1     -14.385  15.651  72.420  1.00  0.00    -0.566 Cl 
HETATM   24  C   UNL     1     -12.102  14.105  69.531  1.00  0.00    -0.388 A  
HETATM   25  C   UNL     1     -13.045  15.290  71.405  1.00  0.00    -0.454 A  
HETATM   26  C   UNL     1     -10.728  15.621  70.792  1.00  0.00    -0.179 A  
ENDBRANCH   9  20
BRANCH  13  27
HETATM   27  N   UNL     1      -7.563   9.140  68.187  1.00  0.00    -0.084 NA 
HETATM   28  H   UNL     1      -7.245   8.683  69.042  1.00  0.00     0.000 HD 
BRANCH  27  29
HETATM   29  C   UNL     1      -7.486   8.384  66.987  1.00  0.00    -0.088 A  
HETATM   30  C   UNL     1      -7.481   6.984  66.935  1.00  0.00    -0.086 A  
HETATM   31  C   UNL     1      -7.449   6.305  65.708  1.00  0.00    -0.082 A  
HETATM   32  C   UNL     1      -7.392   7.023  64.516  1.00  0.00    -0.084 A  
HETATM   33  C   UNL     1      -7.323   8.410  64.541  1.00  0.00    -0.094 A  
HETATM   34 CL   UNL     1      -7.408   6.192  63.010  1.00  0.00    -0.055 Cl 
HETATM   35  C   UNL     1      -7.358   9.084  65.769  1.00  0.00    -0.089 A  
ENDBRANCH  27  29
ENDBRANCH  13  27
ENDBRANCH   4   6
ENDBRANCH   2   4
TORSDOF 5
ENDMDL
MODEL      101
REMARK 921   NORMALIZED FREE ENERGY PREDICTED BY IDOCK:   -2.43 KCAL/MOL
REMARK 922        TOTAL FREE ENERGY PREDICTED BY IDOCK:   -4.30 KCAL/MOL
REMARK 923 INTER-LIGAND FREE ENERGY PREDICTED BY IDOCK:   -4.60 KCAL/MOL
REMARK 924 INTRA-LIGAND FREE ENERGY PREDICTED BY IDOCK:    0.30 KCAL/MOL
REMARK 927      BINDING AFFINITY PREDICTED BY RF-SCORE:    0.00 PKD
ROOT
HETATM    1  C   UNL     1      -8.883  15.408  70.072  1.00  0.00     0.330 C  
HETATM    2  C   UNL     1      -7.465  15.242  69.522  1.00  0.00    -0.214 C  
HETATM    3  C   UNL     1      -6.540  16.265  70.175  1.00  0.00     0.240 C  
ENDROOT
BRANCH   2   4
HETATM    4  N   UNL     1      -6.949  13.876  69.758  1.00  0.00    -0.347 NA 
HETATM    5  H   UNL     1      -6.430  13.660  70.610  1.00  0.00     0.000 HD 
BRANCH   4   6
HETATM    6  C   UNL     1      -7.163  12.955  68.869  1.00  0.00    -0.042 A  
HETATM    7  C   UNL     1      -7.401  11.526  69.184  1.00  0.00    -0.057 A  
HETATM    8  C   UNL     1      -7.819  10.565  68.350  1.00  0.00    -0.110 A  
HETATM    9  N   UNL     1      -8.161   9.232  68.709  1.00  0.00    -0.111 NA 
HETATM   10  C   UNL     1      -8.430   8.308  67.626  1.00  0.00    -0.130 A  
HETATM   11  C   UNL     1      -8.774   6.959  67.827  1.00  0.00    -0.120 A  
HETATM   12  C   UNL     1      -8.385   8.771  66.286  1.00  0.00    -0.118 A  
HETATM   13  C   UNL     1      -7.228  13.312  67.399  1.00  0.00    -0.108 A  
HETATM   14  N   UNL     1      -8.114  10.106  65.942  1.00  0.00    -0.130 NA 
HETATM   15  C   UNL     1      -8.993   6.084  66.756  1.00  0.00    -0.122 A  
HETATM   16  C   UNL     1      -8.634   7.891  65.224  1.00  0.00    -0.084 A  
HETATM   17  C   UNL     1      -7.535  12.342  66.527  1.00  0.00     0.402 A  
HETATM   18  C   UNL     1      -7.854  10.939  66.899  1.00  0.00    -0.135 A  
HETATM   19  C   UNL     1      -8.923   6.550  65.453  1.00  0.00     0.129 A  
BRANCH   9  20
HETATM   20  C   UNL     1      -8.296   8.879  70.107  1.00  0.00    -0.139 A  
HETATM   21  C   UNL     1      -7.356   7.876  72.143  1.00  0.00    -0.092 A  
HETATM   22  C   UNL     1      -9.625   8.681  72.153  1.00  0.00    -0.378 A  
HETATM   23 CL   UNL     1      -8.721   7.582  74.447  1.00  0.00    -0.249 Cl 
HETATM   24  C   UNL     1      -7.216   8.314  70.821  1.00  0.00    -0.055 A  
HETATM   25  C   UNL     1      -8.556   8.081  72.810  1.00  0.00    -0.192 A  
HETATM   26  C   UNL     1      -9.507   9.037  70.802  1.00  0.00    -0.308 A  
ENDBRANCH   9  20
BRANCH  13  27
HETATM   27  N   UNL     1      -6.906  14.630  67.069  1.00  0.00    -0.307 NA 
HETATM   28  H   UNL     1      -5.918  14.882  67.086  1.00  0.00     0.000 HD 
BRANCH  27  29
HETATM   29  C   UNL     1      -7.825  15.653  66.712  1.00  0.00    -0.176 A  
HETATM   30  C   UNL     1      -9.167  15.427  66.380  1.00  0.00    -0.339 A  
HETATM   31  C   UNL     1     -10.028  16.493  66.081  1.00  0.00    -0.363 A  
HETATM   32  C   UNL     1      -9.546  17.799  66.084  1.00  0.00    -0.187 A  
HETATM   33  C   UNL     1      -8.203  18.046  66.340  1.00  0.00    -0.285 A  
HETATM   34 CL   UNL     1     -10.615  19.111  65.772  1.00  0.00    -0.508 Cl 
HETATM   35  C   UNL     1      -7.347  16.979  66.641  1.00  0.00    -0.296 A  
ENDBRANCH  27  29
ENDBRANCH  13  27
ENDBRANCH   4   6
ENDBRANCH   2   4
TORSDOF 5
ENDMDL
MODEL      102
REMARK 921   NORMALIZED FREE ENERGY PREDICTED BY IDOCK:   -2.08 KCAL/MOL
REMARK 922        TOTAL FREE ENERGY PREDICTED BY IDOCK:   -3.85 KCAL/MOL
REMARK 923 INTER-LIGAND FREE ENERGY PREDICTED BY IDOCK:   -4.92 KCAL/MOL
REMARK 924 INTRA-LIGAND FREE ENERGY PREDICTED BY IDOCK:    1.07 KCAL/MOL
REMARK 927      BINDING AFFINITY PREDICTED BY RF-SCORE:    0.00 PKD
ROOT
HETATM    1  C   UNL     1      -8.142   8.497  64.211  1.00  0.00    -0.155 C  
HETATM    2  C   UNL     1      -7.668   9.886  64.645  1.00  0.00    -0.142 C  
HETATM    3  C   UNL     1      -8.712  10.927  64.255  1.00  0.00    -0.005 C  
ENDROOT
BRANCH   2   4
HETATM    4  N   UNL     1      -7.422   9.943  66.103  1.00  0.00    -0.101 NA 
HETATM    5  H   UNL     1      -6.490  10.152  66.462  1.00  0.00     0.000 HD 
BRANCH   4   6
HETATM    6  C   UNL     1      -8.407   9.722  66.921  1.00  0.00    -0.120 A  
HETATM    7  C   UNL     1      -8.607   8.458  67.668  1.00  0.00    -0.130 A  
HETATM    8  C   UNL     1      -9.472   8.227  68.664  1.00  0.00    -0.147 A  
HETATM    9  N   UNL     1      -9.553   7.043  69.449  1.00  0.00    -0.155 NA 
HETATM   10  C   UNL     1     -10.670   6.936  70.363  1.00  0.00    -0.246 A  
HETATM   11  C   UNL     1     -10.885   5.824  71.198  1.00  0.00    -0.316 A  
HETATM   12  C   UNL     1     -11.591   8.010  70.469  1.00  0.00    -0.134 A  
HETATM   13  C   UNL     1      -9.425  10.807  67.200  1.00  0.00    -0.160 A  
HETATM   14  N   UNL     1     -11.466   9.206  69.742  1.00  0.00     0.029 NA 
HETATM   15  C   UNL     1     -11.996   5.738  72.046  1.00  0.00    -0.024 A  
HETATM   16  C   UNL     1     -12.683   7.923  71.343  1.00  0.00    -0.312 A  
HETATM   17  C   UNL     1     -10.373  10.560  68.115  1.00  0.00    -0.201 A  
HETATM   18  C   UNL     1     -10.482   9.308  68.906  1.00  0.00    -0.215 A  
HETATM   19  C   UNL     1     -12.896   6.788  72.120  1.00  0.00    -0.093 A  
BRANCH   9  20
HETATM   20  C   UNL     1      -8.503   6.050  69.356  1.00  0.00    -0.115 A  
HETATM   21  C   UNL     1      -7.301   4.346  68.058  1.00  0.00    -0.065 A  
HETATM   22  C   UNL     1      -6.724   4.706  70.368  1.00  0.00    -0.036 A  
HETATM   23 CL   UNL     1      -5.342   2.790  69.060  1.00  0.00    -0.012 Cl 
HETATM   24  C   UNL     1      -8.244   5.377  68.141  1.00  0.00    -0.099 A  
HETATM   25  C   UNL     1      -6.531   4.029  69.168  1.00  0.00    -0.036 A  
HETATM   26  C   UNL     1      -7.731   5.677  70.470  1.00  0.00    -0.094 A  
ENDBRANCH   9  20
BRANCH  13  27
HETATM   27  N   UNL     1      -9.317  11.968  66.433  1.00  0.00    -0.225 NA 
HETATM   28  H   UNL     1      -9.251  11.848  65.423  1.00  0.00     0.000 HD 
BRANCH  27  29
HETATM   29  C   UNL     1      -9.291  13.299  66.927  1.00  0.00    -0.244 A  
HETATM   30  C   UNL     1      -9.928  14.383  66.309  1.00  0.00    -0.320 A  
HETATM   31  C   UNL     1      -9.896  15.664  66.880  1.00  0.00    -0.245 A  
HETATM   32  C   UNL     1      -9.199  15.880  68.066  1.00  0.00    -0.192 A  
HETATM   33  C   UNL     1      -8.498  14.839  68.662  1.00  0.00    -0.167 A  
HETATM   34 CL   UNL     1      -9.206  17.438  68.796  1.00  0.00    -0.267 Cl 
HETATM   35  C   UNL     1      -8.535  13.561  68.090  1.00  0.00    -0.172 A  
ENDBRANCH  27  29
ENDBRANCH  13  27
ENDBRANCH   4   6
ENDBRANCH   2   4
TORSDOF 5
ENDMDL
MODEL      103
REMARK 921   NORMALIZED FREE ENERGY PREDICTED BY IDOCK:   -2.02 KCAL/MOL
REMARK 922        TOTAL FREE ENERGY PREDICTED BY IDOCK:   -3.77 KCAL/MOL
REMARK 923 INTER-LIGAND FREE ENERGY PREDICTED BY IDOCK:   -2.88 KCAL/MOL
REMARK 924 INTRA-LIGAND FREE ENERGY PREDICTED BY IDOCK:   -0.90 KCAL/MOL
REMARK 927      BINDING AFFINITY PREDICTED BY RF-SCORE:    0.00 PKD
ROOT
HETATM    1  C   UNL     1     -11.163  12.097  64.194  1.00  0.00    -0.433 C  
HETATM    2  C   UNL     1     -10.838  13.180  65.225  1.00  0.00    -0.297 C  
HETATM    3  C   UNL     1     -11.962  14.211  65.256  1.00  0.00    -0.383 C  
ENDROOT
BRANCH   2   4
HETATM    4  N   UNL     1     -10.648  12.603  66.575  1.00  0.00    -0.251 NA 
HETATM    5  H   UNL     1     -11.231  11.828  66.891  1.00  0.00     0.000 HD 
BRANCH   4   6
HETATM    6  C   UNL     1      -9.732  13.096  67.352  1.00  0.00    -0.220 A  
HETATM    7  C   UNL     1      -9.278  14.506  67.321  1.00  0.00    -0.213 A  
HETATM    8  C   UNL     1      -8.491  15.130  68.207  1.00  0.00    -0.152 A  
HETATM    9  N   UNL     1      -8.176  16.517  68.221  1.00  0.00    -0.178 NA 
HETATM   10  C   UNL     1      -7.174  16.953  69.170  1.00  0.00    -0.209 A  
HETATM   11  C   UNL     1      -6.755  18.292  69.295  1.00  0.00    -0.228 A  
HETATM   12  C   UNL     1      -6.593  16.010  70.056  1.00  0.00     0.015 A  
HETATM   13  C   UNL     1      -9.080  12.229  68.407  1.00  0.00    -0.146 A  
HETATM   14  N   UNL     1      -6.959  14.654  70.085  1.00  0.00    -0.080 NA 
HETATM   15  C   UNL     1      -5.758  18.674  70.199  1.00  0.00    -0.229 A  
HETATM   16  C   UNL     1      -5.615  16.412  70.977  1.00  0.00     0.175 A  
HETATM   17  C   UNL     1      -8.201  12.804  69.240  1.00  0.00     0.763 A  
HETATM   18  C   UNL     1      -7.841  14.246  69.229  1.00  0.00     0.085 A  
HETATM   19  C   UNL     1      -5.187  17.734  71.042  1.00  0.00    -0.224 A  
BRANCH   9  20
HETATM   20  C   UNL     1      -8.904  17.425  67.358  1.00  0.00    -0.227 A  
HETATM   21  C   UNL     1      -8.903  19.171  65.631  1.00  0.00     0.558 A  
HETATM   22  C   UNL     1     -10.986  18.484  66.625  1.00  0.00     0.060 A  
HETATM   23 CL   UNL     1     -11.120  20.426  64.755  1.00  0.00     0.695 Cl 
HETATM   24  C   UNL     1      -8.230  18.218  66.404  1.00  0.00    -0.276 A  
HETATM   25  C   UNL     1     -10.283  19.285  65.732  1.00  0.00    -0.239 A  
HETATM   26  C   UNL     1     -10.296  17.593  67.460  1.00  0.00    -0.365 A  
ENDBRANCH   9  20
BRANCH  13  27
HETATM   27  N   UNL     1      -9.416  10.874  68.388  1.00  0.00    -0.171 NA 
HETATM   28  H   UNL     1     -10.280  10.607  68.859  1.00  0.00     0.000 HD 
BRANCH  27  29
HETATM   29  C   UNL     1      -8.667   9.834  67.776  1.00  0.00    -0.129 A  
HETATM   30  C   UNL     1      -8.646   8.508  68.226  1.00  0.00    -0.139 A  
HETATM   31  C   UNL     1      -7.918   7.522  67.543  1.00  0.00    -0.116 A  
HETATM   32  C   UNL     1      -7.176   7.862  66.414  1.00  0.00    -0.082 A  
HETATM   33  C   UNL     1      -7.122   9.184  65.988  1.00  0.00    -0.090 A  
HETATM   34 CL   UNL     1      -6.328   6.645  65.543  1.00  0.00    -0.044 Cl 
HETATM   35  C   UNL     1      -7.853  10.163  66.671  1.00  0.00    -0.110 A  
ENDBRANCH  27  29
ENDBRANCH  13  27
ENDBRANCH   4   6
ENDBRANCH   2   4
TORSDOF 5
ENDMDL
MODEL      104
REMARK 921   NORMALIZED FREE ENERGY PREDICTED BY IDOCK:   -1.96 KCAL/MOL
REMARK 922        TOTAL FREE ENERGY PREDICTED BY IDOCK:   -3.70 KCAL/MOL
REMARK 923 INTER-LIGAND FREE ENERGY PREDICTED BY IDOCK:   -3.97 KCAL/MOL
REMARK 924 INTRA-LIGAND FREE ENERGY PREDICTED BY IDOCK:    0.27 KCAL/MOL
REMARK 927      BINDING AFFINITY PREDICTED BY RF-SCORE:    0.00 PKD
ROOT
HETATM    1  C   UNL     1     -11.274  12.152  64.345  1.00  0.00    -0.400 C  
HETATM    2  C   UNL     1     -10.577  11.865  65.677  1.00  0.00    -0.268 C  
HETATM    3  C   UNL     1      -9.070  11.775  65.456  1.00  0.00     0.013 C  
ENDROOT
BRANCH   2   4
HETATM    4  N   UNL     1     -10.877  12.910  66.681  1.00  0.00    -0.265 NA 
HETATM    5  H   UNL     1     -11.833  13.238  66.815  1.00  0.00     0.000 HD 
BRANCH   4   6
HETATM    6  C   UNL     1      -9.907  13.405  67.388  1.00  0.00    -0.227 A  
HETATM    7  C   UNL     1      -9.474  14.822  67.340  1.00  0.00    -0.207 A  
HETATM    8  C   UNL     1      -8.627  15.445  68.168  1.00  0.00    -0.152 A  
HETATM    9  N   UNL     1      -8.328  16.836  68.175  1.00  0.00    -0.195 NA 
HETATM   10  C   UNL     1      -7.258  17.274  69.047  1.00  0.00    -0.227 A  
HETATM   11  C   UNL     1      -6.848  18.616  69.155  1.00  0.00    -0.284 A  
HETATM   12  C   UNL     1      -6.597  16.328  69.871  1.00  0.00    -0.035 A  
HETATM   13  C   UNL     1      -9.162  12.534  68.377  1.00  0.00    -0.139 A  
HETATM   14  N   UNL     1      -6.943  14.967  69.911  1.00  0.00    -0.178 NA 
HETATM   15  C   UNL     1      -5.785  19.000  69.982  1.00  0.00    -0.263 A  
HETATM   16  C   UNL     1      -5.554  16.731  70.716  1.00  0.00     0.019 A  
HETATM   17  C   UNL     1      -8.226  13.111  69.144  1.00  0.00     0.520 A  
HETATM   18  C   UNL     1      -7.886  14.557  69.123  1.00  0.00    -0.071 A  
HETATM   19  C   UNL     1      -5.138  18.058  70.764  1.00  0.00    -0.271 A  
BRANCH   9  20
HETATM   20  C   UNL     1      -9.134  17.744  67.385  1.00  0.00    -0.244 A  
HETATM   21  C   UNL     1      -9.292  19.509  65.685  1.00  0.00     0.294 A  
HETATM   22  C   UNL     1     -11.280  18.786  66.836  1.00  0.00     0.311 A  
HETATM   23 CL   UNL     1     -11.587  20.747  65.006  1.00  0.00     1.714 Cl 
HETATM   24  C   UNL     1      -8.548  18.556  66.389  1.00  0.00    -0.272 A  
HETATM   25  C   UNL     1     -10.661  19.606  65.898  1.00  0.00    -0.466 A  
HETATM   26  C   UNL     1     -10.514  17.895  67.602  1.00  0.00    -0.406 A  
ENDBRANCH   9  20
BRANCH  13  27
HETATM   27  N   UNL     1      -9.482  11.176  68.367  1.00  0.00    -0.182 NA 
HETATM   28  H   UNL     1      -9.148  10.629  67.575  1.00  0.00     0.000 HD 
BRANCH  27  29
HETATM   29  C   UNL     1     -10.228  10.484  69.358  1.00  0.00    -0.221 A  
HETATM   30  C   UNL     1     -11.585  10.708  69.624  1.00  0.00    -0.368 A  
HETATM   31  C   UNL     1     -12.269   9.953  70.588  1.00  0.00    -0.325 A  
HETATM   32  C   UNL     1     -11.592   8.982  71.321  1.00  0.00    -0.317 A  
HETATM   33  C   UNL     1     -10.229   8.788  71.129  1.00  0.00    -0.316 A  
HETATM   34 CL   UNL     1     -12.442   8.019  72.464  1.00  0.00    -0.249 Cl 
HETATM   35  C   UNL     1      -9.551   9.542  70.162  1.00  0.00    -0.290 A  
ENDBRANCH  27  29
ENDBRANCH  13  27
ENDBRANCH   4   6
ENDBRANCH   2   4
TORSDOF 5
ENDMDL
MODEL      105
REMARK 921   NORMALIZED FREE ENERGY PREDICTED BY IDOCK:   -1.68 KCAL/MOL
REMARK 922        TOTAL FREE ENERGY PREDICTED BY IDOCK:   -3.34 KCAL/MOL
REMARK 923 INTER-LIGAND FREE ENERGY PREDICTED BY IDOCK:   -2.53 KCAL/MOL
REMARK 924 INTRA-LIGAND FREE ENERGY PREDICTED BY IDOCK:   -0.80 KCAL/MOL
REMARK 927      BINDING AFFINITY PREDICTED BY RF-SCORE:    0.00 PKD
ROOT
HETATM    1  C   UNL     1     -10.721  17.007  65.263  1.00  0.00    -0.108 C  
HETATM    2  C   UNL     1      -9.914  15.749  65.591  1.00  0.00    -0.345 C  
HETATM    3  C   UNL     1      -8.469  16.133  65.894  1.00  0.00     0.068 C  
ENDROOT
BRANCH   2   4
HETATM    4  N   UNL     1     -10.492  15.020  66.741  1.00  0.00    -0.277 NA 
HETATM    5  H   UNL     1     -11.497  15.047  66.917  1.00  0.00     0.000 HD 
BRANCH   4   6
HETATM    6  C   UNL     1      -9.706  14.347  67.524  1.00  0.00    -0.215 A  
HETATM    7  C   UNL     1      -9.263  12.955  67.271  1.00  0.00    -0.208 A  
HETATM    8  C   UNL     1      -8.312  12.271  67.918  1.00  0.00    -0.163 A  
HETATM    9  N   UNL     1      -7.820  10.982  67.571  1.00  0.00    -0.113 NA 
HETATM   10  C   UNL     1      -6.907  10.354  68.503  1.00  0.00    -0.061 A  
HETATM   11  C   UNL     1      -6.344   9.080  68.297  1.00  0.00    -0.055 A  
HETATM   12  C   UNL     1      -6.515  11.051  69.674  1.00  0.00    -0.123 A  
HETATM   13  C   UNL     1      -9.138  14.989  68.772  1.00  0.00    -0.197 A  
HETATM   14  N   UNL     1      -6.950  12.352  69.977  1.00  0.00     0.422 NA 
HETATM   15  C   UNL     1      -5.492   8.487  69.236  1.00  0.00    -0.035 A  
HETATM   16  C   UNL     1      -5.638  10.457  70.592  1.00  0.00    -0.088 A  
HETATM   17  C   UNL     1      -8.265  14.282  69.503  1.00  0.00     0.412 A  
HETATM   18  C   UNL     1      -7.782  12.919  69.162  1.00  0.00     0.326 A  
HETATM   19  C   UNL     1      -5.137   9.176  70.384  1.00  0.00    -0.027 A  
BRANCH   9  20
HETATM   20  C   UNL     1      -8.186  10.396  66.298  1.00  0.00    -0.144 A  
HETATM   21  C   UNL     1      -9.579   8.848  64.996  1.00  0.00     0.358 A  
HETATM   22  C   UNL     1      -7.815  10.068  63.900  1.00  0.00    -0.150 A  
HETATM   23 CL   UNL     1      -9.259   8.384  62.361  1.00  0.00     0.507 Cl 
HETATM   24  C   UNL     1      -9.273   9.499  66.196  1.00  0.00    -0.226 A  
HETATM   25  C   UNL     1      -8.860   9.151  63.847  1.00  0.00    -0.070 A  
HETATM   26  C   UNL     1      -7.455  10.650  65.124  1.00  0.00     0.041 A  
ENDBRANCH   9  20
BRANCH  13  27
HETATM   27  N   UNL     1      -9.620  16.261  69.086  1.00  0.00    -0.254 NA 
HETATM   28  H   UNL     1     -10.527  16.309  69.550  1.00  0.00     0.000 HD 
BRANCH  27  29
HETATM   29  C   UNL     1      -8.966  17.493  68.821  1.00  0.00    -0.211 A  
HETATM   30  C   UNL     1      -9.629  18.705  68.588  1.00  0.00    -0.407 A  
HETATM   31  C   UNL     1      -8.915  19.893  68.378  1.00  0.00    -0.255 A  
HETATM   32  C   UNL     1      -7.522  19.876  68.369  1.00  0.00    -0.277 A  
HETATM   33  C   UNL     1      -6.839  18.676  68.525  1.00  0.00    -0.281 A  
HETATM   34 CL   UNL     1      -6.645  21.342  68.165  1.00  0.00    -0.120 Cl 
HETATM   35  C   UNL     1      -7.557  17.492  68.738  1.00  0.00    -0.258 A  
ENDBRANCH  27  29
ENDBRANCH  13  27
ENDBRANCH   4   6
ENDBRANCH   2   4
TORSDOF 5
ENDMDL
MODEL      106
REMARK 921   NORMALIZED FREE ENERGY PREDICTED BY IDOCK:   -1.43 KCAL/MOL
REMARK 922        TOTAL FREE ENERGY PREDICTED BY IDOCK:   -3.01 KCAL/MOL
REMARK 923 INTER-LIGAND FREE ENERGY PREDICTED BY IDOCK:   -2.55 KCAL/MOL
REMARK 924 INTRA-LIGAND FREE ENERGY PREDICTED BY IDOCK:   -0.46 KCAL/MOL
REMARK 927      BINDING AFFINITY PREDICTED BY RF-SCORE:    0.00 PKD
ROOT
HETATM    1  C   UNL     1      -9.082   9.079  63.809  1.00  0.00     0.259 C  
HETATM    2  C   UNL     1      -8.564   8.411  65.084  1.00  0.00    -0.132 C  
HETATM    3  C   UNL     1      -8.769   6.902  64.990  1.00  0.00     0.198 C  
ENDROOT
BRANCH   2   4
HETATM    4  N   UNL     1      -7.132   8.710  65.308  1.00  0.00    -0.081 NA 
HETATM    5  H   UNL     1      -6.412   8.208  64.788  1.00  0.00     0.000 HD 
BRANCH   4   6
HETATM    6  C   UNL     1      -6.803   9.619  66.175  1.00  0.00    -0.091 A  
HETATM    7  C   UNL     1      -7.400  10.974  66.235  1.00  0.00    -0.097 A  
HETATM    8  C   UNL     1      -7.258  11.886  67.205  1.00  0.00    -0.147 A  
HETATM    9  N   UNL     1      -7.946  13.128  67.299  1.00  0.00    -0.162 NA 
HETATM   10  C   UNL     1      -7.521  14.038  68.341  1.00  0.00    -0.119 A  
HETATM   11  C   UNL     1      -8.102  15.303  68.551  1.00  0.00    -0.143 A  
HETATM   12  C   UNL     1      -6.491  13.645  69.234  1.00  0.00    -0.110 A  
HETATM   13  C   UNL     1      -5.776   9.317  67.245  1.00  0.00    -0.041 A  
HETATM   14  N   UNL     1      -5.864  12.389  69.181  1.00  0.00    -0.070 NA 
HETATM   15  C   UNL     1      -7.643  16.173  69.547  1.00  0.00    -0.052 A  
HETATM   16  C   UNL     1      -6.060  14.515  70.245  1.00  0.00    -0.170 A  
HETATM   17  C   UNL     1      -5.532  10.258  68.168  1.00  0.00    -0.034 A  
HETATM   18  C   UNL     1      -6.221  11.572  68.241  1.00  0.00    -0.045 A  
HETATM   19  C   UNL     1      -6.621  15.779  70.396  1.00  0.00     0.312 A  
BRANCH   9  20
HETATM   20  C   UNL     1      -9.063  13.395  66.416  1.00  0.00    -0.045 A  
HETATM   21  C   UNL     1     -10.389  14.983  65.092  1.00  0.00    -0.422 A  
HETATM   22  C   UNL     1     -11.100  12.688  65.256  1.00  0.00    -0.330 A  
HETATM   23 CL   UNL     1     -12.657  14.335  63.789  1.00  0.00    -0.021 Cl 
HETATM   24  C   UNL     1      -9.263  14.681  65.866  1.00  0.00    -0.035 A  
HETATM   25  C   UNL     1     -11.293  13.979  64.774  1.00  0.00    -0.366 A  
HETATM   26  C   UNL     1     -10.018  12.412  66.105  1.00  0.00    -0.267 A  
ENDBRANCH   9  20
BRANCH  13  27
HETATM   27  N   UNL     1      -5.126   8.086  67.147  1.00  0.00    -0.027 NA 
HETATM   28  H   UNL     1      -4.118   8.107  66.996  1.00  0.00     0.000 HD 
BRANCH  27  29
HETATM   29  C   UNL     1      -5.736   6.806  67.238  1.00  0.00    -0.013 A  
HETATM   30  C   UNL     1      -6.702   6.458  68.191  1.00  0.00    -0.068 A  
HETATM   31  C   UNL     1      -7.295   5.187  68.191  1.00  0.00    -0.075 A  
HETATM   32  C   UNL     1      -6.903   4.236  67.252  1.00  0.00    -0.052 A  
HETATM   33  C   UNL     1      -5.895   4.530  66.342  1.00  0.00    -0.023 A  
HETATM   34 CL   UNL     1      -7.668   2.696  67.217  1.00  0.00    -0.069 Cl 
HETATM   35  C   UNL     1      -5.309   5.802  66.343  1.00  0.00    -0.009 A  
ENDBRANCH  27  29
ENDBRANCH  13  27
ENDBRANCH   4   6
ENDBRANCH   2   4
TORSDOF 5
ENDMDL
MODEL      107
REMARK 921   NORMALIZED FREE ENERGY PREDICTED BY IDOCK:   -1.40 KCAL/MOL
REMARK 922        TOTAL FREE ENERGY PREDICTED BY IDOCK:   -2.97 KCAL/MOL
REMARK 923 INTER-LIGAND FREE ENERGY PREDICTED BY IDOCK:   -3.32 KCAL/MOL
REMARK 924 INTRA-LIGAND FREE ENERGY PREDICTED BY IDOCK:    0.35 KCAL/MOL
REMARK 927      BINDING AFFINITY PREDICTED BY RF-SCORE:    0.00 PKD
ROOT
HETATM    1  C   UNL     1      -9.103  14.040  69.164  1.00  0.00     0.282 C  
HETATM    2  C   UNL     1      -7.991  13.687  68.173  1.00  0.00    -0.148 C  
HETATM    3  C   UNL     1      -6.952  14.803  68.152  1.00  0.00    -0.130 C  
ENDROOT
BRANCH   2   4
HETATM    4  N   UNL     1      -7.343  12.404  68.522  1.00  0.00    -0.101 NA 
HETATM    5  H   UNL     1      -6.513  12.389  69.115  1.00  0.00     0.000 HD 
BRANCH   4   6
HETATM    6  C   UNL     1      -7.842  11.296  68.064  1.00  0.00    -0.115 A  
HETATM    7  C   UNL     1      -7.681   9.973  68.713  1.00  0.00    -0.085 A  
HETATM    8  C   UNL     1      -8.319   8.835  68.415  1.00  0.00    -0.126 A  
HETATM    9  N   UNL     1      -8.240   7.612  69.138  1.00  0.00    -0.128 NA 
HETATM   10  C   UNL     1      -8.882   6.457  68.548  1.00  0.00    -0.119 A  
HETATM   11  C   UNL     1      -8.880   5.181  69.143  1.00  0.00    -0.110 A  
HETATM   12  C   UNL     1      -9.585   6.598  67.324  1.00  0.00    -0.132 A  
HETATM   13  C   UNL     1      -8.689  11.302  66.809  1.00  0.00    -0.166 A  
HETATM   14  N   UNL     1      -9.720   7.823  66.650  1.00  0.00    -0.219 NA 
HETATM   15  C   UNL     1      -9.481   4.077  68.528  1.00  0.00    -0.215 A  
HETATM   16  C   UNL     1     -10.207   5.489  66.733  1.00  0.00    -0.277 A  
HETATM   17  C   UNL     1      -9.252  10.148  66.423  1.00  0.00    -0.190 A  
HETATM   18  C   UNL     1      -9.135   8.862  67.157  1.00  0.00    -0.138 A  
HETATM   19  C   UNL     1     -10.146   4.230  67.322  1.00  0.00    -0.043 A  
BRANCH   9  20
HETATM   20  C   UNL     1      -7.598   7.590  70.437  1.00  0.00    -0.090 A  
HETATM   21  C   UNL     1      -7.694   7.988  72.858  1.00  0.00    -0.177 A  
HETATM   22  C   UNL     1      -5.621   7.292  71.849  1.00  0.00    -0.037 A  
HETATM   23 CL   UNL     1      -5.587   7.716  74.515  1.00  0.00    -0.072 Cl 
HETATM   24  C   UNL     1      -8.319   7.909  71.609  1.00  0.00    -0.137 A  
HETATM   25  C   UNL     1      -6.350   7.660  72.976  1.00  0.00    -0.062 A  
HETATM   26  C   UNL     1      -6.231   7.300  70.586  1.00  0.00    -0.035 A  
ENDBRANCH   9  20
BRANCH  13  27
HETATM   27  N   UNL     1      -8.770  12.515  66.124  1.00  0.00    -0.401 NA 
HETATM   28  H   UNL     1      -7.889  12.969  65.884  1.00  0.00     0.000 HD 
BRANCH  27  29
HETATM   29  C   UNL     1      -9.964  13.177  65.730  1.00  0.00    -0.252 A  
HETATM   30  C   UNL     1     -11.235  12.590  65.752  1.00  0.00    -0.356 A  
HETATM   31  C   UNL     1     -12.377  13.320  65.390  1.00  0.00    -0.528 A  
HETATM   32  C   UNL     1     -12.253  14.643  64.973  1.00  0.00    -0.322 A  
HETATM   33  C   UNL     1     -10.997  15.228  64.872  1.00  0.00    -0.445 A  
HETATM   34 CL   UNL     1     -13.658  15.556  64.581  1.00  0.00     1.974 Cl 
HETATM   35  C   UNL     1      -9.860  14.495  65.237  1.00  0.00    -0.221 A  
ENDBRANCH  27  29
ENDBRANCH  13  27
ENDBRANCH   4   6
ENDBRANCH   2   4
TORSDOF 5
ENDMDL
MODEL      108
REMARK 921   NORMALIZED FREE ENERGY PREDICTED BY IDOCK:   -1.29 KCAL/MOL
REMARK 922        TOTAL FREE ENERGY PREDICTED BY IDOCK:   -2.83 KCAL/MOL
REMARK 923 INTER-LIGAND FREE ENERGY PREDICTED BY IDOCK:   -1.44 KCAL/MOL
REMARK 924 INTRA-LIGAND FREE ENERGY PREDICTED BY IDOCK:   -1.38 KCAL/MOL
REMARK 927      BINDING AFFINITY PREDICTED BY RF-SCORE:    0.00 PKD
ROOT
HETATM    1  C   UNL     1      -9.549   9.804  62.470  1.00  0.00     0.110 C  
HETATM    2  C   UNL     1      -8.660   8.971  63.396  1.00  0.00    -0.135 C  
HETATM    3  C   UNL     1      -8.632   7.524  62.911  1.00  0.00     0.330 C  
ENDROOT
BRANCH   2   4
HETATM    4  N   UNL     1      -7.283   9.508  63.453  1.00  0.00    -0.103 NA 
HETATM    5  H   UNL     1      -6.699   9.521  62.616  1.00  0.00     0.000 HD 
BRANCH   4   6
HETATM    6  C   UNL     1      -6.827   9.963  64.580  1.00  0.00    -0.124 A  
HETATM    7  C   UNL     1      -7.340  11.174  65.264  1.00  0.00     0.506 A  
HETATM    8  C   UNL     1      -7.060  11.591  66.505  1.00  0.00    -0.009 A  
HETATM    9  N   UNL     1      -7.666  12.686  67.180  1.00  0.00    -0.133 NA 
HETATM   10  C   UNL     1      -7.098  13.067  68.457  1.00  0.00    -0.105 A  
HETATM   11  C   UNL     1      -7.587  14.133  69.235  1.00  0.00     0.058 A  
HETATM   12  C   UNL     1      -6.016  12.321  68.989  1.00  0.00    -0.070 A  
HETATM   13  C   UNL     1      -5.726   9.225  65.311  1.00  0.00    -0.054 A  
HETATM   14  N   UNL     1      -5.467  11.197  68.350  1.00  0.00    -0.043 NA 
HETATM   15  C   UNL     1      -6.992  14.496  70.449  1.00  0.00     0.235 A  
HETATM   16  C   UNL     1      -5.447  12.679  70.220  1.00  0.00    -0.140 A  
HETATM   17  C   UNL     1      -5.347   9.687  66.511  1.00  0.00    -0.044 A  
HETATM   18  C   UNL     1      -5.952  10.856  67.199  1.00  0.00    -0.066 A  
HETATM   19  C   UNL     1      -5.921  13.769  70.943  1.00  0.00    -0.136 A  
BRANCH   9  20
HETATM   20  C   UNL     1      -8.842  13.315  66.613  1.00  0.00    -0.058 A  
HETATM   21  C   UNL     1     -11.193  13.179  65.916  1.00  0.00    -0.311 A  
HETATM   22  C   UNL     1      -9.946  15.199  65.507  1.00  0.00    -0.384 A  
HETATM   23 CL   UNL     1     -12.514  15.172  64.673  1.00  0.00    -0.182 Cl 
HETATM   24  C   UNL     1     -10.074  12.627  66.548  1.00  0.00    -0.257 A  
HETATM   25  C   UNL     1     -11.129  14.473  65.415  1.00  0.00    -0.345 A  
HETATM   26  C   UNL     1      -8.802  14.607  66.062  1.00  0.00     0.292 A  
ENDBRANCH   9  20
BRANCH  13  27
HETATM   27  N   UNL     1      -5.156   8.142  64.640  1.00  0.00    -0.035 NA 
HETATM   28  H   UNL     1      -4.345   8.337  64.054  1.00  0.00     0.000 HD 
BRANCH  27  29
HETATM   29  C   UNL     1      -5.601   6.794  64.696  1.00  0.00    -0.031 A  
HETATM   30  C   UNL     1      -5.473   5.876  63.646  1.00  0.00    -0.017 A  
HETATM   31  C   UNL     1      -5.895   4.546  63.790  1.00  0.00    -0.017 A  
HETATM   32  C   UNL     1      -6.479   4.127  64.982  1.00  0.00    -0.035 A  
HETATM   33  C   UNL     1      -6.684   5.034  66.015  1.00  0.00    -0.053 A  
HETATM   34 CL   UNL     1      -6.947   2.483  65.180  1.00  0.00    -0.047 Cl 
HETATM   35  C   UNL     1      -6.258   6.360  65.867  1.00  0.00    -0.038 A  
ENDBRANCH  27  29
ENDBRANCH  13  27
ENDBRANCH   4   6
ENDBRANCH   2   4
TORSDOF 5
ENDMDL
MODEL      109
REMARK 921   NORMALIZED FREE ENERGY PREDICTED BY IDOCK:   -0.41 KCAL/MOL
REMARK 922        TOTAL FREE ENERGY PREDICTED BY IDOCK:   -1.70 KCAL/MOL
REMARK 923 INTER-LIGAND FREE ENERGY PREDICTED BY IDOCK:   -3.39 KCAL/MOL
REMARK 924 INTRA-LIGAND FREE ENERGY PREDICTED BY IDOCK:    1.69 KCAL/MOL
REMARK 927      BINDING AFFINITY PREDICTED BY RF-SCORE:    0.00 PKD
ROOT
HETATM    1  C   UNL     1     -12.188  11.238  69.655  1.00  0.00    -0.340 C  
HETATM    2  C   UNL     1     -10.919  11.750  68.970  1.00  0.00    -0.227 C  
HETATM    3  C   UNL     1     -10.399  12.979  69.710  1.00  0.00     1.118 C  
ENDROOT
BRANCH   2   4
HETATM    4  N   UNL     1      -9.869  10.709  68.927  1.00  0.00    -0.194 NA 
HETATM    5  H   UNL     1      -9.415  10.397  69.787  1.00  0.00     0.000 HD 
BRANCH   4   6
HETATM    6  C   UNL     1      -9.531  10.196  67.783  1.00  0.00    -0.144 A  
HETATM    7  C   UNL     1      -8.579   9.072  67.618  1.00  0.00    -0.120 A  
HETATM    8  C   UNL     1      -8.332   8.368  66.506  1.00  0.00    -0.111 A  
HETATM    9  N   UNL     1      -7.509   7.212  66.408  1.00  0.00    -0.085 NA 
HETATM   10  C   UNL     1      -7.246   6.704  65.078  1.00  0.00    -0.074 A  
HETATM   11  C   UNL     1      -6.446   5.574  64.825  1.00  0.00    -0.038 A  
HETATM   12  C   UNL     1      -7.842   7.337  63.957  1.00  0.00    -0.114 A  
HETATM   13  C   UNL     1     -10.150  10.713  66.502  1.00  0.00    -0.223 A  
HETATM   14  N   UNL     1      -8.711   8.436  64.066  1.00  0.00     0.119 NA 
HETATM   15  C   UNL     1      -6.183   5.129  63.523  1.00  0.00    -0.022 A  
HETATM   16  C   UNL     1      -7.594   6.864  62.661  1.00  0.00    -0.099 A  
HETATM   17  C   UNL     1      -9.833  10.096  65.355  1.00  0.00    -0.375 A  
HETATM   18  C   UNL     1      -8.940   8.913  65.248  1.00  0.00    -0.162 A  
HETATM   19  C   UNL     1      -6.758   5.774  62.440  1.00  0.00    -0.035 A  
BRANCH   9  20
HETATM   20  C   UNL     1      -7.038   6.565  67.615  1.00  0.00    -0.084 A  
HETATM   21  C   UNL     1      -5.183   5.718  68.984  1.00  0.00    -0.004 A  
HETATM   22  C   UNL     1      -7.453   5.374  69.713  1.00  0.00    -0.066 A  
HETATM   23 CL   UNL     1      -5.508   4.375  71.298  1.00  0.00    -0.010 Cl 
HETATM   24  C   UNL     1      -5.657   6.426  67.874  1.00  0.00    -0.008 A  
HETATM   25  C   UNL     1      -6.085   5.212  69.910  1.00  0.00    -0.021 A  
HETATM   26  C   UNL     1      -7.923   6.007  68.554  1.00  0.00    -0.107 A  
ENDBRANCH   9  20
BRANCH  13  27
HETATM   27  N   UNL     1     -10.969  11.837  66.622  1.00  0.00    -0.281 NA 
HETATM   28  H   UNL     1     -11.957  11.669  66.812  1.00  0.00     0.000 HD 
BRANCH  27  29
HETATM   29  C   UNL     1     -10.557  13.191  66.503  1.00  0.00    -0.284 A  
HETATM   30  C   UNL     1     -11.432  14.270  66.330  1.00  0.00    -0.361 A  
HETATM   31  C   UNL     1     -10.955  15.588  66.267  1.00  0.00    -0.242 A  
HETATM   32  C   UNL     1      -9.588  15.837  66.346  1.00  0.00    -0.285 A  
HETATM   33  C   UNL     1      -8.691  14.780  66.445  1.00  0.00    -0.062 A  
HETATM   34 CL   UNL     1      -9.005  17.455  66.323  1.00  0.00    -0.267 Cl 
HETATM   35  C   UNL     1      -9.173  13.466  66.512  1.00  0.00    -0.182 A  
ENDBRANCH  27  29
ENDBRANCH  13  27
ENDBRANCH   4   6
ENDBRANCH   2   4
TORSDOF 5
ENDMDL
MODEL      110
REMARK 921   NORMALIZED FREE ENERGY PREDICTED BY IDOCK:   -0.02 KCAL/MOL
REMARK 922        TOTAL FREE ENERGY PREDICTED BY IDOCK:   -1.19 KCAL/MOL
REMARK 923 INTER-LIGAND FREE ENERGY PREDICTED BY IDOCK:   -2.64 KCAL/MOL
REMARK 924 INTRA-LIGAND FREE ENERGY PREDICTED BY IDOCK:    1.45 KCAL/MOL
REMARK 927      BINDING AFFINITY PREDICTED BY RF-SCORE:    0.00 PKD
ROOT
HETATM    1  C   UNL     1      -9.887  16.536  66.507  1.00  0.00    -0.292 C  
HETATM    2  C   UNL     1      -8.822  15.507  66.123  1.00  0.00    -0.238 C  
HETATM    3  C   UNL     1      -8.066  15.063  67.371  1.00  0.00    -0.216 C  
ENDROOT
BRANCH   2   4
HETATM    4  N   UNL     1      -9.422  14.331  65.454  1.00  0.00    -0.483 NA 
HETATM    5  H   UNL     1      -9.392  14.244  64.438  1.00  0.00     0.000 HD 
BRANCH   4   6
HETATM    6  C   UNL     1      -9.987  13.411  66.176  1.00  0.00    -0.294 A  
HETATM    7  C   UNL     1     -10.424  13.599  67.580  1.00  0.00    -0.238 A  
HETATM    8  C   UNL     1     -11.180  12.776  68.316  1.00  0.00    -0.271 A  
HETATM    9  N   UNL     1     -11.691  13.042  69.617  1.00  0.00    -0.305 NA 
HETATM   10  C   UNL     1     -12.348  11.948  70.302  1.00  0.00    -0.207 A  
HETATM   11  C   UNL     1     -12.895  12.060  71.594  1.00  0.00    -0.399 A  
HETATM   12  C   UNL     1     -12.491  10.699  69.645  1.00  0.00    -0.052 A  
HETATM   13  C   UNL     1     -10.283  12.050  65.584  1.00  0.00    -0.252 A  
HETATM   14  N   UNL     1     -12.047  10.463  68.333  1.00  0.00    -0.059 NA 
HETATM   15  C   UNL     1     -13.493  10.971  72.241  1.00  0.00    -0.035 A  
HETATM   16  C   UNL     1     -13.117   9.625  70.294  1.00  0.00     0.438 A  
HETATM   17  C   UNL     1     -10.943  11.163  66.341  1.00  0.00    -0.248 A  
HETATM   18  C   UNL     1     -11.441  11.427  67.716  1.00  0.00    -0.281 A  
HETATM   19  C   UNL     1     -13.605   9.753  71.591  1.00  0.00    -0.371 A  
BRANCH   9  20
HETATM   20  C   UNL     1     -11.599  14.381  70.162  1.00  0.00    -0.265 A  
HETATM   21  C   UNL     1     -10.483  16.567  70.243  1.00  0.00     0.169 A  
HETATM   22  C   UNL     1     -12.299  16.103  71.755  1.00  0.00    -0.398 A  
HETATM   23 CL   UNL     1     -11.145  18.535  71.961  1.00  0.00     2.848 Cl 
HETATM   24  C   UNL     1     -10.653  15.305  69.665  1.00  0.00    -0.285 A  
HETATM   25  C   UNL     1     -11.322  16.968  71.274  1.00  0.00     0.871 A  
HETATM   26  C   UNL     1     -12.406  14.806  71.231  1.00  0.00    -0.390 A  
ENDBRANCH   9  20
BRANCH  13  27
HETATM   27  N   UNL     1      -9.789  11.815  64.299  1.00  0.00    -0.374 NA 
HETATM   28  H   UNL     1     -10.039  12.492  63.579  1.00  0.00     0.000 HD 
BRANCH  27  29
HETATM   29  C   UNL     1      -8.973  10.722  63.902  1.00  0.00    -0.155 A  
HETATM   30  C   UNL     1      -9.142  10.003  62.713  1.00  0.00    -0.304 A  
HETATM   31  C   UNL     1      -8.268   8.963  62.364  1.00  0.00    -0.175 A  
HETATM   32  C   UNL     1      -7.228   8.611  63.221  1.00  0.00    -0.091 A  
HETATM   33  C   UNL     1      -7.080   9.261  64.441  1.00  0.00    -0.094 A  
HETATM   34 CL   UNL     1      -6.122   7.373  62.770  1.00  0.00    -0.053 Cl 
HETATM   35  C   UNL     1      -7.954  10.301  64.783  1.00  0.00    -0.141 A  
ENDBRANCH  27  29
ENDBRANCH  13  27
ENDBRANCH   4   6
ENDBRANCH   2   4
TORSDOF 5
ENDMDL
MODEL      111
REMARK 921   NORMALIZED FREE ENERGY PREDICTED BY IDOCK:    0.03 KCAL/MOL
REMARK 922        TOTAL FREE ENERGY PREDICTED BY IDOCK:   -1.12 KCAL/MOL
REMARK 923 INTER-LIGAND FREE ENERGY PREDICTED BY IDOCK:   -1.98 KCAL/MOL
REMARK 924 INTRA-LIGAND FREE ENERGY PREDICTED BY IDOCK:    0.86 KCAL/MOL
REMARK 927      BINDING AFFINITY PREDICTED BY RF-SCORE:    0.00 PKD
ROOT
HETATM    1  C   UNL     1      -7.768  17.867  65.651  1.00  0.00     0.196 C  
HETATM    2  C   UNL     1      -8.489  16.943  66.635  1.00  0.00    -0.250 C  
HETATM    3  C   UNL     1      -9.989  16.970  66.357  1.00  0.00    -0.318 C  
ENDROOT
BRANCH   2   4
HETATM    4  N   UNL     1      -7.986  15.555  66.543  1.00  0.00    -0.300 NA 
HETATM    5  H   UNL     1      -8.025  15.050  65.657  1.00  0.00     0.000 HD 
BRANCH   4   6
HETATM    6  C   UNL     1      -7.496  14.986  67.602  1.00  0.00    -0.181 A  
HETATM    7  C   UNL     1      -7.612  13.540  67.906  1.00  0.00    -0.151 A  
HETATM    8  C   UNL     1      -6.975  12.854  68.863  1.00  0.00    -0.084 A  
HETATM    9  N   UNL     1      -7.007  11.444  69.049  1.00  0.00    -0.098 NA 
HETATM   10  C   UNL     1      -6.380  10.924  70.246  1.00  0.00    -0.135 A  
HETATM   11  C   UNL     1      -6.339   9.555  70.567  1.00  0.00    -0.080 A  
HETATM   12  C   UNL     1      -5.734  11.817  71.139  1.00  0.00     0.158 A  
HETATM   13  C   UNL     1      -6.707  15.797  68.608  1.00  0.00    -0.117 A  
HETATM   14  N   UNL     1      -5.645  13.201  70.915  1.00  0.00    -0.190 NA 
HETATM   15  C   UNL     1      -5.754   9.089  71.751  1.00  0.00    -0.063 A  
HETATM   16  C   UNL     1      -5.128  11.334  72.308  1.00  0.00     0.245 A  
HETATM   17  C   UNL     1      -6.150  15.150  69.641  1.00  0.00    -0.127 A  
HETATM   18  C   UNL     1      -6.218  13.682  69.857  1.00  0.00    -0.118 A  
HETATM   19  C   UNL     1      -5.147   9.979  72.622  1.00  0.00     0.005 A  
BRANCH   9  20
HETATM   20  C   UNL     1      -7.589  10.600  68.025  1.00  0.00    -0.091 A  
HETATM   21  C   UNL     1      -7.409   9.472  65.850  1.00  0.00    -0.097 A  
HETATM   22  C   UNL     1      -9.481   9.371  67.074  1.00  0.00    -0.200 A  
HETATM   23 CL   UNL     1      -9.422   8.108  64.689  1.00  0.00     1.176 Cl 
HETATM   24  C   UNL     1      -6.836  10.204  66.897  1.00  0.00    -0.084 A  
HETATM   25  C   UNL     1      -8.725   9.042  65.954  1.00  0.00    -0.166 A  
HETATM   26  C   UNL     1      -8.929  10.180  68.079  1.00  0.00    -0.125 A  
ENDBRANCH   9  20
BRANCH  13  27
HETATM   27  N   UNL     1      -6.671  17.177  68.398  1.00  0.00    -0.164 NA 
HETATM   28  H   UNL     1      -6.933  17.509  67.470  1.00  0.00     0.000 HD 
BRANCH  27  29
HETATM   29  C   UNL     1      -6.305  18.161  69.354  1.00  0.00    -0.248 A  
HETATM   30  C   UNL     1      -6.568  19.530  69.218  1.00  0.00    -0.374 A  
HETATM   31  C   UNL     1      -6.216  20.439  70.227  1.00  0.00    -0.247 A  
HETATM   32  C   UNL     1      -5.566  19.989  71.373  1.00  0.00    -0.364 A  
HETATM   33  C   UNL     1      -5.228  18.647  71.502  1.00  0.00    -0.242 A  
HETATM   34 CL   UNL     1      -5.183  21.094  72.634  1.00  0.00     1.033 Cl 
HETATM   35  C   UNL     1      -5.585  17.743  70.494  1.00  0.00    -0.179 A  
ENDBRANCH  27  29
ENDBRANCH  13  27
ENDBRANCH   4   6
ENDBRANCH   2   4
TORSDOF 5
ENDMDL
MODEL      112
REMARK 921   NORMALIZED FREE ENERGY PREDICTED BY IDOCK:    0.63 KCAL/MOL
REMARK 922        TOTAL FREE ENERGY PREDICTED BY IDOCK:   -0.35 KCAL/MOL
REMARK 923 INTER-LIGAND FREE ENERGY PREDICTED BY IDOCK:   -4.54 KCAL/MOL
REMARK 924 INTRA-LIGAND FREE ENERGY PREDICTED BY IDOCK:    4.19 KCAL/MOL
REMARK 927      BINDING AFFINITY PREDICTED BY RF-SCORE:    0.00 PKD
ROOT
HETATM    1  C   UNL     1     -10.009   4.856  68.843  1.00  0.00    -0.220 C  
HETATM    2  C   UNL     1      -9.408   6.120  68.226  1.00  0.00    -0.116 C  
HETATM    3  C   UNL     1      -7.935   5.883  67.908  1.00  0.00    -0.105 C  
ENDROOT
BRANCH   2   4
HETATM    4  N   UNL     1     -10.129   6.518  66.997  1.00  0.00    -0.163 NA 
HETATM    5  H   UNL     1     -10.673   5.833  66.473  1.00  0.00     0.000 HD 
BRANCH   4   6
HETATM    6  C   UNL     1     -10.061   7.751  66.593  1.00  0.00    -0.224 A  
HETATM    7  C   UNL     1     -10.703   8.895  67.283  1.00  0.00    -0.219 A  
HETATM    8  C   UNL     1     -10.519  10.199  67.044  1.00  0.00    -0.240 A  
HETATM    9  N   UNL     1     -11.051  11.276  67.806  1.00  0.00    -0.249 NA 
HETATM   10  C   UNL     1     -10.865  12.611  67.277  1.00  0.00    -0.248 A  
HETATM   11  C   UNL     1     -11.340  13.771  67.916  1.00  0.00    -0.328 A  
HETATM   12  C   UNL     1     -10.139  12.789  66.071  1.00  0.00    -0.268 A  
HETATM   13  C   UNL     1      -9.250   8.108  65.366  1.00  0.00     0.214 A  
HETATM   14  N   UNL     1      -9.557  11.727  65.359  1.00  0.00    -0.221 NA 
HETATM   15  C   UNL     1     -11.174  15.044  67.358  1.00  0.00    -0.337 A  
HETATM   16  C   UNL     1      -9.955  14.072  65.538  1.00  0.00    -0.302 A  
HETATM   17  C   UNL     1      -9.141   9.403  65.038  1.00  0.00    -0.271 A  
HETATM   18  C   UNL     1      -9.731  10.525  65.811  1.00  0.00    -0.223 A  
HETATM   19  C   UNL     1     -10.480  15.196  66.168  1.00  0.00    -0.320 A  
BRANCH   9  20
HETATM   20  C   UNL     1     -11.676  11.007  69.085  1.00  0.00    -0.333 A  
HETATM   21  C   UNL     1     -12.843  11.817  71.089  1.00  0.00    -0.365 A  
HETATM   22  C   UNL     1     -12.235   9.493  70.926  1.00  0.00    -0.332 A  
HETATM   23 CL   UNL     1     -13.493  10.258  73.188  1.00  0.00     1.643 Cl 
HETATM   24  C   UNL     1     -12.320  12.035  69.809  1.00  0.00    -0.112 A  
HETATM   25  C   UNL     1     -12.815  10.540  71.633  1.00  0.00    -0.475 A  
HETATM   26  C   UNL     1     -11.633   9.736  69.682  1.00  0.00    -0.032 A  
ENDBRANCH   9  20
BRANCH  13  27
HETATM   27  N   UNL     1      -8.722   7.038  64.642  1.00  0.00    -0.298 NA 
HETATM   28  H   UNL     1      -9.017   6.948  63.670  1.00  0.00     0.000 HD 
BRANCH  27  29
HETATM   29  C   UNL     1      -7.811   6.064  65.131  1.00  0.00    -0.109 A  
HETATM   30  C   UNL     1      -6.546   6.358  65.653  1.00  0.00    -0.047 A  
HETATM   31  C   UNL     1      -5.717   5.346  66.161  1.00  0.00    -0.018 A  
HETATM   32  C   UNL     1      -6.138   4.019  66.123  1.00  0.00    -0.031 A  
HETATM   33  C   UNL     1      -7.358   3.690  65.545  1.00  0.00    -0.076 A  
HETATM   34 CL   UNL     1      -5.147   2.783  66.795  1.00  0.00    -0.004 Cl 
HETATM   35  C   UNL     1      -8.182   4.705  65.043  1.00  0.00    -0.115 A  
ENDBRANCH  27  29
ENDBRANCH  13  27
ENDBRANCH   4   6
ENDBRANCH   2   4
TORSDOF 5
ENDMDL
MODEL      113
REMARK 921   NORMALIZED FREE ENERGY PREDICTED BY IDOCK:    2.47 KCAL/MOL
REMARK 922        TOTAL FREE ENERGY PREDICTED BY IDOCK:    2.03 KCAL/MOL
REMARK 923 INTER-LIGAND FREE ENERGY PREDICTED BY IDOCK:    2.54 KCAL/MOL
REMARK 924 INTRA-LIGAND FREE ENERGY PREDICTED BY IDOCK:   -0.50 KCAL/MOL
REMARK 927      BINDING AFFINITY PREDICTED BY RF-SCORE:    0.00 PKD
ROOT
HETATM    1  C   UNL     1     -13.295  15.037  70.639  1.00  0.00    -0.279 C  
HETATM    2  C   UNL     1     -12.026  15.496  69.920  1.00  0.00    -0.362 C  
HETATM    3  C   UNL     1     -10.832  14.691  70.425  1.00  0.00     0.056 C  
ENDROOT
BRANCH   2   4
HETATM    4  N   UNL     1     -12.149  15.343  68.453  1.00  0.00    -0.524 NA 
HETATM    5  H   UNL     1     -13.003  14.963  68.044  1.00  0.00     0.000 HD 
BRANCH   4   6
HETATM    6  C   UNL     1     -11.158  15.698  67.693  1.00  0.00    -0.305 A  
HETATM    7  C   UNL     1     -10.345  16.921  67.894  1.00  0.00    -0.332 A  
HETATM    8  C   UNL     1      -9.201  17.250  67.281  1.00  0.00    -0.232 A  
HETATM    9  N   UNL     1      -8.376  18.368  67.586  1.00  0.00    -0.249 NA 
HETATM   10  C   UNL     1      -7.269  18.631  66.691  1.00  0.00    -0.221 A  
HETATM   11  C   UNL     1      -6.373  19.703  66.861  1.00  0.00    -0.192 A  
HETATM   12  C   UNL     1      -7.031  17.758  65.598  1.00  0.00    -0.041 A  
HETATM   13  C   UNL     1     -10.733  14.821  66.535  1.00  0.00    -0.319 A  
HETATM   14  N   UNL     1      -7.808  16.615  65.343  1.00  0.00     1.083 NA 
HETATM   15  C   UNL     1      -5.333  19.949  65.956  1.00  0.00    -0.167 A  
HETATM   16  C   UNL     1      -5.969  18.000  64.716  1.00  0.00     0.398 A  
HETATM   17  C   UNL     1      -9.652  15.187  65.831  1.00  0.00    -0.373 A  
HETATM   18  C   UNL     1      -8.814  16.378  66.125  1.00  0.00    -0.314 A  
HETATM   19  C   UNL     1      -5.130  19.097  64.882  1.00  0.00    -0.198 A  
BRANCH   9  20
HETATM   20  C   UNL     1      -8.626  19.135  68.789  1.00  0.00    -0.335 A  
HETATM   21  C   UNL     1      -7.827  20.070  70.915  1.00  0.00     1.531 A  
HETATM   22  C   UNL     1     -10.142  20.324  70.300  1.00  0.00     0.831 A  
HETATM   23 CL   UNL     1      -9.397  21.379  72.671  1.00  0.00     3.627 Cl 
HETATM   24  C   UNL     1      -7.585  19.417  69.701  1.00  0.00     0.081 A  
HETATM   25  C   UNL     1      -9.103  20.539  71.199  1.00  0.00     2.165 A  
HETATM   26  C   UNL     1      -9.913  19.590  69.127  1.00  0.00    -0.429 A  
ENDBRANCH   9  20
BRANCH  13  27
HETATM   27  N   UNL     1     -11.545  13.719  66.263  1.00  0.00    -0.336 NA 
HETATM   28  H   UNL     1     -12.490  13.913  65.933  1.00  0.00     0.000 HD 
BRANCH  27  29
HETATM   29  C   UNL     1     -11.179  12.354  66.404  1.00  0.00    -0.319 A  
HETATM   30  C   UNL     1     -11.224  11.645  67.611  1.00  0.00    -0.345 A  
HETATM   31  C   UNL     1     -10.890  10.284  67.665  1.00  0.00    -0.363 A  
HETATM   32  C   UNL     1     -10.477   9.622  66.511  1.00  0.00    -0.143 A  
HETATM   33  C   UNL     1     -10.355  10.318  65.314  1.00  0.00    -0.218 A  
HETATM   34 CL   UNL     1     -10.121   7.940  66.564  1.00  0.00    -0.292 Cl 
HETATM   35  C   UNL     1     -10.693  11.677  65.265  1.00  0.00    -0.346 A  
ENDBRANCH  27  29
ENDBRANCH  13  27
ENDBRANCH   4   6
ENDBRANCH   2   4
TORSDOF 5
ENDMDL
MODEL      114
REMARK 921   NORMALIZED FREE ENERGY PREDICTED BY IDOCK:    2.64 KCAL/MOL
REMARK 922        TOTAL FREE ENERGY PREDICTED BY IDOCK:    2.25 KCAL/MOL
REMARK 923 INTER-LIGAND FREE ENERGY PREDICTED BY IDOCK:    2.14 KCAL/MOL
REMARK 924 INTRA-LIGAND FREE ENERGY PREDICTED BY IDOCK:    0.11 KCAL/MOL
REMARK 927      BINDING AFFINITY PREDICTED BY RF-SCORE:    0.00 PKD
ROOT
HETATM    1  C   UNL     1     -12.632  10.062  72.783  1.00  0.00     1.095 C  
HETATM    2  C   UNL     1     -12.446   9.699  71.308  1.00  0.00    -0.355 C  
HETATM    3  C   UNL     1     -13.705  10.067  70.528  1.00  0.00     0.439 C  
ENDROOT
BRANCH   2   4
HETATM    4  N   UNL     1     -11.275  10.389  70.724  1.00  0.00    -0.381 NA 
HETATM    5  H   UNL     1     -10.375  10.375  71.205  1.00  0.00     0.000 HD 
BRANCH   4   6
HETATM    6  C   UNL     1     -11.405  11.014  69.593  1.00  0.00    -0.292 A  
HETATM    7  C   UNL     1     -11.644  12.471  69.464  1.00  0.00    -0.348 A  
HETATM    8  C   UNL     1     -11.595  13.210  68.349  1.00  0.00    -0.337 A  
HETATM    9  N   UNL     1     -11.702  14.627  68.275  1.00  0.00    -0.328 NA 
HETATM   10  C   UNL     1     -11.789  15.211  66.952  1.00  0.00     0.004 A  
HETATM   11  C   UNL     1     -11.905  16.594  66.723  1.00  0.00     1.591 A  
HETATM   12  C   UNL     1     -11.720  14.370  65.812  1.00  0.00    -0.362 A  
HETATM   13  C   UNL     1     -11.272  10.262  68.286  1.00  0.00    -0.232 A  
HETATM   14  N   UNL     1     -11.544  12.979  65.891  1.00  0.00    -0.345 NA 
HETATM   15  C   UNL     1     -12.022  17.123  65.431  1.00  0.00     2.887 A  
HETATM   16  C   UNL     1     -11.810  14.915  64.523  1.00  0.00    -0.404 A  
HETATM   17  C   UNL     1     -11.331  10.965  67.146  1.00  0.00    -0.168 A  
HETATM   18  C   UNL     1     -11.483  12.440  67.068  1.00  0.00    -0.358 A  
HETATM   19  C   UNL     1     -11.974  16.283  64.330  1.00  0.00     0.348 A  
BRANCH   9  20
HETATM   20  C   UNL     1     -11.649  15.413  69.490  1.00  0.00    -0.332 A  
HETATM   21  C   UNL     1     -10.704  17.288  70.765  1.00  0.00     1.249 A  
HETATM   22  C   UNL     1     -12.279  15.805  71.823  1.00  0.00    -0.525 A  
HETATM   23 CL   UNL     1     -11.300  17.812  73.340  1.00  0.00     0.973 Cl 
HETATM   24  C   UNL     1     -10.846  16.572  69.571  1.00  0.00    -0.315 A  
HETATM   25  C   UNL     1     -11.439  16.912  71.881  1.00  0.00     0.511 A  
HETATM   26  C   UNL     1     -12.349  15.039  70.650  1.00  0.00    -0.404 A  
ENDBRANCH   9  20
BRANCH  13  27
HETATM   27  N   UNL     1     -11.149   8.875  68.381  1.00  0.00    -0.439 NA 
HETATM   28  H   UNL     1     -11.925   8.371  68.809  1.00  0.00     0.000 HD 
BRANCH  27  29
HETATM   29  C   UNL     1     -10.045   8.099  67.938  1.00  0.00    -0.196 A  
HETATM   30  C   UNL     1      -9.844   7.697  66.612  1.00  0.00    -0.283 A  
HETATM   31  C   UNL     1      -8.704   6.969  66.239  1.00  0.00    -0.154 A  
HETATM   32  C   UNL     1      -7.764   6.610  67.201  1.00  0.00    -0.100 A  
HETATM   33  C   UNL     1      -7.973   6.933  68.536  1.00  0.00    -0.120 A  
HETATM   34 CL   UNL     1      -6.339   5.765  66.737  1.00  0.00    -0.037 Cl 
HETATM   35  C   UNL     1      -9.111   7.663  68.902  1.00  0.00    -0.140 A  
ENDBRANCH  27  29
ENDBRANCH  13  27
ENDBRANCH   4   6
ENDBRANCH   2   4
TORSDOF 5
ENDMDL
MODEL      115
REMARK 921   NORMALIZED FREE ENERGY PREDICTED BY IDOCK:    4.13 KCAL/MOL
REMARK 922        TOTAL FREE ENERGY PREDICTED BY IDOCK:    4.18 KCAL/MOL
REMARK 923 INTER-LIGAND FREE ENERGY PREDICTED BY IDOCK:    0.22 KCAL/MOL
REMARK 924 INTRA-LIGAND FREE ENERGY PREDICTED BY IDOCK:    3.96 KCAL/MOL
REMARK 927      BINDING AFFINITY PREDICTED BY RF-SCORE:    0.00 PKD
ROOT
HETATM    1  C   UNL     1     -11.324  10.371  69.722  1.00  0.00    -0.353 C  
HETATM    2  C   UNL     1      -9.881  10.698  69.332  1.00  0.00    -0.139 C  
HETATM    3  C   UNL     1      -9.359  11.831  70.210  1.00  0.00     3.746 C  
ENDROOT
BRANCH   2   4
HETATM    4  N   UNL     1      -9.003   9.515  69.463  1.00  0.00    -0.167 NA 
HETATM    5  H   UNL     1      -8.743   9.165  70.385  1.00  0.00     0.000 HD 
BRANCH   4   6
HETATM    6  C   UNL     1      -8.566   8.928  68.391  1.00  0.00    -0.134 A  
HETATM    7  C   UNL     1      -7.701   7.724  68.388  1.00  0.00    -0.119 A  
HETATM    8  C   UNL     1      -7.375   6.955  67.342  1.00  0.00    -0.092 A  
HETATM    9  N   UNL     1      -6.648   5.734  67.391  1.00  0.00    -0.054 NA 
HETATM   10  C   UNL     1      -6.261   5.148  66.124  1.00  0.00    -0.031 A  
HETATM   11  C   UNL     1      -5.535   3.947  66.016  1.00  0.00    -0.013 A  
HETATM   12  C   UNL     1      -6.653   5.777  64.915  1.00  0.00    -0.042 A  
HETATM   13  C   UNL     1      -8.969   9.436  67.023  1.00  0.00    -0.130 A  
HETATM   14  N   UNL     1      -7.431   6.947  64.873  1.00  0.00    -0.087 NA 
HETATM   15  C   UNL     1      -5.147   3.426  64.775  1.00  0.00    -0.009 A  
HETATM   16  C   UNL     1      -6.282   5.230  63.679  1.00  0.00    -0.022 A  
HETATM   17  C   UNL     1      -8.562   8.747  65.949  1.00  0.00    -0.174 A  
HETATM   18  C   UNL     1      -7.768   7.492  65.998  1.00  0.00    -0.094 A  
HETATM   19  C   UNL     1      -5.521   4.068  63.605  1.00  0.00    -0.013 A  
BRANCH   9  20
HETATM   20  C   UNL     1      -6.393   5.104  68.670  1.00  0.00    -0.035 A  
HETATM   21  C   UNL     1      -6.259   3.074  70.047  1.00  0.00    -0.024 A  
HETATM   22  C   UNL     1      -5.936   5.229  71.072  1.00  0.00    -0.021 A  
HETATM   23 CL   UNL     1      -5.784   3.081  72.699  1.00  0.00    -0.007 Cl 
HETATM   24  C   UNL     1      -6.405   3.697  68.803  1.00  0.00    -0.032 A  
HETATM   25  C   UNL     1      -6.005   3.844  71.174  1.00  0.00    -0.014 A  
HETATM   26  C   UNL     1      -6.171   5.853  69.838  1.00  0.00    -0.027 A  
ENDBRANCH   9  20
BRANCH  13  27
HETATM   27  N   UNL     1      -9.698  10.627  66.997  1.00  0.00    -0.173 NA 
HETATM   28  H   UNL     1     -10.712  10.545  66.920  1.00  0.00     0.000 HD 
BRANCH  27  29
HETATM   29  C   UNL     1      -9.161  11.940  67.068  1.00  0.00    -0.191 A  
HETATM   30  C   UNL     1      -7.884  12.245  67.556  1.00  0.00    -0.166 A  
HETATM   31  C   UNL     1      -7.403  13.562  67.554  1.00  0.00    -0.174 A  
HETATM   32  C   UNL     1      -8.211  14.597  67.089  1.00  0.00    -0.201 A  
HETATM   33  C   UNL     1      -9.508  14.333  66.667  1.00  0.00    -0.302 A  
HETATM   34 CL   UNL     1      -7.602  16.205  67.034  1.00  0.00    -0.236 Cl 
HETATM   35  C   UNL     1      -9.983  13.015  66.668  1.00  0.00    -0.250 A  
ENDBRANCH  27  29
ENDBRANCH  13  27
ENDBRANCH   4   6
ENDBRANCH   2   4
TORSDOF 5
ENDMDL
MODEL      116
REMARK 921   NORMALIZED FREE ENERGY PREDICTED BY IDOCK:    4.98 KCAL/MOL
REMARK 922        TOTAL FREE ENERGY PREDICTED BY IDOCK:    5.28 KCAL/MOL
REMARK 923 INTER-LIGAND FREE ENERGY PREDICTED BY IDOCK:    4.84 KCAL/MOL
REMARK 924 INTRA-LIGAND FREE ENERGY PREDICTED BY IDOCK:    0.44 KCAL/MOL
REMARK 927      BINDING AFFINITY PREDICTED BY RF-SCORE:    0.00 PKD
ROOT
HETATM    1  C   UNL     1     -13.604  11.187  64.775  1.00  0.00     5.535 C  
HETATM    2  C   UNL     1     -12.514  12.193  64.402  1.00  0.00    -0.324 C  
HETATM    3  C   UNL     1     -13.158  13.513  63.988  1.00  0.00     0.807 C  
ENDROOT
BRANCH   2   4
HETATM    4  N   UNL     1     -11.579  12.421  65.525  1.00  0.00    -0.369 NA 
HETATM    5  H   UNL     1     -11.325  11.654  66.149  1.00  0.00     0.000 HD 
BRANCH   4   6
HETATM    6  C   UNL     1     -11.085  13.608  65.708  1.00  0.00    -0.287 A  
HETATM    7  C   UNL     1     -11.373  14.462  66.885  1.00  0.00    -0.357 A  
HETATM    8  C   UNL     1     -10.759  15.598  67.239  1.00  0.00    -0.305 A  
HETATM    9  N   UNL     1     -10.969  16.328  68.441  1.00  0.00    -0.337 NA 
HETATM   10  C   UNL     1     -10.322  17.618  68.549  1.00  0.00    -0.370 A  
HETATM   11  C   UNL     1     -10.443  18.455  69.674  1.00  0.00     0.774 A  
HETATM   12  C   UNL     1      -9.488  18.071  67.494  1.00  0.00    -0.262 A  
HETATM   13  C   UNL     1     -10.113  14.193  64.707  1.00  0.00    -0.165 A  
HETATM   14  N   UNL     1      -9.229  17.315  66.339  1.00  0.00    -0.317 NA 
HETATM   15  C   UNL     1      -9.831  19.713  69.731  1.00  0.00     0.144 A  
HETATM   16  C   UNL     1      -8.859  19.322  67.575  1.00  0.00    -0.339 A  
HETATM   17  C   UNL     1      -9.566  15.385  64.983  1.00  0.00     0.382 A  
HETATM   18  C   UNL     1      -9.816  16.166  66.221  1.00  0.00    -0.307 A  
HETATM   19  C   UNL     1      -9.038  20.147  68.681  1.00  0.00     0.042 A  
BRANCH   9  20
HETATM   20  C   UNL     1     -11.743  15.734  69.513  1.00  0.00    -0.360 A  
HETATM   21  C   UNL     1     -13.906  15.370  70.618  1.00  0.00     0.069 A  
HETATM   22  C   UNL     1     -11.896  14.502  71.622  1.00  0.00    -0.244 A  
HETATM   23 CL   UNL     1     -14.203  14.051  72.949  1.00  0.00     0.144 Cl 
HETATM   24  C   UNL     1     -13.150  15.850  69.543  1.00  0.00     1.270 A  
HETATM   25  C   UNL     1     -13.275  14.679  71.645  1.00  0.00    -0.349 A  
HETATM   26  C   UNL     1     -11.134  15.063  70.587  1.00  0.00    -0.238 A  
ENDBRANCH   9  20
BRANCH  13  27
HETATM   27  N   UNL     1      -9.906  13.453  63.542  1.00  0.00     0.214 NA 
HETATM   28  H   UNL     1     -10.122  13.913  62.658  1.00  0.00     0.000 HD 
BRANCH  27  29
HETATM   29  C   UNL     1      -9.422  12.119  63.471  1.00  0.00     0.186 A  
HETATM   30  C   UNL     1      -9.693  11.236  62.418  1.00  0.00     0.127 A  
HETATM   31  C   UNL     1      -9.143   9.946  62.394  1.00  0.00    -0.308 A  
HETATM   32  C   UNL     1      -8.335   9.515  63.443  1.00  0.00    -0.179 A  
HETATM   33  C   UNL     1      -8.107  10.344  64.534  1.00  0.00    -0.114 A  
HETATM   34 CL   UNL     1      -7.615   7.954  63.388  1.00  0.00    -0.122 Cl 
HETATM   35  C   UNL     1      -8.657  11.633  64.552  1.00  0.00     0.796 A  
ENDBRANCH  27  29
ENDBRANCH  13  27
ENDBRANCH   4   6
ENDBRANCH   2   4
TORSDOF 5
ENDMDL
MODEL      117
REMARK 921   NORMALIZED FREE ENERGY PREDICTED BY IDOCK:    9.00 KCAL/MOL
REMARK 922        TOTAL FREE ENERGY PREDICTED BY IDOCK:   10.47 KCAL/MOL
REMARK 923 INTER-LIGAND FREE ENERGY PREDICTED BY IDOCK:    8.18 KCAL/MOL
REMARK 924 INTRA-LIGAND FREE ENERGY PREDICTED BY IDOCK:    2.29 KCAL/MOL
REMARK 927      BINDING AFFINITY PREDICTED BY RF-SCORE:    0.00 PKD
ROOT
HETATM    1  C   UNL     1      -9.833   7.497  65.159  1.00  0.00     2.023 C  
HETATM    2  C   UNL     1      -9.249   8.844  65.590  1.00  0.00    -0.204 C  
HETATM    3  C   UNL     1     -10.230   9.961  65.244  1.00  0.00    -0.095 C  
ENDROOT
BRANCH   2   4
HETATM    4  N   UNL     1      -8.953   8.867  67.039  1.00  0.00    -0.125 NA 
HETATM    5  H   UNL     1      -7.991   8.956  67.368  1.00  0.00     0.000 HD 
BRANCH   4   6
HETATM    6  C   UNL     1      -9.931   8.773  67.888  1.00  0.00    -0.187 A  
HETATM    7  C   UNL     1     -10.087   7.670  68.866  1.00  0.00    -0.202 A  
HETATM    8  C   UNL     1     -10.946   7.604  69.890  1.00  0.00    -0.200 A  
HETATM    9  N   UNL     1     -10.987   6.591  70.889  1.00  0.00    -0.259 NA 
HETATM   10  C   UNL     1     -12.102   6.623  71.812  1.00  0.00    -0.353 A  
HETATM   11  C   UNL     1     -12.279   5.684  72.846  1.00  0.00     0.203 A  
HETATM   12  C   UNL     1     -13.061   7.663  71.713  1.00  0.00    -0.323 A  
HETATM   13  C   UNL     1     -10.988   9.853  67.958  1.00  0.00    -0.213 A  
HETATM   14  N   UNL     1     -12.978   8.699  70.768  1.00  0.00     0.211 NA 
HETATM   15  C   UNL     1     -13.388   5.723  73.699  1.00  0.00     5.313 A  
HETATM   16  C   UNL     1     -14.153   7.706  72.592  1.00  0.00     0.348 A  
HETATM   17  C   UNL     1     -11.930   9.754  68.906  1.00  0.00     0.790 A  
HETATM   18  C   UNL     1     -11.996   8.674  69.924  1.00  0.00     0.703 A  
HETATM   19  C   UNL     1     -14.326   6.735  73.573  1.00  0.00     4.090 A  
BRANCH   9  20
HETATM   20  C   UNL     1      -9.901   5.638  70.985  1.00  0.00    -0.178 A  
HETATM   21  C   UNL     1      -8.907   3.482  70.355  1.00  0.00    -0.143 A  
HETATM   22  C   UNL     1      -7.796   4.874  71.975  1.00  0.00    -0.108 A  
HETATM   23 CL   UNL     1      -6.610   2.521  71.386  1.00  0.00    -0.022 Cl 
HETATM   24  C   UNL     1      -9.895   4.461  70.204  1.00  0.00    -0.288 A  
HETATM   25  C   UNL     1      -7.849   3.703  71.227  1.00  0.00    -0.059 A  
HETATM   26  C   UNL     1      -8.835   5.811  71.886  1.00  0.00    -0.139 A  
ENDBRANCH   9  20
BRANCH  13  27
HETATM   27  N   UNL     1     -10.921  10.848  66.980  1.00  0.00    -0.269 NA 
HETATM   28  H   UNL     1     -10.873  10.539  66.010  1.00  0.00     0.000 HD 
BRANCH  27  29
HETATM   29  C   UNL     1     -10.912  12.250  67.211  1.00  0.00    -0.256 A  
HETATM   30  C   UNL     1     -11.970  13.109  66.888  1.00  0.00    -0.421 A  
HETATM   31  C   UNL     1     -11.909  14.478  67.186  1.00  0.00    -0.412 A  
HETATM   32  C   UNL     1     -10.771  15.009  67.788  1.00  0.00    -0.278 A  
HETATM   33  C   UNL     1      -9.678  14.193  68.053  1.00  0.00    -0.226 A  
HETATM   34 CL   UNL     1     -10.717  16.677  68.204  1.00  0.00    -0.337 Cl 
HETATM   35  C   UNL     1      -9.745  12.826  67.756  1.00  0.00    -0.207 A  
ENDBRANCH  27  29
ENDBRANCH  13  27
ENDBRANCH   4   6
ENDBRANCH   2   4
TORSDOF 5
ENDMDL
MODEL      118
REMARK 921   NORMALIZED FREE ENERGY PREDICTED BY IDOCK:   10.31 KCAL/MOL
REMARK 922        TOTAL FREE ENERGY PREDICTED BY IDOCK:   12.17 KCAL/MOL
REMARK 923 INTER-LIGAND FREE ENERGY PREDICTED BY IDOCK:    3.90 KCAL/MOL
REMARK 924 INTRA-LIGAND FREE ENERGY PREDICTED BY IDOCK:    8.26 KCAL/MOL
REMARK 927      BINDING AFFINITY PREDICTED BY RF-SCORE:    0.00 PKD
ROOT
HETATM    1  C   UNL     1      -6.214   8.787  67.199  1.00  0.00    -0.059 C  
HETATM    2  C   UNL     1      -6.013  10.151  67.864  1.00  0.00    -0.041 C  
HETATM    3  C   UNL     1      -5.175  11.044  66.955  1.00  0.00    -0.065 C  
ENDROOT
BRANCH   2   4
HETATM    4  N   UNL     1      -7.307  10.805  68.158  1.00  0.00    -0.086 NA 
HETATM    5  H   UNL     1      -7.554  11.053  69.117  1.00  0.00     0.000 HD 
BRANCH   4   6
HETATM    6  C   UNL     1      -8.124  11.061  67.183  1.00  0.00    -0.134 A  
HETATM    7  C   UNL     1      -9.146  12.135  67.205  1.00  0.00    -0.181 A  
HETATM    8  C   UNL     1      -9.882  12.583  66.181  1.00  0.00    -0.258 A  
HETATM    9  N   UNL     1     -10.762  13.700  66.204  1.00  0.00    -0.284 NA 
HETATM   10  C   UNL     1     -11.587  13.911  65.033  1.00  0.00    -0.345 A  
HETATM   11  C   UNL     1     -12.507  14.969  64.914  1.00  0.00    -0.019 A  
HETATM   12  C   UNL     1     -11.455  13.041  63.920  1.00  0.00    -0.435 A  
HETATM   13  C   UNL     1      -8.047  10.270  65.894  1.00  0.00    -0.143 A  
HETATM   14  N   UNL     1     -10.535  11.981  63.876  1.00  0.00    -0.362 NA 
HETATM   15  C   UNL     1     -13.316  15.123  63.781  1.00  0.00     2.569 A  
HETATM   16  C   UNL     1     -12.251  13.224  62.780  1.00  0.00     0.790 A  
HETATM   17  C   UNL     1      -8.855  10.626  64.886  1.00  0.00    -0.204 A  
HETATM   18  C   UNL     1      -9.803  11.769  64.924  1.00  0.00    -0.223 A  
HETATM   19  C   UNL     1     -13.187  14.250  62.712  1.00  0.00     3.723 A  
BRANCH   9  20
HETATM   20  C   UNL     1     -10.745  14.601  67.338  1.00  0.00    -0.280 A  
HETATM   21  C   UNL     1      -9.889  16.632  68.423  1.00  0.00    -0.252 A  
HETATM   22  C   UNL     1     -11.391  15.185  69.626  1.00  0.00    -0.302 A  
HETATM   23 CL   UNL     1     -10.507  17.372  70.939  1.00  0.00     1.550 Cl 
HETATM   24  C   UNL     1      -9.997  15.799  67.303  1.00  0.00    -0.238 A  
HETATM   25  C   UNL     1     -10.604  16.330  69.574  1.00  0.00    -0.314 A  
HETATM   26  C   UNL     1     -11.425  14.307  68.532  1.00  0.00    -0.329 A  
ENDBRANCH   9  20
BRANCH  13  27
HETATM   27  N   UNL     1      -7.165   9.188  65.886  1.00  0.00    -0.092 NA 
HETATM   28  H   UNL     1      -6.330   9.270  66.465  1.00  0.00     0.000 HD 
BRANCH  27  29
HETATM   29  C   UNL     1      -7.321   7.985  65.147  1.00  0.00    -0.074 A  
HETATM   30  C   UNL     1      -6.629   6.798  65.417  1.00  0.00    -0.050 A  
HETATM   31  C   UNL     1      -6.868   5.634  64.671  1.00  0.00    -0.051 A  
HETATM   32  C   UNL     1      -7.786   5.655  63.624  1.00  0.00    -0.095 A  
HETATM   33  C   UNL     1      -8.433   6.838  63.288  1.00  0.00     0.313 A  
HETATM   34 CL   UNL     1      -8.121   4.215  62.745  1.00  0.00    -0.074 Cl 
HETATM   35  C   UNL     1      -8.193   7.996  64.038  1.00  0.00    -0.049 A  
ENDBRANCH  27  29
ENDBRANCH  13  27
ENDBRANCH   4   6
ENDBRANCH   2   4
TORSDOF 5
ENDMDL
MODEL      119
REMARK 921   NORMALIZED FREE ENERGY PREDICTED BY IDOCK:   12.37 KCAL/MOL
REMARK 922        TOTAL FREE ENERGY PREDICTED BY IDOCK:   14.82 KCAL/MOL
REMARK 923 INTER-LIGAND FREE ENERGY PREDICTED BY IDOCK:    1.91 KCAL/MOL
REMARK 924 INTRA-LIGAND FREE ENERGY PREDICTED BY IDOCK:   12.91 KCAL/MOL
REMARK 927      BINDING AFFINITY PREDICTED BY RF-SCORE:    0.00 PKD
ROOT
HETATM    1  C   UNL     1      -8.347   5.807  69.555  1.00  0.00    -0.112 C  
HETATM    2  C   UNL     1      -8.317   6.783  68.377  1.00  0.00    -0.123 C  
HETATM    3  C   UNL     1      -7.171   6.416  67.439  1.00  0.00    -0.082 C  
ENDROOT
BRANCH   2   4
HETATM    4  N   UNL     1      -9.596   6.775  67.634  1.00  0.00    -0.124 NA 
HETATM    5  H   UNL     1     -10.312   6.079  67.847  1.00  0.00     0.000 HD 
BRANCH   4   6
HETATM    6  C   UNL     1      -9.797   7.662  66.708  1.00  0.00    -0.237 A  
HETATM    7  C   UNL     1     -10.387   9.002  66.946  1.00  0.00    -0.324 A  
HETATM    8  C   UNL     1     -10.444  10.031  66.091  1.00  0.00    -0.086 A  
HETATM    9  N   UNL     1     -10.900  11.345  66.389  1.00  0.00    -0.277 NA 
HETATM   10  C   UNL     1     -11.035  12.261  65.276  1.00  0.00    -0.307 A  
HETATM   11  C   UNL     1     -11.480  13.589  65.416  1.00  0.00    -0.318 A  
HETATM   12  C   UNL     1     -10.673  11.835  63.973  1.00  0.00    -0.378 A  
HETATM   13  C   UNL     1      -9.383   7.382  65.279  1.00  0.00     0.777 A  
HETATM   14  N   UNL     1     -10.157  10.558  63.696  1.00  0.00    -0.244 NA 
HETATM   15  C   UNL     1     -11.632  14.439  64.313  1.00  0.00    -0.279 A  
HETATM   16  C   UNL     1     -10.803  12.705  62.881  1.00  0.00     0.970 A  
HETATM   17  C   UNL     1      -9.534   8.361  64.376  1.00  0.00     1.474 A  
HETATM   18  C   UNL     1     -10.049   9.721  64.679  1.00  0.00     0.376 A  
HETATM   19  C   UNL     1     -11.293  13.997  63.044  1.00  0.00     2.186 A  
BRANCH   9  20
HETATM   20  C   UNL     1     -11.137  11.726  67.766  1.00  0.00    -0.243 A  
HETATM   21  C   UNL     1     -12.156  11.261  69.952  1.00  0.00    -0.414 A  
HETATM   22  C   UNL     1     -10.976  13.331  69.608  1.00  0.00     0.103 A  
HETATM   23 CL   UNL     1     -12.067  12.952  72.047  1.00  0.00     0.862 Cl 
HETATM   24  C   UNL     1     -11.833  10.869  68.648  1.00  0.00    -0.269 A  
HETATM   25  C   UNL     1     -11.708  12.484  70.433  1.00  0.00    -0.012 A  
HETATM   26  C   UNL     1     -10.731  12.972  68.274  1.00  0.00    -0.261 A  
ENDBRANCH   9  20
BRANCH  13  27
HETATM   27  N   UNL     1      -8.921   6.093  65.012  1.00  0.00    -0.361 NA 
HETATM   28  H   UNL     1      -9.308   5.625  64.192  1.00  0.00     0.000 HD 
BRANCH  27  29
HETATM   29  C   UNL     1      -7.963   5.371  65.773  1.00  0.00    -0.106 A  
HETATM   30  C   UNL     1      -6.650   5.801  66.000  1.00  0.00    -0.044 A  
HETATM   31  C   UNL     1      -5.772   5.056  66.802  1.00  0.00    -0.018 A  
HETATM   32  C   UNL     1      -6.193   3.852  67.362  1.00  0.00    -0.036 A  
HETATM   33  C   UNL     1      -7.467   3.366  67.094  1.00  0.00    -0.071 A  
HETATM   34 CL   UNL     1      -5.136   2.966  68.389  1.00  0.00    -0.011 Cl 
HETATM   35  C   UNL     1      -8.341   4.116  66.296  1.00  0.00    -0.105 A  
ENDBRANCH  27  29
ENDBRANCH  13  27
ENDBRANCH   4   6
ENDBRANCH   2   4
TORSDOF 5
ENDMDL
MODEL      120
REMARK 921   NORMALIZED FREE ENERGY PREDICTED BY IDOCK:   13.60 KCAL/MOL
REMARK 922        TOTAL FREE ENERGY PREDICTED BY IDOCK:   16.41 KCAL/MOL
REMARK 923 INTER-LIGAND FREE ENERGY PREDICTED BY IDOCK:   15.79 KCAL/MOL
REMARK 924 INTRA-LIGAND FREE ENERGY PREDICTED BY IDOCK:    0.62 KCAL/MOL
REMARK 927      BINDING AFFINITY PREDICTED BY RF-SCORE:    0.00 PKD
ROOT
HETATM    1  C   UNL     1     -13.081  13.382  67.405  1.00  0.00     2.680 C  
HETATM    2  C   UNL     1     -12.420  12.189  68.099  1.00  0.00     0.994 C  
HETATM    3  C   UNL     1     -13.393  11.014  68.131  1.00  0.00     6.799 C  
ENDROOT
BRANCH   2   4
HETATM    4  N   UNL     1     -11.171  11.789  67.415  1.00  0.00    -0.276 NA 
HETATM    5  H   UNL     1     -11.086  10.862  66.997  1.00  0.00     0.000 HD 
BRANCH   4   6
HETATM    6  C   UNL     1     -10.184  12.630  67.355  1.00  0.00    -0.217 A  
HETATM    7  C   UNL     1     -10.097  13.878  68.150  1.00  0.00    -0.250 A  
HETATM    8  C   UNL     1      -9.038  14.685  68.288  1.00  0.00    -0.189 A  
HETATM    9  N   UNL     1      -8.944  15.806  69.159  1.00  0.00    -0.242 NA 
HETATM   10  C   UNL     1      -7.768  16.641  69.030  1.00  0.00    -0.221 A  
HETATM   11  C   UNL     1      -7.541  17.785  69.818  1.00  0.00     0.877 A  
HETATM   12  C   UNL     1      -6.761  16.290  68.095  1.00  0.00    -0.125 A  
HETATM   13  C   UNL     1      -8.995  12.348  66.461  1.00  0.00    -0.145 A  
HETATM   14  N   UNL     1      -6.828  15.143  67.286  1.00  0.00    -0.268 NA 
HETATM   15  C   UNL     1      -6.409  18.591  69.643  1.00  0.00    -0.217 A  
HETATM   16  C   UNL     1      -5.619  17.090  67.950  1.00  0.00    -0.130 A  
HETATM   17  C   UNL     1      -7.963  13.203  66.497  1.00  0.00     0.691 A  
HETATM   18  C   UNL     1      -7.882  14.397  67.377  1.00  0.00    -0.190 A  
HETATM   19  C   UNL     1      -5.447  18.243  68.709  1.00  0.00    -0.184 A  
BRANCH   9  20
HETATM   20  C   UNL     1      -9.966  16.020  70.162  1.00  0.00     0.190 A  
HETATM   21  C   UNL     1     -12.299  15.793  70.898  1.00  0.00    -0.451 A  
HETATM   22  C   UNL     1     -10.727  16.984  72.280  1.00  0.00     3.012 A  
HETATM   23 CL   UNL     1     -13.263  16.824  73.193  1.00  0.00     0.536 Cl 
HETATM   24  C   UNL     1     -11.273  15.512  69.988  1.00  0.00    -0.325 A  
HETATM   25  C   UNL     1     -12.015  16.511  72.051  1.00  0.00    -0.202 A  
HETATM   26  C   UNL     1      -9.724  16.776  71.322  1.00  0.00     4.637 A  
ENDBRANCH   9  20
BRANCH  13  27
HETATM   27  N   UNL     1      -9.099  11.233  65.628  1.00  0.00    -0.252 NA 
HETATM   28  H   UNL     1      -9.742  11.304  64.840  1.00  0.00     0.000 HD 
BRANCH  27  29
HETATM   29  C   UNL     1      -8.392  10.009  65.773  1.00  0.00    -0.132 A  
HETATM   30  C   UNL     1      -8.988   8.790  66.120  1.00  0.00    -0.225 A  
HETATM   31  C   UNL     1      -8.233   7.611  66.201  1.00  0.00    -0.124 A  
HETATM   32  C   UNL     1      -6.862   7.646  65.963  1.00  0.00    -0.061 A  
HETATM   33  C   UNL     1      -6.232   8.853  65.688  1.00  0.00    -0.052 A  
HETATM   34 CL   UNL     1      -5.944   6.191  66.009  1.00  0.00    -0.028 Cl 
HETATM   35  C   UNL     1      -6.991  10.028  65.605  1.00  0.00    -0.115 A  
ENDBRANCH  27  29
ENDBRANCH  13  27
ENDBRANCH   4   6
ENDBRANCH   2   4
TORSDOF 5
ENDMDL
MODEL      121
REMARK 921   NORMALIZED FREE ENERGY PREDICTED BY IDOCK:   13.74 KCAL/MOL
REMARK 922        TOTAL FREE ENERGY PREDICTED BY IDOCK:   16.59 KCAL/MOL
REMARK 923 INTER-LIGAND FREE ENERGY PREDICTED BY IDOCK:    8.77 KCAL/MOL
REMARK 924 INTRA-LIGAND FREE ENERGY PREDICTED BY IDOCK:    7.83 KCAL/MOL
REMARK 927      BINDING AFFINITY PREDICTED BY RF-SCORE:    0.00 PKD
ROOT
HETATM    1  C   UNL     1     -12.594  16.132  69.232  1.00  0.00     0.891 C  
HETATM    2  C   UNL     1     -11.507  15.077  69.450  1.00  0.00    -0.300 C  
HETATM    3  C   UNL     1     -12.156  13.726  69.734  1.00  0.00    -0.400 C  
ENDROOT
BRANCH   2   4
HETATM    4  N   UNL     1     -10.614  14.968  68.276  1.00  0.00    -0.242 NA 
HETATM    5  H   UNL     1     -10.047  15.764  67.983  1.00  0.00     0.000 HD 
BRANCH   4   6
HETATM    6  C   UNL     1     -10.561  13.848  67.622  1.00  0.00    -0.245 A  
HETATM    7  C   UNL     1      -9.688  12.707  67.985  1.00  0.00    -0.215 A  
HETATM    8  C   UNL     1      -9.719  11.465  67.485  1.00  0.00    -0.178 A  
HETATM    9  N   UNL     1      -8.955  10.356  67.944  1.00  0.00    -0.128 NA 
HETATM   10  C   UNL     1      -9.019   9.143  67.155  1.00  0.00    -0.123 A  
HETATM   11  C   UNL     1      -8.314   7.969  67.481  1.00  0.00    -0.123 A  
HETATM   12  C   UNL     1      -9.856   9.098  66.011  1.00  0.00    -0.272 A  
HETATM   13  C   UNL     1     -11.459  13.620  66.424  1.00  0.00    -0.338 A  
HETATM   14  N   UNL     1     -10.661  10.174  65.603  1.00  0.00     0.092 NA 
HETATM   15  C   UNL     1      -8.371   6.824  66.677  1.00  0.00    -0.118 A  
HETATM   16  C   UNL     1      -9.925   7.935  65.230  1.00  0.00     1.856 A  
HETATM   17  C   UNL     1     -11.428  12.418  65.834  1.00  0.00    -0.422 A  
HETATM   18  C   UNL     1     -10.600  11.271  66.288  1.00  0.00    -0.263 A  
HETATM   19  C   UNL     1      -9.178   6.807  65.550  1.00  0.00     0.266 A  
BRANCH   9  20
HETATM   20  C   UNL     1      -8.221  10.458  69.188  1.00  0.00    -0.157 A  
HETATM   21  C   UNL     1      -6.566  11.616  70.587  1.00  0.00     0.938 A  
HETATM   22  C   UNL     1      -7.567   9.572  71.375  1.00  0.00     0.400 A  
HETATM   23 CL   UNL     1      -5.749  10.732  72.998  1.00  0.00     1.035 Cl 
HETATM   24  C   UNL     1      -7.358  11.549  69.435  1.00  0.00     0.051 A  
HETATM   25  C   UNL     1      -6.690  10.635  71.562  1.00  0.00     1.868 A  
HETATM   26  C   UNL     1      -8.292   9.464  70.179  1.00  0.00    -0.197 A  
ENDBRANCH   9  20
BRANCH  13  27
HETATM   27  N   UNL     1     -12.214  14.715  66.001  1.00  0.00    -0.228 NA 
HETATM   28  H   UNL     1     -13.083  14.513  65.508  1.00  0.00     0.000 HD 
BRANCH  27  29
HETATM   29  C   UNL     1     -11.886  16.084  66.193  1.00  0.00     1.037 A  
HETATM   30  C   UNL     1     -11.862  16.723  67.439  1.00  0.00     1.159 A  
HETATM   31  C   UNL     1     -11.483  18.068  67.556  1.00  0.00     0.911 A  
HETATM   32  C   UNL     1     -11.152  18.800  66.419  1.00  0.00     0.342 A  
HETATM   33  C   UNL     1     -11.236  18.212  65.162  1.00  0.00     1.250 A  
HETATM   34 CL   UNL     1     -10.634  20.434  66.567  1.00  0.00    -0.215 Cl 
HETATM   35  C   UNL     1     -11.612  16.867  65.051  1.00  0.00     0.834 A  
ENDBRANCH  27  29
ENDBRANCH  13  27
ENDBRANCH   4   6
ENDBRANCH   2   4
TORSDOF 5
ENDMDL
MODEL      122
REMARK 921   NORMALIZED FREE ENERGY PREDICTED BY IDOCK:   14.25 KCAL/MOL
REMARK 922        TOTAL FREE ENERGY PREDICTED BY IDOCK:   17.26 KCAL/MOL
REMARK 923 INTER-LIGAND FREE ENERGY PREDICTED BY IDOCK:   17.94 KCAL/MOL
REMARK 924 INTRA-LIGAND FREE ENERGY PREDICTED BY IDOCK:   -0.69 KCAL/MOL
REMARK 927      BINDING AFFINITY PREDICTED BY RF-SCORE:    0.00 PKD
ROOT
HETATM    1  C   UNL     1     -12.613  14.818  72.214  1.00  0.00    -0.414 C  
HETATM    2  C   UNL     1     -11.419  15.354  71.421  1.00  0.00    -0.406 C  
HETATM    3  C   UNL     1     -10.210  15.486  72.343  1.00  0.00     3.092 C  
ENDROOT
BRANCH   2   4
HETATM    4  N   UNL     1     -11.087  14.472  70.281  1.00  0.00    -0.471 NA 
HETATM    5  H   UNL     1     -11.455  13.521  70.239  1.00  0.00     0.000 HD 
BRANCH   4   6
HETATM    6  C   UNL     1     -10.320  14.921  69.334  1.00  0.00    -0.208 A  
HETATM    7  C   UNL     1      -9.704  16.269  69.324  1.00  0.00    -0.238 A  
HETATM    8  C   UNL     1      -8.759  16.728  68.495  1.00  0.00    -0.245 A  
HETATM    9  N   UNL     1      -8.095  17.983  68.589  1.00  0.00    -0.303 NA 
HETATM   10  C   UNL     1      -7.224  18.350  67.493  1.00  0.00    -0.209 A  
HETATM   11  C   UNL     1      -6.508  19.560  67.444  1.00  0.00    -0.214 A  
HETATM   12  C   UNL     1      -7.038  17.445  66.416  1.00  0.00    -0.293 A  
HETATM   13  C   UNL     1      -9.962  14.038  68.158  1.00  0.00    -0.242 A  
HETATM   14  N   UNL     1      -7.642  16.178  66.362  1.00  0.00    -0.134 NA 
HETATM   15  C   UNL     1      -5.701  19.900  66.351  1.00  0.00    -0.179 A  
HETATM   16  C   UNL     1      -6.205  17.786  65.341  1.00  0.00     0.056 A  
HETATM   17  C   UNL     1      -9.101  14.516  67.249  1.00  0.00    -0.217 A  
HETATM   18  C   UNL     1      -8.439  15.844  67.327  1.00  0.00    -0.184 A  
HETATM   19  C   UNL     1      -5.549  19.012  65.298  1.00  0.00    -0.227 A  
BRANCH   9  20
HETATM   20  C   UNL     1      -8.257  18.790  69.782  1.00  0.00     0.884 A  
HETATM   21  C   UNL     1      -7.415  19.549  71.960  1.00  0.00     3.006 A  
HETATM   22  C   UNL     1      -9.587  20.268  71.209  1.00  0.00     2.122 A  
HETATM   23 CL   UNL     1      -8.789  21.157  73.630  1.00  0.00     8.773 Cl 
HETATM   24  C   UNL     1      -7.238  18.856  70.758  1.00  0.00     2.074 A  
HETATM   25  C   UNL     1      -8.583  20.270  72.171  1.00  0.00     2.531 A  
HETATM   26  C   UNL     1      -9.441  19.500  70.045  1.00  0.00     0.648 A  
ENDBRANCH   9  20
BRANCH  13  27
HETATM   27  N   UNL     1     -10.610  12.803  68.093  1.00  0.00    -0.222 NA 
HETATM   28  H   UNL     1     -11.475  12.764  67.554  1.00  0.00     0.000 HD 
BRANCH  27  29
HETATM   29  C   UNL     1     -10.178  11.597  68.706  1.00  0.00    -0.177 A  
HETATM   30  C   UNL     1      -9.232  10.725  68.152  1.00  0.00    -0.151 A  
HETATM   31  C   UNL     1      -8.819   9.573  68.837  1.00  0.00    -0.137 A  
HETATM   32  C   UNL     1      -9.374   9.264  70.076  1.00  0.00    -0.209 A  
HETATM   33  C   UNL     1     -10.367  10.073  70.616  1.00  0.00    -0.153 A  
HETATM   34 CL   UNL     1      -8.830   7.881  70.942  1.00  0.00    -0.136 Cl 
HETATM   35  C   UNL     1     -10.773  11.224  69.930  1.00  0.00     0.126 A  
ENDBRANCH  27  29
ENDBRANCH  13  27
ENDBRANCH   4   6
ENDBRANCH   2   4
TORSDOF 5
ENDMDL
MODEL      123
REMARK 921   NORMALIZED FREE ENERGY PREDICTED BY IDOCK:   15.40 KCAL/MOL
REMARK 922        TOTAL FREE ENERGY PREDICTED BY IDOCK:   18.75 KCAL/MOL
REMARK 923 INTER-LIGAND FREE ENERGY PREDICTED BY IDOCK:   18.38 KCAL/MOL
REMARK 924 INTRA-LIGAND FREE ENERGY PREDICTED BY IDOCK:    0.37 KCAL/MOL
REMARK 927      BINDING AFFINITY PREDICTED BY RF-SCORE:    0.00 PKD
ROOT
HETATM    1  C   UNL     1      -8.570  11.944  65.603  1.00  0.00     0.393 C  
HETATM    2  C   UNL     1      -9.572  12.970  65.070  1.00  0.00     0.229 C  
HETATM    3  C   UNL     1     -10.676  12.252  64.298  1.00  0.00    -0.389 C  
ENDROOT
BRANCH   2   4
HETATM    4  N   UNL     1     -10.164  13.770  66.165  1.00  0.00    -0.294 NA 
HETATM    5  H   UNL     1     -10.198  14.787  66.100  1.00  0.00     0.000 HD 
BRANCH   4   6
HETATM    6  C   UNL     1     -10.639  13.161  67.209  1.00  0.00    -0.246 A  
HETATM    7  C   UNL     1     -10.852  11.697  67.300  1.00  0.00    -0.302 A  
HETATM    8  C   UNL     1     -11.148  10.983  68.393  1.00  0.00    -0.251 A  
HETATM    9  N   UNL     1     -11.221   9.564  68.475  1.00  0.00     0.021 NA 
HETATM   10  C   UNL     1     -11.720   9.002  69.712  1.00  0.00     0.403 A  
HETATM   11  C   UNL     1     -11.854   7.619  69.937  1.00  0.00     0.388 A  
HETATM   12  C   UNL     1     -12.065   9.867  70.783  1.00  0.00    -0.308 A  
HETATM   13  C   UNL     1     -10.975  13.943  68.461  1.00  0.00    -0.257 A  
HETATM   14  N   UNL     1     -11.925  11.263  70.720  1.00  0.00    -0.327 NA 
HETATM   15  C   UNL     1     -12.373   7.111  71.133  1.00  0.00    -0.404 A  
HETATM   16  C   UNL     1     -12.557   9.342  71.986  1.00  0.00    -0.462 A  
HETATM   17  C   UNL     1     -11.382  13.261  69.540  1.00  0.00    -0.236 A  
HETATM   18  C   UNL     1     -11.497  11.781  69.613  1.00  0.00    -0.270 A  
HETATM   19  C   UNL     1     -12.724   7.972  72.160  1.00  0.00    -0.293 A  
BRANCH   9  20
HETATM   20  C   UNL     1     -10.738   8.758  67.372  1.00  0.00    -0.146 A  
HETATM   21  C   UNL     1     -11.109   6.974  65.725  1.00  0.00     3.436 A  
HETATM   22  C   UNL     1      -8.949   8.030  65.868  1.00  0.00    -0.181 A  
HETATM   23 CL   UNL     1      -9.219   6.070  64.031  1.00  0.00     0.851 Cl 
HETATM   24  C   UNL     1     -11.584   7.831  66.725  1.00  0.00     2.567 A  
HETATM   25  C   UNL     1      -9.797   7.092  65.287  1.00  0.00     1.799 A  
HETATM   26  C   UNL     1      -9.406   8.824  66.930  1.00  0.00    -0.213 A  
ENDBRANCH   9  20
BRANCH  13  27
HETATM   27  N   UNL     1     -10.880  15.333  68.365  1.00  0.00    -0.248 NA 
HETATM   28  H   UNL     1     -10.737  15.722  67.434  1.00  0.00     0.000 HD 
BRANCH  27  29
HETATM   29  C   UNL     1     -10.963  16.254  69.443  1.00  0.00    -0.337 A  
HETATM   30  C   UNL     1     -12.103  16.443  70.234  1.00  0.00     0.478 A  
HETATM   31  C   UNL     1     -12.097  17.340  71.312  1.00  0.00     3.393 A  
HETATM   32  C   UNL     1     -10.953  18.082  71.594  1.00  0.00     2.878 A  
HETATM   33  C   UNL     1      -9.830  17.967  70.782  1.00  0.00     3.308 A  
HETATM   34 CL   UNL     1     -10.926  19.141  72.949  1.00  0.00     3.021 Cl 
HETATM   35  C   UNL     1      -9.841  17.068  69.709  1.00  0.00     0.379 A  
ENDBRANCH  27  29
ENDBRANCH  13  27
ENDBRANCH   4   6
ENDBRANCH   2   4
TORSDOF 5
ENDMDL
MODEL      124
REMARK 921   NORMALIZED FREE ENERGY PREDICTED BY IDOCK:   16.39 KCAL/MOL
REMARK 922        TOTAL FREE ENERGY PREDICTED BY IDOCK:   20.02 KCAL/MOL
REMARK 923 INTER-LIGAND FREE ENERGY PREDICTED BY IDOCK:   20.55 KCAL/MOL
REMARK 924 INTRA-LIGAND FREE ENERGY PREDICTED BY IDOCK:   -0.53 KCAL/MOL
REMARK 927      BINDING AFFINITY PREDICTED BY RF-SCORE:    0.00 PKD
ROOT
HETATM    1  C   UNL     1      -9.984  15.126  72.362  1.00  0.00     4.006 C  
HETATM    2  C   UNL     1     -10.104  15.909  71.053  1.00  0.00     1.298 C  
HETATM    3  C   UNL     1     -10.274  17.394  71.359  1.00  0.00     3.828 C  
ENDROOT
BRANCH   2   4
HETATM    4  N   UNL     1      -8.920  15.706  70.190  1.00  0.00     0.156 NA 
HETATM    5  H   UNL     1      -8.010  16.074  70.468  1.00  0.00     0.000 HD 
BRANCH   4   6
HETATM    6  C   UNL     1      -9.052  15.055  69.074  1.00  0.00    -0.205 A  
HETATM    7  C   UNL     1      -8.990  13.579  68.954  1.00  0.00     0.221 A  
HETATM    8  C   UNL     1      -9.307  12.833  67.889  1.00  0.00    -0.208 A  
HETATM    9  N   UNL     1      -9.360  11.412  67.843  1.00  0.00    -0.159 NA 
HETATM   10  C   UNL     1      -9.565  10.803  66.546  1.00  0.00    -0.183 A  
HETATM   11  C   UNL     1      -9.632   9.412  66.345  1.00  0.00    -0.285 A  
HETATM   12  C   UNL     1      -9.744  11.629  65.407  1.00  0.00    -0.229 A  
HETATM   13  C   UNL     1      -9.333  15.797  67.785  1.00  0.00    -0.206 A  
HETATM   14  N   UNL     1      -9.760  13.033  65.469  1.00  0.00    -0.124 NA 
HETATM   15  C   UNL     1      -9.796   8.855  65.071  1.00  0.00     0.787 A  
HETATM   16  C   UNL     1      -9.935  11.059  64.141  1.00  0.00    -0.385 A  
HETATM   17  C   UNL     1      -9.545  15.076  66.676  1.00  0.00    -0.281 A  
HETATM   18  C   UNL     1      -9.560  13.592  66.620  1.00  0.00    -0.278 A  
HETATM   19  C   UNL     1      -9.948   9.679  63.967  1.00  0.00     0.860 A  
BRANCH   9  20
HETATM   20  C   UNL     1      -9.282  10.653  69.075  1.00  0.00    -0.167 A  
HETATM   21  C   UNL     1     -10.401   9.469  70.913  1.00  0.00    -0.372 A  
HETATM   22  C   UNL     1      -8.007   9.728  70.949  1.00  0.00     0.337 A  
HETATM   23 CL   UNL     1      -9.115   8.425  73.038  1.00  0.00    -0.308 Cl 
HETATM   24  C   UNL     1     -10.444  10.119  69.674  1.00  0.00    -0.282 A  
HETATM   25  C   UNL     1      -9.178   9.259  71.535  1.00  0.00     0.064 A  
HETATM   26  C   UNL     1      -8.066  10.456  69.751  1.00  0.00    -0.061 A  
ENDBRANCH   9  20
BRANCH  13  27
HETATM   27  N   UNL     1      -9.295  17.191  67.854  1.00  0.00    -0.245 NA 
HETATM   28  H   UNL     1      -9.536  17.615  68.749  1.00  0.00     0.000 HD 
BRANCH  27  29
HETATM   29  C   UNL     1      -8.951  18.073  66.795  1.00  0.00    -0.269 A  
HETATM   30  C   UNL     1      -8.324  19.313  66.973  1.00  0.00    -0.300 A  
HETATM   31  C   UNL     1      -7.974  20.112  65.875  1.00  0.00    -0.197 A  
HETATM   32  C   UNL     1      -8.276  19.689  64.583  1.00  0.00     2.813 A  
HETATM   33  C   UNL     1      -8.962  18.498  64.381  1.00  0.00     7.607 A  
HETATM   34 CL   UNL     1      -7.798  20.642  63.232  1.00  0.00     2.566 Cl 
HETATM   35  C   UNL     1      -9.307  17.702  65.481  1.00  0.00     0.756 A  
ENDBRANCH  27  29
ENDBRANCH  13  27
ENDBRANCH   4   6
ENDBRANCH   2   4
TORSDOF 5
ENDMDL
MODEL      125
REMARK 921   NORMALIZED FREE ENERGY PREDICTED BY IDOCK:   18.68 KCAL/MOL
REMARK 922        TOTAL FREE ENERGY PREDICTED BY IDOCK:   22.99 KCAL/MOL
REMARK 923 INTER-LIGAND FREE ENERGY PREDICTED BY IDOCK:   19.68 KCAL/MOL
REMARK 924 INTRA-LIGAND FREE ENERGY PREDICTED BY IDOCK:    3.30 KCAL/MOL
REMARK 927      BINDING AFFINITY PREDICTED BY RF-SCORE:    0.00 PKD
ROOT
HETATM    1  C   UNL     1      -8.873  18.669  68.524  1.00  0.00    -0.361 C  
HETATM    2  C   UNL     1      -7.840  17.917  67.682  1.00  0.00    -0.218 C  
HETATM    3  C   UNL     1      -6.699  17.442  68.576  1.00  0.00    -0.195 C  
ENDROOT
BRANCH   2   4
HETATM    4  N   UNL     1      -8.447  16.762  66.985  1.00  0.00    -0.188 NA 
HETATM    5  H   UNL     1      -8.220  16.571  66.009  1.00  0.00     0.000 HD 
BRANCH   4   6
HETATM    6  C   UNL     1      -9.271  15.994  67.631  1.00  0.00    -0.205 A  
HETATM    7  C   UNL     1      -9.765  16.261  69.002  1.00  0.00    -0.252 A  
HETATM    8  C   UNL     1     -10.753  15.631  69.651  1.00  0.00    -0.278 A  
HETATM    9  N   UNL     1     -11.291  15.993  70.917  1.00  0.00    -0.388 NA 
HETATM   10  C   UNL     1     -12.242  15.078  71.512  1.00  0.00    -0.337 A  
HETATM   11  C   UNL     1     -12.852  15.299  72.761  1.00  0.00    -0.510 A  
HETATM   12  C   UNL     1     -12.622  13.908  70.806  1.00  0.00    -0.354 A  
HETATM   13  C   UNL     1      -9.830  14.750  66.973  1.00  0.00    -0.239 A  
HETATM   14  N   UNL     1     -12.140  13.592  69.525  1.00  0.00    -0.317 NA 
HETATM   15  C   UNL     1     -13.742  14.376  73.324  1.00  0.00     0.519 A  
HETATM   16  C   UNL     1     -13.536  13.006  71.369  1.00  0.00    -0.062 A  
HETATM   17  C   UNL     1     -10.741  14.036  67.648  1.00  0.00    -0.261 A  
HETATM   18  C   UNL     1     -11.274  14.392  68.988  1.00  0.00    -0.264 A  
HETATM   19  C   UNL     1     -14.085  13.228  72.628  1.00  0.00    -0.170 A  
BRANCH   9  20
HETATM   20  C   UNL     1     -10.931  17.265  71.510  1.00  0.00     1.676 A  
HETATM   21  C   UNL     1      -9.793  19.435  71.350  1.00  0.00     2.940 A  
HETATM   22  C   UNL     1     -10.847  18.795  73.419  1.00  0.00     2.786 A  
HETATM   23 CL   UNL     1      -9.613  21.196  73.382  1.00  0.00     6.494 Cl 
HETATM   24  C   UNL     1     -10.236  18.243  70.766  1.00  0.00     2.490 A  
HETATM   25  C   UNL     1     -10.119  19.715  72.670  1.00  0.00     3.483 A  
HETATM   26  C   UNL     1     -11.210  17.564  72.855  1.00  0.00     1.882 A  
ENDBRANCH   9  20
BRANCH  13  27
HETATM   27  N   UNL     1      -9.302  14.422  65.723  1.00  0.00    -0.530 NA 
HETATM   28  H   UNL     1      -8.893  15.182  65.181  1.00  0.00     0.000 HD 
BRANCH  27  29
HETATM   29  C   UNL     1      -9.282  13.129  65.135  1.00  0.00     0.832 A  
HETATM   30  C   UNL     1      -8.991  11.950  65.833  1.00  0.00    -0.009 A  
HETATM   31  C   UNL     1      -9.034  10.701  65.195  1.00  0.00    -0.217 A  
HETATM   32  C   UNL     1      -9.341  10.623  63.839  1.00  0.00    -0.267 A  
HETATM   33  C   UNL     1      -9.563  11.782  63.106  1.00  0.00    -0.265 A  
HETATM   34 CL   UNL     1      -9.449   9.088  63.069  1.00  0.00     0.798 Cl 
HETATM   35  C   UNL     1      -9.522  13.026  63.749  1.00  0.00     1.667 A  
ENDBRANCH  27  29
ENDBRANCH  13  27
ENDBRANCH   4   6
ENDBRANCH   2   4
TORSDOF 5
ENDMDL
MODEL      126
REMARK 921   NORMALIZED FREE ENERGY PREDICTED BY IDOCK:   19.61 KCAL/MOL
REMARK 922        TOTAL FREE ENERGY PREDICTED BY IDOCK:   24.18 KCAL/MOL
REMARK 923 INTER-LIGAND FREE ENERGY PREDICTED BY IDOCK:   25.31 KCAL/MOL
REMARK 924 INTRA-LIGAND FREE ENERGY PREDICTED BY IDOCK:   -1.13 KCAL/MOL
REMARK 927      BINDING AFFINITY PREDICTED BY RF-SCORE:    0.00 PKD
ROOT
HETATM    1  C   UNL     1     -13.933  13.018  70.064  1.00  0.00     4.138 C  
HETATM    2  C   UNL     1     -12.884  13.367  71.122  1.00  0.00    -0.291 C  
HETATM    3  C   UNL     1     -13.554  13.476  72.489  1.00  0.00    -0.674 C  
ENDROOT
BRANCH   2   4
HETATM    4  N   UNL     1     -11.806  12.355  71.171  1.00  0.00     0.016 NA 
HETATM    5  H   UNL     1     -11.901  11.528  71.761  1.00  0.00     0.000 HD 
BRANCH   4   6
HETATM    6  C   UNL     1     -10.739  12.531  70.453  1.00  0.00     2.203 A  
HETATM    7  C   UNL     1     -10.430  13.771  69.702  1.00  0.00     0.377 A  
HETATM    8  C   UNL     1      -9.276  14.099  69.109  1.00  0.00     0.212 A  
HETATM    9  N   UNL     1      -8.967  15.350  68.505  1.00  0.00    -0.184 NA 
HETATM   10  C   UNL     1      -7.720  15.437  67.774  1.00  0.00    -0.145 A  
HETATM   11  C   UNL     1      -7.285  16.606  67.121  1.00  0.00    -0.219 A  
HETATM   12  C   UNL     1      -6.858  14.312  67.728  1.00  0.00    -0.175 A  
HETATM   13  C   UNL     1      -9.684  11.448  70.376  1.00  0.00     3.008 A  
HETATM   14  N   UNL     1      -7.136  13.102  68.384  1.00  0.00    -0.098 NA 
HETATM   15  C   UNL     1      -6.090  16.645  66.393  1.00  0.00     0.326 A  
HETATM   16  C   UNL     1      -5.650  14.374  67.019  1.00  0.00     1.262 A  
HETATM   17  C   UNL     1      -8.561  11.710  69.691  1.00  0.00     1.254 A  
HETATM   18  C   UNL     1      -8.256  13.003  69.027  1.00  0.00     0.384 A  
HETATM   19  C   UNL     1      -5.271  15.529  66.342  1.00  0.00     2.440 A  
BRANCH   9  20
HETATM   20  C   UNL     1      -9.854  16.478  68.703  1.00  0.00    -0.250 A  
HETATM   21  C   UNL     1     -11.587  17.991  67.843  1.00  0.00     1.252 A  
HETATM   22  C   UNL     1     -10.652  18.375  70.029  1.00  0.00     1.468 A  
HETATM   23 CL   UNL     1     -12.533  20.122  69.193  1.00  0.00     6.651 Cl 
HETATM   24  C   UNL     1     -10.791  16.847  67.713  1.00  0.00    -0.281 A  
HETATM   25  C   UNL     1     -11.528  18.739  69.011  1.00  0.00     3.113 A  
HETATM   26  C   UNL     1      -9.793  17.280  69.856  1.00  0.00     0.697 A  
ENDBRANCH   9  20
BRANCH  13  27
HETATM   27  N   UNL     1      -9.998  10.235  70.989  1.00  0.00     0.175 NA 
HETATM   28  H   UNL     1     -10.253  10.269  71.976  1.00  0.00     0.000 HD 
BRANCH  27  29
HETATM   29  C   UNL     1      -9.996   8.957  70.369  1.00  0.00    -0.194 A  
HETATM   30  C   UNL     1      -9.868   8.749  68.990  1.00  0.00    -0.183 A  
HETATM   31  C   UNL     1      -9.829   7.455  68.452  1.00  0.00    -0.165 A  
HETATM   32  C   UNL     1      -9.947   6.349  69.291  1.00  0.00    -0.153 A  
HETATM   33  C   UNL     1     -10.147   6.527  70.654  1.00  0.00    -0.212 A  
HETATM   34 CL   UNL     1      -9.844   4.760  68.639  1.00  0.00    -0.224 Cl 
HETATM   35  C   UNL     1     -10.182   7.822  71.187  1.00  0.00    -0.214 A  
ENDBRANCH  27  29
ENDBRANCH  13  27
ENDBRANCH   4   6
ENDBRANCH   2   4
TORSDOF 5
ENDMDL
MODEL      127
REMARK 921   NORMALIZED FREE ENERGY PREDICTED BY IDOCK:   19.95 KCAL/MOL
REMARK 922        TOTAL FREE ENERGY PREDICTED BY IDOCK:   24.62 KCAL/MOL
REMARK 923 INTER-LIGAND FREE ENERGY PREDICTED BY IDOCK:   21.83 KCAL/MOL
REMARK 924 INTRA-LIGAND FREE ENERGY PREDICTED BY IDOCK:    2.79 KCAL/MOL
REMARK 927      BINDING AFFINITY PREDICTED BY RF-SCORE:    0.00 PKD
ROOT
HETATM    1  C   UNL     1      -9.028   9.539  70.061  1.00  0.00    -0.249 C  
HETATM    2  C   UNL     1      -9.163  10.962  70.607  1.00  0.00     3.099 C  
HETATM    3  C   UNL     1      -9.993  10.941  71.888  1.00  0.00     8.161 C  
ENDROOT
BRANCH   2   4
HETATM    4  N   UNL     1      -7.841  11.567  70.876  1.00  0.00     3.409 NA 
HETATM    5  H   UNL     1      -7.319  11.316  71.716  1.00  0.00     0.000 HD 
BRANCH   4   6
HETATM    6  C   UNL     1      -7.351  12.423  70.030  1.00  0.00     1.399 A  
HETATM    7  C   UNL     1      -8.080  13.611  69.525  1.00  0.00     0.822 A  
HETATM    8  C   UNL     1      -7.583  14.632  68.816  1.00  0.00    -0.138 A  
HETATM    9  N   UNL     1      -8.276  15.821  68.455  1.00  0.00    -0.158 NA 
HETATM   10  C   UNL     1      -7.603  16.723  67.544  1.00  0.00    -0.158 A  
HETATM   11  C   UNL     1      -8.166  17.931  67.094  1.00  0.00    -0.228 A  
HETATM   12  C   UNL     1      -6.294  16.413  67.094  1.00  0.00    -0.180 A  
HETATM   13  C   UNL     1      -5.933  12.270  69.524  1.00  0.00    -0.110 A  
HETATM   14  N   UNL     1      -5.587  15.272  67.509  1.00  0.00    -0.339 NA 
HETATM   15  C   UNL     1      -7.503  18.764  66.185  1.00  0.00    -0.287 A  
HETATM   16  C   UNL     1      -5.629  17.270  66.206  1.00  0.00    -0.163 A  
HETATM   17  C   UNL     1      -5.445  13.224  68.719  1.00  0.00    -0.074 A  
HETATM   18  C   UNL     1      -6.184  14.447  68.310  1.00  0.00    -0.120 A  
HETATM   19  C   UNL     1      -6.232  18.434  65.740  1.00  0.00    -0.281 A  
BRANCH   9  20
HETATM   20  C   UNL     1      -9.562  16.109  69.055  1.00  0.00    -0.251 A  
HETATM   21  C   UNL     1     -10.954  17.493  70.532  1.00  0.00     1.417 A  
HETATM   22  C   UNL     1     -11.901  15.536  69.497  1.00  0.00    -0.390 A  
HETATM   23 CL   UNL     1     -13.530  16.958  71.113  1.00  0.00     5.477 Cl 
HETATM   24  C   UNL     1      -9.748  17.251  69.864  1.00  0.00     0.844 A  
HETATM   25  C   UNL     1     -12.033  16.643  70.328  1.00  0.00     0.975 A  
HETATM   26  C   UNL     1     -10.664  15.249  68.901  1.00  0.00    -0.245 A  
ENDBRANCH   9  20
BRANCH  13  27
HETATM   27  N   UNL     1      -5.263  11.106  69.904  1.00  0.00    -0.047 NA 
HETATM   28  H   UNL     1      -4.251  11.170  70.010  1.00  0.00     0.000 HD 
BRANCH  27  29
HETATM   29  C   UNL     1      -5.859   9.841  70.157  1.00  0.00    -0.047 A  
HETATM   30  C   UNL     1      -6.272   8.950  69.158  1.00  0.00    -0.043 A  
HETATM   31  C   UNL     1      -6.812   7.697  69.484  1.00  0.00    -0.044 A  
HETATM   32  C   UNL     1      -6.971   7.333  70.818  1.00  0.00    -0.056 A  
HETATM   33  C   UNL     1      -6.637   8.226  71.829  1.00  0.00    -0.064 A  
HETATM   34 CL   UNL     1      -7.581   5.776  71.218  1.00  0.00    -0.101 Cl 
HETATM   35  C   UNL     1      -6.095   9.475  71.499  1.00  0.00    -0.000 A  
ENDBRANCH  27  29
ENDBRANCH  13  27
ENDBRANCH   4   6
ENDBRANCH   2   4
TORSDOF 5
ENDMDL
MODEL      128
REMARK 921   NORMALIZED FREE ENERGY PREDICTED BY IDOCK:   22.43 KCAL/MOL
REMARK 922        TOTAL FREE ENERGY PREDICTED BY IDOCK:   27.83 KCAL/MOL
REMARK 923 INTER-LIGAND FREE ENERGY PREDICTED BY IDOCK:   28.66 KCAL/MOL
REMARK 924 INTRA-LIGAND FREE ENERGY PREDICTED BY IDOCK:   -0.83 KCAL/MOL
REMARK 927      BINDING AFFINITY PREDICTED BY RF-SCORE:    0.00 PKD
ROOT
HETATM    1  C   UNL     1     -11.091  12.635  65.370  1.00  0.00    -0.327 C  
HETATM    2  C   UNL     1     -10.830  13.481  66.618  1.00  0.00    -0.283 C  
HETATM    3  C   UNL     1     -11.987  14.453  66.829  1.00  0.00    -0.423 C  
ENDROOT
BRANCH   2   4
HETATM    4  N   UNL     1     -10.659  12.635  67.820  1.00  0.00    -0.216 NA 
HETATM    5  H   UNL     1     -11.185  11.766  67.918  1.00  0.00     0.000 HD 
BRANCH   4   6
HETATM    6  C   UNL     1      -9.833  13.011  68.748  1.00  0.00     0.026 A  
HETATM    7  C   UNL     1      -9.068  14.280  68.724  1.00  0.00    -0.103 A  
HETATM    8  C   UNL     1      -8.357  14.824  69.720  1.00  0.00     0.268 A  
HETATM    9  N   UNL     1      -7.738  16.105  69.709  1.00  0.00     0.142 NA 
HETATM   10  C   UNL     1      -6.878  16.429  70.828  1.00  0.00     1.927 A  
HETATM   11  C   UNL     1      -6.196  17.653  70.951  1.00  0.00     1.198 A  
HETATM   12  C   UNL     1      -6.727  15.496  71.885  1.00  0.00     2.696 A  
HETATM   13  C   UNL     1      -9.630  12.157  69.981  1.00  0.00     2.920 A  
HETATM   14  N   UNL     1      -7.395  14.261  71.923  1.00  0.00     2.718 NA 
HETATM   15  C   UNL     1      -5.344  17.921  72.029  1.00  0.00     0.719 A  
HETATM   16  C   UNL     1      -5.892  15.788  72.973  1.00  0.00     1.709 A  
HETATM   17  C   UNL     1      -8.832  12.628  70.949  1.00  0.00    10.053 A  
HETATM   18  C   UNL     1      -8.153  13.949  70.920  1.00  0.00     4.410 A  
HETATM   19  C   UNL     1      -5.192  16.987  73.042  1.00  0.00     3.924 A  
BRANCH   9  20
HETATM   20  C   UNL     1      -8.043  17.037  68.643  1.00  0.00    -0.254 A  
HETATM   21  C   UNL     1      -7.728  17.790  66.326  1.00  0.00    -0.308 A  
HETATM   22  C   UNL     1      -9.098  19.088  67.821  1.00  0.00    -0.331 A  
HETATM   23 CL   UNL     1      -8.816  20.035  65.309  1.00  0.00     0.627 Cl 
HETATM   24  C   UNL     1      -7.526  16.849  67.342  1.00  0.00    -0.187 A  
HETATM   25  C   UNL     1      -8.531  18.896  66.566  1.00  0.00    -0.304 A  
HETATM   26  C   UNL     1      -8.820  18.188  68.861  1.00  0.00    -0.131 A  
ENDBRANCH   9  20
BRANCH  13  27
HETATM   27  N   UNL     1     -10.260  10.912  69.981  1.00  0.00    -0.327 NA 
HETATM   28  H   UNL     1     -11.067  10.803  69.367  1.00  0.00     0.000 HD 
BRANCH  27  29
HETATM   29  C   UNL     1      -9.883   9.782  70.754  1.00  0.00    -0.032 A  
HETATM   30  C   UNL     1     -10.726   9.130  71.663  1.00  0.00    -0.441 A  
HETATM   31  C   UNL     1     -10.299   7.991  72.360  1.00  0.00    -0.355 A  
HETATM   32  C   UNL     1      -9.007   7.506  72.176  1.00  0.00    -0.129 A  
HETATM   33  C   UNL     1      -8.125   8.174  71.335  1.00  0.00    -0.132 A  
HETATM   34 CL   UNL     1      -8.500   6.077  72.988  1.00  0.00    -0.120 Cl 
HETATM   35  C   UNL     1      -8.558   9.310  70.639  1.00  0.00    -0.270 A  
ENDBRANCH  27  29
ENDBRANCH  13  27
ENDBRANCH   4   6
ENDBRANCH   2   4
TORSDOF 5
ENDMDL
MODEL      129
REMARK 921   NORMALIZED FREE ENERGY PREDICTED BY IDOCK:   22.74 KCAL/MOL
REMARK 922        TOTAL FREE ENERGY PREDICTED BY IDOCK:   28.23 KCAL/MOL
REMARK 923 INTER-LIGAND FREE ENERGY PREDICTED BY IDOCK:   27.57 KCAL/MOL
REMARK 924 INTRA-LIGAND FREE ENERGY PREDICTED BY IDOCK:    0.65 KCAL/MOL
REMARK 927      BINDING AFFINITY PREDICTED BY RF-SCORE:    0.00 PKD
ROOT
HETATM    1  C   UNL     1     -11.344   9.352  62.703  1.00  0.00     8.280 C  
HETATM    2  C   UNL     1     -10.150   9.348  63.661  1.00  0.00     2.296 C  
HETATM    3  C   UNL     1      -9.652   7.918  63.850  1.00  0.00     3.210 C  
ENDROOT
BRANCH   2   4
HETATM    4  N   UNL     1      -9.050  10.200  63.159  1.00  0.00    -0.254 NA 
HETATM    5  H   UNL     1      -8.788  10.177  62.173  1.00  0.00     0.000 HD 
BRANCH   4   6
HETATM    6  C   UNL     1      -8.421  10.977  63.987  1.00  0.00     0.222 A  
HETATM    7  C   UNL     1      -8.830  12.366  64.307  1.00  0.00     1.560 A  
HETATM    8  C   UNL     1      -8.357  13.151  65.282  1.00  0.00     3.177 A  
HETATM    9  N   UNL     1      -8.858  14.432  65.646  1.00  0.00     0.819 NA 
HETATM   10  C   UNL     1      -8.094  15.183  66.621  1.00  0.00     0.037 A  
HETATM   11  C   UNL     1      -8.462  16.465  67.072  1.00  0.00    -0.226 A  
HETATM   12  C   UNL     1      -6.931  14.606  67.192  1.00  0.00     0.270 A  
HETATM   13  C   UNL     1      -7.208  10.471  64.738  1.00  0.00     0.047 A  
HETATM   14  N   UNL     1      -6.481  13.313  66.880  1.00  0.00     0.233 NA 
HETATM   15  C   UNL     1      -7.682  17.178  67.990  1.00  0.00    -0.189 A  
HETATM   16  C   UNL     1      -6.175  15.321  68.131  1.00  0.00    -0.138 A  
HETATM   17  C   UNL     1      -6.645  11.282  65.644  1.00  0.00     0.394 A  
HETATM   18  C   UNL     1      -7.143  12.636  65.996  1.00  0.00     2.650 A  
HETATM   19  C   UNL     1      -6.537  16.606  68.521  1.00  0.00    -0.142 A  
BRANCH   9  20
HETATM   20  C   UNL     1     -10.116  14.891  65.096  1.00  0.00    -0.319 A  
HETATM   21  C   UNL     1     -11.747  16.694  64.742  1.00  0.00     0.610 A  
HETATM   22  C   UNL     1     -12.255  14.466  63.982  1.00  0.00    -0.300 A  
HETATM   23 CL   UNL     1     -14.139  16.351  63.551  1.00  0.00     5.698 Cl 
HETATM   24  C   UNL     1     -10.493  16.250  65.179  1.00  0.00    -0.254 A  
HETATM   25  C   UNL     1     -12.614  15.802  64.127  1.00  0.00     0.595 A  
HETATM   26  C   UNL     1     -11.035  14.009  64.502  1.00  0.00    -0.361 A  
ENDBRANCH   9  20
BRANCH  13  27
HETATM   27  N   UNL     1      -6.744   9.205  64.379  1.00  0.00    -0.082 NA 
HETATM   28  H   UNL     1      -6.592   9.033  63.386  1.00  0.00     0.000 HD 
BRANCH  27  29
HETATM   29  C   UNL     1      -6.463   8.133  65.268  1.00  0.00    -0.052 A  
HETATM   30  C   UNL     1      -6.673   8.179  66.652  1.00  0.00    -0.063 A  
HETATM   31  C   UNL     1      -6.414   7.063  67.462  1.00  0.00    -0.054 A  
HETATM   32  C   UNL     1      -5.913   5.894  66.896  1.00  0.00    -0.018 A  
HETATM   33  C   UNL     1      -5.627   5.844  65.537  1.00  0.00    -0.020 A  
HETATM   34 CL   UNL     1      -5.647   4.508  67.880  1.00  0.00    -0.016 Cl 
HETATM   35  C   UNL     1      -5.890   6.959  64.732  1.00  0.00    -0.036 A  
ENDBRANCH  27  29
ENDBRANCH  13  27
ENDBRANCH   4   6
ENDBRANCH   2   4
TORSDOF 5
ENDMDL
MODEL      130
REMARK 921   NORMALIZED FREE ENERGY PREDICTED BY IDOCK:   26.93 KCAL/MOL
REMARK 922        TOTAL FREE ENERGY PREDICTED BY IDOCK:   33.64 KCAL/MOL
REMARK 923 INTER-LIGAND FREE ENERGY PREDICTED BY IDOCK:   32.56 KCAL/MOL
REMARK 924 INTRA-LIGAND FREE ENERGY PREDICTED BY IDOCK:    1.08 KCAL/MOL
REMARK 927      BINDING AFFINITY PREDICTED BY RF-SCORE:    0.00 PKD
ROOT
HETATM    1  C   UNL     1     -11.601   7.972  71.761  1.00  0.00    -0.331 C  
HETATM    2  C   UNL     1     -10.564   6.996  71.199  1.00  0.00    -0.217 C  
HETATM    3  C   UNL     1     -10.936   6.624  69.767  1.00  0.00    -0.367 C  
ENDROOT
BRANCH   2   4
HETATM    4  N   UNL     1      -9.203   7.575  71.231  1.00  0.00    -0.149 NA 
HETATM    5  H   UNL     1      -8.620   7.479  72.063  1.00  0.00     0.000 HD 
BRANCH   4   6
HETATM    6  C   UNL     1      -8.759   8.208  70.188  1.00  0.00    -0.130 A  
HETATM    7  C   UNL     1      -8.927   7.741  68.791  1.00  0.00    -0.141 A  
HETATM    8  C   UNL     1      -8.675   8.424  67.667  1.00  0.00    -0.137 A  
HETATM    9  N   UNL     1      -8.966   7.996  66.341  1.00  0.00    -0.160 NA 
HETATM   10  C   UNL     1      -8.459   8.816  65.261  1.00  0.00    -0.174 A  
HETATM   11  C   UNL     1      -8.663   8.516  63.900  1.00  0.00     0.151 A  
HETATM   12  C   UNL     1      -7.749  10.006  65.561  1.00  0.00    -0.135 A  
HETATM   13  C   UNL     1      -8.052   9.538  70.345  1.00  0.00    -0.183 A  
HETATM   14  N   UNL     1      -7.525  10.459  66.871  1.00  0.00    -0.104 NA 
HETATM   15  C   UNL     1      -8.129   9.312  62.880  1.00  0.00    -0.154 A  
HETATM   16  C   UNL     1      -7.244  10.809  64.528  1.00  0.00     0.342 A  
HETATM   17  C   UNL     1      -7.687  10.192  69.234  1.00  0.00    -0.126 A  
HETATM   18  C   UNL     1      -7.956   9.727  67.849  1.00  0.00    -0.104 A  
HETATM   19  C   UNL     1      -7.419  10.460  63.193  1.00  0.00    -0.082 A  
BRANCH   9  20
HETATM   20  C   UNL     1      -9.798   6.829  66.133  1.00  0.00     0.163 A  
HETATM   21  C   UNL     1     -10.100   4.579  65.195  1.00  0.00    -0.147 A  
HETATM   22  C   UNL     1     -11.948   5.669  66.290  1.00  0.00     2.588 A  
HETATM   23 CL   UNL     1     -12.418   3.208  65.285  1.00  0.00     9.123 Cl 
HETATM   24  C   UNL     1      -9.287   5.677  65.494  1.00  0.00     0.029 A  
HETATM   25  C   UNL     1     -11.424   4.572  65.613  1.00  0.00     1.302 A  
HETATM   26  C   UNL     1     -11.152   6.803  66.508  1.00  0.00     0.330 A  
ENDBRANCH   9  20
BRANCH  13  27
HETATM   27  N   UNL     1      -7.792   9.948  71.653  1.00  0.00     0.625 NA 
HETATM   28  H   UNL     1      -8.121   9.339  72.402  1.00  0.00     0.000 HD 
BRANCH  27  29
HETATM   29  C   UNL     1      -7.112  11.134  72.040  1.00  0.00     6.063 A  
HETATM   30  C   UNL     1      -6.483  12.010  71.146  1.00  0.00     1.965 A  
HETATM   31  C   UNL     1      -5.870  13.188  71.597  1.00  0.00     0.447 A  
HETATM   32  C   UNL     1      -5.854  13.488  72.957  1.00  0.00     0.703 A  
HETATM   33  C   UNL     1      -6.407  12.601  73.873  1.00  0.00     3.129 A  
HETATM   34 CL   UNL     1      -5.150  14.958  73.506  1.00  0.00     0.032 Cl 
HETATM   35  C   UNL     1      -7.021  11.428  73.417  1.00  0.00     8.410 A  
ENDBRANCH  27  29
ENDBRANCH  13  27
ENDBRANCH   4   6
ENDBRANCH   2   4
TORSDOF 5
ENDMDL
MODEL      131
REMARK 921   NORMALIZED FREE ENERGY PREDICTED BY IDOCK:   31.87 KCAL/MOL
REMARK 922        TOTAL FREE ENERGY PREDICTED BY IDOCK:   40.03 KCAL/MOL
REMARK 923 INTER-LIGAND FREE ENERGY PREDICTED BY IDOCK:   39.01 KCAL/MOL
REMARK 924 INTRA-LIGAND FREE ENERGY PREDICTED BY IDOCK:    1.02 KCAL/MOL
REMARK 927      BINDING AFFINITY PREDICTED BY RF-SCORE:    0.00 PKD
ROOT
HETATM    1  C   UNL     1     -11.580   9.331  62.702  1.00  0.00    10.610 C  
HETATM    2  C   UNL     1     -10.846   9.210  64.040  1.00  0.00     7.034 C  
HETATM    3  C   UNL     1     -10.384   7.771  64.241  1.00  0.00     7.376 C  
ENDROOT
BRANCH   2   4
HETATM    4  N   UNL     1      -9.685  10.124  64.104  1.00  0.00    -0.348 NA 
HETATM    5  H   UNL     1      -9.073  10.239  63.296  1.00  0.00     0.000 HD 
BRANCH   4   6
HETATM    6  C   UNL     1      -9.453  10.779  65.201  1.00  0.00    -0.226 A  
HETATM    7  C   UNL     1      -9.890  12.172  65.454  1.00  0.00    -0.231 A  
HETATM    8  C   UNL     1      -9.863  12.839  66.615  1.00  0.00    -0.250 A  
HETATM    9  N   UNL     1     -10.407  14.131  66.855  1.00  0.00    -0.267 NA 
HETATM   10  C   UNL     1     -10.121  14.736  68.139  1.00  0.00    -0.221 A  
HETATM   11  C   UNL     1     -10.586  16.010  68.516  1.00  0.00    -0.268 A  
HETATM   12  C   UNL     1      -9.366  14.014  69.098  1.00  0.00     0.262 A  
HETATM   13  C   UNL     1      -8.730  10.110  66.351  1.00  0.00    -0.130 A  
HETATM   14  N   UNL     1      -8.890  12.710  68.881  1.00  0.00     0.219 NA 
HETATM   15  C   UNL     1     -10.262  16.580  69.753  1.00  0.00    -0.090 A  
HETATM   16  C   UNL     1      -9.072  14.586  70.344  1.00  0.00     1.769 A  
HETATM   17  C   UNL     1      -8.589  10.798  67.492  1.00  0.00    -0.125 A  
HETATM   18  C   UNL     1      -9.122  12.164  67.730  1.00  0.00    -0.189 A  
HETATM   19  C   UNL     1      -9.505  15.868  70.669  1.00  0.00     1.559 A  
BRANCH   9  20
HETATM   20  C   UNL     1     -11.263  14.743  65.860  1.00  0.00    -0.340 A  
HETATM   21  C   UNL     1     -12.515  16.694  65.048  1.00  0.00     3.192 A  
HETATM   22  C   UNL     1     -12.658  14.608  63.852  1.00  0.00     0.266 A  
HETATM   23 CL   UNL     1     -14.099  16.668  62.867  1.00  0.00     8.452 Cl 
HETATM   24  C   UNL     1     -11.612  16.109  65.942  1.00  0.00     0.696 A  
HETATM   25  C   UNL     1     -13.019  15.944  63.993  1.00  0.00     1.710 A  
HETATM   26  C   UNL     1     -11.822  14.004  64.803  1.00  0.00    -0.415 A  
ENDBRANCH   9  20
BRANCH  13  27
HETATM   27  N   UNL     1      -8.219   8.835  66.101  1.00  0.00    -0.113 NA 
HETATM   28  H   UNL     1      -7.653   8.721  65.261  1.00  0.00     0.000 HD 
BRANCH  27  29
HETATM   29  C   UNL     1      -8.413   7.682  66.907  1.00  0.00    -0.126 A  
HETATM   30  C   UNL     1      -7.494   6.630  67.015  1.00  0.00    -0.087 A  
HETATM   31  C   UNL     1      -7.734   5.543  67.867  1.00  0.00    -0.092 A  
HETATM   32  C   UNL     1      -8.916   5.482  68.602  1.00  0.00    -0.114 A  
HETATM   33  C   UNL     1      -9.877   6.475  68.460  1.00  0.00    -0.140 A  
HETATM   34 CL   UNL     1      -9.186   4.176  69.689  1.00  0.00    -0.190 Cl 
HETATM   35  C   UNL     1      -9.631   7.561  67.610  1.00  0.00    -0.171 A  
ENDBRANCH  27  29
ENDBRANCH  13  27
ENDBRANCH   4   6
ENDBRANCH   2   4
TORSDOF 5
ENDMDL
MODEL      132
REMARK 921   NORMALIZED FREE ENERGY PREDICTED BY IDOCK:   32.31 KCAL/MOL
REMARK 922        TOTAL FREE ENERGY PREDICTED BY IDOCK:   40.59 KCAL/MOL
REMARK 923 INTER-LIGAND FREE ENERGY PREDICTED BY IDOCK:   37.33 KCAL/MOL
REMARK 924 INTRA-LIGAND FREE ENERGY PREDICTED BY IDOCK:    3.26 KCAL/MOL
REMARK 927      BINDING AFFINITY PREDICTED BY RF-SCORE:    0.00 PKD
ROOT
HETATM    1  C   UNL     1     -10.540  17.684  65.683  1.00  0.00    -0.137 C  
HETATM    2  C   UNL     1      -9.698  16.601  66.361  1.00  0.00    -0.286 C  
HETATM    3  C   UNL     1      -8.593  17.255  67.185  1.00  0.00    -0.222 C  
ENDROOT
BRANCH   2   4
HETATM    4  N   UNL     1     -10.526  15.735  67.229  1.00  0.00    -0.302 NA 
HETATM    5  H   UNL     1     -11.544  15.766  67.169  1.00  0.00     0.000 HD 
BRANCH   4   6
HETATM    6  C   UNL     1      -9.941  14.935  68.069  1.00  0.00    -0.220 A  
HETATM    7  C   UNL     1      -9.861  13.464  67.907  1.00  0.00    -0.237 A  
HETATM    8  C   UNL     1      -9.119  12.605  68.615  1.00  0.00     0.045 A  
HETATM    9  N   UNL     1      -8.963  11.215  68.354  1.00  0.00    -0.159 NA 
HETATM   10  C   UNL     1      -8.246  10.436  69.342  1.00  0.00    -0.151 A  
HETATM   11  C   UNL     1      -8.021   9.052  69.224  1.00  0.00    -0.096 A  
HETATM   12  C   UNL     1      -7.703  11.084  70.481  1.00  0.00     2.091 A  
HETATM   13  C   UNL     1      -9.242  15.490  69.292  1.00  0.00    -0.268 A  
HETATM   14  N   UNL     1      -7.799  12.469  70.699  1.00  0.00     4.104 NA 
HETATM   15  C   UNL     1      -7.353   8.323  70.216  1.00  0.00    -0.055 A  
HETATM   16  C   UNL     1      -7.012  10.347  71.453  1.00  0.00     1.541 A  
HETATM   17  C   UNL     1      -8.582  14.633  70.083  1.00  0.00     0.996 A  
HETATM   18  C   UNL     1      -8.454  13.175  69.832  1.00  0.00     2.606 A  
HETATM   19  C   UNL     1      -6.848   8.971  71.332  1.00  0.00    -0.073 A  
BRANCH   9  20
HETATM   20  C   UNL     1      -9.453  10.662  67.108  1.00  0.00    -0.156 A  
HETATM   21  C   UNL     1      -9.365   8.919  65.380  1.00  0.00    -0.158 A  
HETATM   22  C   UNL     1     -10.834  10.805  65.092  1.00  0.00    -0.057 A  
HETATM   23 CL   UNL     1     -10.817   8.971  63.111  1.00  0.00     7.198 Cl 
HETATM   24  C   UNL     1      -8.978   9.421  66.628  1.00  0.00    -0.170 A  
HETATM   25  C   UNL     1     -10.308   9.604  64.626  1.00  0.00     1.279 A  
HETATM   26  C   UNL     1     -10.377  11.348  66.301  1.00  0.00    -0.287 A  
ENDBRANCH   9  20
BRANCH  13  27
HETATM   27  N   UNL     1      -9.391  16.859  69.520  1.00  0.00     0.125 NA 
HETATM   28  H   UNL     1     -10.172  17.322  69.057  1.00  0.00     0.000 HD 
BRANCH  27  29
HETATM   29  C   UNL     1      -8.558  17.668  70.338  1.00  0.00     3.727 A  
HETATM   30  C   UNL     1      -7.299  17.277  70.812  1.00  0.00     3.792 A  
HETATM   31  C   UNL     1      -6.511  18.147  71.579  1.00  0.00     2.735 A  
HETATM   32  C   UNL     1      -6.989  19.413  71.906  1.00  0.00     2.126 A  
HETATM   33  C   UNL     1      -8.264  19.801  71.510  1.00  0.00     2.897 A  
HETATM   34 CL   UNL     1      -6.001  20.502  72.799  1.00  0.00     1.559 Cl 
HETATM   35  C   UNL     1      -9.045  18.929  70.741  1.00  0.00     3.542 A  
ENDBRANCH  27  29
ENDBRANCH  13  27
ENDBRANCH   4   6
ENDBRANCH   2   4
TORSDOF 5
ENDMDL
MODEL      133
REMARK 921   NORMALIZED FREE ENERGY PREDICTED BY IDOCK:   32.83 KCAL/MOL
REMARK 922        TOTAL FREE ENERGY PREDICTED BY IDOCK:   41.26 KCAL/MOL
REMARK 923 INTER-LIGAND FREE ENERGY PREDICTED BY IDOCK:   -3.88 KCAL/MOL
REMARK 924 INTRA-LIGAND FREE ENERGY PREDICTED BY IDOCK:   45.15 KCAL/MOL
REMARK 927      BINDING AFFINITY PREDICTED BY RF-SCORE:    0.00 PKD
ROOT
HETATM    1  C   UNL     1      -7.928   4.397  70.756  1.00  0.00    -0.064 C  
HETATM    2  C   UNL     1      -7.717   5.357  69.583  1.00  0.00    -0.074 C  
HETATM    3  C   UNL     1      -6.774   4.721  68.566  1.00  0.00    -0.050 C  
ENDROOT
BRANCH   2   4
HETATM    4  N   UNL     1      -8.998   5.705  68.931  1.00  0.00    -0.111 NA 
HETATM    5  H   UNL     1      -9.861   5.232  69.202  1.00  0.00     0.000 HD 
BRANCH   4   6
HETATM    6  C   UNL     1      -9.012   6.620  68.009  1.00  0.00    -0.117 A  
HETATM    7  C   UNL     1      -9.797   7.875  68.087  1.00  0.00    -0.193 A  
HETATM    8  C   UNL     1      -9.713   8.940  67.281  1.00  0.00    -0.181 A  
HETATM    9  N   UNL     1     -10.386  10.182  67.456  1.00  0.00    -0.214 NA 
HETATM   10  C   UNL     1     -10.284  11.142  66.377  1.00  0.00    -0.233 A  
HETATM   11  C   UNL     1     -10.901  12.407  66.405  1.00  0.00    -0.291 A  
HETATM   12  C   UNL     1      -9.500  10.831  65.237  1.00  0.00    -0.218 A  
HETATM   13  C   UNL     1      -8.158   6.467  66.769  1.00  0.00    -0.109 A  
HETATM   14  N   UNL     1      -8.781   9.632  65.101  1.00  0.00    -0.154 NA 
HETATM   15  C   UNL     1     -10.811  13.298  65.329  1.00  0.00    -0.314 A  
HETATM   16  C   UNL     1      -9.395  11.745  64.178  1.00  0.00     0.106 A  
HETATM   17  C   UNL     1      -8.142   7.475  65.886  1.00  0.00    -0.127 A  
HETATM   18  C   UNL     1      -8.877   8.756  66.050  1.00  0.00    -0.175 A  
HETATM   19  C   UNL     1     -10.057  12.968  64.215  1.00  0.00    -0.216 A  
BRANCH   9  20
HETATM   20  C   UNL     1     -11.068  10.456  68.704  1.00  0.00    -0.262 A  
HETATM   21  C   UNL     1     -12.417   9.674  70.601  1.00  0.00    -0.161 A  
HETATM   22  C   UNL     1     -11.876  12.013  70.412  1.00  0.00    -0.302 A  
HETATM   23 CL   UNL     1     -13.382  11.288  72.532  1.00  0.00     0.153 Cl 
HETATM   24  C   UNL     1     -11.670   9.416  69.446  1.00  0.00     0.440 A  
HETATM   25  C   UNL     1     -12.499  10.971  71.090  1.00  0.00    -0.397 A  
HETATM   26  C   UNL     1     -11.204  11.761  69.207  1.00  0.00    -0.318 A  
ENDBRANCH   9  20
BRANCH  13  27
HETATM   27  N   UNL     1      -7.491   5.249  66.624  1.00  0.00    -0.086 NA 
HETATM   28  H   UNL     1      -7.386   4.891  65.676  1.00  0.00     0.000 HD 
BRANCH  27  29
HETATM   29  C   UNL     1      -6.946   4.463  67.674  1.00  0.00    -0.060 A  
HETATM   30  C   UNL     1      -6.462   4.984  68.881  1.00  0.00    -0.036 A  
HETATM   31  C   UNL     1      -5.978   4.141  69.892  1.00  0.00    -0.018 A  
HETATM   32  C   UNL     1      -5.947   2.763  69.694  1.00  0.00    -0.023 A  
HETATM   33  C   UNL     1      -6.354   2.224  68.479  1.00  0.00    -0.029 A  
HETATM   34 CL   UNL     1      -5.406   1.724  70.954  1.00  0.00    -0.004 Cl 
HETATM   35  C   UNL     1      -6.839   3.070  67.473  1.00  0.00    -0.045 A  
ENDBRANCH  27  29
ENDBRANCH  13  27
ENDBRANCH   4   6
ENDBRANCH   2   4
TORSDOF 5
ENDMDL
MODEL      134
REMARK 921   NORMALIZED FREE ENERGY PREDICTED BY IDOCK:   37.92 KCAL/MOL
REMARK 922        TOTAL FREE ENERGY PREDICTED BY IDOCK:   47.84 KCAL/MOL
REMARK 923 INTER-LIGAND FREE ENERGY PREDICTED BY IDOCK:   46.82 KCAL/MOL
REMARK 924 INTRA-LIGAND FREE ENERGY PREDICTED BY IDOCK:    1.02 KCAL/MOL
REMARK 927      BINDING AFFINITY PREDICTED BY RF-SCORE:    0.00 PKD
ROOT
HETATM    1  C   UNL     1     -13.100  13.399  67.410  1.00  0.00     2.680 C  
HETATM    2  C   UNL     1     -12.524  12.188  68.147  1.00  0.00     0.994 C  
HETATM    3  C   UNL     1     -13.552  11.060  68.158  1.00  0.00     8.777 C  
ENDROOT
BRANCH   2   4
HETATM    4  N   UNL     1     -11.270  11.718  67.518  1.00  0.00    -0.270 NA 
HETATM    5  H   UNL     1     -11.216  10.785  67.108  1.00  0.00     0.000 HD 
BRANCH   4   6
HETATM    6  C   UNL     1     -10.238  12.506  67.495  1.00  0.00    -0.217 A  
HETATM    7  C   UNL     1     -10.267  13.935  67.889  1.00  0.00    -0.241 A  
HETATM    8  C   UNL     1      -9.222  14.750  68.078  1.00  0.00    -0.194 A  
HETATM    9  N   UNL     1      -9.274  16.080  68.579  1.00  0.00    -0.199 NA 
HETATM   10  C   UNL     1      -8.044  16.843  68.548  1.00  0.00    -0.244 A  
HETATM   11  C   UNL     1      -7.944  18.171  69.004  1.00  0.00    -0.085 A  
HETATM   12  C   UNL     1      -6.855  16.232  68.073  1.00  0.00    -0.131 A  
HETATM   13  C   UNL     1      -8.880  11.974  67.089  1.00  0.00    -0.188 A  
HETATM   14  N   UNL     1      -6.795  14.895  67.644  1.00  0.00    -0.173 NA 
HETATM   15  C   UNL     1      -6.746  18.891  68.927  1.00  0.00    -0.312 A  
HETATM   16  C   UNL     1      -5.655  16.956  68.028  1.00  0.00    -0.126 A  
HETATM   17  C   UNL     1      -7.831  12.804  67.163  1.00  0.00    -0.097 A  
HETATM   18  C   UNL     1      -7.892  14.207  67.648  1.00  0.00    -0.179 A  
HETATM   19  C   UNL     1      -5.600  18.284  68.439  1.00  0.00    -0.171 A  
BRANCH   9  20
HETATM   20  C   UNL     1     -10.507  16.581  69.152  1.00  0.00    -0.317 A  
HETATM   21  C   UNL     1     -11.664  17.966  70.818  1.00  0.00     4.970 A  
HETATM   22  C   UNL     1     -12.949  16.590  69.317  1.00  0.00     3.012 A  
HETATM   23 CL   UNL     1     -14.341  18.047  71.114  1.00  0.00    19.768 Cl 
HETATM   24  C   UNL     1     -10.489  17.544  70.185  1.00  0.00     0.820 A  
HETATM   25  C   UNL     1     -12.891  17.501  70.366  1.00  0.00    10.386 A  
HETATM   26  C   UNL     1     -11.764  16.103  68.746  1.00  0.00    -0.231 A  
ENDBRANCH   9  20
BRANCH  13  27
HETATM   27  N   UNL     1      -8.847  10.661  66.618  1.00  0.00    -0.139 NA 
HETATM   28  H   UNL     1      -8.752  10.535  65.610  1.00  0.00     0.000 HD 
BRANCH  27  29
HETATM   29  C   UNL     1      -8.933   9.484  67.408  1.00  0.00    -0.131 A  
HETATM   30  C   UNL     1      -8.730   9.447  68.794  1.00  0.00    -0.131 A  
HETATM   31  C   UNL     1      -8.876   8.254  69.516  1.00  0.00    -0.149 A  
HETATM   32  C   UNL     1      -9.200   7.074  68.853  1.00  0.00    -0.136 A  
HETATM   33  C   UNL     1      -9.337   7.066  67.470  1.00  0.00    -0.134 A  
HETATM   34 CL   UNL     1      -9.434   5.621  69.744  1.00  0.00    -0.177 Cl 
HETATM   35  C   UNL     1      -9.193   8.261  66.753  1.00  0.00    -0.212 A  
ENDBRANCH  27  29
ENDBRANCH  13  27
ENDBRANCH   4   6
ENDBRANCH   2   4
TORSDOF 5
ENDMDL
MODEL      135
REMARK 921   NORMALIZED FREE ENERGY PREDICTED BY IDOCK:   46.04 KCAL/MOL
REMARK 922        TOTAL FREE ENERGY PREDICTED BY IDOCK:   58.33 KCAL/MOL
REMARK 923 INTER-LIGAND FREE ENERGY PREDICTED BY IDOCK:   22.19 KCAL/MOL
REMARK 924 INTRA-LIGAND FREE ENERGY PREDICTED BY IDOCK:   36.14 KCAL/MOL
REMARK 927      BINDING AFFINITY PREDICTED BY RF-SCORE:    0.00 PKD
ROOT
HETATM    1  C   UNL     1      -8.635   7.047  68.771  1.00  0.00    -0.125 C  
HETATM    2  C   UNL     1      -7.165   7.394  69.014  1.00  0.00    -0.085 C  
HETATM    3  C   UNL     1      -6.291   6.194  68.662  1.00  0.00    -0.041 C  
ENDROOT
BRANCH   2   4
HETATM    4  N   UNL     1      -6.747   8.570  68.219  1.00  0.00    -0.064 NA 
HETATM    5  H   UNL     1      -6.642   8.497  67.207  1.00  0.00     0.000 HD 
BRANCH   4   6
HETATM    6  C   UNL     1      -6.515   9.695  68.825  1.00  0.00    -0.047 A  
HETATM    7  C   UNL     1      -6.702  11.030  68.210  1.00  0.00    -0.059 A  
HETATM    8  C   UNL     1      -6.673  12.221  68.821  1.00  0.00    -0.089 A  
HETATM    9  N   UNL     1      -6.983  13.477  68.229  1.00  0.00    -0.095 NA 
HETATM   10  C   UNL     1      -6.728  14.659  69.025  1.00  0.00    -0.103 A  
HETATM   11  C   UNL     1      -6.978  15.968  68.571  1.00  0.00    -0.131 A  
HETATM   12  C   UNL     1      -6.234  14.518  70.347  1.00  0.00    -0.174 A  
HETATM   13  C   UNL     1      -6.063   9.705  70.269  1.00  0.00    -0.062 A  
HETATM   14  N   UNL     1      -5.996  13.272  70.951  1.00  0.00    -0.196 NA 
HETATM   15  C   UNL     1      -6.687  17.091  69.354  1.00  0.00    -0.208 A  
HETATM   16  C   UNL     1      -5.974  15.651  71.131  1.00  0.00     0.483 A  
HETATM   17  C   UNL     1      -5.918  10.892  70.875  1.00  0.00     0.036 A  
HETATM   18  C   UNL     1      -6.202  12.206  70.244  1.00  0.00     0.008 A  
HETATM   19  C   UNL     1      -6.185  16.933  70.636  1.00  0.00     0.764 A  
BRANCH   9  20
HETATM   20  C   UNL     1      -7.593  13.518  66.916  1.00  0.00     0.438 A  
HETATM   21  C   UNL     1      -7.873  12.552  64.675  1.00  0.00     4.900 A  
HETATM   22  C   UNL     1      -8.958  14.633  65.217  1.00  0.00     1.628 A  
HETATM   23 CL   UNL     1      -9.330  13.690  62.715  1.00  0.00     8.081 Cl 
HETATM   24  C   UNL     1      -7.375  12.482  65.981  1.00  0.00     2.006 A  
HETATM   25  C   UNL     1      -8.681  13.619  64.305  1.00  0.00     5.667 A  
HETATM   26  C   UNL     1      -8.383  14.602  66.496  1.00  0.00     0.192 A  
ENDBRANCH   9  20
BRANCH  13  27
HETATM   27  N   UNL     1      -5.782   8.462  70.837  1.00  0.00    -0.032 NA 
HETATM   28  H   UNL     1      -4.969   8.408  71.451  1.00  0.00     0.000 HD 
BRANCH  27  29
HETATM   29  C   UNL     1      -6.520   7.264  70.641  1.00  0.00    -0.043 A  
HETATM   30  C   UNL     1      -7.797   7.210  70.069  1.00  0.00    -0.113 A  
HETATM   31  C   UNL     1      -8.448   5.985  69.864  1.00  0.00    -0.130 A  
HETATM   32  C   UNL     1      -7.837   4.798  70.260  1.00  0.00    -0.058 A  
HETATM   33  C   UNL     1      -6.602   4.828  70.896  1.00  0.00    -0.031 A  
HETATM   34 CL   UNL     1      -8.611   3.290  69.961  1.00  0.00    -0.100 Cl 
HETATM   35  C   UNL     1      -5.955   6.054  71.095  1.00  0.00    -0.030 A  
ENDBRANCH  27  29
ENDBRANCH  13  27
ENDBRANCH   4   6
ENDBRANCH   2   4
TORSDOF 5
ENDMDL
MODEL      136
REMARK 921   NORMALIZED FREE ENERGY PREDICTED BY IDOCK:   62.10 KCAL/MOL
REMARK 922        TOTAL FREE ENERGY PREDICTED BY IDOCK:   79.09 KCAL/MOL
REMARK 923 INTER-LIGAND FREE ENERGY PREDICTED BY IDOCK:   76.71 KCAL/MOL
REMARK 924 INTRA-LIGAND FREE ENERGY PREDICTED BY IDOCK:    2.38 KCAL/MOL
REMARK 927      BINDING AFFINITY PREDICTED BY RF-SCORE:    0.00 PKD
ROOT
HETATM    1  C   UNL     1     -11.669   7.969  71.763  1.00  0.00    -0.335 C  
HETATM    2  C   UNL     1     -10.643   7.131  70.998  1.00  0.00    -0.221 C  
HETATM    3  C   UNL     1     -11.208   6.754  69.632  1.00  0.00    -0.345 C  
ENDROOT
BRANCH   2   4
HETATM    4  N   UNL     1      -9.366   7.858  70.830  1.00  0.00    -0.152 NA 
HETATM    5  H   UNL     1      -8.616   7.749  71.514  1.00  0.00     0.000 HD 
BRANCH   4   6
HETATM    6  C   UNL     1      -9.211   8.638  69.804  1.00  0.00    -0.154 A  
HETATM    7  C   UNL     1      -9.256  10.119  69.863  1.00  0.00    -0.119 A  
HETATM    8  C   UNL     1      -8.915  10.984  68.900  1.00  0.00    -0.115 A  
HETATM    9  N   UNL     1      -8.846  12.399  69.028  1.00  0.00     0.336 NA 
HETATM   10  C   UNL     1      -8.616  13.158  67.816  1.00  0.00    -0.188 A  
HETATM   11  C   UNL     1      -8.530  14.563  67.787  1.00  0.00    -0.176 A  
HETATM   12  C   UNL     1      -8.429  12.474  66.588  1.00  0.00    -0.001 A  
HETATM   13  C   UNL     1      -8.920   8.054  68.438  1.00  0.00    -0.133 A  
HETATM   14  N   UNL     1      -8.429  11.073  66.480  1.00  0.00    -0.156 NA 
HETATM   15  C   UNL     1      -8.342  15.268  66.592  1.00  0.00    -0.216 A  
HETATM   16  C   UNL     1      -8.213  13.191  65.403  1.00  0.00     3.220 A  
HETATM   17  C   UNL     1      -8.684   8.901  67.427  1.00  0.00    -0.128 A  
HETATM   18  C   UNL     1      -8.652  10.381  67.552  1.00  0.00    -0.125 A  
HETATM   19  C   UNL     1      -8.183  14.582  65.398  1.00  0.00     4.275 A  
BRANCH   9  20
HETATM   20  C   UNL     1      -8.933  13.004  70.341  1.00  0.00     5.563 A  
HETATM   21  C   UNL     1      -8.998  15.013  71.753  1.00  0.00     4.848 A  
HETATM   22  C   UNL     1      -8.971  12.837  72.783  1.00  0.00    22.584 A  
HETATM   23 CL   UNL     1      -9.022  14.962  74.447  1.00  0.00    10.867 Cl 
HETATM   24  C   UNL     1      -9.013  14.406  70.492  1.00  0.00     2.419 A  
HETATM   25  C   UNL     1      -8.998  14.223  72.894  1.00  0.00     9.844 A  
HETATM   26  C   UNL     1      -8.896  12.236  71.518  1.00  0.00    15.995 A  
ENDBRANCH   9  20
BRANCH  13  27
HETATM   27  N   UNL     1      -8.974   6.663  68.337  1.00  0.00    -0.124 NA 
HETATM   28  H   UNL     1      -9.245   6.150  69.175  1.00  0.00     0.000 HD 
BRANCH  27  29
HETATM   29  C   UNL     1      -8.687   5.895  67.177  1.00  0.00    -0.108 A  
HETATM   30  C   UNL     1      -9.459   5.912  66.009  1.00  0.00    -0.087 A  
HETATM   31  C   UNL     1      -9.089   5.160  64.884  1.00  0.00    -0.042 A  
HETATM   32  C   UNL     1      -7.952   4.357  64.928  1.00  0.00    -0.094 A  
HETATM   33  C   UNL     1      -7.207   4.265  66.097  1.00  0.00    -0.075 A  
HETATM   34 CL   UNL     1      -7.466   3.477  63.531  1.00  0.00    -0.058 Cl 
HETATM   35  C   UNL     1      -7.580   5.021  67.217  1.00  0.00    -0.091 A  
ENDBRANCH  27  29
ENDBRANCH  13  27
ENDBRANCH   4   6
ENDBRANCH   2   4
TORSDOF 5
ENDMDL
MODEL      137
REMARK 921   NORMALIZED FREE ENERGY PREDICTED BY IDOCK:   77.89 KCAL/MOL
REMARK 922        TOTAL FREE ENERGY PREDICTED BY IDOCK:   99.49 KCAL/MOL
REMARK 923 INTER-LIGAND FREE ENERGY PREDICTED BY IDOCK:   82.94 KCAL/MOL
REMARK 924 INTRA-LIGAND FREE ENERGY PREDICTED BY IDOCK:   16.55 KCAL/MOL
REMARK 927      BINDING AFFINITY PREDICTED BY RF-SCORE:    0.00 PKD
ROOT
HETATM    1  C   UNL     1     -10.087   8.189  64.965  1.00  0.00     2.744 C  
HETATM    2  C   UNL     1      -9.263   9.478  64.922  1.00  0.00    -0.223 C  
HETATM    3  C   UNL     1     -10.169  10.652  64.565  1.00  0.00    -0.399 C  
ENDROOT
BRANCH   2   4
HETATM    4  N   UNL     1      -8.594   9.735  66.217  1.00  0.00    -0.126 NA 
HETATM    5  H   UNL     1      -7.593   9.566  66.323  1.00  0.00     0.000 HD 
BRANCH   4   6
HETATM    6  C   UNL     1      -9.294  10.178  67.216  1.00  0.00    -0.152 A  
HETATM    7  C   UNL     1      -9.339   9.542  68.554  1.00  0.00    -0.138 A  
HETATM    8  C   UNL     1      -9.873  10.039  69.676  1.00  0.00    -0.235 A  
HETATM    9  N   UNL     1      -9.788   9.464  70.974  1.00  0.00    -0.277 NA 
HETATM   10  C   UNL     1     -10.579  10.080  72.020  1.00  0.00     2.184 A  
HETATM   11  C   UNL     1     -10.601   9.617  73.349  1.00  0.00     6.419 A  
HETATM   12  C   UNL     1     -11.352  11.231  71.723  1.00  0.00     3.186 A  
HETATM   13  C   UNL     1     -10.107  11.447  67.076  1.00  0.00    -0.208 A  
HETATM   14  N   UNL     1     -11.377  11.837  70.456  1.00  0.00     0.310 NA 
HETATM   15  C   UNL     1     -11.404  10.215  74.327  1.00  0.00    17.396 A  
HETATM   16  C   UNL     1     -12.130  11.838  72.720  1.00  0.00     4.757 A  
HETATM   17  C   UNL     1     -10.746  11.910  68.159  1.00  0.00    -0.246 A  
HETATM   18  C   UNL     1     -10.690  11.286  69.506  1.00  0.00    -0.095 A  
HETATM   19  C   UNL     1     -12.169  11.327  74.013  1.00  0.00    15.362 A  
BRANCH   9  20
HETATM   20  C   UNL     1      -8.883   8.358  71.209  1.00  0.00    -0.167 A  
HETATM   21  C   UNL     1      -6.789   7.183  70.690  1.00  0.00    -0.053 A  
HETATM   22  C   UNL     1      -8.336   6.217  72.263  1.00  0.00    -0.108 A  
HETATM   23 CL   UNL     1      -6.083   4.815  71.766  1.00  0.00    -0.020 Cl 
HETATM   24  C   UNL     1      -7.633   8.290  70.553  1.00  0.00    -0.076 A  
HETATM   25  C   UNL     1      -7.136   6.159  71.562  1.00  0.00    -0.078 A  
HETATM   26  C   UNL     1      -9.219   7.286  72.054  1.00  0.00    -0.149 A  
ENDBRANCH   9  20
BRANCH  13  27
HETATM   27  N   UNL     1     -10.163  12.007  65.798  1.00  0.00    -0.235 NA 
HETATM   28  H   UNL     1     -11.084  12.269  65.449  1.00  0.00     0.000 HD 
BRANCH  27  29
HETATM   29  C   UNL     1      -9.057  12.246  64.939  1.00  0.00     0.654 A  
HETATM   30  C   UNL     1      -8.931  13.367  64.109  1.00  0.00     3.853 A  
HETATM   31  C   UNL     1      -7.787  13.559  63.320  1.00  0.00    13.660 A  
HETATM   32  C   UNL     1      -6.767  12.612  63.331  1.00  0.00     9.391 A  
HETATM   33  C   UNL     1      -6.897  11.456  64.090  1.00  0.00     1.963 A  
HETATM   34 CL   UNL     1      -5.340  12.874  62.406  1.00  0.00     3.468 Cl 
HETATM   35  C   UNL     1      -8.040  11.270  64.879  1.00  0.00     0.583 A  
ENDBRANCH  27  29
ENDBRANCH  13  27
ENDBRANCH   4   6
ENDBRANCH   2   4
TORSDOF 5
ENDMDL
MODEL      138
REMARK 921   NORMALIZED FREE ENERGY PREDICTED BY IDOCK:   80.53 KCAL/MOL
REMARK 922        TOTAL FREE ENERGY PREDICTED BY IDOCK:  102.91 KCAL/MOL
REMARK 923 INTER-LIGAND FREE ENERGY PREDICTED BY IDOCK:  100.77 KCAL/MOL
REMARK 924 INTRA-LIGAND FREE ENERGY PREDICTED BY IDOCK:    2.14 KCAL/MOL
REMARK 927      BINDING AFFINITY PREDICTED BY RF-SCORE:    0.00 PKD
ROOT
HETATM    1  C   UNL     1     -12.081   9.944  63.173  1.00  0.00     8.241 C  
HETATM    2  C   UNL     1     -11.696   9.575  64.607  1.00  0.00     8.658 C  
HETATM    3  C   UNL     1     -11.496   8.065  64.710  1.00  0.00    13.111 C  
ENDROOT
BRANCH   2   4
HETATM    4  N   UNL     1     -10.464  10.274  65.034  1.00  0.00    -0.116 NA 
HETATM    5  H   UNL     1      -9.680  10.379  64.389  1.00  0.00     0.000 HD 
BRANCH   4   6
HETATM    6  C   UNL     1     -10.391  10.752  66.239  1.00  0.00    -0.244 A  
HETATM    7  C   UNL     1     -10.407  12.197  66.569  1.00  0.00    -0.239 A  
HETATM    8  C   UNL     1     -10.532  12.756  67.779  1.00  0.00    -0.223 A  
HETATM    9  N   UNL     1     -10.673  14.145  68.052  1.00  0.00    -0.239 NA 
HETATM   10  C   UNL     1     -10.628  14.550  69.441  1.00  0.00    -0.157 A  
HETATM   11  C   UNL     1     -10.746  15.887  69.863  1.00  0.00    -0.334 A  
HETATM   12  C   UNL     1     -10.493  13.564  70.452  1.00  0.00     2.126 A  
HETATM   13  C   UNL     1     -10.327   9.818  67.428  1.00  0.00    -0.240 A  
HETATM   14  N   UNL     1     -10.424  12.187  70.179  1.00  0.00     1.467 NA 
HETATM   15  C   UNL     1     -10.663  16.248  71.214  1.00  0.00     0.725 A  
HETATM   16  C   UNL     1     -10.439  13.936  71.802  1.00  0.00     5.112 A  
HETATM   17  C   UNL     1     -10.339  10.358  68.655  1.00  0.00    -0.202 A  
HETATM   18  C   UNL     1     -10.445  11.812  68.940  1.00  0.00    -0.154 A  
HETATM   19  C   UNL     1     -10.509  15.271  72.185  1.00  0.00     1.538 A  
BRANCH   9  20
HETATM   20  C   UNL     1     -10.923  15.067  66.963  1.00  0.00    -0.318 A  
HETATM   21  C   UNL     1     -11.792  15.501  64.707  1.00  0.00    -0.112 A  
HETATM   22  C   UNL     1     -10.680  17.265  65.912  1.00  0.00    -0.126 A  
HETATM   23 CL   UNL     1     -11.570  17.866  63.435  1.00  0.00     8.491 Cl 
HETATM   24  C   UNL     1     -11.628  14.656  65.810  1.00  0.00    -0.328 A  
HETATM   25  C   UNL     1     -11.334  16.810  64.772  1.00  0.00     0.151 A  
HETATM   26  C   UNL     1     -10.439  16.387  66.979  1.00  0.00    -0.291 A  
ENDBRANCH   9  20
BRANCH  13  27
HETATM   27  N   UNL     1     -10.208   8.458  67.140  1.00  0.00    -0.263 NA 
HETATM   28  H   UNL     1      -9.421   8.177  66.555  1.00  0.00     0.000 HD 
BRANCH  27  29
HETATM   29  C   UNL     1     -11.079   7.427  67.584  1.00  0.00     0.062 A  
HETATM   30  C   UNL     1     -12.031   7.582  68.599  1.00  0.00     2.015 A  
HETATM   31  C   UNL     1     -12.889   6.531  68.954  1.00  0.00     6.055 A  
HETATM   32  C   UNL     1     -12.783   5.299  68.313  1.00  0.00    12.785 A  
HETATM   33  C   UNL     1     -11.800   5.095  67.352  1.00  0.00     4.631 A  
HETATM   34 CL   UNL     1     -13.871   4.027  68.709  1.00  0.00    29.605 Cl 
HETATM   35  C   UNL     1     -10.947   6.149  66.999  1.00  0.00    -0.414 A  
ENDBRANCH  27  29
ENDBRANCH  13  27
ENDBRANCH   4   6
ENDBRANCH   2   4
TORSDOF 5
ENDMDL
MODEL      139
REMARK 921   NORMALIZED FREE ENERGY PREDICTED BY IDOCK:   96.80 KCAL/MOL
REMARK 922        TOTAL FREE ENERGY PREDICTED BY IDOCK:  123.93 KCAL/MOL
REMARK 923 INTER-LIGAND FREE ENERGY PREDICTED BY IDOCK:  123.98 KCAL/MOL
REMARK 924 INTRA-LIGAND FREE ENERGY PREDICTED BY IDOCK:   -0.05 KCAL/MOL
REMARK 927      BINDING AFFINITY PREDICTED BY RF-SCORE:    0.00 PKD
ROOT
HETATM    1  C   UNL     1     -13.100  13.399  67.410  1.00  0.00     2.680 C  
HETATM    2  C   UNL     1     -12.515  12.186  68.137  1.00  0.00     0.994 C  
HETATM    3  C   UNL     1     -13.537  11.053  68.144  1.00  0.00     8.777 C  
ENDROOT
BRANCH   2   4
HETATM    4  N   UNL     1     -11.260  11.728  67.503  1.00  0.00    -0.270 NA 
HETATM    5  H   UNL     1     -11.245  11.466  66.517  1.00  0.00     0.000 HD 
BRANCH   4   6
HETATM    6  C   UNL     1     -10.177  11.661  68.216  1.00  0.00    -0.199 A  
HETATM    7  C   UNL     1     -10.047  12.194  69.593  1.00  0.00     1.055 A  
HETATM    8  C   UNL     1      -9.041  11.993  70.454  1.00  0.00     5.271 A  
HETATM    9  N   UNL     1      -9.003  12.410  71.814  1.00  0.00    16.960 NA 
HETATM   10  C   UNL     1      -7.751  12.236  72.519  1.00  0.00    15.461 A  
HETATM   11  C   UNL     1      -7.562  12.607  73.864  1.00  0.00    11.024 A  
HETATM   12  C   UNL     1      -6.654  11.630  71.856  1.00  0.00     4.279 A  
HETATM   13  C   UNL     1      -8.946  10.968  67.672  1.00  0.00    -0.142 A  
HETATM   14  N   UNL     1      -6.719  11.157  70.535  1.00  0.00    -0.103 NA 
HETATM   15  C   UNL     1      -6.327  12.457  74.506  1.00  0.00     2.247 A  
HETATM   16  C   UNL     1      -5.431  11.460  72.520  1.00  0.00     0.889 A  
HETATM   17  C   UNL     1      -7.881  10.851  68.477  1.00  0.00    -0.126 A  
HETATM   18  C   UNL     1      -7.827  11.323  69.885  1.00  0.00     0.899 A  
HETATM   19  C   UNL     1      -5.260  11.883  73.834  1.00  0.00     0.585 A  
BRANCH   9  20
HETATM   20  C   UNL     1     -10.208  12.912  72.442  1.00  0.00    14.493 A  
HETATM   21  C   UNL     1     -11.634  13.126  74.431  1.00  0.00     9.740 A  
HETATM   22  C   UNL     1     -12.388  14.021  72.326  1.00  0.00    -0.071 A  
HETATM   23 CL   UNL     1     -14.057  14.303  74.429  1.00  0.00     7.468 Cl 
HETATM   24  C   UNL     1     -10.434  12.736  73.825  1.00  0.00    17.593 A  
HETATM   25  C   UNL     1     -12.598  13.786  73.681  1.00  0.00     1.719 A  
HETATM   26  C   UNL     1     -11.222  13.549  71.705  1.00  0.00     3.299 A  
ENDBRANCH   9  20
BRANCH  13  27
HETATM   27  N   UNL     1      -9.010  10.549  66.342  1.00  0.00    -0.156 NA 
HETATM   28  H   UNL     1      -9.188  11.267  65.641  1.00  0.00     0.000 HD 
BRANCH  27  29
HETATM   29  C   UNL     1      -8.851   9.217  65.874  1.00  0.00    -0.166 A  
HETATM   30  C   UNL     1      -7.814   8.796  65.032  1.00  0.00    -0.111 A  
HETATM   31  C   UNL     1      -7.694   7.453  64.646  1.00  0.00    -0.118 A  
HETATM   32  C   UNL     1      -8.633   6.519  65.078  1.00  0.00     0.067 A  
HETATM   33  C   UNL     1      -9.712   6.922  65.855  1.00  0.00     0.304 A  
HETATM   34 CL   UNL     1      -8.456   4.861  64.651  1.00  0.00    -0.138 Cl 
HETATM   35  C   UNL     1      -9.825   8.264  66.240  1.00  0.00    -0.227 A  
ENDBRANCH  27  29
ENDBRANCH  13  27
ENDBRANCH   4   6
ENDBRANCH   2   4
TORSDOF 5
ENDMDL
