MODEL        1
REMARK 921   NORMALIZED FREE ENERGY PREDICTED BY IDOCK:   -5.65 KCAL/MOL
REMARK 922        TOTAL FREE ENERGY PREDICTED BY IDOCK:   -6.93 KCAL/MOL
REMARK 923 INTER-LIGAND FREE ENERGY PREDICTED BY IDOCK:   -6.64 KCAL/MOL
REMARK 924 INTRA-LIGAND FREE ENERGY PREDICTED BY IDOCK:   -0.30 KCAL/MOL
REMARK 927      BINDING AFFINITY PREDICTED BY RF-SCORE:    0.00 PKD
ROOT
HETATM    1  C   UNL     1     -11.307  12.236  63.544  1.00  0.00    -0.549 C  
HETATM    2  C   UNL     1     -10.619  13.118  64.577  1.00  0.00    -0.406 C  
ENDROOT
BRANCH   2   3
HETATM    3  O   UNL     1     -10.959  12.645  65.890  1.00  0.00    -0.268 OA 
BRANCH   3   4
HETATM    4  C   UNL     1     -11.789  13.454  66.623  1.00  0.00    -0.395 C  
HETATM    5  O   UNL     1     -12.722  14.085  66.143  1.00  0.00    -0.450 OA 
HETATM    6  C   UNL     1     -11.467  13.306  68.136  1.00  0.00    -0.312 C  
HETATM    7  C   UNL     1     -10.023  13.765  68.362  1.00  0.00    -0.229 C  
HETATM    8  C   UNL     1     -11.698  11.810  68.416  1.00  0.00    -0.389 C  
HETATM    9  O   UNL     1     -12.403  14.160  68.822  1.00  0.00    -0.272 OA 
BRANCH   9  10
HETATM   10  C   UNL     1     -12.366  14.394  70.164  1.00  0.00    -0.348 A  
HETATM   11  C   UNL     1     -11.830  15.632  70.532  1.00  0.00    -0.402 A  
HETATM   12  C   UNL     1     -11.800  16.035  71.879  1.00  0.00    -0.619 A  
HETATM   13  C   UNL     1     -12.316  15.201  72.860  1.00  0.00    -0.391 A  
HETATM   14  C   UNL     1     -12.862  13.973  72.507  1.00  0.00    -0.408 A  
HETATM   15 CL   UNL     1     -12.309  15.687  74.508  1.00  0.00    -0.810 Cl 
HETATM   16  C   UNL     1     -12.883  13.577  71.165  1.00  0.00    -0.387 A  
ENDBRANCH   9  10
ENDBRANCH   3   4
ENDBRANCH   2   3
TORSDOF 3
ENDMDL
MODEL        2
REMARK 921   NORMALIZED FREE ENERGY PREDICTED BY IDOCK:   -5.43 KCAL/MOL
REMARK 922        TOTAL FREE ENERGY PREDICTED BY IDOCK:   -6.68 KCAL/MOL
REMARK 923 INTER-LIGAND FREE ENERGY PREDICTED BY IDOCK:   -6.38 KCAL/MOL
REMARK 924 INTRA-LIGAND FREE ENERGY PREDICTED BY IDOCK:   -0.31 KCAL/MOL
REMARK 927      BINDING AFFINITY PREDICTED BY RF-SCORE:    0.00 PKD
ROOT
HETATM    1  C   UNL     1     -12.031  12.666  64.058  1.00  0.00    -0.530 C  
HETATM    2  C   UNL     1     -12.213  14.177  64.131  1.00  0.00    -0.390 C  
ENDROOT
BRANCH   2   3
HETATM    3  O   UNL     1     -11.397  14.690  65.196  1.00  0.00    -0.344 OA 
BRANCH   3   4
HETATM    4  C   UNL     1     -10.937  15.972  65.034  1.00  0.00    -0.380 C  
HETATM    5  O   UNL     1     -11.306  16.720  64.138  1.00  0.00    -1.194 OA 
HETATM    6  C   UNL     1     -10.030  16.361  66.235  1.00  0.00    -0.323 C  
HETATM    7  C   UNL     1      -8.825  15.414  66.248  1.00  0.00    -0.302 C  
HETATM    8  C   UNL     1     -10.955  16.212  67.456  1.00  0.00    -0.238 C  
HETATM    9  O   UNL     1      -9.624  17.723  65.996  1.00  0.00    -0.499 OA 
BRANCH   9  10
HETATM   10  C   UNL     1      -8.724  18.389  66.773  1.00  0.00    -0.277 A  
HETATM   11  C   UNL     1      -7.623  18.908  66.085  1.00  0.00    -0.286 A  
HETATM   12  C   UNL     1      -6.655  19.682  66.749  1.00  0.00    -0.203 A  
HETATM   13  C   UNL     1      -6.793  19.944  68.105  1.00  0.00    -0.293 A  
HETATM   14  C   UNL     1      -7.888  19.443  68.798  1.00  0.00    -0.392 A  
HETATM   15 CL   UNL     1      -5.632  20.906  68.929  1.00  0.00    -0.389 Cl 
HETATM   16  C   UNL     1      -8.845  18.670  68.131  1.00  0.00    -0.335 A  
ENDBRANCH   9  10
ENDBRANCH   3   4
ENDBRANCH   2   3
TORSDOF 3
ENDMDL
MODEL        3
REMARK 921   NORMALIZED FREE ENERGY PREDICTED BY IDOCK:   -5.39 KCAL/MOL
REMARK 922        TOTAL FREE ENERGY PREDICTED BY IDOCK:   -6.63 KCAL/MOL
REMARK 923 INTER-LIGAND FREE ENERGY PREDICTED BY IDOCK:   -6.34 KCAL/MOL
REMARK 924 INTRA-LIGAND FREE ENERGY PREDICTED BY IDOCK:   -0.29 KCAL/MOL
REMARK 927      BINDING AFFINITY PREDICTED BY RF-SCORE:    0.00 PKD
ROOT
HETATM    1  C   UNL     1     -10.889  11.486  63.530  1.00  0.00    -0.473 C  
HETATM    2  C   UNL     1     -12.302  12.037  63.675  1.00  0.00    -0.539 C  
ENDROOT
BRANCH   2   3
HETATM    3  O   UNL     1     -12.387  12.777  64.902  1.00  0.00    -0.441 OA 
BRANCH   3   4
HETATM    4  C   UNL     1     -12.093  14.114  64.818  1.00  0.00    -0.441 C  
HETATM    5  O   UNL     1     -12.553  14.859  63.963  1.00  0.00    -0.832 OA 
HETATM    6  C   UNL     1     -11.246  14.544  66.048  1.00  0.00    -0.337 C  
HETATM    7  C   UNL     1      -9.931  13.758  66.018  1.00  0.00    -0.319 C  
HETATM    8  C   UNL     1     -12.147  14.211  67.250  1.00  0.00    -0.407 C  
HETATM    9  O   UNL     1     -11.016  15.958  65.890  1.00  0.00    -0.264 OA 
BRANCH   9  10
HETATM   10  C   UNL     1     -10.209  16.687  66.712  1.00  0.00    -0.301 A  
HETATM   11  C   UNL     1      -8.911  16.893  66.232  1.00  0.00    -0.314 A  
HETATM   12  C   UNL     1      -7.996  17.690  66.942  1.00  0.00    -0.252 A  
HETATM   13  C   UNL     1      -8.383  18.290  68.132  1.00  0.00    -0.284 A  
HETATM   14  C   UNL     1      -9.672  18.103  68.614  1.00  0.00    -0.367 A  
HETATM   15 CL   UNL     1      -7.285  19.286  69.002  1.00  0.00    -0.387 Cl 
HETATM   16  C   UNL     1     -10.575  17.304  67.904  1.00  0.00    -0.384 A  
ENDBRANCH   9  10
ENDBRANCH   3   4
ENDBRANCH   2   3
TORSDOF 3
ENDMDL
MODEL        4
REMARK 921   NORMALIZED FREE ENERGY PREDICTED BY IDOCK:   -5.34 KCAL/MOL
REMARK 922        TOTAL FREE ENERGY PREDICTED BY IDOCK:   -6.57 KCAL/MOL
REMARK 923 INTER-LIGAND FREE ENERGY PREDICTED BY IDOCK:   -6.61 KCAL/MOL
REMARK 924 INTRA-LIGAND FREE ENERGY PREDICTED BY IDOCK:    0.04 KCAL/MOL
REMARK 927      BINDING AFFINITY PREDICTED BY RF-SCORE:    0.00 PKD
ROOT
HETATM    1  C   UNL     1      -9.707  20.390  67.266  1.00  0.00    -0.602 C  
HETATM    2  C   UNL     1     -10.294  19.647  66.073  1.00  0.00    -0.523 C  
ENDROOT
BRANCH   2   3
HETATM    3  O   UNL     1      -9.638  18.376  65.951  1.00  0.00    -0.499 OA 
BRANCH   3   4
HETATM    4  C   UNL     1     -10.455  17.297  65.729  1.00  0.00    -0.229 C  
HETATM    5  O   UNL     1     -11.088  17.124  64.695  1.00  0.00    -1.036 OA 
HETATM    6  C   UNL     1     -10.316  16.282  66.897  1.00  0.00    -0.299 C  
HETATM    7  C   UNL     1     -10.770  16.974  68.186  1.00  0.00    -0.374 C  
HETATM    8  C   UNL     1      -8.823  15.907  66.882  1.00  0.00    -0.264 C  
HETATM    9  O   UNL     1     -11.180  15.177  66.562  1.00  0.00    -0.341 OA 
BRANCH   9  10
HETATM   10  C   UNL     1     -11.423  14.130  67.399  1.00  0.00    -0.345 A  
HETATM   11  C   UNL     1     -11.212  12.866  66.839  1.00  0.00    -0.331 A  
HETATM   12  C   UNL     1     -11.352  11.699  67.611  1.00  0.00    -0.362 A  
HETATM   13  C   UNL     1     -11.696  11.798  68.952  1.00  0.00    -0.323 A  
HETATM   14  C   UNL     1     -11.898  13.048  69.524  1.00  0.00    -0.385 A  
HETATM   15 CL   UNL     1     -11.850  10.385  69.917  1.00  0.00    -0.319 Cl 
HETATM   16  C   UNL     1     -11.762  14.203  68.747  1.00  0.00    -0.380 A  
ENDBRANCH   9  10
ENDBRANCH   3   4
ENDBRANCH   2   3
TORSDOF 3
ENDMDL
MODEL        5
REMARK 921   NORMALIZED FREE ENERGY PREDICTED BY IDOCK:   -5.30 KCAL/MOL
REMARK 922        TOTAL FREE ENERGY PREDICTED BY IDOCK:   -6.53 KCAL/MOL
REMARK 923 INTER-LIGAND FREE ENERGY PREDICTED BY IDOCK:   -6.12 KCAL/MOL
REMARK 924 INTRA-LIGAND FREE ENERGY PREDICTED BY IDOCK:   -0.41 KCAL/MOL
REMARK 927      BINDING AFFINITY PREDICTED BY RF-SCORE:    0.00 PKD
ROOT
HETATM    1  C   UNL     1     -11.817  12.088  63.568  1.00  0.00    -0.587 C  
HETATM    2  C   UNL     1     -10.358  12.436  63.832  1.00  0.00    -0.423 C  
ENDROOT
BRANCH   2   3
HETATM    3  O   UNL     1     -10.304  13.546  64.741  1.00  0.00    -0.388 OA 
BRANCH   3   4
HETATM    4  C   UNL     1     -10.107  13.230  66.062  1.00  0.00    -0.299 C  
HETATM    5  O   UNL     1      -9.308  12.387  66.448  1.00  0.00    -0.232 OA 
HETATM    6  C   UNL     1     -10.914  14.206  66.962  1.00  0.00    -0.300 C  
HETATM    7  C   UNL     1     -12.402  14.030  66.641  1.00  0.00    -0.408 C  
HETATM    8  C   UNL     1     -10.355  15.592  66.594  1.00  0.00    -0.290 C  
HETATM    9  O   UNL     1     -10.621  13.821  68.320  1.00  0.00    -0.241 OA 
BRANCH   9  10
HETATM   10  C   UNL     1     -11.233  14.368  69.407  1.00  0.00    -0.281 A  
HETATM   11  C   UNL     1     -12.140  13.527  70.060  1.00  0.00    -0.411 A  
HETATM   12  C   UNL     1     -12.786  13.936  71.240  1.00  0.00    -0.444 A  
HETATM   13  C   UNL     1     -12.518  15.189  71.773  1.00  0.00    -0.345 A  
HETATM   14  C   UNL     1     -11.612  16.031  71.141  1.00  0.00    -0.492 A  
HETATM   15 CL   UNL     1     -13.281  15.697  73.226  1.00  0.00    -0.644 Cl 
HETATM   16  C   UNL     1     -10.977  15.618  69.964  1.00  0.00    -0.336 A  
ENDBRANCH   9  10
ENDBRANCH   3   4
ENDBRANCH   2   3
TORSDOF 3
ENDMDL
MODEL        6
REMARK 921   NORMALIZED FREE ENERGY PREDICTED BY IDOCK:   -5.06 KCAL/MOL
REMARK 922        TOTAL FREE ENERGY PREDICTED BY IDOCK:   -6.24 KCAL/MOL
REMARK 923 INTER-LIGAND FREE ENERGY PREDICTED BY IDOCK:   -5.92 KCAL/MOL
REMARK 924 INTRA-LIGAND FREE ENERGY PREDICTED BY IDOCK:   -0.33 KCAL/MOL
REMARK 927      BINDING AFFINITY PREDICTED BY RF-SCORE:    0.00 PKD
ROOT
HETATM    1  C   UNL     1     -11.087  16.271  64.724  1.00  0.00    -0.293 C  
HETATM    2  C   UNL     1     -12.017  15.130  64.331  1.00  0.00    -0.310 C  
ENDROOT
BRANCH   2   3
HETATM    3  O   UNL     1     -11.329  13.885  64.527  1.00  0.00    -0.367 OA 
BRANCH   3   4
HETATM    4  C   UNL     1     -12.009  12.931  65.240  1.00  0.00    -0.419 C  
HETATM    5  O   UNL     1     -13.106  12.492  64.918  1.00  0.00    -0.833 OA 
HETATM    6  C   UNL     1     -11.112  12.395  66.391  1.00  0.00    -0.301 C  
HETATM    7  C   UNL     1     -10.793  13.564  67.329  1.00  0.00    -0.285 C  
HETATM    8  C   UNL     1      -9.882  11.826  65.662  1.00  0.00    -0.265 C  
HETATM    9  O   UNL     1     -11.891  11.384  67.058  1.00  0.00    -0.530 OA 
BRANCH   9  10
HETATM   10  C   UNL     1     -11.492  10.755  68.200  1.00  0.00    -0.271 A  
HETATM   11  C   UNL     1     -12.095  11.222  69.372  1.00  0.00    -0.384 A  
HETATM   12  C   UNL     1     -11.833  10.615  70.612  1.00  0.00    -0.463 A  
HETATM   13  C   UNL     1     -10.969   9.531  70.680  1.00  0.00    -0.306 A  
HETATM   14  C   UNL     1     -10.371   9.050  69.522  1.00  0.00    -0.211 A  
HETATM   15 CL   UNL     1     -10.653   8.761  72.183  1.00  0.00    -0.413 Cl 
HETATM   16  C   UNL     1     -10.634   9.663  68.292  1.00  0.00    -0.268 A  
ENDBRANCH   9  10
ENDBRANCH   3   4
ENDBRANCH   2   3
TORSDOF 3
ENDMDL
MODEL        7
REMARK 921   NORMALIZED FREE ENERGY PREDICTED BY IDOCK:   -4.99 KCAL/MOL
REMARK 922        TOTAL FREE ENERGY PREDICTED BY IDOCK:   -6.16 KCAL/MOL
REMARK 923 INTER-LIGAND FREE ENERGY PREDICTED BY IDOCK:   -6.00 KCAL/MOL
REMARK 924 INTRA-LIGAND FREE ENERGY PREDICTED BY IDOCK:   -0.16 KCAL/MOL
REMARK 927      BINDING AFFINITY PREDICTED BY RF-SCORE:    0.00 PKD
ROOT
HETATM    1  C   UNL     1     -11.114  16.335  64.716  1.00  0.00    -0.293 C  
HETATM    2  C   UNL     1     -11.236  14.821  64.828  1.00  0.00    -0.385 C  
ENDROOT
BRANCH   2   3
HETATM    3  O   UNL     1     -11.475  14.478  66.202  1.00  0.00    -0.347 OA 
BRANCH   3   4
HETATM    4  C   UNL     1     -11.924  13.201  66.431  1.00  0.00    -0.402 C  
HETATM    5  O   UNL     1     -12.514  12.527  65.597  1.00  0.00    -0.648 OA 
HETATM    6  C   UNL     1     -11.424  12.710  67.818  1.00  0.00    -0.322 C  
HETATM    7  C   UNL     1     -12.016  13.630  68.891  1.00  0.00    -0.392 C  
HETATM    8  C   UNL     1      -9.891  12.788  67.705  1.00  0.00    -0.214 C  
HETATM    9  O   UNL     1     -11.911  11.361  67.956  1.00  0.00    -0.613 OA 
BRANCH   9  10
HETATM   10  C   UNL     1     -11.778  10.623  69.094  1.00  0.00    -0.253 A  
HETATM   11  C   UNL     1     -10.724   9.705  69.082  1.00  0.00    -0.237 A  
HETATM   12  C   UNL     1     -10.424   8.932  70.217  1.00  0.00    -0.239 A  
HETATM   13  C   UNL     1     -11.178   9.084  71.372  1.00  0.00    -0.324 A  
HETATM   14  C   UNL     1     -12.222  10.000  71.402  1.00  0.00    -0.510 A  
HETATM   15 CL   UNL     1     -10.812   8.164  72.777  1.00  0.00    -0.428 Cl 
HETATM   16  C   UNL     1     -12.516  10.762  70.266  1.00  0.00    -0.395 A  
ENDBRANCH   9  10
ENDBRANCH   3   4
ENDBRANCH   2   3
TORSDOF 3
ENDMDL
MODEL        8
REMARK 921   NORMALIZED FREE ENERGY PREDICTED BY IDOCK:   -4.94 KCAL/MOL
REMARK 922        TOTAL FREE ENERGY PREDICTED BY IDOCK:   -6.11 KCAL/MOL
REMARK 923 INTER-LIGAND FREE ENERGY PREDICTED BY IDOCK:   -5.84 KCAL/MOL
REMARK 924 INTRA-LIGAND FREE ENERGY PREDICTED BY IDOCK:   -0.27 KCAL/MOL
REMARK 927      BINDING AFFINITY PREDICTED BY RF-SCORE:    0.00 PKD
ROOT
HETATM    1  C   UNL     1      -6.927  19.420  66.025  1.00  0.00    -0.283 C  
HETATM    2  C   UNL     1      -8.400  19.762  66.207  1.00  0.00    -0.357 C  
ENDROOT
BRANCH   2   3
HETATM    3  O   UNL     1      -9.176  18.565  66.042  1.00  0.00    -0.499 OA 
BRANCH   3   4
HETATM    4  C   UNL     1     -10.176  18.368  66.961  1.00  0.00    -0.379 C  
HETATM    5  O   UNL     1     -11.000  19.221  67.264  1.00  0.00    -0.483 OA 
HETATM    6  C   UNL     1     -10.191  16.880  67.410  1.00  0.00    -0.298 C  
HETATM    7  C   UNL     1      -8.849  16.572  68.083  1.00  0.00    -0.203 C  
HETATM    8  C   UNL     1     -10.427  16.104  66.102  1.00  0.00    -0.334 C  
HETATM    9  O   UNL     1     -11.284  16.762  68.342  1.00  0.00    -0.332 OA 
BRANCH   9  10
HETATM   10  C   UNL     1     -11.553  15.629  69.049  1.00  0.00    -0.386 A  
HETATM   11  C   UNL     1     -11.912  15.838  70.385  1.00  0.00    -0.385 A  
HETATM   12  C   UNL     1     -12.289  14.764  71.210  1.00  0.00    -0.390 A  
HETATM   13  C   UNL     1     -12.314  13.476  70.695  1.00  0.00    -0.358 A  
HETATM   14  C   UNL     1     -11.971  13.254  69.367  1.00  0.00    -0.356 A  
HETATM   15 CL   UNL     1     -12.793  12.154  71.681  1.00  0.00    -0.441 Cl 
HETATM   16  C   UNL     1     -11.592  14.329  68.554  1.00  0.00    -0.355 A  
ENDBRANCH   9  10
ENDBRANCH   3   4
ENDBRANCH   2   3
TORSDOF 3
ENDMDL
MODEL        9
REMARK 921   NORMALIZED FREE ENERGY PREDICTED BY IDOCK:   -4.83 KCAL/MOL
REMARK 922        TOTAL FREE ENERGY PREDICTED BY IDOCK:   -5.97 KCAL/MOL
REMARK 923 INTER-LIGAND FREE ENERGY PREDICTED BY IDOCK:   -5.61 KCAL/MOL
REMARK 924 INTRA-LIGAND FREE ENERGY PREDICTED BY IDOCK:   -0.36 KCAL/MOL
REMARK 927      BINDING AFFINITY PREDICTED BY RF-SCORE:    0.00 PKD
ROOT
HETATM    1  C   UNL     1     -12.399  11.197  70.722  1.00  0.00    -0.504 C  
HETATM    2  C   UNL     1     -11.885  10.749  69.361  1.00  0.00    -0.298 C  
ENDROOT
BRANCH   2   3
HETATM    3  O   UNL     1     -12.050  11.826  68.426  1.00  0.00    -0.490 OA 
BRANCH   3   4
HETATM    4  C   UNL     1     -10.960  12.641  68.253  1.00  0.00    -0.248 C  
HETATM    5  O   UNL     1      -9.804  12.238  68.235  1.00  0.00    -0.210 OA 
HETATM    6  C   UNL     1     -11.431  14.086  67.923  1.00  0.00    -0.316 C  
HETATM    7  C   UNL     1     -12.238  14.607  69.116  1.00  0.00    -0.223 C  
HETATM    8  C   UNL     1     -12.256  13.918  66.635  1.00  0.00    -0.465 C  
HETATM    9  O   UNL     1     -10.228  14.855  67.727  1.00  0.00    -0.234 OA 
BRANCH   9  10
HETATM   10  C   UNL     1     -10.220  16.204  67.533  1.00  0.00    -0.267 A  
HETATM   11  C   UNL     1      -9.954  16.963  68.677  1.00  0.00    -0.279 A  
HETATM   12  C   UNL     1      -9.840  18.363  68.606  1.00  0.00    -0.403 A  
HETATM   13  C   UNL     1      -9.986  19.005  67.384  1.00  0.00    -0.342 A  
HETATM   14  C   UNL     1     -10.239  18.262  66.238  1.00  0.00    -0.414 A  
HETATM   15 CL   UNL     1      -9.828  20.712  67.275  1.00  0.00    -0.600 Cl 
HETATM   16  C   UNL     1     -10.356  16.870  66.318  1.00  0.00    -0.312 A  
ENDBRANCH   9  10
ENDBRANCH   3   4
ENDBRANCH   2   3
TORSDOF 3
ENDMDL
MODEL       10
REMARK 921   NORMALIZED FREE ENERGY PREDICTED BY IDOCK:   -4.81 KCAL/MOL
REMARK 922        TOTAL FREE ENERGY PREDICTED BY IDOCK:   -5.95 KCAL/MOL
REMARK 923 INTER-LIGAND FREE ENERGY PREDICTED BY IDOCK:   -5.70 KCAL/MOL
REMARK 924 INTRA-LIGAND FREE ENERGY PREDICTED BY IDOCK:   -0.25 KCAL/MOL
REMARK 927      BINDING AFFINITY PREDICTED BY RF-SCORE:    0.00 PKD
ROOT
HETATM    1  C   UNL     1     -10.136  20.188  67.289  1.00  0.00    -0.572 C  
HETATM    2  C   UNL     1     -10.540  19.512  65.985  1.00  0.00    -0.491 C  
ENDROOT
BRANCH   2   3
HETATM    3  O   UNL     1      -9.787  18.298  65.840  1.00  0.00    -0.527 OA 
BRANCH   3   4
HETATM    4  C   UNL     1     -10.519  17.167  65.581  1.00  0.00    -0.197 C  
HETATM    5  O   UNL     1     -11.276  17.050  64.626  1.00  0.00    -0.968 OA 
HETATM    6  C   UNL     1     -10.109  16.038  66.568  1.00  0.00    -0.287 C  
HETATM    7  C   UNL     1     -10.435  16.508  67.989  1.00  0.00    -0.313 C  
HETATM    8  C   UNL     1      -8.605  15.846  66.302  1.00  0.00    -0.348 C  
HETATM    9  O   UNL     1     -10.899  14.890  66.201  1.00  0.00    -0.314 OA 
BRANCH   9  10
HETATM   10  C   UNL     1     -10.912  13.726  66.909  1.00  0.00    -0.290 A  
HETATM   11  C   UNL     1     -11.895  13.649  67.900  1.00  0.00    -0.402 A  
HETATM   12  C   UNL     1     -12.070  12.477  68.656  1.00  0.00    -0.139 A  
HETATM   13  C   UNL     1     -11.264  11.374  68.414  1.00  0.00    -0.263 A  
HETATM   14  C   UNL     1     -10.291  11.432  67.424  1.00  0.00    -0.232 A  
HETATM   15 CL   UNL     1     -11.479   9.925  69.312  1.00  0.00    -0.110 Cl 
HETATM   16  C   UNL     1     -10.119  12.605  66.680  1.00  0.00    -0.248 A  
ENDBRANCH   9  10
ENDBRANCH   3   4
ENDBRANCH   2   3
TORSDOF 3
ENDMDL
MODEL       11
REMARK 921   NORMALIZED FREE ENERGY PREDICTED BY IDOCK:   -4.79 KCAL/MOL
REMARK 922        TOTAL FREE ENERGY PREDICTED BY IDOCK:   -5.92 KCAL/MOL
REMARK 923 INTER-LIGAND FREE ENERGY PREDICTED BY IDOCK:   -5.74 KCAL/MOL
REMARK 924 INTRA-LIGAND FREE ENERGY PREDICTED BY IDOCK:   -0.18 KCAL/MOL
REMARK 927      BINDING AFFINITY PREDICTED BY RF-SCORE:    0.00 PKD
ROOT
HETATM    1  C   UNL     1     -12.204  12.783  63.426  1.00  0.00    -0.594 C  
HETATM    2  C   UNL     1     -12.513  12.736  64.917  1.00  0.00    -0.497 C  
ENDROOT
BRANCH   2   3
HETATM    3  O   UNL     1     -11.337  13.121  65.646  1.00  0.00    -0.296 OA 
BRANCH   3   4
HETATM    4  C   UNL     1     -11.503  14.126  66.564  1.00  0.00    -0.358 C  
HETATM    5  O   UNL     1     -12.277  14.062  67.511  1.00  0.00    -0.366 OA 
HETATM    6  C   UNL     1     -10.459  15.249  66.310  1.00  0.00    -0.307 C  
HETATM    7  C   UNL     1     -10.711  15.826  64.913  1.00  0.00    -0.385 C  
HETATM    8  C   UNL     1      -9.106  14.531  66.456  1.00  0.00    -0.248 C  
HETATM    9  O   UNL     1     -10.688  16.237  67.335  1.00  0.00    -0.319 OA 
BRANCH   9  10
HETATM   10  C   UNL     1     -10.044  17.437  67.382  1.00  0.00    -0.321 A  
HETATM   11  C   UNL     1      -8.721  17.379  67.830  1.00  0.00    -0.237 A  
HETATM   12  C   UNL     1      -7.915  18.531  67.857  1.00  0.00    -0.270 A  
HETATM   13  C   UNL     1      -8.433  19.744  67.427  1.00  0.00    -0.314 A  
HETATM   14  C   UNL     1      -9.743  19.814  66.969  1.00  0.00    -0.503 A  
HETATM   15 CL   UNL     1      -7.457  21.158  67.432  1.00  0.00    -0.287 Cl 
HETATM   16  C   UNL     1     -10.540  18.664  66.950  1.00  0.00    -0.437 A  
ENDBRANCH   9  10
ENDBRANCH   3   4
ENDBRANCH   2   3
TORSDOF 3
ENDMDL
MODEL       12
REMARK 921   NORMALIZED FREE ENERGY PREDICTED BY IDOCK:   -4.73 KCAL/MOL
REMARK 922        TOTAL FREE ENERGY PREDICTED BY IDOCK:   -5.86 KCAL/MOL
REMARK 923 INTER-LIGAND FREE ENERGY PREDICTED BY IDOCK:   -5.79 KCAL/MOL
REMARK 924 INTRA-LIGAND FREE ENERGY PREDICTED BY IDOCK:   -0.07 KCAL/MOL
REMARK 927      BINDING AFFINITY PREDICTED BY RF-SCORE:    0.00 PKD
ROOT
HETATM    1  C   UNL     1     -12.690  16.033  73.976  1.00  0.00    -0.682 C  
HETATM    2  C   UNL     1     -12.966  14.843  73.067  1.00  0.00    -0.499 C  
ENDROOT
BRANCH   2   3
HETATM    3  O   UNL     1     -12.031  14.866  71.977  1.00  0.00    -0.360 OA 
BRANCH   3   4
HETATM    4  C   UNL     1     -12.564  15.100  70.735  1.00  0.00    -0.393 C  
HETATM    5  O   UNL     1     -13.554  15.792  70.538  1.00  0.00    -0.298 OA 
HETATM    6  C   UNL     1     -11.633  14.503  69.643  1.00  0.00    -0.299 C  
HETATM    7  C   UNL     1     -11.558  12.988  69.858  1.00  0.00    -0.249 C  
HETATM    8  C   UNL     1     -10.295  15.232  69.861  1.00  0.00    -0.258 C  
HETATM    9  O   UNL     1     -12.252  14.823  68.381  1.00  0.00    -0.209 OA 
BRANCH   9  10
HETATM   10  C   UNL     1     -11.796  14.369  67.180  1.00  0.00    -0.410 A  
HETATM   11  C   UNL     1     -12.160  13.055  66.870  1.00  0.00    -0.349 A  
HETATM   12  C   UNL     1     -11.822  12.484  65.631  1.00  0.00    -0.493 A  
HETATM   13  C   UNL     1     -11.122  13.233  64.695  1.00  0.00    -0.357 A  
HETATM   14  C   UNL     1     -10.763  14.543  64.986  1.00  0.00    -0.444 A  
HETATM   15 CL   UNL     1     -10.719  12.559  63.167  1.00  0.00    -0.179 Cl 
HETATM   16  C   UNL     1     -11.100  15.102  66.224  1.00  0.00    -0.309 A  
ENDBRANCH   9  10
ENDBRANCH   3   4
ENDBRANCH   2   3
TORSDOF 3
ENDMDL
MODEL       13
REMARK 921   NORMALIZED FREE ENERGY PREDICTED BY IDOCK:   -4.69 KCAL/MOL
REMARK 922        TOTAL FREE ENERGY PREDICTED BY IDOCK:   -5.81 KCAL/MOL
REMARK 923 INTER-LIGAND FREE ENERGY PREDICTED BY IDOCK:   -5.54 KCAL/MOL
REMARK 924 INTRA-LIGAND FREE ENERGY PREDICTED BY IDOCK:   -0.27 KCAL/MOL
REMARK 927      BINDING AFFINITY PREDICTED BY RF-SCORE:    0.00 PKD
ROOT
HETATM    1  C   UNL     1     -11.464  10.983  69.191  1.00  0.00    -0.370 C  
HETATM    2  C   UNL     1     -11.659  11.849  67.954  1.00  0.00    -0.323 C  
ENDROOT
BRANCH   2   3
HETATM    3  O   UNL     1     -12.015  13.177  68.370  1.00  0.00    -0.341 OA 
BRANCH   3   4
HETATM    4  C   UNL     1     -11.816  14.169  67.443  1.00  0.00    -0.413 C  
HETATM    5  O   UNL     1     -12.358  14.194  66.346  1.00  0.00    -0.460 OA 
HETATM    6  C   UNL     1     -10.954  15.303  68.064  1.00  0.00    -0.299 C  
HETATM    7  C   UNL     1      -9.590  14.713  68.439  1.00  0.00    -0.217 C  
HETATM    8  C   UNL     1     -11.783  15.777  69.271  1.00  0.00    -0.384 C  
HETATM    9  O   UNL     1     -10.827  16.306  67.037  1.00  0.00    -0.283 OA 
BRANCH   9  10
HETATM   10  C   UNL     1     -10.041  17.413  67.158  1.00  0.00    -0.307 A  
HETATM   11  C   UNL     1      -8.808  17.335  66.501  1.00  0.00    -0.290 A  
HETATM   12  C   UNL     1      -7.930  18.433  66.478  1.00  0.00    -0.294 A  
HETATM   13  C   UNL     1      -8.289  19.616  67.109  1.00  0.00    -0.298 A  
HETATM   14  C   UNL     1      -9.514  19.710  67.757  1.00  0.00    -0.446 A  
HETATM   15 CL   UNL     1      -7.238  20.974  67.074  1.00  0.00    -0.360 Cl 
HETATM   16  C   UNL     1     -10.381  18.611  67.778  1.00  0.00    -0.454 A  
ENDBRANCH   9  10
ENDBRANCH   3   4
ENDBRANCH   2   3
TORSDOF 3
ENDMDL
MODEL       14
REMARK 921   NORMALIZED FREE ENERGY PREDICTED BY IDOCK:   -4.64 KCAL/MOL
REMARK 922        TOTAL FREE ENERGY PREDICTED BY IDOCK:   -5.75 KCAL/MOL
REMARK 923 INTER-LIGAND FREE ENERGY PREDICTED BY IDOCK:   -5.43 KCAL/MOL
REMARK 924 INTRA-LIGAND FREE ENERGY PREDICTED BY IDOCK:   -0.32 KCAL/MOL
REMARK 927      BINDING AFFINITY PREDICTED BY RF-SCORE:    0.00 PKD
ROOT
HETATM    1  C   UNL     1      -8.889   9.500  63.446  1.00  0.00    -0.236 C  
HETATM    2  C   UNL     1      -9.909  10.607  63.679  1.00  0.00    -0.333 C  
ENDROOT
BRANCH   2   3
HETATM    3  O   UNL     1     -10.199  10.681  65.083  1.00  0.00    -0.296 OA 
BRANCH   3   4
HETATM    4  C   UNL     1     -11.027  11.704  65.471  1.00  0.00    -0.270 C  
HETATM    5  O   UNL     1     -11.881  12.200  64.748  1.00  0.00    -0.357 OA 
HETATM    6  C   UNL     1     -10.823  12.000  66.983  1.00  0.00    -0.253 C  
HETATM    7  C   UNL     1      -9.372  12.448  67.189  1.00  0.00    -0.199 C  
HETATM    8  C   UNL     1     -11.168  10.666  67.669  1.00  0.00    -0.361 C  
HETATM    9  O   UNL     1     -11.749  13.056  67.305  1.00  0.00    -0.340 OA 
BRANCH   9  10
HETATM   10  C   UNL     1     -11.793  13.677  68.517  1.00  0.00    -0.371 A  
HETATM   11  C   UNL     1     -11.568  15.057  68.481  1.00  0.00    -0.348 A  
HETATM   12  C   UNL     1     -11.658  15.836  69.648  1.00  0.00    -0.363 A  
HETATM   13  C   UNL     1     -11.983  15.233  70.855  1.00  0.00    -0.342 A  
HETATM   14  C   UNL     1     -12.220  13.865  70.903  1.00  0.00    -0.436 A  
HETATM   15 CL   UNL     1     -12.120  16.171  72.287  1.00  0.00    -0.595 Cl 
HETATM   16  C   UNL     1     -12.123  13.096  69.738  1.00  0.00    -0.336 A  
ENDBRANCH   9  10
ENDBRANCH   3   4
ENDBRANCH   2   3
TORSDOF 3
ENDMDL
MODEL       15
REMARK 921   NORMALIZED FREE ENERGY PREDICTED BY IDOCK:   -4.63 KCAL/MOL
REMARK 922        TOTAL FREE ENERGY PREDICTED BY IDOCK:   -5.74 KCAL/MOL
REMARK 923 INTER-LIGAND FREE ENERGY PREDICTED BY IDOCK:   -5.62 KCAL/MOL
REMARK 924 INTRA-LIGAND FREE ENERGY PREDICTED BY IDOCK:   -0.12 KCAL/MOL
REMARK 927      BINDING AFFINITY PREDICTED BY RF-SCORE:    0.00 PKD
ROOT
HETATM    1  C   UNL     1     -10.399   9.444  68.778  1.00  0.00    -0.230 C  
HETATM    2  C   UNL     1     -10.843  10.228  67.550  1.00  0.00    -0.298 C  
ENDROOT
BRANCH   2   3
HETATM    3  O   UNL     1     -11.685  11.311  67.973  1.00  0.00    -0.501 OA 
BRANCH   3   4
HETATM    4  C   UNL     1     -11.719  12.403  67.143  1.00  0.00    -0.345 C  
HETATM    5  O   UNL     1     -12.216  12.393  66.025  1.00  0.00    -0.636 OA 
HETATM    6  C   UNL     1     -11.194  13.655  67.900  1.00  0.00    -0.274 C  
HETATM    7  C   UNL     1      -9.737  13.395  68.297  1.00  0.00    -0.226 C  
HETATM    8  C   UNL     1     -12.153  13.790  69.097  1.00  0.00    -0.374 C  
HETATM    9  O   UNL     1     -11.297  14.749  66.968  1.00  0.00    -0.338 OA 
BRANCH   9  10
HETATM   10  C   UNL     1     -10.823  16.002  67.221  1.00  0.00    -0.255 A  
HETATM   11  C   UNL     1     -10.264  16.655  66.118  1.00  0.00    -0.360 A  
HETATM   12  C   UNL     1      -9.806  17.980  66.217  1.00  0.00    -0.310 A  
HETATM   13  C   UNL     1      -9.913  18.657  67.423  1.00  0.00    -0.332 A  
HETATM   14  C   UNL     1     -10.476  18.025  68.525  1.00  0.00    -0.291 A  
HETATM   15 CL   UNL     1      -9.379  20.285  67.558  1.00  0.00    -0.502 Cl 
HETATM   16  C   UNL     1     -10.925  16.704  68.418  1.00  0.00    -0.345 A  
ENDBRANCH   9  10
ENDBRANCH   3   4
ENDBRANCH   2   3
TORSDOF 3
ENDMDL
MODEL       16
REMARK 921   NORMALIZED FREE ENERGY PREDICTED BY IDOCK:   -4.63 KCAL/MOL
REMARK 922        TOTAL FREE ENERGY PREDICTED BY IDOCK:   -5.73 KCAL/MOL
REMARK 923 INTER-LIGAND FREE ENERGY PREDICTED BY IDOCK:   -5.35 KCAL/MOL
REMARK 924 INTRA-LIGAND FREE ENERGY PREDICTED BY IDOCK:   -0.38 KCAL/MOL
REMARK 927      BINDING AFFINITY PREDICTED BY RF-SCORE:    0.00 PKD
ROOT
HETATM    1  C   UNL     1     -10.448   4.251  72.790  1.00  0.00    -0.249 C  
HETATM    2  C   UNL     1     -10.230   4.713  71.355  1.00  0.00    -0.141 C  
ENDROOT
BRANCH   2   3
HETATM    3  O   UNL     1      -9.904   6.111  71.364  1.00  0.00    -0.173 OA 
BRANCH   3   4
HETATM    4  C   UNL     1     -10.754   6.929  70.663  1.00  0.00    -0.236 C  
HETATM    5  O   UNL     1     -11.384   6.570  69.676  1.00  0.00    -0.368 OA 
HETATM    6  C   UNL     1     -10.908   8.286  71.404  1.00  0.00    -0.239 C  
HETATM    7  C   UNL     1      -9.531   8.956  71.462  1.00  0.00    -0.347 C  
HETATM    8  C   UNL     1     -11.469   7.890  72.781  1.00  0.00    -0.428 C  
HETATM    9  O   UNL     1     -11.835   9.060  70.617  1.00  0.00    -0.255 OA 
BRANCH   9  10
HETATM   10  C   UNL     1     -12.143  10.361  70.878  1.00  0.00    -0.374 A  
HETATM   11  C   UNL     1     -11.687  11.278  69.926  1.00  0.00    -0.430 A  
HETATM   12  C   UNL     1     -11.997  12.645  70.030  1.00  0.00    -0.377 A  
HETATM   13  C   UNL     1     -12.774  13.096  71.088  1.00  0.00    -0.300 A  
HETATM   14  C   UNL     1     -13.243  12.195  72.036  1.00  0.00    -0.496 A  
HETATM   15 CL   UNL     1     -13.183  14.760  71.219  1.00  0.00    -0.417 Cl 
HETATM   16  C   UNL     1     -12.925  10.837  71.927  1.00  0.00    -0.524 A  
ENDBRANCH   9  10
ENDBRANCH   3   4
ENDBRANCH   2   3
TORSDOF 3
ENDMDL
MODEL       17
REMARK 921   NORMALIZED FREE ENERGY PREDICTED BY IDOCK:   -4.61 KCAL/MOL
REMARK 922        TOTAL FREE ENERGY PREDICTED BY IDOCK:   -5.71 KCAL/MOL
REMARK 923 INTER-LIGAND FREE ENERGY PREDICTED BY IDOCK:   -5.66 KCAL/MOL
REMARK 924 INTRA-LIGAND FREE ENERGY PREDICTED BY IDOCK:   -0.05 KCAL/MOL
REMARK 927      BINDING AFFINITY PREDICTED BY RF-SCORE:    0.00 PKD
ROOT
HETATM    1  C   UNL     1     -10.742  19.436  67.141  1.00  0.00    -0.593 C  
HETATM    2  C   UNL     1     -10.221  18.442  66.111  1.00  0.00    -0.389 C  
ENDROOT
BRANCH   2   3
HETATM    3  O   UNL     1      -9.769  17.262  66.794  1.00  0.00    -0.258 OA 
BRANCH   3   4
HETATM    4  C   UNL     1     -10.549  16.144  66.639  1.00  0.00    -0.274 C  
HETATM    5  O   UNL     1     -11.033  15.795  65.570  1.00  0.00    -0.322 OA 
HETATM    6  C   UNL     1     -10.571  15.332  67.963  1.00  0.00    -0.261 C  
HETATM    7  C   UNL     1     -11.199  16.210  69.050  1.00  0.00    -0.347 C  
HETATM    8  C   UNL     1      -9.091  14.992  68.211  1.00  0.00    -0.182 C  
HETATM    9  O   UNL     1     -11.380  14.169  67.697  1.00  0.00    -0.291 OA 
BRANCH   9  10
HETATM   10  C   UNL     1     -11.736  13.263  68.650  1.00  0.00    -0.341 A  
HETATM   11  C   UNL     1     -11.566  11.924  68.285  1.00  0.00    -0.390 A  
HETATM   12  C   UNL     1     -11.822  10.886  69.198  1.00  0.00    -0.389 A  
HETATM   13  C   UNL     1     -12.242  11.190  70.485  1.00  0.00    -0.384 A  
HETATM   14  C   UNL     1     -12.405  12.516  70.866  1.00  0.00    -0.349 A  
HETATM   15 CL   UNL     1     -12.538   9.936  71.622  1.00  0.00    -0.486 Cl 
HETATM   16  C   UNL     1     -12.153  13.543  69.948  1.00  0.00    -0.408 A  
ENDBRANCH   9  10
ENDBRANCH   3   4
ENDBRANCH   2   3
TORSDOF 3
ENDMDL
MODEL       18
REMARK 921   NORMALIZED FREE ENERGY PREDICTED BY IDOCK:   -4.56 KCAL/MOL
REMARK 922        TOTAL FREE ENERGY PREDICTED BY IDOCK:   -5.66 KCAL/MOL
REMARK 923 INTER-LIGAND FREE ENERGY PREDICTED BY IDOCK:   -5.68 KCAL/MOL
REMARK 924 INTRA-LIGAND FREE ENERGY PREDICTED BY IDOCK:    0.03 KCAL/MOL
REMARK 927      BINDING AFFINITY PREDICTED BY RF-SCORE:    0.00 PKD
ROOT
HETATM    1  C   UNL     1      -8.275  16.710  66.455  1.00  0.00    -0.330 C  
HETATM    2  C   UNL     1      -9.722  17.019  66.092  1.00  0.00    -0.261 C  
ENDROOT
BRANCH   2   3
HETATM    3  O   UNL     1     -10.519  15.848  66.332  1.00  0.00    -0.296 OA 
BRANCH   3   4
HETATM    4  C   UNL     1     -10.993  15.697  67.610  1.00  0.00    -0.315 C  
HETATM    5  O   UNL     1     -11.284  16.633  68.344  1.00  0.00    -0.357 OA 
HETATM    6  C   UNL     1     -11.252  14.192  67.900  1.00  0.00    -0.279 C  
HETATM    7  C   UNL     1      -9.916  13.449  67.789  1.00  0.00    -0.233 C  
HETATM    8  C   UNL     1     -12.284  13.785  66.833  1.00  0.00    -0.408 C  
HETATM    9  O   UNL     1     -11.774  14.135  69.242  1.00  0.00    -0.279 OA 
BRANCH   9  10
HETATM   10  C   UNL     1     -12.018  12.971  69.907  1.00  0.00    -0.311 A  
HETATM   11  C   UNL     1     -12.700  13.116  71.119  1.00  0.00    -0.386 A  
HETATM   12  C   UNL     1     -13.084  11.993  71.873  1.00  0.00    -0.475 A  
HETATM   13  C   UNL     1     -12.792  10.718  71.407  1.00  0.00    -0.452 A  
HETATM   14  C   UNL     1     -12.125  10.559  70.199  1.00  0.00    -0.380 A  
HETATM   15 CL   UNL     1     -13.273   9.333  72.303  1.00  0.00    -0.510 Cl 
HETATM   16  C   UNL     1     -11.742  11.683  69.458  1.00  0.00    -0.410 A  
ENDBRANCH   9  10
ENDBRANCH   3   4
ENDBRANCH   2   3
TORSDOF 3
ENDMDL
MODEL       19
REMARK 921   NORMALIZED FREE ENERGY PREDICTED BY IDOCK:   -4.56 KCAL/MOL
REMARK 922        TOTAL FREE ENERGY PREDICTED BY IDOCK:   -5.66 KCAL/MOL
REMARK 923 INTER-LIGAND FREE ENERGY PREDICTED BY IDOCK:   -5.53 KCAL/MOL
REMARK 924 INTRA-LIGAND FREE ENERGY PREDICTED BY IDOCK:   -0.12 KCAL/MOL
REMARK 927      BINDING AFFINITY PREDICTED BY RF-SCORE:    0.00 PKD
ROOT
HETATM    1  C   UNL     1     -10.191   5.642  68.449  1.00  0.00    -0.247 C  
HETATM    2  C   UNL     1     -10.615   5.436  69.897  1.00  0.00    -0.281 C  
ENDROOT
BRANCH   2   3
HETATM    3  O   UNL     1     -10.496   6.685  70.596  1.00  0.00    -0.209 OA 
BRANCH   3   4
HETATM    4  C   UNL     1     -11.634   7.448  70.656  1.00  0.00    -0.268 C  
HETATM    5  O   UNL     1     -12.763   6.983  70.748  1.00  0.00    -0.282 OA 
HETATM    6  C   UNL     1     -11.254   8.952  70.755  1.00  0.00    -0.272 C  
HETATM    7  C   UNL     1     -10.483   9.333  69.487  1.00  0.00    -0.229 C  
HETATM    8  C   UNL     1     -10.417   9.034  72.044  1.00  0.00    -0.309 C  
HETATM    9  O   UNL     1     -12.502   9.667  70.845  1.00  0.00    -0.293 OA 
BRANCH   9  10
HETATM   10  C   UNL     1     -12.594  11.027  70.832  1.00  0.00    -0.391 A  
HETATM   11  C   UNL     1     -13.250  11.585  71.934  1.00  0.00    -0.479 A  
HETATM   12  C   UNL     1     -13.350  12.979  72.086  1.00  0.00    -0.622 A  
HETATM   13  C   UNL     1     -12.786  13.818  71.137  1.00  0.00    -0.362 A  
HETATM   14  C   UNL     1     -12.121  13.278  70.043  1.00  0.00    -0.385 A  
HETATM   15 CL   UNL     1     -12.879  15.524  71.318  1.00  0.00    -0.503 Cl 
HETATM   16  C   UNL     1     -12.030  11.889  69.896  1.00  0.00    -0.398 A  
ENDBRANCH   9  10
ENDBRANCH   3   4
ENDBRANCH   2   3
TORSDOF 3
ENDMDL
MODEL       20
REMARK 921   NORMALIZED FREE ENERGY PREDICTED BY IDOCK:   -4.50 KCAL/MOL
REMARK 922        TOTAL FREE ENERGY PREDICTED BY IDOCK:   -5.58 KCAL/MOL
REMARK 923 INTER-LIGAND FREE ENERGY PREDICTED BY IDOCK:   -5.23 KCAL/MOL
REMARK 924 INTRA-LIGAND FREE ENERGY PREDICTED BY IDOCK:   -0.35 KCAL/MOL
REMARK 927      BINDING AFFINITY PREDICTED BY RF-SCORE:    0.00 PKD
ROOT
HETATM    1  C   UNL     1      -9.938  10.855  63.506  1.00  0.00    -0.419 C  
HETATM    2  C   UNL     1     -10.156  10.455  64.959  1.00  0.00    -0.309 C  
ENDROOT
BRANCH   2   3
HETATM    3  O   UNL     1     -10.808  11.535  65.644  1.00  0.00    -0.276 OA 
BRANCH   3   4
HETATM    4  C   UNL     1      -9.981  12.469  66.215  1.00  0.00    -0.252 C  
HETATM    5  O   UNL     1      -8.842  12.228  66.595  1.00  0.00    -0.204 OA 
HETATM    6  C   UNL     1     -10.645  13.872  66.145  1.00  0.00    -0.291 C  
HETATM    7  C   UNL     1     -11.947  13.824  66.951  1.00  0.00    -0.460 C  
HETATM    8  C   UNL     1     -10.851  14.106  64.638  1.00  0.00    -0.401 C  
HETATM    9  O   UNL     1      -9.697  14.785  66.734  1.00  0.00    -0.236 OA 
BRANCH   9  10
HETATM   10  C   UNL     1      -9.961  16.102  66.963  1.00  0.00    -0.258 A  
HETATM   11  C   UNL     1      -9.849  16.502  68.299  1.00  0.00    -0.243 A  
HETATM   12  C   UNL     1     -10.019  17.848  68.667  1.00  0.00    -0.387 A  
HETATM   13  C   UNL     1     -10.296  18.799  67.695  1.00  0.00    -0.420 A  
HETATM   14  C   UNL     1     -10.400  18.417  66.363  1.00  0.00    -0.430 A  
HETATM   15 CL   UNL     1     -10.486  20.452  68.124  1.00  0.00    -0.305 Cl 
HETATM   16  C   UNL     1     -10.233  17.074  66.006  1.00  0.00    -0.337 A  
ENDBRANCH   9  10
ENDBRANCH   3   4
ENDBRANCH   2   3
TORSDOF 3
ENDMDL
MODEL       21
REMARK 921   NORMALIZED FREE ENERGY PREDICTED BY IDOCK:   -4.48 KCAL/MOL
REMARK 922        TOTAL FREE ENERGY PREDICTED BY IDOCK:   -5.56 KCAL/MOL
REMARK 923 INTER-LIGAND FREE ENERGY PREDICTED BY IDOCK:   -5.22 KCAL/MOL
REMARK 924 INTRA-LIGAND FREE ENERGY PREDICTED BY IDOCK:   -0.33 KCAL/MOL
REMARK 927      BINDING AFFINITY PREDICTED BY RF-SCORE:    0.00 PKD
ROOT
HETATM    1  C   UNL     1     -11.732  15.752  72.050  1.00  0.00    -0.572 C  
HETATM    2  C   UNL     1     -12.445  15.539  70.721  1.00  0.00    -0.440 C  
ENDROOT
BRANCH   2   3
HETATM    3  O   UNL     1     -11.483  15.119  69.742  1.00  0.00    -0.259 OA 
BRANCH   3   4
HETATM    4  C   UNL     1     -11.681  13.873  69.203  1.00  0.00    -0.338 C  
HETATM    5  O   UNL     1     -12.338  12.993  69.745  1.00  0.00    -0.205 OA 
HETATM    6  C   UNL     1     -11.096  13.823  67.764  1.00  0.00    -0.268 C  
HETATM    7  C   UNL     1      -9.588  14.076  67.854  1.00  0.00    -0.221 C  
HETATM    8  C   UNL     1     -11.871  14.922  67.015  1.00  0.00    -0.216 C  
HETATM    9  O   UNL     1     -11.378  12.498  67.272  1.00  0.00    -0.277 OA 
BRANCH   9  10
HETATM   10  C   UNL     1     -10.920  12.024  66.079  1.00  0.00    -0.304 A  
HETATM   11  C   UNL     1     -10.027  10.952  66.175  1.00  0.00    -0.282 A  
HETATM   12  C   UNL     1      -9.534  10.316  65.022  1.00  0.00    -0.314 A  
HETATM   13  C   UNL     1      -9.942  10.749  63.768  1.00  0.00    -0.351 A  
HETATM   14  C   UNL     1     -10.837  11.806  63.659  1.00  0.00    -0.508 A  
HETATM   15 CL   UNL     1      -9.368   9.970  62.349  1.00  0.00    -0.307 Cl 
HETATM   16  C   UNL     1     -11.319  12.437  64.811  1.00  0.00    -0.360 A  
ENDBRANCH   9  10
ENDBRANCH   3   4
ENDBRANCH   2   3
TORSDOF 3
ENDMDL
MODEL       22
REMARK 921   NORMALIZED FREE ENERGY PREDICTED BY IDOCK:   -4.45 KCAL/MOL
REMARK 922        TOTAL FREE ENERGY PREDICTED BY IDOCK:   -5.53 KCAL/MOL
REMARK 923 INTER-LIGAND FREE ENERGY PREDICTED BY IDOCK:   -5.24 KCAL/MOL
REMARK 924 INTRA-LIGAND FREE ENERGY PREDICTED BY IDOCK:   -0.29 KCAL/MOL
REMARK 927      BINDING AFFINITY PREDICTED BY RF-SCORE:    0.00 PKD
ROOT
HETATM    1  C   UNL     1     -10.828   5.092  73.364  1.00  0.00    -0.359 C  
HETATM    2  C   UNL     1     -10.331   6.485  73.728  1.00  0.00    -0.326 C  
ENDROOT
BRANCH   2   3
HETATM    3  O   UNL     1     -11.143   7.458  73.052  1.00  0.00    -0.342 OA 
BRANCH   3   4
HETATM    4  C   UNL     1     -10.465   8.457  72.402  1.00  0.00    -0.332 C  
HETATM    5  O   UNL     1      -9.333   8.816  72.698  1.00  0.00    -0.300 OA 
HETATM    6  C   UNL     1     -11.278   8.925  71.163  1.00  0.00    -0.284 C  
HETATM    7  C   UNL     1     -12.614   9.489  71.656  1.00  0.00    -0.476 C  
HETATM    8  C   UNL     1     -11.414   7.650  70.311  1.00  0.00    -0.144 C  
HETATM    9  O   UNL     1     -10.479   9.944  70.531  1.00  0.00    -0.284 OA 
BRANCH   9  10
HETATM   10  C   UNL     1     -10.904  10.685  69.469  1.00  0.00    -0.259 A  
HETATM   11  C   UNL     1     -11.464  11.923  69.801  1.00  0.00    -0.303 A  
HETATM   12  C   UNL     1     -11.875  12.822  68.802  1.00  0.00    -0.346 A  
HETATM   13  C   UNL     1     -11.719  12.485  67.465  1.00  0.00    -0.374 A  
HETATM   14  C   UNL     1     -11.155  11.263  67.121  1.00  0.00    -0.364 A  
HETATM   15 CL   UNL     1     -12.196  13.580  66.230  1.00  0.00    -0.469 Cl 
HETATM   16  C   UNL     1     -10.753  10.372  68.122  1.00  0.00    -0.277 A  
ENDBRANCH   9  10
ENDBRANCH   3   4
ENDBRANCH   2   3
TORSDOF 3
ENDMDL
MODEL       23
REMARK 921   NORMALIZED FREE ENERGY PREDICTED BY IDOCK:   -4.43 KCAL/MOL
REMARK 922        TOTAL FREE ENERGY PREDICTED BY IDOCK:   -5.51 KCAL/MOL
REMARK 923 INTER-LIGAND FREE ENERGY PREDICTED BY IDOCK:   -5.14 KCAL/MOL
REMARK 924 INTRA-LIGAND FREE ENERGY PREDICTED BY IDOCK:   -0.37 KCAL/MOL
REMARK 927      BINDING AFFINITY PREDICTED BY RF-SCORE:    0.00 PKD
ROOT
HETATM    1  C   UNL     1     -10.132   3.479  72.555  1.00  0.00    -0.235 C  
HETATM    2  C   UNL     1     -11.088   4.220  73.480  1.00  0.00    -0.290 C  
ENDROOT
BRANCH   2   3
HETATM    3  O   UNL     1     -11.776   5.228  72.723  1.00  0.00    -0.275 OA 
BRANCH   3   4
HETATM    4  C   UNL     1     -11.287   6.505  72.841  1.00  0.00    -0.137 C  
HETATM    5  O   UNL     1     -10.542   6.868  73.742  1.00  0.00    -0.360 OA 
HETATM    6  C   UNL     1     -11.685   7.338  71.591  1.00  0.00    -0.284 C  
HETATM    7  C   UNL     1     -13.214   7.410  71.534  1.00  0.00    -0.426 C  
HETATM    8  C   UNL     1     -11.051   6.566  70.419  1.00  0.00    -0.389 C  
HETATM    9  O   UNL     1     -11.105   8.642  71.787  1.00  0.00    -0.278 OA 
BRANCH   9  10
HETATM   10  C   UNL     1     -11.327   9.699  70.957  1.00  0.00    -0.374 A  
HETATM   11  C   UNL     1     -12.248  10.638  71.431  1.00  0.00    -0.405 A  
HETATM   12  C   UNL     1     -12.517  11.816  70.711  1.00  0.00    -0.405 A  
HETATM   13  C   UNL     1     -11.856  12.058  69.516  1.00  0.00    -0.326 A  
HETATM   14  C   UNL     1     -10.930  11.139  69.038  1.00  0.00    -0.286 A  
HETATM   15 CL   UNL     1     -12.154  13.502  68.633  1.00  0.00    -0.364 Cl 
HETATM   16  C   UNL     1     -10.672   9.967  69.758  1.00  0.00    -0.304 A  
ENDBRANCH   9  10
ENDBRANCH   3   4
ENDBRANCH   2   3
TORSDOF 3
ENDMDL
MODEL       24
REMARK 921   NORMALIZED FREE ENERGY PREDICTED BY IDOCK:   -4.41 KCAL/MOL
REMARK 922        TOTAL FREE ENERGY PREDICTED BY IDOCK:   -5.48 KCAL/MOL
REMARK 923 INTER-LIGAND FREE ENERGY PREDICTED BY IDOCK:   -5.46 KCAL/MOL
REMARK 924 INTRA-LIGAND FREE ENERGY PREDICTED BY IDOCK:   -0.02 KCAL/MOL
REMARK 927      BINDING AFFINITY PREDICTED BY RF-SCORE:    0.00 PKD
ROOT
HETATM    1  C   UNL     1      -9.933   9.704  65.835  1.00  0.00    -0.351 C  
HETATM    2  C   UNL     1      -9.679  10.920  64.953  1.00  0.00    -0.266 C  
ENDROOT
BRANCH   2   3
HETATM    3  O   UNL     1     -10.454  12.022  65.450  1.00  0.00    -0.255 OA 
BRANCH   3   4
HETATM    4  C   UNL     1      -9.968  12.637  66.577  1.00  0.00    -0.251 C  
HETATM    5  O   UNL     1      -8.790  12.924  66.741  1.00  0.00    -0.209 OA 
HETATM    6  C   UNL     1     -11.148  13.045  67.502  1.00  0.00    -0.268 C  
HETATM    7  C   UNL     1     -11.884  11.771  67.927  1.00  0.00    -0.289 C  
HETATM    8  C   UNL     1     -11.990  13.992  66.628  1.00  0.00    -0.473 C  
HETATM    9  O   UNL     1     -10.548  13.707  68.634  1.00  0.00    -0.244 OA 
BRANCH   9  10
HETATM   10  C   UNL     1     -11.250  14.113  69.729  1.00  0.00    -0.152 A  
HETATM   11  C   UNL     1     -10.998  15.427  70.137  1.00  0.00    -0.327 A  
HETATM   12  C   UNL     1     -11.708  16.001  71.206  1.00  0.00    -0.516 A  
HETATM   13  C   UNL     1     -12.679  15.260  71.865  1.00  0.00    -0.361 A  
HETATM   14  C   UNL     1     -12.946  13.957  71.464  1.00  0.00    -0.436 A  
HETATM   15 CL   UNL     1     -13.572  15.952  73.160  1.00  0.00    -0.649 Cl 
HETATM   16  C   UNL     1     -12.232  13.392  70.402  1.00  0.00    -0.415 A  
ENDBRANCH   9  10
ENDBRANCH   3   4
ENDBRANCH   2   3
TORSDOF 3
ENDMDL
MODEL       25
REMARK 921   NORMALIZED FREE ENERGY PREDICTED BY IDOCK:   -4.36 KCAL/MOL
REMARK 922        TOTAL FREE ENERGY PREDICTED BY IDOCK:   -5.43 KCAL/MOL
REMARK 923 INTER-LIGAND FREE ENERGY PREDICTED BY IDOCK:   -5.27 KCAL/MOL
REMARK 924 INTRA-LIGAND FREE ENERGY PREDICTED BY IDOCK:   -0.16 KCAL/MOL
REMARK 927      BINDING AFFINITY PREDICTED BY RF-SCORE:    0.00 PKD
ROOT
HETATM    1  C   UNL     1     -12.426  11.725  70.877  1.00  0.00    -0.416 C  
HETATM    2  C   UNL     1     -12.632  13.230  70.997  1.00  0.00    -0.324 C  
ENDROOT
BRANCH   2   3
HETATM    3  O   UNL     1     -12.086  13.867  69.832  1.00  0.00    -0.308 OA 
BRANCH   3   4
HETATM    4  C   UNL     1     -11.977  15.233  69.892  1.00  0.00    -0.343 C  
HETATM    5  O   UNL     1     -12.538  15.925  70.731  1.00  0.00    -0.411 OA 
HETATM    6  C   UNL     1     -10.923  15.721  68.859  1.00  0.00    -0.283 C  
HETATM    7  C   UNL     1     -11.414  15.337  67.459  1.00  0.00    -0.271 C  
HETATM    8  C   UNL     1      -9.630  15.004  69.286  1.00  0.00    -0.181 C  
HETATM    9  O   UNL     1     -10.853  17.152  69.016  1.00  0.00    -0.274 OA 
BRANCH   9  10
HETATM   10  C   UNL     1     -10.120  17.965  68.204  1.00  0.00    -0.366 A  
HETATM   11  C   UNL     1      -8.752  18.005  68.489  1.00  0.00    -0.304 A  
HETATM   12  C   UNL     1      -7.866  18.743  67.684  1.00  0.00    -0.257 A  
HETATM   13  C   UNL     1      -8.351  19.438  66.585  1.00  0.00    -0.310 A  
HETATM   14  C   UNL     1      -9.706  19.398  66.283  1.00  0.00    -0.455 A  
HETATM   15 CL   UNL     1      -7.281  20.327  65.577  1.00  0.00    -0.294 Cl 
HETATM   16  C   UNL     1     -10.582  18.665  67.093  1.00  0.00    -0.468 A  
ENDBRANCH   9  10
ENDBRANCH   3   4
ENDBRANCH   2   3
TORSDOF 3
ENDMDL
MODEL       26
REMARK 921   NORMALIZED FREE ENERGY PREDICTED BY IDOCK:   -4.36 KCAL/MOL
REMARK 922        TOTAL FREE ENERGY PREDICTED BY IDOCK:   -5.42 KCAL/MOL
REMARK 923 INTER-LIGAND FREE ENERGY PREDICTED BY IDOCK:   -5.00 KCAL/MOL
REMARK 924 INTRA-LIGAND FREE ENERGY PREDICTED BY IDOCK:   -0.41 KCAL/MOL
REMARK 927      BINDING AFFINITY PREDICTED BY RF-SCORE:    0.00 PKD
ROOT
HETATM    1  C   UNL     1      -8.757  18.761  68.439  1.00  0.00    -0.369 C  
HETATM    2  C   UNL     1     -10.261  18.527  68.413  1.00  0.00    -0.372 C  
ENDROOT
BRANCH   2   3
HETATM    3  O   UNL     1     -10.595  17.792  67.225  1.00  0.00    -0.362 OA 
BRANCH   3   4
HETATM    4  C   UNL     1     -10.854  16.456  67.399  1.00  0.00    -0.219 C  
HETATM    5  O   UNL     1     -11.496  16.004  68.338  1.00  0.00    -0.369 OA 
HETATM    6  C   UNL     1     -10.360  15.660  66.159  1.00  0.00    -0.316 C  
HETATM    7  C   UNL     1      -8.844  15.847  66.045  1.00  0.00    -0.298 C  
HETATM    8  C   UNL     1     -11.155  16.270  64.990  1.00  0.00    -0.262 C  
HETATM    9  O   UNL     1     -10.702  14.283  66.416  1.00  0.00    -0.291 OA 
BRANCH   9  10
HETATM   10  C   UNL     1     -10.329  13.251  65.608  1.00  0.00    -0.287 A  
HETATM   11  C   UNL     1      -9.550  12.269  66.229  1.00  0.00    -0.248 A  
HETATM   12  C   UNL     1      -9.158  11.110  65.535  1.00  0.00    -0.211 A  
HETATM   13  C   UNL     1      -9.553  10.930  64.217  1.00  0.00    -0.272 A  
HETATM   14  C   UNL     1     -10.336  11.893  63.591  1.00  0.00    -0.477 A  
HETATM   15 CL   UNL     1      -9.103   9.511  63.359  1.00  0.00    -0.220 Cl 
HETATM   16  C   UNL     1     -10.718  13.045  64.288  1.00  0.00    -0.430 A  
ENDBRANCH   9  10
ENDBRANCH   3   4
ENDBRANCH   2   3
TORSDOF 3
ENDMDL
MODEL       27
REMARK 921   NORMALIZED FREE ENERGY PREDICTED BY IDOCK:   -4.35 KCAL/MOL
REMARK 922        TOTAL FREE ENERGY PREDICTED BY IDOCK:   -5.41 KCAL/MOL
REMARK 923 INTER-LIGAND FREE ENERGY PREDICTED BY IDOCK:   -5.14 KCAL/MOL
REMARK 924 INTRA-LIGAND FREE ENERGY PREDICTED BY IDOCK:   -0.27 KCAL/MOL
REMARK 927      BINDING AFFINITY PREDICTED BY RF-SCORE:    0.00 PKD
ROOT
HETATM    1  C   UNL     1     -11.077  11.110  67.254  1.00  0.00    -0.366 C  
HETATM    2  C   UNL     1     -11.739  12.339  67.863  1.00  0.00    -0.347 C  
ENDROOT
BRANCH   2   3
HETATM    3  O   UNL     1     -11.677  13.416  66.916  1.00  0.00    -0.347 OA 
BRANCH   3   4
HETATM    4  C   UNL     1     -11.367  14.649  67.429  1.00  0.00    -0.356 C  
HETATM    5  O   UNL     1     -11.831  15.088  68.474  1.00  0.00    -0.331 OA 
HETATM    6  C   UNL     1     -10.238  15.302  66.584  1.00  0.00    -0.271 C  
HETATM    7  C   UNL     1     -10.762  15.492  65.156  1.00  0.00    -0.460 C  
HETATM    8  C   UNL     1      -9.072  14.304  66.694  1.00  0.00    -0.249 C  
HETATM    9  O   UNL     1      -9.959  16.569  67.213  1.00  0.00    -0.253 OA 
BRANCH   9  10
HETATM   10  C   UNL     1      -9.103  17.495  66.696  1.00  0.00    -0.269 A  
HETATM   11  C   UNL     1      -9.627  18.787  66.588  1.00  0.00    -0.357 A  
HETATM   12  C   UNL     1      -8.830  19.856  66.142  1.00  0.00    -0.358 A  
HETATM   13  C   UNL     1      -7.501  19.633  65.810  1.00  0.00    -0.290 A  
HETATM   14  C   UNL     1      -6.964  18.356  65.924  1.00  0.00    -0.306 A  
HETATM   15 CL   UNL     1      -6.506  20.931  65.285  1.00  0.00    -0.235 Cl 
HETATM   16  C   UNL     1      -7.766  17.297  66.363  1.00  0.00    -0.347 A  
ENDBRANCH   9  10
ENDBRANCH   3   4
ENDBRANCH   2   3
TORSDOF 3
ENDMDL
MODEL       28
REMARK 921   NORMALIZED FREE ENERGY PREDICTED BY IDOCK:   -4.30 KCAL/MOL
REMARK 922        TOTAL FREE ENERGY PREDICTED BY IDOCK:   -5.35 KCAL/MOL
REMARK 923 INTER-LIGAND FREE ENERGY PREDICTED BY IDOCK:   -4.99 KCAL/MOL
REMARK 924 INTRA-LIGAND FREE ENERGY PREDICTED BY IDOCK:   -0.36 KCAL/MOL
REMARK 927      BINDING AFFINITY PREDICTED BY RF-SCORE:    0.00 PKD
ROOT
HETATM    1  C   UNL     1      -9.840   9.378  66.190  1.00  0.00    -0.356 C  
HETATM    2  C   UNL     1     -10.069  10.312  65.009  1.00  0.00    -0.283 C  
ENDROOT
BRANCH   2   3
HETATM    3  O   UNL     1     -10.853  11.432  65.450  1.00  0.00    -0.281 OA 
BRANCH   3   4
HETATM    4  C   UNL     1     -10.446  12.662  65.001  1.00  0.00    -0.308 C  
HETATM    5  O   UNL     1     -10.362  12.962  63.817  1.00  0.00    -0.367 OA 
HETATM    6  C   UNL     1     -10.279  13.632  66.205  1.00  0.00    -0.304 C  
HETATM    7  C   UNL     1      -9.190  13.068  67.123  1.00  0.00    -0.226 C  
HETATM    8  C   UNL     1     -11.679  13.667  66.844  1.00  0.00    -0.423 C  
HETATM    9  O   UNL     1      -9.885  14.897  65.638  1.00  0.00    -0.328 OA 
BRANCH   9  10
HETATM   10  C   UNL     1      -9.528  15.979  66.385  1.00  0.00    -0.293 A  
HETATM   11  C   UNL     1      -8.201  16.392  66.229  1.00  0.00    -0.343 A  
HETATM   12  C   UNL     1      -7.719  17.540  66.882  1.00  0.00    -0.248 A  
HETATM   13  C   UNL     1      -8.571  18.283  67.688  1.00  0.00    -0.255 A  
HETATM   14  C   UNL     1      -9.894  17.890  67.843  1.00  0.00    -0.309 A  
HETATM   15 CL   UNL     1      -8.006  19.701  68.476  1.00  0.00    -0.372 Cl 
HETATM   16  C   UNL     1     -10.364  16.743  67.194  1.00  0.00    -0.297 A  
ENDBRANCH   9  10
ENDBRANCH   3   4
ENDBRANCH   2   3
TORSDOF 3
ENDMDL
MODEL       29
REMARK 921   NORMALIZED FREE ENERGY PREDICTED BY IDOCK:   -4.26 KCAL/MOL
REMARK 922        TOTAL FREE ENERGY PREDICTED BY IDOCK:   -5.30 KCAL/MOL
REMARK 923 INTER-LIGAND FREE ENERGY PREDICTED BY IDOCK:   -5.04 KCAL/MOL
REMARK 924 INTRA-LIGAND FREE ENERGY PREDICTED BY IDOCK:   -0.26 KCAL/MOL
REMARK 927      BINDING AFFINITY PREDICTED BY RF-SCORE:    0.00 PKD
ROOT
HETATM    1  C   UNL     1     -10.357  16.646  66.372  1.00  0.00    -0.310 C  
HETATM    2  C   UNL     1      -9.790  15.550  65.478  1.00  0.00    -0.313 C  
ENDROOT
BRANCH   2   3
HETATM    3  O   UNL     1     -10.433  14.309  65.803  1.00  0.00    -0.291 OA 
BRANCH   3   4
HETATM    4  C   UNL     1      -9.923  13.634  66.883  1.00  0.00    -0.260 C  
HETATM    5  O   UNL     1      -8.747  13.675  67.219  1.00  0.00    -0.199 OA 
HETATM    6  C   UNL     1     -11.080  12.969  67.682  1.00  0.00    -0.267 C  
HETATM    7  C   UNL     1     -11.772  11.957  66.763  1.00  0.00    -0.281 C  
HETATM    8  C   UNL     1     -11.972  14.155  68.090  1.00  0.00    -0.367 C  
HETATM    9  O   UNL     1     -10.457  12.318  68.806  1.00  0.00    -0.220 OA 
BRANCH   9  10
HETATM   10  C   UNL     1     -11.130  11.522  69.684  1.00  0.00    -0.143 A  
HETATM   11  C   UNL     1     -10.613  10.231  69.826  1.00  0.00    -0.312 A  
HETATM   12  C   UNL     1     -11.163   9.329  70.754  1.00  0.00    -0.351 A  
HETATM   13  C   UNL     1     -12.230   9.724  71.549  1.00  0.00    -0.406 A  
HETATM   14  C   UNL     1     -12.746  11.008  71.426  1.00  0.00    -0.534 A  
HETATM   15 CL   UNL     1     -12.901   8.643  72.704  1.00  0.00    -0.358 Cl 
HETATM   16  C   UNL     1     -12.196  11.897  70.497  1.00  0.00    -0.426 A  
ENDBRANCH   9  10
ENDBRANCH   3   4
ENDBRANCH   2   3
TORSDOF 3
ENDMDL
MODEL       30
REMARK 921   NORMALIZED FREE ENERGY PREDICTED BY IDOCK:   -4.25 KCAL/MOL
REMARK 922        TOTAL FREE ENERGY PREDICTED BY IDOCK:   -5.30 KCAL/MOL
REMARK 923 INTER-LIGAND FREE ENERGY PREDICTED BY IDOCK:   -5.14 KCAL/MOL
REMARK 924 INTRA-LIGAND FREE ENERGY PREDICTED BY IDOCK:   -0.16 KCAL/MOL
REMARK 927      BINDING AFFINITY PREDICTED BY RF-SCORE:    0.00 PKD
ROOT
HETATM    1  C   UNL     1     -10.505  19.530  66.114  1.00  0.00    -0.613 C  
HETATM    2  C   UNL     1     -10.546  18.594  67.314  1.00  0.00    -0.430 C  
ENDROOT
BRANCH   2   3
HETATM    3  O   UNL     1     -10.088  17.296  66.905  1.00  0.00    -0.284 OA 
BRANCH   3   4
HETATM    4  C   UNL     1     -10.730  16.227  67.476  1.00  0.00    -0.300 C  
HETATM    5  O   UNL     1     -11.638  16.333  68.291  1.00  0.00    -0.301 OA 
HETATM    6  C   UNL     1     -10.248  14.908  66.811  1.00  0.00    -0.259 C  
HETATM    7  C   UNL     1      -8.745  14.764  67.073  1.00  0.00    -0.258 C  
HETATM    8  C   UNL     1     -10.608  15.092  65.326  1.00  0.00    -0.432 C  
HETATM    9  O   UNL     1     -10.994  13.851  67.446  1.00  0.00    -0.280 OA 
BRANCH   9  10
HETATM   10  C   UNL     1     -10.772  12.527  67.216  1.00  0.00    -0.233 A  
HETATM   11  C   UNL     1     -10.960  11.696  68.325  1.00  0.00    -0.273 A  
HETATM   12  C   UNL     1     -10.838  10.300  68.211  1.00  0.00    -0.300 A  
HETATM   13  C   UNL     1     -10.534   9.732  66.982  1.00  0.00    -0.227 A  
HETATM   14  C   UNL     1     -10.354  10.545  65.870  1.00  0.00    -0.275 A  
HETATM   15 CL   UNL     1     -10.402   8.027  66.820  1.00  0.00    -0.391 Cl 
HETATM   16  C   UNL     1     -10.473  11.934  65.992  1.00  0.00    -0.282 A  
ENDBRANCH   9  10
ENDBRANCH   3   4
ENDBRANCH   2   3
TORSDOF 3
ENDMDL
MODEL       31
REMARK 921   NORMALIZED FREE ENERGY PREDICTED BY IDOCK:   -4.25 KCAL/MOL
REMARK 922        TOTAL FREE ENERGY PREDICTED BY IDOCK:   -5.30 KCAL/MOL
REMARK 923 INTER-LIGAND FREE ENERGY PREDICTED BY IDOCK:   -5.07 KCAL/MOL
REMARK 924 INTRA-LIGAND FREE ENERGY PREDICTED BY IDOCK:   -0.22 KCAL/MOL
REMARK 927      BINDING AFFINITY PREDICTED BY RF-SCORE:    0.00 PKD
ROOT
HETATM    1  C   UNL     1      -9.866   8.291  66.606  1.00  0.00    -0.337 C  
HETATM    2  C   UNL     1      -9.905   9.651  65.921  1.00  0.00    -0.288 C  
ENDROOT
BRANCH   2   3
HETATM    3  O   UNL     1     -10.794  10.511  66.652  1.00  0.00    -0.194 OA 
BRANCH   3   4
HETATM    4  C   UNL     1     -11.058  11.728  66.076  1.00  0.00    -0.312 C  
HETATM    5  O   UNL     1     -11.573  11.862  64.974  1.00  0.00    -0.298 OA 
HETATM    6  C   UNL     1     -10.762  12.866  67.093  1.00  0.00    -0.253 C  
HETATM    7  C   UNL     1      -9.272  12.812  67.447  1.00  0.00    -0.193 C  
HETATM    8  C   UNL     1     -11.697  12.554  68.275  1.00  0.00    -0.390 C  
HETATM    9  O   UNL     1     -11.097  14.093  66.416  1.00  0.00    -0.311 OA 
BRANCH   9  10
HETATM   10  C   UNL     1     -10.866  15.330  66.939  1.00  0.00    -0.317 A  
HETATM   11  C   UNL     1     -10.255  16.235  66.066  1.00  0.00    -0.376 A  
HETATM   12  C   UNL     1     -10.026  17.568  66.450  1.00  0.00    -0.330 A  
HETATM   13  C   UNL     1     -10.417  18.000  67.709  1.00  0.00    -0.408 A  
HETATM   14  C   UNL     1     -11.036  17.114  68.583  1.00  0.00    -0.171 A  
HETATM   15 CL   UNL     1     -10.166  19.631  68.187  1.00  0.00    -0.555 Cl 
HETATM   16  C   UNL     1     -11.255  15.788  68.195  1.00  0.00    -0.344 A  
ENDBRANCH   9  10
ENDBRANCH   3   4
ENDBRANCH   2   3
TORSDOF 3
ENDMDL
MODEL       32
REMARK 921   NORMALIZED FREE ENERGY PREDICTED BY IDOCK:   -4.23 KCAL/MOL
REMARK 922        TOTAL FREE ENERGY PREDICTED BY IDOCK:   -5.27 KCAL/MOL
REMARK 923 INTER-LIGAND FREE ENERGY PREDICTED BY IDOCK:   -4.86 KCAL/MOL
REMARK 924 INTRA-LIGAND FREE ENERGY PREDICTED BY IDOCK:   -0.42 KCAL/MOL
REMARK 927      BINDING AFFINITY PREDICTED BY RF-SCORE:    0.00 PKD
ROOT
HETATM    1  C   UNL     1     -11.393   6.460  69.760  1.00  0.00    -0.494 C  
HETATM    2  C   UNL     1     -10.861   7.329  70.893  1.00  0.00    -0.243 C  
ENDROOT
BRANCH   2   3
HETATM    3  O   UNL     1     -10.059   8.379  70.332  1.00  0.00    -0.184 OA 
BRANCH   3   4
HETATM    4  C   UNL     1     -10.637   9.622  70.298  1.00  0.00    -0.278 C  
HETATM    5  O   UNL     1     -11.328  10.077  71.200  1.00  0.00    -0.360 OA 
HETATM    6  C   UNL     1     -10.146  10.396  69.042  1.00  0.00    -0.213 C  
HETATM    7  C   UNL     1     -10.594   9.620  67.799  1.00  0.00    -0.320 C  
HETATM    8  C   UNL     1      -8.619  10.458  69.223  1.00  0.00    -0.159 C  
HETATM    9  O   UNL     1     -10.776  11.691  69.108  1.00  0.00    -0.208 OA 
BRANCH   9  10
HETATM   10  C   UNL     1     -10.685  12.624  68.119  1.00  0.00    -0.225 A  
HETATM   11  C   UNL     1     -11.884  12.894  67.451  1.00  0.00    -0.418 A  
HETATM   12  C   UNL     1     -11.952  13.889  66.460  1.00  0.00    -0.470 A  
HETATM   13  C   UNL     1     -10.818  14.622  66.141  1.00  0.00    -0.321 A  
HETATM   14  C   UNL     1      -9.623  14.372  66.804  1.00  0.00    -0.279 A  
HETATM   15 CL   UNL     1     -10.887  15.857  64.949  1.00  0.00    -0.470 Cl 
HETATM   16  C   UNL     1      -9.563  13.376  67.785  1.00  0.00    -0.213 A  
ENDBRANCH   9  10
ENDBRANCH   3   4
ENDBRANCH   2   3
TORSDOF 3
ENDMDL
MODEL       33
REMARK 921   NORMALIZED FREE ENERGY PREDICTED BY IDOCK:   -4.20 KCAL/MOL
REMARK 922        TOTAL FREE ENERGY PREDICTED BY IDOCK:   -5.24 KCAL/MOL
REMARK 923 INTER-LIGAND FREE ENERGY PREDICTED BY IDOCK:   -4.95 KCAL/MOL
REMARK 924 INTRA-LIGAND FREE ENERGY PREDICTED BY IDOCK:   -0.28 KCAL/MOL
REMARK 927      BINDING AFFINITY PREDICTED BY RF-SCORE:    0.00 PKD
ROOT
HETATM    1  C   UNL     1     -10.840   9.794  68.304  1.00  0.00    -0.256 C  
HETATM    2  C   UNL     1     -11.895  10.641  69.003  1.00  0.00    -0.185 C  
ENDROOT
BRANCH   2   3
HETATM    3  O   UNL     1     -12.160  11.804  68.203  1.00  0.00    -0.556 OA 
BRANCH   3   4
HETATM    4  C   UNL     1     -11.803  13.007  68.758  1.00  0.00    -0.317 C  
HETATM    5  O   UNL     1     -11.902  13.262  69.951  1.00  0.00    -0.312 OA 
HETATM    6  C   UNL     1     -11.116  13.897  67.685  1.00  0.00    -0.277 C  
HETATM    7  C   UNL     1     -12.129  14.163  66.567  1.00  0.00    -0.481 C  
HETATM    8  C   UNL     1      -9.899  13.065  67.242  1.00  0.00    -0.227 C  
HETATM    9  O   UNL     1     -10.750  15.115  68.363  1.00  0.00    -0.238 OA 
BRANCH   9  10
HETATM   10  C   UNL     1     -10.224  16.201  67.729  1.00  0.00    -0.267 A  
HETATM   11  C   UNL     1     -10.870  17.412  67.999  1.00  0.00    -0.281 A  
HETATM   12  C   UNL     1     -10.387  18.623  67.473  1.00  0.00    -0.453 A  
HETATM   13  C   UNL     1      -9.249  18.624  66.679  1.00  0.00    -0.321 A  
HETATM   14  C   UNL     1      -8.591  17.430  66.411  1.00  0.00    -0.282 A  
HETATM   15 CL   UNL     1      -8.631  20.096  66.045  1.00  0.00    -0.260 Cl 
HETATM   16  C   UNL     1      -9.081  16.228  66.935  1.00  0.00    -0.242 A  
ENDBRANCH   9  10
ENDBRANCH   3   4
ENDBRANCH   2   3
TORSDOF 3
ENDMDL
MODEL       34
REMARK 921   NORMALIZED FREE ENERGY PREDICTED BY IDOCK:   -4.19 KCAL/MOL
REMARK 922        TOTAL FREE ENERGY PREDICTED BY IDOCK:   -5.22 KCAL/MOL
REMARK 923 INTER-LIGAND FREE ENERGY PREDICTED BY IDOCK:   -4.93 KCAL/MOL
REMARK 924 INTRA-LIGAND FREE ENERGY PREDICTED BY IDOCK:   -0.29 KCAL/MOL
REMARK 927      BINDING AFFINITY PREDICTED BY RF-SCORE:    0.00 PKD
ROOT
HETATM    1  C   UNL     1     -10.537  19.600  65.583  1.00  0.00    -0.462 C  
HETATM    2  C   UNL     1     -10.167  18.481  66.548  1.00  0.00    -0.410 C  
ENDROOT
BRANCH   2   3
HETATM    3  O   UNL     1     -10.713  17.247  66.055  1.00  0.00    -0.249 OA 
BRANCH   3   4
HETATM    4  C   UNL     1      -9.838  16.193  65.980  1.00  0.00    -0.347 C  
HETATM    5  O   UNL     1      -8.646  16.314  65.729  1.00  0.00    -0.348 OA 
HETATM    6  C   UNL     1     -10.553  14.884  66.417  1.00  0.00    -0.307 C  
HETATM    7  C   UNL     1     -11.708  14.624  65.445  1.00  0.00    -0.330 C  
HETATM    8  C   UNL     1     -11.004  15.177  67.859  1.00  0.00    -0.302 C  
HETATM    9  O   UNL     1      -9.556  13.846  66.337  1.00  0.00    -0.279 OA 
BRANCH   9  10
HETATM   10  C   UNL     1      -9.825  12.525  66.533  1.00  0.00    -0.246 A  
HETATM   11  C   UNL     1      -9.817  11.743  65.374  1.00  0.00    -0.261 A  
HETATM   12  C   UNL     1     -10.004  10.351  65.439  1.00  0.00    -0.362 A  
HETATM   13  C   UNL     1     -10.194   9.738  66.669  1.00  0.00    -0.226 A  
HETATM   14  C   UNL     1     -10.194  10.501  67.830  1.00  0.00    -0.223 A  
HETATM   15 CL   UNL     1     -10.402   8.036  66.770  1.00  0.00    -0.391 Cl 
HETATM   16  C   UNL     1     -10.012  11.887  67.756  1.00  0.00    -0.191 A  
ENDBRANCH   9  10
ENDBRANCH   3   4
ENDBRANCH   2   3
TORSDOF 3
ENDMDL
MODEL       35
REMARK 921   NORMALIZED FREE ENERGY PREDICTED BY IDOCK:   -4.18 KCAL/MOL
REMARK 922        TOTAL FREE ENERGY PREDICTED BY IDOCK:   -5.21 KCAL/MOL
REMARK 923 INTER-LIGAND FREE ENERGY PREDICTED BY IDOCK:   -5.24 KCAL/MOL
REMARK 924 INTRA-LIGAND FREE ENERGY PREDICTED BY IDOCK:    0.03 KCAL/MOL
REMARK 927      BINDING AFFINITY PREDICTED BY RF-SCORE:    0.00 PKD
ROOT
HETATM    1  C   UNL     1     -10.660   9.018  67.230  1.00  0.00    -0.301 C  
HETATM    2  C   UNL     1     -11.194  10.234  67.974  1.00  0.00    -0.235 C  
ENDROOT
BRANCH   2   3
HETATM    3  O   UNL     1     -11.521  11.255  67.019  1.00  0.00    -0.455 OA 
BRANCH   3   4
HETATM    4  C   UNL     1     -10.537  12.175  66.764  1.00  0.00    -0.226 C  
HETATM    5  O   UNL     1      -9.484  11.908  66.200  1.00  0.00    -0.225 OA 
HETATM    6  C   UNL     1     -11.035  13.597  67.145  1.00  0.00    -0.288 C  
HETATM    7  C   UNL     1     -11.332  13.611  68.648  1.00  0.00    -0.321 C  
HETATM    8  C   UNL     1     -12.279  13.799  66.260  1.00  0.00    -0.489 C  
HETATM    9  O   UNL     1      -9.956  14.493  66.815  1.00  0.00    -0.252 OA 
BRANCH   9  10
HETATM   10  C   UNL     1      -9.963  15.824  67.110  1.00  0.00    -0.242 A  
HETATM   11  C   UNL     1     -10.255  16.665  66.031  1.00  0.00    -0.366 A  
HETATM   12  C   UNL     1     -10.370  18.055  66.209  1.00  0.00    -0.384 A  
HETATM   13  C   UNL     1     -10.200  18.605  67.472  1.00  0.00    -0.386 A  
HETATM   14  C   UNL     1      -9.921  17.780  68.554  1.00  0.00    -0.370 A  
HETATM   15 CL   UNL     1     -10.359  20.298  67.712  1.00  0.00    -0.464 Cl 
HETATM   16  C   UNL     1      -9.803  16.398  68.367  1.00  0.00    -0.233 A  
ENDBRANCH   9  10
ENDBRANCH   3   4
ENDBRANCH   2   3
TORSDOF 3
ENDMDL
MODEL       36
REMARK 921   NORMALIZED FREE ENERGY PREDICTED BY IDOCK:   -4.17 KCAL/MOL
REMARK 922        TOTAL FREE ENERGY PREDICTED BY IDOCK:   -5.20 KCAL/MOL
REMARK 923 INTER-LIGAND FREE ENERGY PREDICTED BY IDOCK:   -4.80 KCAL/MOL
REMARK 924 INTRA-LIGAND FREE ENERGY PREDICTED BY IDOCK:   -0.40 KCAL/MOL
REMARK 927      BINDING AFFINITY PREDICTED BY RF-SCORE:    0.00 PKD
ROOT
HETATM    1  C   UNL     1      -7.068  20.705  67.457  1.00  0.00    -0.391 C  
HETATM    2  C   UNL     1      -8.588  20.711  67.369  1.00  0.00    -0.203 C  
ENDROOT
BRANCH   2   3
HETATM    3  O   UNL     1      -9.091  19.506  67.966  1.00  0.00    -0.311 OA 
BRANCH   3   4
HETATM    4  C   UNL     1      -9.494  18.527  67.093  1.00  0.00    -0.289 C  
HETATM    5  O   UNL     1      -9.700  18.720  65.902  1.00  0.00    -0.485 OA 
HETATM    6  C   UNL     1      -9.479  17.147  67.808  1.00  0.00    -0.253 C  
HETATM    7  C   UNL     1     -10.479  17.200  68.967  1.00  0.00    -0.321 C  
HETATM    8  C   UNL     1      -8.015  16.979  68.252  1.00  0.00    -0.222 C  
HETATM    9  O   UNL     1      -9.881  16.185  66.812  1.00  0.00    -0.231 OA 
BRANCH   9  10
HETATM   10  C   UNL     1     -10.102  14.868  67.083  1.00  0.00    -0.240 A  
HETATM   11  C   UNL     1     -11.415  14.435  66.871  1.00  0.00    -0.379 A  
HETATM   12  C   UNL     1     -11.767  13.084  67.038  1.00  0.00    -0.441 A  
HETATM   13  C   UNL     1     -10.800  12.161  67.411  1.00  0.00    -0.245 A  
HETATM   14  C   UNL     1      -9.490  12.575  67.613  1.00  0.00    -0.188 A  
HETATM   15 CL   UNL     1     -11.207  10.502  67.597  1.00  0.00    -0.387 Cl 
HETATM   16  C   UNL     1      -9.149  13.923  67.450  1.00  0.00    -0.217 A  
ENDBRANCH   9  10
ENDBRANCH   3   4
ENDBRANCH   2   3
TORSDOF 3
ENDMDL
MODEL       37
REMARK 921   NORMALIZED FREE ENERGY PREDICTED BY IDOCK:   -4.16 KCAL/MOL
REMARK 922        TOTAL FREE ENERGY PREDICTED BY IDOCK:   -5.18 KCAL/MOL
REMARK 923 INTER-LIGAND FREE ENERGY PREDICTED BY IDOCK:   -4.89 KCAL/MOL
REMARK 924 INTRA-LIGAND FREE ENERGY PREDICTED BY IDOCK:   -0.29 KCAL/MOL
REMARK 927      BINDING AFFINITY PREDICTED BY RF-SCORE:    0.00 PKD
ROOT
HETATM    1  C   UNL     1     -10.502  13.185  65.290  1.00  0.00    -0.319 C  
HETATM    2  C   UNL     1     -10.888  11.737  65.564  1.00  0.00    -0.297 C  
ENDROOT
BRANCH   2   3
HETATM    3  O   UNL     1     -10.242  11.307  66.772  1.00  0.00    -0.212 OA 
BRANCH   3   4
HETATM    4  C   UNL     1     -11.074  10.924  67.794  1.00  0.00    -0.309 C  
HETATM    5  O   UNL     1     -12.148  11.460  68.034  1.00  0.00    -0.629 OA 
HETATM    6  C   UNL     1     -10.524   9.635  68.464  1.00  0.00    -0.212 C  
HETATM    7  C   UNL     1      -9.148   9.955  69.057  1.00  0.00    -0.164 C  
HETATM    8  C   UNL     1     -10.487   8.611  67.316  1.00  0.00    -0.360 C  
HETATM    9  O   UNL     1     -11.472   9.293  69.495  1.00  0.00     0.010 OA 
BRANCH   9  10
HETATM   10  C   UNL     1     -11.283   8.281  70.388  1.00  0.00    -0.219 A  
HETATM   11  C   UNL     1     -11.278   8.673  71.730  1.00  0.00    -0.396 A  
HETATM   12  C   UNL     1     -11.168   7.723  72.761  1.00  0.00    -0.456 A  
HETATM   13  C   UNL     1     -11.071   6.374  72.447  1.00  0.00    -0.268 A  
HETATM   14  C   UNL     1     -11.086   5.970  71.118  1.00  0.00    -0.336 A  
HETATM   15 CL   UNL     1     -10.959   5.197  73.693  1.00  0.00    -0.361 Cl 
HETATM   16  C   UNL     1     -11.190   6.923  70.098  1.00  0.00    -0.361 A  
ENDBRANCH   9  10
ENDBRANCH   3   4
ENDBRANCH   2   3
TORSDOF 3
ENDMDL
MODEL       38
REMARK 921   NORMALIZED FREE ENERGY PREDICTED BY IDOCK:   -4.15 KCAL/MOL
REMARK 922        TOTAL FREE ENERGY PREDICTED BY IDOCK:   -5.18 KCAL/MOL
REMARK 923 INTER-LIGAND FREE ENERGY PREDICTED BY IDOCK:   -4.82 KCAL/MOL
REMARK 924 INTRA-LIGAND FREE ENERGY PREDICTED BY IDOCK:   -0.36 KCAL/MOL
REMARK 927      BINDING AFFINITY PREDICTED BY RF-SCORE:    0.00 PKD
ROOT
HETATM    1  C   UNL     1      -9.165   5.757  66.562  1.00  0.00    -0.150 C  
HETATM    2  C   UNL     1      -8.522   7.137  66.595  1.00  0.00    -0.121 C  
ENDROOT
BRANCH   2   3
HETATM    3  O   UNL     1      -8.912   7.801  67.806  1.00  0.00    -0.128 OA 
BRANCH   3   4
HETATM    4  C   UNL     1      -9.878   8.766  67.677  1.00  0.00    -0.180 C  
HETATM    5  O   UNL     1     -10.425   9.044  66.617  1.00  0.00    -0.246 OA 
HETATM    6  C   UNL     1     -10.271   9.309  69.079  1.00  0.00    -0.206 C  
HETATM    7  C   UNL     1      -9.029   9.951  69.706  1.00  0.00    -0.242 C  
HETATM    8  C   UNL     1     -10.775   8.062  69.827  1.00  0.00    -0.231 C  
HETATM    9  O   UNL     1     -11.305  10.286  68.847  1.00  0.00    -0.231 OA 
BRANCH   9  10
HETATM   10  C   UNL     1     -11.832  11.073  69.826  1.00  0.00    -0.347 A  
HETATM   11  C   UNL     1     -11.696  12.449  69.614  1.00  0.00    -0.377 A  
HETATM   12  C   UNL     1     -12.260  13.377  70.506  1.00  0.00    -0.425 A  
HETATM   13  C   UNL     1     -12.969  12.929  71.611  1.00  0.00    -0.313 A  
HETATM   14  C   UNL     1     -13.122  11.565  71.828  1.00  0.00    -0.503 A  
HETATM   15 CL   UNL     1     -13.684  14.049  72.700  1.00  0.00    -0.620 Cl 
HETATM   16  C   UNL     1     -12.554  10.647  70.937  1.00  0.00    -0.503 A  
ENDBRANCH   9  10
ENDBRANCH   3   4
ENDBRANCH   2   3
TORSDOF 3
ENDMDL
MODEL       39
REMARK 921   NORMALIZED FREE ENERGY PREDICTED BY IDOCK:   -4.12 KCAL/MOL
REMARK 922        TOTAL FREE ENERGY PREDICTED BY IDOCK:   -5.14 KCAL/MOL
REMARK 923 INTER-LIGAND FREE ENERGY PREDICTED BY IDOCK:   -5.06 KCAL/MOL
REMARK 924 INTRA-LIGAND FREE ENERGY PREDICTED BY IDOCK:   -0.08 KCAL/MOL
REMARK 927      BINDING AFFINITY PREDICTED BY RF-SCORE:    0.00 PKD
ROOT
HETATM    1  C   UNL     1     -11.933  13.413  63.957  1.00  0.00    -0.520 C  
HETATM    2  C   UNL     1     -10.683  13.714  64.773  1.00  0.00    -0.410 C  
ENDROOT
BRANCH   2   3
HETATM    3  O   UNL     1     -10.089  12.473  65.186  1.00  0.00    -0.279 OA 
BRANCH   3   4
HETATM    4  C   UNL     1      -9.636  12.426  66.479  1.00  0.00    -0.240 C  
HETATM    5  O   UNL     1      -8.800  13.194  66.936  1.00  0.00    -0.217 OA 
HETATM    6  C   UNL     1     -10.456  11.381  67.287  1.00  0.00    -0.206 C  
HETATM    7  C   UNL     1     -10.237  10.006  66.648  1.00  0.00    -0.288 C  
HETATM    8  C   UNL     1     -11.904  11.894  67.184  1.00  0.00    -0.216 C  
HETATM    9  O   UNL     1      -9.935  11.425  68.630  1.00  0.00    -0.202 OA 
BRANCH   9  10
HETATM   10  C   UNL     1     -10.320  10.568  69.616  1.00  0.00    -0.193 A  
HETATM   11  C   UNL     1      -9.315   9.714  70.081  1.00  0.00    -0.294 A  
HETATM   12  C   UNL     1      -9.552   8.830  71.148  1.00  0.00    -0.309 A  
HETATM   13  C   UNL     1     -10.798   8.806  71.758  1.00  0.00    -0.345 A  
HETATM   14  C   UNL     1     -11.803   9.657  71.314  1.00  0.00    -0.460 A  
HETATM   15 CL   UNL     1     -11.100   7.749  73.078  1.00  0.00    -0.463 Cl 
HETATM   16  C   UNL     1     -11.560  10.530  70.248  1.00  0.00    -0.417 A  
ENDBRANCH   9  10
ENDBRANCH   3   4
ENDBRANCH   2   3
TORSDOF 3
ENDMDL
MODEL       40
REMARK 921   NORMALIZED FREE ENERGY PREDICTED BY IDOCK:   -4.12 KCAL/MOL
REMARK 922        TOTAL FREE ENERGY PREDICTED BY IDOCK:   -5.14 KCAL/MOL
REMARK 923 INTER-LIGAND FREE ENERGY PREDICTED BY IDOCK:   -5.26 KCAL/MOL
REMARK 924 INTRA-LIGAND FREE ENERGY PREDICTED BY IDOCK:    0.11 KCAL/MOL
REMARK 927      BINDING AFFINITY PREDICTED BY RF-SCORE:    0.00 PKD
ROOT
HETATM    1  C   UNL     1     -10.661  13.715  64.568  1.00  0.00    -0.428 C  
HETATM    2  C   UNL     1     -11.218  12.372  65.022  1.00  0.00    -0.312 C  
ENDROOT
BRANCH   2   3
HETATM    3  O   UNL     1     -10.466  11.921  66.159  1.00  0.00    -0.224 OA 
BRANCH   3   4
HETATM    4  C   UNL     1     -11.172  11.782  67.328  1.00  0.00    -0.305 C  
HETATM    5  O   UNL     1     -12.226  12.360  67.559  1.00  0.00    -0.442 OA 
HETATM    6  C   UNL     1     -10.522  10.677  68.206  1.00  0.00    -0.187 C  
HETATM    7  C   UNL     1      -9.097  11.122  68.553  1.00  0.00    -0.175 C  
HETATM    8  C   UNL     1     -10.587   9.419  67.322  1.00  0.00    -0.314 C  
HETATM    9  O   UNL     1     -11.343  10.581  69.387  1.00  0.00    -0.239 OA 
BRANCH   9  10
HETATM   10  C   UNL     1     -11.034   9.798  70.459  1.00  0.00    -0.321 A  
HETATM   11  C   UNL     1     -12.129   9.389  71.226  1.00  0.00    -0.424 A  
HETATM   12  C   UNL     1     -11.964   8.517  72.316  1.00  0.00    -0.454 A  
HETATM   13  C   UNL     1     -10.698   8.046  72.636  1.00  0.00    -0.358 A  
HETATM   14  C   UNL     1      -9.602   8.436  71.876  1.00  0.00    -0.324 A  
HETATM   15 CL   UNL     1     -10.479   6.963  73.951  1.00  0.00    -0.401 Cl 
HETATM   16  C   UNL     1      -9.775   9.308  70.795  1.00  0.00    -0.348 A  
ENDBRANCH   9  10
ENDBRANCH   3   4
ENDBRANCH   2   3
TORSDOF 3
ENDMDL
MODEL       41
REMARK 921   NORMALIZED FREE ENERGY PREDICTED BY IDOCK:   -4.09 KCAL/MOL
REMARK 922        TOTAL FREE ENERGY PREDICTED BY IDOCK:   -5.10 KCAL/MOL
REMARK 923 INTER-LIGAND FREE ENERGY PREDICTED BY IDOCK:   -4.77 KCAL/MOL
REMARK 924 INTRA-LIGAND FREE ENERGY PREDICTED BY IDOCK:   -0.33 KCAL/MOL
REMARK 927      BINDING AFFINITY PREDICTED BY RF-SCORE:    0.00 PKD
ROOT
HETATM    1  C   UNL     1     -11.539   6.825  70.201  1.00  0.00    -0.397 C  
HETATM    2  C   UNL     1     -10.175   7.190  69.628  1.00  0.00    -0.208 C  
ENDROOT
BRANCH   2   3
HETATM    3  O   UNL     1     -10.134   8.607  69.398  1.00  0.00    -0.193 OA 
BRANCH   3   4
HETATM    4  C   UNL     1     -10.464   9.018  68.131  1.00  0.00    -0.207 C  
HETATM    5  O   UNL     1     -10.714   8.252  67.210  1.00  0.00    -0.289 OA 
HETATM    6  C   UNL     1     -10.630  10.563  68.107  1.00  0.00    -0.204 C  
HETATM    7  C   UNL     1      -9.284  11.192  68.484  1.00  0.00    -0.183 C  
HETATM    8  C   UNL     1     -11.751  10.828  69.128  1.00  0.00    -0.368 C  
HETATM    9  O   UNL     1     -11.005  10.897  66.756  1.00  0.00    -0.254 OA 
BRANCH   9  10
HETATM   10  C   UNL     1     -11.131  12.175  66.303  1.00  0.00    -0.310 A  
HETATM   11  C   UNL     1     -10.364  12.479  65.174  1.00  0.00    -0.312 A  
HETATM   12  C   UNL     1     -10.454  13.738  64.555  1.00  0.00    -0.378 A  
HETATM   13  C   UNL     1     -11.321  14.695  65.063  1.00  0.00    -0.390 A  
HETATM   14  C   UNL     1     -12.097  14.404  66.177  1.00  0.00    -0.373 A  
HETATM   15 CL   UNL     1     -11.460  16.232  64.307  1.00  0.00    -0.267 Cl 
HETATM   16  C   UNL     1     -11.998  13.149  66.790  1.00  0.00    -0.434 A  
ENDBRANCH   9  10
ENDBRANCH   3   4
ENDBRANCH   2   3
TORSDOF 3
ENDMDL
MODEL       42
REMARK 921   NORMALIZED FREE ENERGY PREDICTED BY IDOCK:   -4.08 KCAL/MOL
REMARK 922        TOTAL FREE ENERGY PREDICTED BY IDOCK:   -5.09 KCAL/MOL
REMARK 923 INTER-LIGAND FREE ENERGY PREDICTED BY IDOCK:   -4.71 KCAL/MOL
REMARK 924 INTRA-LIGAND FREE ENERGY PREDICTED BY IDOCK:   -0.38 KCAL/MOL
REMARK 927      BINDING AFFINITY PREDICTED BY RF-SCORE:    0.00 PKD
ROOT
HETATM    1  C   UNL     1     -11.191  15.200  64.736  1.00  0.00    -0.396 C  
HETATM    2  C   UNL     1     -10.258  15.645  65.854  1.00  0.00    -0.351 C  
ENDROOT
BRANCH   2   3
HETATM    3  O   UNL     1     -10.780  15.176  67.107  1.00  0.00    -0.296 OA 
BRANCH   3   4
HETATM    4  C   UNL     1     -10.081  14.158  67.704  1.00  0.00    -0.236 C  
HETATM    5  O   UNL     1      -8.869  14.175  67.879  1.00  0.00    -0.165 OA 
HETATM    6  C   UNL     1     -11.070  13.093  68.254  1.00  0.00    -0.266 C  
HETATM    7  C   UNL     1     -11.852  12.513  67.071  1.00  0.00    -0.394 C  
HETATM    8  C   UNL     1     -11.939  13.880  69.252  1.00  0.00    -0.402 C  
HETATM    9  O   UNL     1     -10.253  12.088  68.887  1.00  0.00    -0.169 OA 
BRANCH   9  10
HETATM   10  C   UNL     1     -10.747  10.924  69.393  1.00  0.00    -0.225 A  
HETATM   11  C   UNL     1     -10.288   9.764  68.760  1.00  0.00    -0.227 A  
HETATM   12  C   UNL     1     -10.657   8.490  69.227  1.00  0.00    -0.193 A  
HETATM   13  C   UNL     1     -11.484   8.376  70.336  1.00  0.00    -0.125 A  
HETATM   14  C   UNL     1     -11.939   9.519  70.981  1.00  0.00    -0.407 A  
HETATM   15 CL   UNL     1     -11.928   6.828  70.935  1.00  0.00    -0.431 Cl 
HETATM   16  C   UNL     1     -11.570  10.783  70.507  1.00  0.00    -0.425 A  
ENDBRANCH   9  10
ENDBRANCH   3   4
ENDBRANCH   2   3
TORSDOF 3
ENDMDL
MODEL       43
REMARK 921   NORMALIZED FREE ENERGY PREDICTED BY IDOCK:   -4.03 KCAL/MOL
REMARK 922        TOTAL FREE ENERGY PREDICTED BY IDOCK:   -5.03 KCAL/MOL
REMARK 923 INTER-LIGAND FREE ENERGY PREDICTED BY IDOCK:   -4.99 KCAL/MOL
REMARK 924 INTRA-LIGAND FREE ENERGY PREDICTED BY IDOCK:   -0.04 KCAL/MOL
REMARK 927      BINDING AFFINITY PREDICTED BY RF-SCORE:    0.00 PKD
ROOT
HETATM    1  C   UNL     1     -10.469   9.475  68.029  1.00  0.00    -0.279 C  
HETATM    2  C   UNL     1     -11.145  10.206  66.877  1.00  0.00     0.074 C  
ENDROOT
BRANCH   2   3
HETATM    3  O   UNL     1     -11.808  11.370  67.392  1.00  0.00    -0.609 OA 
BRANCH   3   4
HETATM    4  C   UNL     1     -11.790  12.478  66.583  1.00  0.00    -0.352 C  
HETATM    5  O   UNL     1     -12.489  12.604  65.586  1.00  0.00    -0.622 OA 
HETATM    6  C   UNL     1     -10.893  13.578  67.217  1.00  0.00    -0.276 C  
HETATM    7  C   UNL     1      -9.466  13.029  67.316  1.00  0.00    -0.224 C  
HETATM    8  C   UNL     1     -11.554  13.850  68.580  1.00  0.00    -0.363 C  
HETATM    9  O   UNL     1     -10.961  14.705  66.321  1.00  0.00    -0.315 OA 
BRANCH   9  10
HETATM   10  C   UNL     1     -10.213  15.833  66.471  1.00  0.00    -0.286 A  
HETATM   11  C   UNL     1     -10.872  16.901  67.089  1.00  0.00    -0.088 A  
HETATM   12  C   UNL     1     -10.197  18.100  67.375  1.00  0.00    -0.383 A  
HETATM   13  C   UNL     1      -8.854  18.230  67.049  1.00  0.00    -0.266 A  
HETATM   14  C   UNL     1      -8.184  17.174  66.445  1.00  0.00    -0.327 A  
HETATM   15 CL   UNL     1      -8.007  19.680  67.411  1.00  0.00    -0.304 Cl 
HETATM   16  C   UNL     1      -8.865  15.985  66.159  1.00  0.00    -0.366 A  
ENDBRANCH   9  10
ENDBRANCH   3   4
ENDBRANCH   2   3
TORSDOF 3
ENDMDL
MODEL       44
REMARK 921   NORMALIZED FREE ENERGY PREDICTED BY IDOCK:   -4.02 KCAL/MOL
REMARK 922        TOTAL FREE ENERGY PREDICTED BY IDOCK:   -5.02 KCAL/MOL
REMARK 923 INTER-LIGAND FREE ENERGY PREDICTED BY IDOCK:   -4.98 KCAL/MOL
REMARK 924 INTRA-LIGAND FREE ENERGY PREDICTED BY IDOCK:   -0.04 KCAL/MOL
REMARK 927      BINDING AFFINITY PREDICTED BY RF-SCORE:    0.00 PKD
ROOT
HETATM    1  C   UNL     1     -11.215  16.139  64.508  1.00  0.00    -0.275 C  
HETATM    2  C   UNL     1     -11.996  14.836  64.400  1.00  0.00    -0.417 C  
ENDROOT
BRANCH   2   3
HETATM    3  O   UNL     1     -12.257  14.342  65.723  1.00  0.00    -0.389 OA 
BRANCH   3   4
HETATM    4  C   UNL     1     -12.313  12.978  65.854  1.00  0.00    -0.368 C  
HETATM    5  O   UNL     1     -12.852  12.237  65.042  1.00  0.00    -0.563 OA 
HETATM    6  C   UNL     1     -11.459  12.532  67.073  1.00  0.00    -0.356 C  
HETATM    7  C   UNL     1     -12.062  13.162  68.333  1.00  0.00    -0.216 C  
HETATM    8  C   UNL     1     -10.045  13.038  66.737  1.00  0.00    -0.247 C  
HETATM    9  O   UNL     1     -11.550  11.094  67.111  1.00  0.00    -0.495 OA 
BRANCH   9  10
HETATM   10  C   UNL     1     -11.026  10.331  68.112  1.00  0.00    -0.274 A  
HETATM   11  C   UNL     1     -10.054   9.411  67.706  1.00  0.00    -0.246 A  
HETATM   12  C   UNL     1      -9.376   8.613  68.644  1.00  0.00    -0.142 A  
HETATM   13  C   UNL     1      -9.667   8.741  69.995  1.00  0.00    -0.173 A  
HETATM   14  C   UNL     1     -10.622   9.658  70.413  1.00  0.00    -0.354 A  
HETATM   15 CL   UNL     1      -8.833   7.790  71.158  1.00  0.00    -0.138 Cl 
HETATM   16  C   UNL     1     -11.296  10.445  69.472  1.00  0.00    -0.325 A  
ENDBRANCH   9  10
ENDBRANCH   3   4
ENDBRANCH   2   3
TORSDOF 3
ENDMDL
MODEL       45
REMARK 921   NORMALIZED FREE ENERGY PREDICTED BY IDOCK:   -4.02 KCAL/MOL
REMARK 922        TOTAL FREE ENERGY PREDICTED BY IDOCK:   -5.02 KCAL/MOL
REMARK 923 INTER-LIGAND FREE ENERGY PREDICTED BY IDOCK:   -4.71 KCAL/MOL
REMARK 924 INTRA-LIGAND FREE ENERGY PREDICTED BY IDOCK:   -0.31 KCAL/MOL
REMARK 927      BINDING AFFINITY PREDICTED BY RF-SCORE:    0.00 PKD
ROOT
HETATM    1  C   UNL     1      -9.641   7.751  73.450  1.00  0.00    -0.352 C  
HETATM    2  C   UNL     1     -11.045   8.068  72.951  1.00  0.00    -0.331 C  
ENDROOT
BRANCH   2   3
HETATM    3  O   UNL     1     -10.955   9.054  71.912  1.00  0.00    -0.352 OA 
BRANCH   3   4
HETATM    4  C   UNL     1     -11.081   8.586  70.629  1.00  0.00    -0.252 C  
HETATM    5  O   UNL     1     -11.553   7.492  70.346  1.00  0.00    -0.246 OA 
HETATM    6  C   UNL     1     -10.697   9.705  69.621  1.00  0.00    -0.240 C  
HETATM    7  C   UNL     1      -9.229  10.075  69.857  1.00  0.00    -0.195 C  
HETATM    8  C   UNL     1     -11.687  10.840  69.937  1.00  0.00    -0.412 C  
HETATM    9  O   UNL     1     -10.890   9.136  68.310  1.00  0.00    -0.163 OA 
BRANCH   9  10
HETATM   10  C   UNL     1     -10.548   9.772  67.155  1.00  0.00    -0.229 A  
HETATM   11  C   UNL     1      -9.825   8.993  66.245  1.00  0.00    -0.361 A  
HETATM   12  C   UNL     1      -9.472   9.498  64.981  1.00  0.00    -0.273 A  
HETATM   13  C   UNL     1      -9.850  10.784  64.623  1.00  0.00    -0.307 A  
HETATM   14  C   UNL     1     -10.578  11.565  65.512  1.00  0.00    -0.334 A  
HETATM   15 CL   UNL     1      -9.447  11.410  63.074  1.00  0.00    -0.377 Cl 
HETATM   16  C   UNL     1     -10.921  11.056  66.770  1.00  0.00    -0.279 A  
ENDBRANCH   9  10
ENDBRANCH   3   4
ENDBRANCH   2   3
TORSDOF 3
ENDMDL
MODEL       46
REMARK 921   NORMALIZED FREE ENERGY PREDICTED BY IDOCK:   -3.98 KCAL/MOL
REMARK 922        TOTAL FREE ENERGY PREDICTED BY IDOCK:   -4.98 KCAL/MOL
REMARK 923 INTER-LIGAND FREE ENERGY PREDICTED BY IDOCK:   -4.79 KCAL/MOL
REMARK 924 INTRA-LIGAND FREE ENERGY PREDICTED BY IDOCK:   -0.18 KCAL/MOL
REMARK 927      BINDING AFFINITY PREDICTED BY RF-SCORE:    0.00 PKD
ROOT
HETATM    1  C   UNL     1      -9.863  18.901  66.231  1.00  0.00    -0.401 C  
HETATM    2  C   UNL     1     -10.477  17.628  65.663  1.00  0.00    -0.144 C  
ENDROOT
BRANCH   2   3
HETATM    3  O   UNL     1      -9.509  16.571  65.745  1.00  0.00    -0.484 OA 
BRANCH   3   4
HETATM    4  C   UNL     1     -10.006  15.295  65.666  1.00  0.00    -0.364 C  
HETATM    5  O   UNL     1     -10.419  14.788  64.631  1.00  0.00    -0.354 OA 
HETATM    6  C   UNL     1      -9.807  14.568  67.025  1.00  0.00    -0.249 C  
HETATM    7  C   UNL     1     -10.599  15.329  68.093  1.00  0.00    -0.254 C  
HETATM    8  C   UNL     1      -8.283  14.597  67.237  1.00  0.00    -0.235 C  
HETATM    9  O   UNL     1     -10.326  13.236  66.837  1.00  0.00    -0.251 OA 
BRANCH   9  10
HETATM   10  C   UNL     1     -10.437  12.322  67.841  1.00  0.00    -0.213 A  
HETATM   11  C   UNL     1     -11.742  12.088  68.284  1.00  0.00    -0.396 A  
HETATM   12  C   UNL     1     -12.011  11.115  69.262  1.00  0.00    -0.421 A  
HETATM   13  C   UNL     1     -10.970  10.367  69.794  1.00  0.00    -0.293 A  
HETATM   14  C   UNL     1      -9.669  10.581  69.356  1.00  0.00    -0.188 A  
HETATM   15 CL   UNL     1     -11.282   9.158  70.975  1.00  0.00    -0.351 Cl 
HETATM   16  C   UNL     1      -9.410  11.555  68.385  1.00  0.00    -0.194 A  
ENDBRANCH   9  10
ENDBRANCH   3   4
ENDBRANCH   2   3
TORSDOF 3
ENDMDL
MODEL       47
REMARK 921   NORMALIZED FREE ENERGY PREDICTED BY IDOCK:   -3.97 KCAL/MOL
REMARK 922        TOTAL FREE ENERGY PREDICTED BY IDOCK:   -4.97 KCAL/MOL
REMARK 923 INTER-LIGAND FREE ENERGY PREDICTED BY IDOCK:   -5.08 KCAL/MOL
REMARK 924 INTRA-LIGAND FREE ENERGY PREDICTED BY IDOCK:    0.12 KCAL/MOL
REMARK 927      BINDING AFFINITY PREDICTED BY RF-SCORE:    0.00 PKD
ROOT
HETATM    1  C   UNL     1     -10.579   4.351  72.607  1.00  0.00    -0.233 C  
HETATM    2  C   UNL     1     -11.350   5.663  72.687  1.00  0.00    -0.305 C  
ENDROOT
BRANCH   2   3
HETATM    3  O   UNL     1     -11.216   6.355  71.436  1.00  0.00    -0.264 OA 
BRANCH   3   4
HETATM    4  C   UNL     1     -12.119   7.362  71.208  1.00  0.00    -0.328 C  
HETATM    5  O   UNL     1     -13.318   7.264  71.435  1.00  0.00    -0.383 OA 
HETATM    6  C   UNL     1     -11.369   8.657  70.790  1.00  0.00    -0.263 C  
HETATM    7  C   UNL     1     -10.622   8.374  69.483  1.00  0.00    -0.217 C  
HETATM    8  C   UNL     1     -10.447   8.949  71.987  1.00  0.00    -0.383 C  
HETATM    9  O   UNL     1     -12.389   9.659  70.605  1.00  0.00    -0.236 OA 
BRANCH   9  10
HETATM   10  C   UNL     1     -12.139  10.908  70.122  1.00  0.00    -0.349 A  
HETATM   11  C   UNL     1     -11.896  10.971  68.747  1.00  0.00    -0.352 A  
HETATM   12  C   UNL     1     -11.698  12.205  68.102  1.00  0.00    -0.402 A  
HETATM   13  C   UNL     1     -11.752  13.382  68.836  1.00  0.00    -0.328 A  
HETATM   14  C   UNL     1     -12.003  13.335  70.202  1.00  0.00    -0.388 A  
HETATM   15 CL   UNL     1     -11.535  14.900  68.062  1.00  0.00    -0.340 Cl 
HETATM   16  C   UNL     1     -12.194  12.102  70.836  1.00  0.00    -0.310 A  
ENDBRANCH   9  10
ENDBRANCH   3   4
ENDBRANCH   2   3
TORSDOF 3
ENDMDL
MODEL       48
REMARK 921   NORMALIZED FREE ENERGY PREDICTED BY IDOCK:   -3.95 KCAL/MOL
REMARK 922        TOTAL FREE ENERGY PREDICTED BY IDOCK:   -4.93 KCAL/MOL
REMARK 923 INTER-LIGAND FREE ENERGY PREDICTED BY IDOCK:   -4.85 KCAL/MOL
REMARK 924 INTRA-LIGAND FREE ENERGY PREDICTED BY IDOCK:   -0.08 KCAL/MOL
REMARK 927      BINDING AFFINITY PREDICTED BY RF-SCORE:    0.00 PKD
ROOT
HETATM    1  C   UNL     1      -5.582  17.393  67.787  1.00  0.00    -0.136 C  
HETATM    2  C   UNL     1      -6.435  17.584  66.540  1.00  0.00    -0.234 C  
ENDROOT
BRANCH   2   3
HETATM    3  O   UNL     1      -7.552  16.685  66.601  1.00  0.00    -0.223 OA 
BRANCH   3   4
HETATM    4  C   UNL     1      -8.652  17.139  67.284  1.00  0.00    -0.201 C  
HETATM    5  O   UNL     1      -9.112  18.267  67.159  1.00  0.00    -0.256 OA 
HETATM    6  C   UNL     1      -9.293  15.972  68.085  1.00  0.00    -0.200 C  
HETATM    7  C   UNL     1      -8.263  15.472  69.104  1.00  0.00    -0.247 C  
HETATM    8  C   UNL     1      -9.653  14.939  67.003  1.00  0.00    -0.245 C  
HETATM    9  O   UNL     1     -10.449  16.533  68.738  1.00  0.00    -0.268 OA 
BRANCH   9  10
HETATM   10  C   UNL     1     -11.216  15.848  69.632  1.00  0.00    -0.331 A  
HETATM   11  C   UNL     1     -11.783  14.668  69.141  1.00  0.00    -0.342 A  
HETATM   12  C   UNL     1     -12.535  13.824  69.976  1.00  0.00    -0.301 A  
HETATM   13  C   UNL     1     -12.714  14.157  71.311  1.00  0.00    -0.361 A  
HETATM   14  C   UNL     1     -12.148  15.321  71.816  1.00  0.00    -0.439 A  
HETATM   15 CL   UNL     1     -13.611  13.127  72.353  1.00  0.00    -0.689 Cl 
HETATM   16  C   UNL     1     -11.404  16.158  70.976  1.00  0.00    -0.381 A  
ENDBRANCH   9  10
ENDBRANCH   3   4
ENDBRANCH   2   3
TORSDOF 3
ENDMDL
MODEL       49
REMARK 921   NORMALIZED FREE ENERGY PREDICTED BY IDOCK:   -3.94 KCAL/MOL
REMARK 922        TOTAL FREE ENERGY PREDICTED BY IDOCK:   -4.93 KCAL/MOL
REMARK 923 INTER-LIGAND FREE ENERGY PREDICTED BY IDOCK:   -4.75 KCAL/MOL
REMARK 924 INTRA-LIGAND FREE ENERGY PREDICTED BY IDOCK:   -0.18 KCAL/MOL
REMARK 927      BINDING AFFINITY PREDICTED BY RF-SCORE:    0.00 PKD
ROOT
HETATM    1  C   UNL     1      -6.449  20.528  64.897  1.00  0.00    -0.333 C  
HETATM    2  C   UNL     1      -6.751  20.529  66.390  1.00  0.00    -0.251 C  
ENDROOT
BRANCH   2   3
HETATM    3  O   UNL     1      -8.111  20.113  66.588  1.00  0.00    -0.302 OA 
BRANCH   3   4
HETATM    4  C   UNL     1      -8.343  19.328  67.688  1.00  0.00    -0.291 C  
HETATM    5  O   UNL     1      -8.148  19.693  68.839  1.00  0.00    -0.330 OA 
HETATM    6  C   UNL     1      -9.034  18.005  67.252  1.00  0.00    -0.251 C  
HETATM    7  C   UNL     1      -8.079  17.255  66.317  1.00  0.00    -0.315 C  
HETATM    8  C   UNL     1     -10.333  18.475  66.574  1.00  0.00    -0.447 C  
HETATM    9  O   UNL     1      -9.266  17.265  68.467  1.00  0.00    -0.260 OA 
BRANCH   9  10
HETATM   10  C   UNL     1      -9.753  15.993  68.494  1.00  0.00    -0.214 A  
HETATM   11  C   UNL     1     -11.137  15.895  68.673  1.00  0.00    -0.337 A  
HETATM   12  C   UNL     1     -11.783  14.647  68.644  1.00  0.00    -0.362 A  
HETATM   13  C   UNL     1     -11.044  13.492  68.428  1.00  0.00    -0.271 A  
HETATM   14  C   UNL     1      -9.670  13.576  68.239  1.00  0.00    -0.224 A  
HETATM   15 CL   UNL     1     -11.819  11.960  68.368  1.00  0.00    -0.379 Cl 
HETATM   16  C   UNL     1      -9.034  14.822  68.273  1.00  0.00    -0.181 A  
ENDBRANCH   9  10
ENDBRANCH   3   4
ENDBRANCH   2   3
TORSDOF 3
ENDMDL
MODEL       50
REMARK 921   NORMALIZED FREE ENERGY PREDICTED BY IDOCK:   -3.88 KCAL/MOL
REMARK 922        TOTAL FREE ENERGY PREDICTED BY IDOCK:   -4.85 KCAL/MOL
REMARK 923 INTER-LIGAND FREE ENERGY PREDICTED BY IDOCK:   -4.64 KCAL/MOL
REMARK 924 INTRA-LIGAND FREE ENERGY PREDICTED BY IDOCK:   -0.21 KCAL/MOL
REMARK 927      BINDING AFFINITY PREDICTED BY RF-SCORE:    0.00 PKD
ROOT
HETATM    1  C   UNL     1     -11.294  15.231  64.909  1.00  0.00    -0.387 C  
HETATM    2  C   UNL     1     -10.001  14.778  65.575  1.00  0.00    -0.356 C  
ENDROOT
BRANCH   2   3
HETATM    3  O   UNL     1     -10.045  13.354  65.752  1.00  0.00    -0.289 OA 
BRANCH   3   4
HETATM    4  C   UNL     1      -9.554  12.882  66.943  1.00  0.00    -0.240 C  
HETATM    5  O   UNL     1      -8.620  13.394  67.545  1.00  0.00    -0.176 OA 
HETATM    6  C   UNL     1     -10.462  11.734  67.466  1.00  0.00    -0.202 C  
HETATM    7  C   UNL     1     -10.424  10.594  66.443  1.00  0.00    -0.276 C  
HETATM    8  C   UNL     1     -11.843  12.396  67.615  1.00  0.00    -0.363 C  
HETATM    9  O   UNL     1      -9.892  11.327  68.726  1.00  0.00    -0.205 OA 
BRANCH   9  10
HETATM   10  C   UNL     1     -10.339  10.260  69.446  1.00  0.00    -0.235 A  
HETATM   11  C   UNL     1     -11.345  10.552  70.372  1.00  0.00    -0.411 A  
HETATM   12  C   UNL     1     -11.950   9.534  71.129  1.00  0.00    -0.429 A  
HETATM   13  C   UNL     1     -11.553   8.216  70.953  1.00  0.00    -0.267 A  
HETATM   14  C   UNL     1     -10.562   7.909  70.029  1.00  0.00    -0.242 A  
HETATM   15 CL   UNL     1     -12.297   6.955  71.852  1.00  0.00    -0.373 Cl 
HETATM   16  C   UNL     1      -9.961   8.930  69.283  1.00  0.00    -0.192 A  
ENDBRANCH   9  10
ENDBRANCH   3   4
ENDBRANCH   2   3
TORSDOF 3
ENDMDL
MODEL       51
REMARK 921   NORMALIZED FREE ENERGY PREDICTED BY IDOCK:   -3.87 KCAL/MOL
REMARK 922        TOTAL FREE ENERGY PREDICTED BY IDOCK:   -4.85 KCAL/MOL
REMARK 923 INTER-LIGAND FREE ENERGY PREDICTED BY IDOCK:   -5.06 KCAL/MOL
REMARK 924 INTRA-LIGAND FREE ENERGY PREDICTED BY IDOCK:    0.21 KCAL/MOL
REMARK 927      BINDING AFFINITY PREDICTED BY RF-SCORE:    0.00 PKD
ROOT
HETATM    1  C   UNL     1      -9.436   6.912  66.590  1.00  0.00    -0.209 C  
HETATM    2  C   UNL     1     -10.103   8.281  66.553  1.00  0.00    -0.233 C  
ENDROOT
BRANCH   2   3
HETATM    3  O   UNL     1      -9.576   9.081  67.623  1.00  0.00    -0.144 OA 
BRANCH   3   4
HETATM    4  C   UNL     1     -10.401   9.251  68.706  1.00  0.00    -0.211 C  
HETATM    5  O   UNL     1     -10.706   8.351  69.477  1.00  0.00    -0.227 OA 
HETATM    6  C   UNL     1     -10.732  10.759  68.883  1.00  0.00    -0.222 C  
HETATM    7  C   UNL     1     -11.476  11.233  67.630  1.00  0.00    -0.341 C  
HETATM    8  C   UNL     1      -9.354  11.417  69.078  1.00  0.00     0.036 C  
HETATM    9  O   UNL     1     -11.569  10.843  70.054  1.00  0.00    -0.284 OA 
BRANCH   9  10
HETATM   10  C   UNL     1     -12.165  11.994  70.473  1.00  0.00    -0.325 A  
HETATM   11  C   UNL     1     -12.947  11.866  71.626  1.00  0.00    -0.447 A  
HETATM   12  C   UNL     1     -13.559  12.988  72.212  1.00  0.00    -0.643 A  
HETATM   13  C   UNL     1     -13.383  14.243  71.648  1.00  0.00    -0.365 A  
HETATM   14  C   UNL     1     -12.600  14.386  70.509  1.00  0.00    -0.417 A  
HETATM   15 CL   UNL     1     -14.104  15.628  72.363  1.00  0.00    -0.625 Cl 
HETATM   16  C   UNL     1     -11.998  13.264  69.929  1.00  0.00    -0.400 A  
ENDBRANCH   9  10
ENDBRANCH   3   4
ENDBRANCH   2   3
TORSDOF 3
ENDMDL
MODEL       52
REMARK 921   NORMALIZED FREE ENERGY PREDICTED BY IDOCK:   -3.87 KCAL/MOL
REMARK 922        TOTAL FREE ENERGY PREDICTED BY IDOCK:   -4.84 KCAL/MOL
REMARK 923 INTER-LIGAND FREE ENERGY PREDICTED BY IDOCK:   -4.54 KCAL/MOL
REMARK 924 INTRA-LIGAND FREE ENERGY PREDICTED BY IDOCK:   -0.31 KCAL/MOL
REMARK 927      BINDING AFFINITY PREDICTED BY RF-SCORE:    0.00 PKD
ROOT
HETATM    1  C   UNL     1      -9.690   7.186  73.965  1.00  0.00    -0.314 C  
HETATM    2  C   UNL     1      -8.854   7.701  72.800  1.00  0.00    -0.153 C  
ENDROOT
BRANCH   2   3
HETATM    3  O   UNL     1      -9.736   8.137  71.755  1.00  0.00    -0.164 OA 
BRANCH   3   4
HETATM    4  C   UNL     1      -9.319   9.227  71.034  1.00  0.00    -0.227 C  
HETATM    5  O   UNL     1      -8.187   9.690  71.094  1.00  0.00    -0.239 OA 
HETATM    6  C   UNL     1     -10.432   9.656  70.037  1.00  0.00    -0.261 C  
HETATM    7  C   UNL     1     -11.668  10.058  70.848  1.00  0.00    -0.462 C  
HETATM    8  C   UNL     1     -10.639   8.409  69.159  1.00  0.00    -0.177 C  
HETATM    9  O   UNL     1      -9.895  10.777  69.308  1.00  0.00    -0.205 OA 
BRANCH   9  10
HETATM   10  C   UNL     1     -10.617  11.512  68.416  1.00  0.00    -0.201 A  
HETATM   11  C   UNL     1     -10.975  12.790  68.856  1.00  0.00    -0.275 A  
HETATM   12  C   UNL     1     -11.656  13.682  68.010  1.00  0.00    -0.368 A  
HETATM   13  C   UNL     1     -11.973  13.298  66.715  1.00  0.00    -0.382 A  
HETATM   14  C   UNL     1     -11.614  12.035  66.260  1.00  0.00    -0.378 A  
HETATM   15 CL   UNL     1     -12.785  14.383  65.659  1.00  0.00    -0.378 Cl 
HETATM   16  C   UNL     1     -10.940  11.151  67.111  1.00  0.00    -0.350 A  
ENDBRANCH   9  10
ENDBRANCH   3   4
ENDBRANCH   2   3
TORSDOF 3
ENDMDL
MODEL       53
REMARK 921   NORMALIZED FREE ENERGY PREDICTED BY IDOCK:   -3.84 KCAL/MOL
REMARK 922        TOTAL FREE ENERGY PREDICTED BY IDOCK:   -4.81 KCAL/MOL
REMARK 923 INTER-LIGAND FREE ENERGY PREDICTED BY IDOCK:   -4.67 KCAL/MOL
REMARK 924 INTRA-LIGAND FREE ENERGY PREDICTED BY IDOCK:   -0.13 KCAL/MOL
REMARK 927      BINDING AFFINITY PREDICTED BY RF-SCORE:    0.00 PKD
ROOT
HETATM    1  C   UNL     1     -10.904   3.523  73.717  1.00  0.00    -0.317 C  
HETATM    2  C   UNL     1     -11.378   4.916  73.323  1.00  0.00    -0.327 C  
ENDROOT
BRANCH   2   3
HETATM    3  O   UNL     1     -11.001   5.165  71.960  1.00  0.00    -0.178 OA 
BRANCH   3   4
HETATM    4  C   UNL     1     -10.301   6.323  71.733  1.00  0.00    -0.206 C  
HETATM    5  O   UNL     1      -9.211   6.569  72.232  1.00  0.00    -0.140 OA 
HETATM    6  C   UNL     1     -11.019   7.166  70.642  1.00  0.00    -0.258 C  
HETATM    7  C   UNL     1     -12.411   7.537  71.166  1.00  0.00    -0.321 C  
HETATM    8  C   UNL     1     -11.041   6.237  69.415  1.00  0.00    -0.477 C  
HETATM    9  O   UNL     1     -10.202   8.337  70.449  1.00  0.00    -0.196 OA 
BRANCH   9  10
HETATM   10  C   UNL     1     -10.558   9.382  69.650  1.00  0.00    -0.225 A  
HETATM   11  C   UNL     1     -10.060   9.322  68.344  1.00  0.00    -0.215 A  
HETATM   12  C   UNL     1     -10.411  10.294  67.391  1.00  0.00    -0.282 A  
HETATM   13  C   UNL     1     -11.268  11.327  67.744  1.00  0.00    -0.291 A  
HETATM   14  C   UNL     1     -11.778  11.393  69.034  1.00  0.00    -0.409 A  
HETATM   15 CL   UNL     1     -11.725  12.511  66.587  1.00  0.00    -0.450 Cl 
HETATM   16  C   UNL     1     -11.421  10.423  69.978  1.00  0.00    -0.382 A  
ENDBRANCH   9  10
ENDBRANCH   3   4
ENDBRANCH   2   3
TORSDOF 3
ENDMDL
MODEL       54
REMARK 921   NORMALIZED FREE ENERGY PREDICTED BY IDOCK:   -3.81 KCAL/MOL
REMARK 922        TOTAL FREE ENERGY PREDICTED BY IDOCK:   -4.78 KCAL/MOL
REMARK 923 INTER-LIGAND FREE ENERGY PREDICTED BY IDOCK:   -4.52 KCAL/MOL
REMARK 924 INTRA-LIGAND FREE ENERGY PREDICTED BY IDOCK:   -0.26 KCAL/MOL
REMARK 927      BINDING AFFINITY PREDICTED BY RF-SCORE:    0.00 PKD
ROOT
HETATM    1  C   UNL     1     -10.954   7.789  70.183  1.00  0.00    -0.246 C  
HETATM    2  C   UNL     1     -10.348   8.573  69.026  1.00  0.00    -0.216 C  
ENDROOT
BRANCH   2   3
HETATM    3  O   UNL     1     -10.939   9.881  68.993  1.00  0.00    -0.224 OA 
BRANCH   3   4
HETATM    4  C   UNL     1     -10.064  10.932  68.890  1.00  0.00    -0.198 C  
HETATM    5  O   UNL     1      -8.858  10.834  69.076  1.00  0.00    -0.162 OA 
HETATM    6  C   UNL     1     -10.808  12.185  68.349  1.00  0.00    -0.224 C  
HETATM    7  C   UNL     1     -11.899  12.562  69.356  1.00  0.00    -0.368 C  
HETATM    8  C   UNL     1     -11.350  11.728  66.982  1.00  0.00    -0.387 C  
HETATM    9  O   UNL     1      -9.810  13.219  68.244  1.00  0.00    -0.225 OA 
BRANCH   9  10
HETATM   10  C   UNL     1     -10.094  14.510  67.913  1.00  0.00    -0.227 A  
HETATM   11  C   UNL     1     -10.208  15.386  68.997  1.00  0.00    -0.233 A  
HETATM   12  C   UNL     1     -10.424  16.760  68.798  1.00  0.00    -0.338 A  
HETATM   13  C   UNL     1     -10.519  17.263  67.508  1.00  0.00    -0.356 A  
HETATM   14  C   UNL     1     -10.397  16.406  66.421  1.00  0.00    -0.319 A  
HETATM   15 CL   UNL     1     -10.760  18.943  67.244  1.00  0.00    -0.526 Cl 
HETATM   16  C   UNL     1     -10.187  15.038  66.628  1.00  0.00    -0.271 A  
ENDBRANCH   9  10
ENDBRANCH   3   4
ENDBRANCH   2   3
TORSDOF 3
ENDMDL
MODEL       55
REMARK 921   NORMALIZED FREE ENERGY PREDICTED BY IDOCK:   -3.81 KCAL/MOL
REMARK 922        TOTAL FREE ENERGY PREDICTED BY IDOCK:   -4.78 KCAL/MOL
REMARK 923 INTER-LIGAND FREE ENERGY PREDICTED BY IDOCK:   -4.49 KCAL/MOL
REMARK 924 INTRA-LIGAND FREE ENERGY PREDICTED BY IDOCK:   -0.29 KCAL/MOL
REMARK 927      BINDING AFFINITY PREDICTED BY RF-SCORE:    0.00 PKD
ROOT
HETATM    1  C   UNL     1      -9.807   4.493  73.638  1.00  0.00    -0.163 C  
HETATM    2  C   UNL     1     -11.164   5.000  73.169  1.00  0.00    -0.335 C  
ENDROOT
BRANCH   2   3
HETATM    3  O   UNL     1     -11.063   6.405  72.891  1.00  0.00    -0.251 OA 
BRANCH   3   4
HETATM    4  C   UNL     1     -11.107   6.759  71.566  1.00  0.00    -0.251 C  
HETATM    5  O   UNL     1     -11.253   5.957  70.652  1.00  0.00    -0.294 OA 
HETATM    6  C   UNL     1     -11.113   8.307  71.435  1.00  0.00    -0.251 C  
HETATM    7  C   UNL     1      -9.807   8.840  72.033  1.00  0.00    -0.376 C  
HETATM    8  C   UNL     1     -12.374   8.736  72.205  1.00  0.00    -0.448 C  
HETATM    9  O   UNL     1     -11.193   8.581  70.022  1.00  0.00    -0.205 OA 
BRANCH   9  10
HETATM   10  C   UNL     1     -11.105   9.833  69.491  1.00  0.00    -0.192 A  
HETATM   11  C   UNL     1     -10.220   9.956  68.415  1.00  0.00    -0.203 A  
HETATM   12  C   UNL     1     -10.087  11.173  67.724  1.00  0.00    -0.200 A  
HETATM   13  C   UNL     1     -10.848  12.269  68.105  1.00  0.00    -0.227 A  
HETATM   14  C   UNL     1     -11.740  12.158  69.165  1.00  0.00    -0.384 A  
HETATM   15 CL   UNL     1     -10.715  13.758  67.258  1.00  0.00    -0.281 Cl 
HETATM   16  C   UNL     1     -11.862  10.944  69.851  1.00  0.00    -0.427 A  
ENDBRANCH   9  10
ENDBRANCH   3   4
ENDBRANCH   2   3
TORSDOF 3
ENDMDL
MODEL       56
REMARK 921   NORMALIZED FREE ENERGY PREDICTED BY IDOCK:   -3.78 KCAL/MOL
REMARK 922        TOTAL FREE ENERGY PREDICTED BY IDOCK:   -4.73 KCAL/MOL
REMARK 923 INTER-LIGAND FREE ENERGY PREDICTED BY IDOCK:   -4.54 KCAL/MOL
REMARK 924 INTRA-LIGAND FREE ENERGY PREDICTED BY IDOCK:   -0.19 KCAL/MOL
REMARK 927      BINDING AFFINITY PREDICTED BY RF-SCORE:    0.00 PKD
ROOT
HETATM    1  C   UNL     1      -9.302   2.962  67.882  1.00  0.00    -0.256 C  
HETATM    2  C   UNL     1      -8.364   4.161  67.868  1.00  0.00    -0.094 C  
ENDROOT
BRANCH   2   3
HETATM    3  O   UNL     1      -9.132   5.346  67.607  1.00  0.00    -0.109 OA 
BRANCH   3   4
HETATM    4  C   UNL     1      -8.873   6.419  68.422  1.00  0.00    -0.119 C  
HETATM    5  O   UNL     1      -7.756   6.714  68.826  1.00  0.00    -0.105 OA 
HETATM    6  C   UNL     1     -10.164   7.267  68.601  1.00  0.00    -0.182 C  
HETATM    7  C   UNL     1     -11.220   6.388  69.280  1.00  0.00    -0.440 C  
HETATM    8  C   UNL     1     -10.529   7.687  67.166  1.00  0.00    -0.412 C  
HETATM    9  O   UNL     1      -9.790   8.379  69.437  1.00  0.00    -0.178 OA 
BRANCH   9  10
HETATM   10  C   UNL     1     -10.679   9.292  69.919  1.00  0.00    -0.234 A  
HETATM   11  C   UNL     1     -11.309   8.929  71.114  1.00  0.00    -0.357 A  
HETATM   12  C   UNL     1     -12.193   9.809  71.762  1.00  0.00    -0.449 A  
HETATM   13  C   UNL     1     -12.443  11.061  71.217  1.00  0.00    -0.370 A  
HETATM   14  C   UNL     1     -11.817  11.439  70.036  1.00  0.00    -0.440 A  
HETATM   15 CL   UNL     1     -13.503  12.158  72.006  1.00  0.00    -0.505 Cl 
HETATM   16  C   UNL     1     -10.942  10.555  69.394  1.00  0.00    -0.297 A  
ENDBRANCH   9  10
ENDBRANCH   3   4
ENDBRANCH   2   3
TORSDOF 3
ENDMDL
MODEL       57
REMARK 921   NORMALIZED FREE ENERGY PREDICTED BY IDOCK:   -3.76 KCAL/MOL
REMARK 922        TOTAL FREE ENERGY PREDICTED BY IDOCK:   -4.72 KCAL/MOL
REMARK 923 INTER-LIGAND FREE ENERGY PREDICTED BY IDOCK:   -4.56 KCAL/MOL
REMARK 924 INTRA-LIGAND FREE ENERGY PREDICTED BY IDOCK:   -0.15 KCAL/MOL
REMARK 927      BINDING AFFINITY PREDICTED BY RF-SCORE:    0.00 PKD
ROOT
HETATM    1  C   UNL     1     -13.252  14.395  72.061  1.00  0.00    -0.453 C  
HETATM    2  C   UNL     1     -12.145  15.236  71.438  1.00  0.00    -0.354 C  
ENDROOT
BRANCH   2   3
HETATM    3  O   UNL     1     -12.266  15.173  70.008  1.00  0.00    -0.321 OA 
BRANCH   3   4
HETATM    4  C   UNL     1     -11.107  14.926  69.318  1.00  0.00    -0.271 C  
HETATM    5  O   UNL     1     -10.008  15.342  69.663  1.00  0.00    -0.251 OA 
HETATM    6  C   UNL     1     -11.385  13.925  68.163  1.00  0.00    -0.295 C  
HETATM    7  C   UNL     1     -12.389  14.572  67.203  1.00  0.00    -0.031 C  
HETATM    8  C   UNL     1     -11.925  12.675  68.882  1.00  0.00    -0.284 C  
HETATM    9  O   UNL     1     -10.114  13.702  67.521  1.00  0.00    -0.233 OA 
BRANCH   9  10
HETATM   10  C   UNL     1      -9.962  12.968  66.384  1.00  0.00    -0.277 A  
HETATM   11  C   UNL     1      -9.307  11.744  66.555  1.00  0.00    -0.217 A  
HETATM   12  C   UNL     1      -9.149  10.852  65.480  1.00  0.00    -0.221 A  
HETATM   13  C   UNL     1      -9.655  11.182  64.230  1.00  0.00    -0.252 A  
HETATM   14  C   UNL     1     -10.317  12.389  64.049  1.00  0.00    -0.435 A  
HETATM   15 CL   UNL     1      -9.491  10.094  62.910  1.00  0.00    -0.322 Cl 
HETATM   16  C   UNL     1     -10.466  13.274  65.123  1.00  0.00    -0.346 A  
ENDBRANCH   9  10
ENDBRANCH   3   4
ENDBRANCH   2   3
TORSDOF 3
ENDMDL
MODEL       58
REMARK 921   NORMALIZED FREE ENERGY PREDICTED BY IDOCK:   -3.70 KCAL/MOL
REMARK 922        TOTAL FREE ENERGY PREDICTED BY IDOCK:   -4.64 KCAL/MOL
REMARK 923 INTER-LIGAND FREE ENERGY PREDICTED BY IDOCK:   -4.26 KCAL/MOL
REMARK 924 INTRA-LIGAND FREE ENERGY PREDICTED BY IDOCK:   -0.38 KCAL/MOL
REMARK 927      BINDING AFFINITY PREDICTED BY RF-SCORE:    0.00 PKD
ROOT
HETATM    1  C   UNL     1     -12.262  15.486  70.892  1.00  0.00    -0.450 C  
HETATM    2  C   UNL     1     -11.560  15.894  69.603  1.00  0.00    -0.336 C  
ENDROOT
BRANCH   2   3
HETATM    3  O   UNL     1     -11.698  14.833  68.646  1.00  0.00    -0.308 OA 
BRANCH   3   4
HETATM    4  C   UNL     1     -10.622  13.990  68.526  1.00  0.00    -0.254 C  
HETATM    5  O   UNL     1      -9.472  14.313  68.790  1.00  0.00    -0.197 OA 
HETATM    6  C   UNL     1     -11.113  12.558  68.175  1.00  0.00    -0.243 C  
HETATM    7  C   UNL     1     -11.832  12.618  66.824  1.00  0.00    -0.440 C  
HETATM    8  C   UNL     1     -12.029  12.185  69.354  1.00  0.00    -0.329 C  
HETATM    9  O   UNL     1      -9.926  11.743  68.103  1.00  0.00    -0.182 OA 
BRANCH   9  10
HETATM   10  C   UNL     1      -9.930  10.440  67.703  1.00  0.00    -0.174 A  
HETATM   11  C   UNL     1      -9.337  10.204  66.458  1.00  0.00    -0.200 A  
HETATM   12  C   UNL     1      -9.204   8.897  65.957  1.00  0.00    -0.287 A  
HETATM   13  C   UNL     1      -9.659   7.822  66.707  1.00  0.00    -0.212 A  
HETATM   14  C   UNL     1     -10.239   8.041  67.949  1.00  0.00    -0.267 A  
HETATM   15 CL   UNL     1      -9.484   6.216  66.120  1.00  0.00    -0.142 Cl 
HETATM   16  C   UNL     1     -10.373   9.345  68.439  1.00  0.00    -0.238 A  
ENDBRANCH   9  10
ENDBRANCH   3   4
ENDBRANCH   2   3
TORSDOF 3
ENDMDL
MODEL       59
REMARK 921   NORMALIZED FREE ENERGY PREDICTED BY IDOCK:   -3.66 KCAL/MOL
REMARK 922        TOTAL FREE ENERGY PREDICTED BY IDOCK:   -4.60 KCAL/MOL
REMARK 923 INTER-LIGAND FREE ENERGY PREDICTED BY IDOCK:   -4.45 KCAL/MOL
REMARK 924 INTRA-LIGAND FREE ENERGY PREDICTED BY IDOCK:   -0.15 KCAL/MOL
REMARK 927      BINDING AFFINITY PREDICTED BY RF-SCORE:    0.00 PKD
ROOT
HETATM    1  C   UNL     1     -10.583  14.915  65.377  1.00  0.00    -0.391 C  
HETATM    2  C   UNL     1     -10.126  13.539  65.844  1.00  0.00    -0.303 C  
ENDROOT
BRANCH   2   3
HETATM    3  O   UNL     1     -10.674  13.287  67.147  1.00  0.00    -0.257 OA 
BRANCH   3   4
HETATM    4  C   UNL     1      -9.909  12.509  67.978  1.00  0.00    -0.214 C  
HETATM    5  O   UNL     1      -8.754  12.775  68.287  1.00  0.00    -0.183 OA 
HETATM    6  C   UNL     1     -10.777  11.368  68.577  1.00  0.00    -0.201 C  
HETATM    7  C   UNL     1     -11.276  10.493  67.422  1.00  0.00    -0.249 C  
HETATM    8  C   UNL     1     -11.897  12.112  69.326  1.00  0.00    -0.370 C  
HETATM    9  O   UNL     1      -9.904  10.630  69.455  1.00  0.00    -0.187 OA 
BRANCH   9  10
HETATM   10  C   UNL     1     -10.266   9.476  70.083  1.00  0.00    -0.246 A  
HETATM   11  C   UNL     1     -10.985   9.652  71.270  1.00  0.00    -0.399 A  
HETATM   12  C   UNL     1     -11.487   8.548  71.982  1.00  0.00    -0.431 A  
HETATM   13  C   UNL     1     -11.275   7.264  71.501  1.00  0.00    -0.245 A  
HETATM   14  C   UNL     1     -10.573   7.075  70.317  1.00  0.00    -0.247 A  
HETATM   15 CL   UNL     1     -11.900   5.904  72.345  1.00  0.00    -0.330 Cl 
HETATM   16  C   UNL     1     -10.072   8.179  69.617  1.00  0.00    -0.199 A  
ENDBRANCH   9  10
ENDBRANCH   3   4
ENDBRANCH   2   3
TORSDOF 3
ENDMDL
MODEL       60
REMARK 921   NORMALIZED FREE ENERGY PREDICTED BY IDOCK:   -3.64 KCAL/MOL
REMARK 922        TOTAL FREE ENERGY PREDICTED BY IDOCK:   -4.58 KCAL/MOL
REMARK 923 INTER-LIGAND FREE ENERGY PREDICTED BY IDOCK:   -4.42 KCAL/MOL
REMARK 924 INTRA-LIGAND FREE ENERGY PREDICTED BY IDOCK:   -0.16 KCAL/MOL
REMARK 927      BINDING AFFINITY PREDICTED BY RF-SCORE:    0.00 PKD
ROOT
HETATM    1  C   UNL     1     -11.878  13.016  63.610  1.00  0.00    -0.580 C  
HETATM    2  C   UNL     1     -10.594  13.006  64.430  1.00  0.00    -0.409 C  
ENDROOT
BRANCH   2   3
HETATM    3  O   UNL     1     -10.914  12.664  65.787  1.00  0.00    -0.270 OA 
BRANCH   3   4
HETATM    4  C   UNL     1     -10.623  11.378  66.166  1.00  0.00    -0.265 C  
HETATM    5  O   UNL     1     -10.405  10.469  65.375  1.00  0.00    -0.278 OA 
HETATM    6  C   UNL     1     -10.455  11.309  67.709  1.00  0.00    -0.187 C  
HETATM    7  C   UNL     1     -11.787  11.712  68.351  1.00  0.00    -0.346 C  
HETATM    8  C   UNL     1      -9.301  12.287  67.996  1.00  0.00    -0.195 C  
HETATM    9  O   UNL     1     -10.122   9.939  68.007  1.00  0.00    -0.157 OA 
BRANCH   9  10
HETATM   10  C   UNL     1     -10.008   9.449  69.274  1.00  0.00    -0.181 A  
HETATM   11  C   UNL     1      -8.734   9.566  69.838  1.00  0.00    -0.224 A  
HETATM   12  C   UNL     1      -8.491   9.171  71.165  1.00  0.00    -0.175 A  
HETATM   13  C   UNL     1      -9.530   8.664  71.934  1.00  0.00    -0.299 A  
HETATM   14  C   UNL     1     -10.803   8.552  71.389  1.00  0.00    -0.327 A  
HETATM   15 CL   UNL     1      -9.258   8.197  73.565  1.00  0.00    -0.309 Cl 
HETATM   16  C   UNL     1     -11.034   8.944  70.066  1.00  0.00    -0.217 A  
ENDBRANCH   9  10
ENDBRANCH   3   4
ENDBRANCH   2   3
TORSDOF 3
ENDMDL
MODEL       61
REMARK 921   NORMALIZED FREE ENERGY PREDICTED BY IDOCK:   -3.64 KCAL/MOL
REMARK 922        TOTAL FREE ENERGY PREDICTED BY IDOCK:   -4.57 KCAL/MOL
REMARK 923 INTER-LIGAND FREE ENERGY PREDICTED BY IDOCK:   -4.23 KCAL/MOL
REMARK 924 INTRA-LIGAND FREE ENERGY PREDICTED BY IDOCK:   -0.34 KCAL/MOL
REMARK 927      BINDING AFFINITY PREDICTED BY RF-SCORE:    0.00 PKD
ROOT
HETATM    1  C   UNL     1      -9.934   6.490  69.950  1.00  0.00    -0.191 C  
HETATM    2  C   UNL     1      -9.175   7.766  70.288  1.00  0.00    -0.156 C  
ENDROOT
BRANCH   2   3
HETATM    3  O   UNL     1     -10.003   8.895  69.968  1.00  0.00    -0.179 OA 
BRANCH   3   4
HETATM    4  C   UNL     1      -9.360   9.972  69.412  1.00  0.00    -0.223 C  
HETATM    5  O   UNL     1      -8.192  10.260  69.640  1.00  0.00    -0.167 OA 
HETATM    6  C   UNL     1     -10.277  10.641  68.350  1.00  0.00    -0.173 C  
HETATM    7  C   UNL     1     -11.537  11.145  69.060  1.00  0.00    -0.392 C  
HETATM    8  C   UNL     1     -10.540   9.517  67.332  1.00  0.00    -0.337 C  
HETATM    9  O   UNL     1      -9.511  11.732  67.802  1.00  0.00    -0.172 OA 
BRANCH   9  10
HETATM   10  C   UNL     1     -10.016  12.637  66.917  1.00  0.00    -0.230 A  
HETATM   11  C   UNL     1     -10.263  13.907  67.448  1.00  0.00    -0.252 A  
HETATM   12  C   UNL     1     -10.713  14.958  66.630  1.00  0.00    -0.312 A  
HETATM   13  C   UNL     1     -10.909  14.740  65.273  1.00  0.00    -0.383 A  
HETATM   14  C   UNL     1     -10.657  13.486  64.730  1.00  0.00    -0.429 A  
HETATM   15 CL   UNL     1     -11.437  16.018  64.254  1.00  0.00    -0.336 Cl 
HETATM   16  C   UNL     1     -10.214  12.444  65.552  1.00  0.00    -0.297 A  
ENDBRANCH   9  10
ENDBRANCH   3   4
ENDBRANCH   2   3
TORSDOF 3
ENDMDL
MODEL       62
REMARK 921   NORMALIZED FREE ENERGY PREDICTED BY IDOCK:   -3.62 KCAL/MOL
REMARK 922        TOTAL FREE ENERGY PREDICTED BY IDOCK:   -4.55 KCAL/MOL
REMARK 923 INTER-LIGAND FREE ENERGY PREDICTED BY IDOCK:   -4.23 KCAL/MOL
REMARK 924 INTRA-LIGAND FREE ENERGY PREDICTED BY IDOCK:   -0.31 KCAL/MOL
REMARK 927      BINDING AFFINITY PREDICTED BY RF-SCORE:    0.00 PKD
ROOT
HETATM    1  C   UNL     1      -9.291   5.182  66.279  1.00  0.00    -0.155 C  
HETATM    2  C   UNL     1      -8.780   6.396  67.042  1.00  0.00    -0.115 C  
ENDROOT
BRANCH   2   3
HETATM    3  O   UNL     1      -8.828   7.541  66.176  1.00  0.00    -0.152 OA 
BRANCH   3   4
HETATM    4  C   UNL     1      -9.854   8.422  66.405  1.00  0.00    -0.240 C  
HETATM    5  O   UNL     1     -10.848   8.153  67.066  1.00  0.00    -0.265 OA 
HETATM    6  C   UNL     1      -9.477   9.824  65.848  1.00  0.00    -0.226 C  
HETATM    7  C   UNL     1      -9.279   9.697  64.334  1.00  0.00    -0.258 C  
HETATM    8  C   UNL     1      -8.197  10.192  66.618  1.00  0.00    -0.123 C  
HETATM    9  O   UNL     1     -10.592  10.683  66.161  1.00  0.00    -0.219 OA 
BRANCH   9  10
HETATM   10  C   UNL     1     -10.692  11.973  65.733  1.00  0.00    -0.279 A  
HETATM   11  C   UNL     1     -11.795  12.238  64.915  1.00  0.00    -0.417 A  
HETATM   12  C   UNL     1     -12.064  13.542  64.464  1.00  0.00    -0.460 A  
HETATM   13  C   UNL     1     -11.230  14.586  64.838  1.00  0.00    -0.391 A  
HETATM   14  C   UNL     1     -10.137  14.339  65.659  1.00  0.00    -0.364 A  
HETATM   15 CL   UNL     1     -11.555  16.190  64.315  1.00  0.00    -0.294 Cl 
HETATM   16  C   UNL     1      -9.874  13.037  66.100  1.00  0.00    -0.275 A  
ENDBRANCH   9  10
ENDBRANCH   3   4
ENDBRANCH   2   3
TORSDOF 3
ENDMDL
MODEL       63
REMARK 921   NORMALIZED FREE ENERGY PREDICTED BY IDOCK:   -3.61 KCAL/MOL
REMARK 922        TOTAL FREE ENERGY PREDICTED BY IDOCK:   -4.54 KCAL/MOL
REMARK 923 INTER-LIGAND FREE ENERGY PREDICTED BY IDOCK:   -4.41 KCAL/MOL
REMARK 924 INTRA-LIGAND FREE ENERGY PREDICTED BY IDOCK:   -0.13 KCAL/MOL
REMARK 927      BINDING AFFINITY PREDICTED BY RF-SCORE:    0.00 PKD
ROOT
HETATM    1  C   UNL     1      -9.111  16.177  67.157  1.00  0.00    -0.218 C  
HETATM    2  C   UNL     1     -10.620  16.150  67.365  1.00  0.00    -0.311 C  
ENDROOT
BRANCH   2   3
HETATM    3  O   UNL     1     -11.143  14.936  66.805  1.00  0.00    -0.325 OA 
BRANCH   3   4
HETATM    4  C   UNL     1     -11.460  13.949  67.704  1.00  0.00    -0.324 C  
HETATM    5  O   UNL     1     -12.154  14.129  68.696  1.00  0.00    -0.343 OA 
HETATM    6  C   UNL     1     -10.952  12.577  67.179  1.00  0.00    -0.263 C  
HETATM    7  C   UNL     1      -9.426  12.649  67.059  1.00  0.00    -0.220 C  
HETATM    8  C   UNL     1     -11.678  12.408  65.832  1.00  0.00    -0.476 C  
HETATM    9  O   UNL     1     -11.356  11.606  68.165  1.00  0.00    -0.244 OA 
BRANCH   9  10
HETATM   10  C   UNL     1     -10.993  10.293  68.122  1.00  0.00    -0.274 A  
HETATM   11  C   UNL     1     -10.922   9.660  69.367  1.00  0.00    -0.215 A  
HETATM   12  C   UNL     1     -10.634   8.288  69.465  1.00  0.00    -0.216 A  
HETATM   13  C   UNL     1     -10.423   7.543  68.313  1.00  0.00    -0.180 A  
HETATM   14  C   UNL     1     -10.501   8.157  67.069  1.00  0.00    -0.396 A  
HETATM   15 CL   UNL     1     -10.092   5.861  68.412  1.00  0.00    -0.186 Cl 
HETATM   16  C   UNL     1     -10.784   9.525  66.980  1.00  0.00    -0.220 A  
ENDBRANCH   9  10
ENDBRANCH   3   4
ENDBRANCH   2   3
TORSDOF 3
ENDMDL
MODEL       64
REMARK 921   NORMALIZED FREE ENERGY PREDICTED BY IDOCK:   -3.60 KCAL/MOL
REMARK 922        TOTAL FREE ENERGY PREDICTED BY IDOCK:   -4.53 KCAL/MOL
REMARK 923 INTER-LIGAND FREE ENERGY PREDICTED BY IDOCK:   -4.64 KCAL/MOL
REMARK 924 INTRA-LIGAND FREE ENERGY PREDICTED BY IDOCK:    0.11 KCAL/MOL
REMARK 927      BINDING AFFINITY PREDICTED BY RF-SCORE:    0.00 PKD
ROOT
HETATM    1  C   UNL     1     -10.216   4.876  70.585  1.00  0.00    -0.282 C  
HETATM    2  C   UNL     1     -10.859   5.868  69.625  1.00  0.00    -0.374 C  
ENDROOT
BRANCH   2   3
HETATM    3  O   UNL     1     -10.251   7.155  69.814  1.00  0.00    -0.198 OA 
BRANCH   3   4
HETATM    4  C   UNL     1     -11.087   8.156  70.240  1.00  0.00    -0.221 C  
HETATM    5  O   UNL     1     -11.955   8.003  71.090  1.00  0.00    -0.293 OA 
HETATM    6  C   UNL     1     -10.650   9.509  69.612  1.00  0.00    -0.228 C  
HETATM    7  C   UNL     1     -10.776   9.390  68.089  1.00  0.00    -0.230 C  
HETATM    8  C   UNL     1      -9.204   9.693  70.106  1.00  0.00    -0.287 C  
HETATM    9  O   UNL     1     -11.557  10.498  70.138  1.00  0.00    -0.275 OA 
BRANCH   9  10
HETATM   10  C   UNL     1     -11.572  11.798  69.733  1.00  0.00    -0.299 A  
HETATM   11  C   UNL     1     -12.275  12.669  70.571  1.00  0.00    -0.383 A  
HETATM   12  C   UNL     1     -12.309  14.051  70.314  1.00  0.00    -0.425 A  
HETATM   13  C   UNL     1     -11.631  14.565  69.218  1.00  0.00    -0.302 A  
HETATM   14  C   UNL     1     -10.920  13.713  68.382  1.00  0.00    -0.284 A  
HETATM   15 CL   UNL     1     -11.642  16.253  68.901  1.00  0.00    -0.296 Cl 
HETATM   16  C   UNL     1     -10.895  12.338  68.643  1.00  0.00    -0.268 A  
ENDBRANCH   9  10
ENDBRANCH   3   4
ENDBRANCH   2   3
TORSDOF 3
ENDMDL
MODEL       65
REMARK 921   NORMALIZED FREE ENERGY PREDICTED BY IDOCK:   -3.55 KCAL/MOL
REMARK 922        TOTAL FREE ENERGY PREDICTED BY IDOCK:   -4.47 KCAL/MOL
REMARK 923 INTER-LIGAND FREE ENERGY PREDICTED BY IDOCK:   -4.30 KCAL/MOL
REMARK 924 INTRA-LIGAND FREE ENERGY PREDICTED BY IDOCK:   -0.18 KCAL/MOL
REMARK 927      BINDING AFFINITY PREDICTED BY RF-SCORE:    0.00 PKD
ROOT
HETATM    1  C   UNL     1     -10.218  13.887  65.533  1.00  0.00    -0.348 C  
HETATM    2  C   UNL     1      -9.686  12.559  66.055  1.00  0.00    -0.241 C  
ENDROOT
BRANCH   2   3
HETATM    3  O   UNL     1     -10.511  12.127  67.148  1.00  0.00    -0.215 OA 
BRANCH   3   4
HETATM    4  C   UNL     1      -9.854  11.544  68.201  1.00  0.00    -0.194 C  
HETATM    5  O   UNL     1      -8.774  11.931  68.629  1.00  0.00    -0.131 OA 
HETATM    6  C   UNL     1     -10.757  10.456  68.847  1.00  0.00    -0.224 C  
HETATM    7  C   UNL     1     -11.031   9.378  67.793  1.00  0.00    -0.122 C  
HETATM    8  C   UNL     1     -12.010  11.233  69.287  1.00  0.00    -0.411 C  
HETATM    9  O   UNL     1     -10.002   9.926  69.955  1.00  0.00    -0.230 OA 
BRANCH   9  10
HETATM   10  C   UNL     1     -10.410   8.865  70.706  1.00  0.00    -0.226 A  
HETATM   11  C   UNL     1     -10.012   7.614  70.224  1.00  0.00    -0.189 A  
HETATM   12  C   UNL     1     -10.298   6.438  70.940  1.00  0.00    -0.246 A  
HETATM   13  C   UNL     1     -10.980   6.515  72.146  1.00  0.00    -0.249 A  
HETATM   14  C   UNL     1     -11.372   7.752  72.642  1.00  0.00    -0.449 A  
HETATM   15 CL   UNL     1     -11.319   5.091  73.046  1.00  0.00    -0.380 Cl 
HETATM   16  C   UNL     1     -11.087   8.917  71.921  1.00  0.00    -0.442 A  
ENDBRANCH   9  10
ENDBRANCH   3   4
ENDBRANCH   2   3
TORSDOF 3
ENDMDL
MODEL       66
REMARK 921   NORMALIZED FREE ENERGY PREDICTED BY IDOCK:   -3.53 KCAL/MOL
REMARK 922        TOTAL FREE ENERGY PREDICTED BY IDOCK:   -4.45 KCAL/MOL
REMARK 923 INTER-LIGAND FREE ENERGY PREDICTED BY IDOCK:   -4.13 KCAL/MOL
REMARK 924 INTRA-LIGAND FREE ENERGY PREDICTED BY IDOCK:   -0.32 KCAL/MOL
REMARK 927      BINDING AFFINITY PREDICTED BY RF-SCORE:    0.00 PKD
ROOT
HETATM    1  C   UNL     1     -10.676   3.605  73.472  1.00  0.00    -0.307 C  
HETATM    2  C   UNL     1     -10.069   5.002  73.472  1.00  0.00    -0.166 C  
ENDROOT
BRANCH   2   3
HETATM    3  O   UNL     1     -10.381   5.642  72.226  1.00  0.00    -0.194 OA 
BRANCH   3   4
HETATM    4  C   UNL     1     -10.630   6.990  72.289  1.00  0.00    -0.213 C  
HETATM    5  O   UNL     1     -10.915   7.581  73.323  1.00  0.00    -0.393 OA 
HETATM    6  C   UNL     1     -10.333   7.645  70.912  1.00  0.00    -0.201 C  
HETATM    7  C   UNL     1     -11.279   7.028  69.877  1.00  0.00    -0.286 C  
HETATM    8  C   UNL     1      -8.847   7.328  70.668  1.00  0.00    -0.148 C  
HETATM    9  O   UNL     1     -10.589   9.053  71.084  1.00  0.00    -0.240 OA 
BRANCH   9  10
HETATM   10  C   UNL     1     -10.552   9.956  70.064  1.00  0.00    -0.288 A  
HETATM   11  C   UNL     1     -11.755  10.630  69.829  1.00  0.00    -0.385 A  
HETATM   12  C   UNL     1     -11.840  11.642  68.857  1.00  0.00    -0.392 A  
HETATM   13  C   UNL     1     -10.714  11.987  68.122  1.00  0.00    -0.216 A  
HETATM   14  C   UNL     1      -9.510  11.333  68.352  1.00  0.00    -0.192 A  
HETATM   15 CL   UNL     1     -10.793  13.237  66.945  1.00  0.00    -0.277 Cl 
HETATM   16  C   UNL     1      -9.436  10.323  69.318  1.00  0.00    -0.230 A  
ENDBRANCH   9  10
ENDBRANCH   3   4
ENDBRANCH   2   3
TORSDOF 3
ENDMDL
MODEL       67
REMARK 921   NORMALIZED FREE ENERGY PREDICTED BY IDOCK:   -3.52 KCAL/MOL
REMARK 922        TOTAL FREE ENERGY PREDICTED BY IDOCK:   -4.43 KCAL/MOL
REMARK 923 INTER-LIGAND FREE ENERGY PREDICTED BY IDOCK:   -4.27 KCAL/MOL
REMARK 924 INTRA-LIGAND FREE ENERGY PREDICTED BY IDOCK:   -0.17 KCAL/MOL
REMARK 927      BINDING AFFINITY PREDICTED BY RF-SCORE:    0.00 PKD
ROOT
HETATM    1  C   UNL     1     -10.841  15.465  65.874  1.00  0.00    -0.328 C  
HETATM    2  C   UNL     1     -10.390  14.292  65.014  1.00  0.00    -0.421 C  
ENDROOT
BRANCH   2   3
HETATM    3  O   UNL     1      -9.829  13.282  65.866  1.00  0.00    -0.277 OA 
BRANCH   3   4
HETATM    4  C   UNL     1     -10.706  12.335  66.331  1.00  0.00    -0.251 C  
HETATM    5  O   UNL     1     -11.923  12.474  66.328  1.00  0.00    -0.508 OA 
HETATM    6  C   UNL     1      -9.934  11.035  66.691  1.00  0.00    -0.209 C  
HETATM    7  C   UNL     1      -8.942  11.365  67.810  1.00  0.00    -0.147 C  
HETATM    8  C   UNL     1      -9.268  10.625  65.365  1.00  0.00    -0.226 C  
HETATM    9  O   UNL     1     -10.933  10.095  67.135  1.00  0.00    -0.235 OA 
BRANCH   9  10
HETATM   10  C   UNL     1     -10.638   8.868  67.649  1.00  0.00    -0.224 A  
HETATM   11  C   UNL     1     -10.752   8.769  69.039  1.00  0.00    -0.134 A  
HETATM   12  C   UNL     1     -10.551   7.542  69.696  1.00  0.00    -0.243 A  
HETATM   13  C   UNL     1     -10.242   6.408  68.958  1.00  0.00    -0.183 A  
HETATM   14  C   UNL     1     -10.136   6.490  67.575  1.00  0.00    -0.193 A  
HETATM   15 CL   UNL     1     -10.014   4.896  69.740  1.00  0.00    -0.298 Cl 
HETATM   16  C   UNL     1     -10.333   7.716  66.930  1.00  0.00    -0.388 A  
ENDBRANCH   9  10
ENDBRANCH   3   4
ENDBRANCH   2   3
TORSDOF 3
ENDMDL
MODEL       68
REMARK 921   NORMALIZED FREE ENERGY PREDICTED BY IDOCK:   -3.47 KCAL/MOL
REMARK 922        TOTAL FREE ENERGY PREDICTED BY IDOCK:   -4.38 KCAL/MOL
REMARK 923 INTER-LIGAND FREE ENERGY PREDICTED BY IDOCK:   -4.08 KCAL/MOL
REMARK 924 INTRA-LIGAND FREE ENERGY PREDICTED BY IDOCK:   -0.30 KCAL/MOL
REMARK 927      BINDING AFFINITY PREDICTED BY RF-SCORE:    0.00 PKD
ROOT
HETATM    1  C   UNL     1      -9.600   3.813  68.229  1.00  0.00    -0.171 C  
HETATM    2  C   UNL     1      -9.079   5.169  67.768  1.00  0.00    -0.111 C  
ENDROOT
BRANCH   2   3
HETATM    3  O   UNL     1      -9.654   6.191  68.595  1.00  0.00    -0.126 OA 
BRANCH   3   4
HETATM    4  C   UNL     1     -10.413   7.132  67.946  1.00  0.00    -0.212 C  
HETATM    5  O   UNL     1     -11.151   6.878  67.003  1.00  0.00    -0.389 OA 
HETATM    6  C   UNL     1     -10.314   8.493  68.690  1.00  0.00    -0.198 C  
HETATM    7  C   UNL     1      -8.851   8.947  68.658  1.00  0.00    -0.137 C  
HETATM    8  C   UNL     1     -10.840   8.178  70.102  1.00  0.00    -0.241 C  
HETATM    9  O   UNL     1     -11.162   9.402  67.960  1.00  0.00    -0.040 OA 
BRANCH   9  10
HETATM   10  C   UNL     1     -11.252  10.733  68.235  1.00  0.00    -0.297 A  
HETATM   11  C   UNL     1     -11.087  11.576  67.131  1.00  0.00    -0.355 A  
HETATM   12  C   UNL     1     -11.230  12.969  67.257  1.00  0.00    -0.325 A  
HETATM   13  C   UNL     1     -11.547  13.521  68.490  1.00  0.00    -0.333 A  
HETATM   14  C   UNL     1     -11.725  12.695  69.593  1.00  0.00    -0.373 A  
HETATM   15 CL   UNL     1     -11.748  15.219  68.657  1.00  0.00    -0.371 Cl 
HETATM   16  C   UNL     1     -11.576  11.309  69.460  1.00  0.00    -0.398 A  
ENDBRANCH   9  10
ENDBRANCH   3   4
ENDBRANCH   2   3
TORSDOF 3
ENDMDL
MODEL       69
REMARK 921   NORMALIZED FREE ENERGY PREDICTED BY IDOCK:   -3.43 KCAL/MOL
REMARK 922        TOTAL FREE ENERGY PREDICTED BY IDOCK:   -4.32 KCAL/MOL
REMARK 923 INTER-LIGAND FREE ENERGY PREDICTED BY IDOCK:   -4.08 KCAL/MOL
REMARK 924 INTRA-LIGAND FREE ENERGY PREDICTED BY IDOCK:   -0.24 KCAL/MOL
REMARK 927      BINDING AFFINITY PREDICTED BY RF-SCORE:    0.00 PKD
ROOT
HETATM    1  C   UNL     1     -12.208  15.156  64.157  1.00  0.00    -0.182 C  
HETATM    2  C   UNL     1     -10.922  15.251  64.968  1.00  0.00    -0.437 C  
ENDROOT
BRANCH   2   3
HETATM    3  O   UNL     1     -11.051  14.429  66.138  1.00  0.00    -0.318 OA 
BRANCH   3   4
HETATM    4  C   UNL     1     -10.050  13.512  66.340  1.00  0.00    -0.294 C  
HETATM    5  O   UNL     1      -8.889  13.815  66.585  1.00  0.00    -0.182 OA 
HETATM    6  C   UNL     1     -10.649  12.079  66.374  1.00  0.00    -0.243 C  
HETATM    7  C   UNL     1     -11.292  11.799  65.011  1.00  0.00    -0.288 C  
HETATM    8  C   UNL     1     -11.653  12.128  67.540  1.00  0.00    -0.413 C  
HETATM    9  O   UNL     1      -9.538  11.195  66.621  1.00  0.00    -0.184 OA 
BRANCH   9  10
HETATM   10  C   UNL     1      -9.638   9.836  66.607  1.00  0.00    -0.187 A  
HETATM   11  C   UNL     1      -8.704   9.184  65.795  1.00  0.00    -0.192 A  
HETATM   12  C   UNL     1      -8.644   7.781  65.744  1.00  0.00    -0.162 A  
HETATM   13  C   UNL     1      -9.517   7.025  66.514  1.00  0.00    -0.150 A  
HETATM   14  C   UNL     1     -10.443   7.659  67.333  1.00  0.00    -0.367 A  
HETATM   15 CL   UNL     1      -9.444   5.309  66.482  1.00  0.00    -0.143 Cl 
HETATM   16  C   UNL     1     -10.499   9.057  67.374  1.00  0.00    -0.338 A  
ENDBRANCH   9  10
ENDBRANCH   3   4
ENDBRANCH   2   3
TORSDOF 3
ENDMDL
MODEL       70
REMARK 921   NORMALIZED FREE ENERGY PREDICTED BY IDOCK:   -3.42 KCAL/MOL
REMARK 922        TOTAL FREE ENERGY PREDICTED BY IDOCK:   -4.32 KCAL/MOL
REMARK 923 INTER-LIGAND FREE ENERGY PREDICTED BY IDOCK:   -4.16 KCAL/MOL
REMARK 924 INTRA-LIGAND FREE ENERGY PREDICTED BY IDOCK:   -0.16 KCAL/MOL
REMARK 927      BINDING AFFINITY PREDICTED BY RF-SCORE:    0.00 PKD
ROOT
HETATM    1  C   UNL     1      -8.921   5.237  65.020  1.00  0.00    -0.079 C  
HETATM    2  C   UNL     1      -9.051   5.445  66.523  1.00  0.00    -0.135 C  
ENDROOT
BRANCH   2   3
HETATM    3  O   UNL     1      -8.976   6.851  66.804  1.00  0.00    -0.122 OA 
BRANCH   3   4
HETATM    4  C   UNL     1     -10.167   7.470  67.089  1.00  0.00    -0.280 C  
HETATM    5  O   UNL     1     -11.235   6.879  67.186  1.00  0.00    -0.352 OA 
HETATM    6  C   UNL     1      -9.915   8.966  67.425  1.00  0.00    -0.209 C  
HETATM    7  C   UNL     1      -9.307   9.636  66.188  1.00  0.00    -0.248 C  
HETATM    8  C   UNL     1      -8.969   8.916  68.637  1.00  0.00    -0.137 C  
HETATM    9  O   UNL     1     -11.208   9.521  67.740  1.00  0.00    -0.091 OA 
BRANCH   9  10
HETATM   10  C   UNL     1     -11.422  10.845  67.976  1.00  0.00    -0.281 A  
HETATM   11  C   UNL     1     -11.665  11.174  69.314  1.00  0.00    -0.401 A  
HETATM   12  C   UNL     1     -11.828  12.512  69.712  1.00  0.00    -0.380 A  
HETATM   13  C   UNL     1     -11.741  13.527  68.770  1.00  0.00    -0.337 A  
HETATM   14  C   UNL     1     -11.490  13.216  67.439  1.00  0.00    -0.375 A  
HETATM   15 CL   UNL     1     -11.915  15.170  69.241  1.00  0.00    -0.336 Cl 
HETATM   16  C   UNL     1     -11.333  11.881  67.050  1.00  0.00    -0.392 A  
ENDBRANCH   9  10
ENDBRANCH   3   4
ENDBRANCH   2   3
TORSDOF 3
ENDMDL
MODEL       71
REMARK 921   NORMALIZED FREE ENERGY PREDICTED BY IDOCK:   -3.42 KCAL/MOL
REMARK 922        TOTAL FREE ENERGY PREDICTED BY IDOCK:   -4.32 KCAL/MOL
REMARK 923 INTER-LIGAND FREE ENERGY PREDICTED BY IDOCK:   -4.15 KCAL/MOL
REMARK 924 INTRA-LIGAND FREE ENERGY PREDICTED BY IDOCK:   -0.17 KCAL/MOL
REMARK 927      BINDING AFFINITY PREDICTED BY RF-SCORE:    0.00 PKD
ROOT
HETATM    1  C   UNL     1     -10.532  11.548  63.435  1.00  0.00    -0.466 C  
HETATM    2  C   UNL     1      -9.447  10.691  64.073  1.00  0.00    -0.285 C  
ENDROOT
BRANCH   2   3
HETATM    3  O   UNL     1     -10.020   9.959  65.167  1.00  0.00    -0.318 OA 
BRANCH   3   4
HETATM    4  C   UNL     1      -9.169   9.666  66.203  1.00  0.00    -0.174 C  
HETATM    5  O   UNL     1      -7.973   9.929  66.197  1.00  0.00    -0.105 OA 
HETATM    6  C   UNL     1      -9.980   9.121  67.411  1.00  0.00    -0.206 C  
HETATM    7  C   UNL     1     -10.672   7.826  66.975  1.00  0.00    -0.316 C  
HETATM    8  C   UNL     1     -10.952  10.266  67.748  1.00  0.00    -0.360 C  
HETATM    9  O   UNL     1      -9.015   8.875  68.453  1.00  0.00    -0.134 OA 
BRANCH   9  10
HETATM   10  C   UNL     1      -9.322   8.281  69.640  1.00  0.00    -0.158 A  
HETATM   11  C   UNL     1      -9.498   9.161  70.713  1.00  0.00    -0.334 A  
HETATM   12  C   UNL     1      -9.891   8.691  71.978  1.00  0.00    -0.396 A  
HETATM   13  C   UNL     1     -10.117   7.335  72.169  1.00  0.00    -0.181 A  
HETATM   14  C   UNL     1      -9.957   6.450  71.110  1.00  0.00    -0.203 A  
HETATM   15 CL   UNL     1     -10.620   6.745  73.702  1.00  0.00    -0.355 Cl 
HETATM   16  C   UNL     1      -9.560   6.926  69.855  1.00  0.00    -0.156 A  
ENDBRANCH   9  10
ENDBRANCH   3   4
ENDBRANCH   2   3
TORSDOF 3
ENDMDL
MODEL       72
REMARK 921   NORMALIZED FREE ENERGY PREDICTED BY IDOCK:   -3.35 KCAL/MOL
REMARK 922        TOTAL FREE ENERGY PREDICTED BY IDOCK:   -4.24 KCAL/MOL
REMARK 923 INTER-LIGAND FREE ENERGY PREDICTED BY IDOCK:   -4.07 KCAL/MOL
REMARK 924 INTRA-LIGAND FREE ENERGY PREDICTED BY IDOCK:   -0.17 KCAL/MOL
REMARK 927      BINDING AFFINITY PREDICTED BY RF-SCORE:    0.00 PKD
ROOT
HETATM    1  C   UNL     1     -11.981  11.993  69.575  1.00  0.00    -0.346 C  
HETATM    2  C   UNL     1     -11.228  10.690  69.337  1.00  0.00    -0.270 C  
ENDROOT
BRANCH   2   3
HETATM    3  O   UNL     1     -11.555   9.768  70.388  1.00  0.00    -0.258 OA 
BRANCH   3   4
HETATM    4  C   UNL     1     -10.525   8.981  70.837  1.00  0.00    -0.254 C  
HETATM    5  O   UNL     1      -9.358   9.347  70.882  1.00  0.00    -0.252 OA 
HETATM    6  C   UNL     1     -11.091   7.655  71.417  1.00  0.00    -0.238 C  
HETATM    7  C   UNL     1     -11.812   6.911  70.289  1.00  0.00    -0.311 C  
HETATM    8  C   UNL     1     -12.021   8.119  72.553  1.00  0.00    -0.410 C  
HETATM    9  O   UNL     1      -9.949   6.914  71.890  1.00  0.00    -0.173 OA 
BRANCH   9  10
HETATM   10  C   UNL     1     -10.022   5.639  72.366  1.00  0.00    -0.170 A  
HETATM   11  C   UNL     1     -10.413   5.531  73.704  1.00  0.00    -0.292 A  
HETATM   12  C   UNL     1     -10.603   4.273  74.303  1.00  0.00    -0.307 A  
HETATM   13  C   UNL     1     -10.407   3.119  73.558  1.00  0.00    -0.141 A  
HETATM   14  C   UNL     1     -10.028   3.212  72.225  1.00  0.00    -0.236 A  
HETATM   15 CL   UNL     1     -10.655   1.574  74.267  1.00  0.00    -0.155 Cl 
HETATM   16  C   UNL     1      -9.837   4.468  71.638  1.00  0.00    -0.258 A  
ENDBRANCH   9  10
ENDBRANCH   3   4
ENDBRANCH   2   3
TORSDOF 3
ENDMDL
MODEL       73
REMARK 921   NORMALIZED FREE ENERGY PREDICTED BY IDOCK:   -3.34 KCAL/MOL
REMARK 922        TOTAL FREE ENERGY PREDICTED BY IDOCK:   -4.22 KCAL/MOL
REMARK 923 INTER-LIGAND FREE ENERGY PREDICTED BY IDOCK:   -3.96 KCAL/MOL
REMARK 924 INTRA-LIGAND FREE ENERGY PREDICTED BY IDOCK:   -0.26 KCAL/MOL
REMARK 927      BINDING AFFINITY PREDICTED BY RF-SCORE:    0.00 PKD
ROOT
HETATM    1  C   UNL     1      -6.940   3.163  72.339  1.00  0.00    -0.031 C  
HETATM    2  C   UNL     1      -7.511   4.175  71.355  1.00  0.00    -0.059 C  
ENDROOT
BRANCH   2   3
HETATM    3  O   UNL     1      -8.433   5.028  72.051  1.00  0.00    -0.121 OA 
BRANCH   3   4
HETATM    4  C   UNL     1      -9.420   5.596  71.285  1.00  0.00    -0.148 C  
HETATM    5  O   UNL     1      -9.942   5.041  70.327  1.00  0.00    -0.214 OA 
HETATM    6  C   UNL     1      -9.866   6.943  71.918  1.00  0.00    -0.164 C  
HETATM    7  C   UNL     1      -8.659   7.887  71.929  1.00  0.00    -0.161 C  
HETATM    8  C   UNL     1     -10.360   6.544  73.321  1.00  0.00    -0.260 C  
HETATM    9  O   UNL     1     -10.918   7.446  71.071  1.00  0.00    -0.243 OA 
BRANCH   9  10
HETATM   10  C   UNL     1     -11.493   8.671  71.229  1.00  0.00    -0.283 A  
HETATM   11  C   UNL     1     -10.995   9.670  70.386  1.00  0.00    -0.356 A  
HETATM   12  C   UNL     1     -11.549  10.962  70.390  1.00  0.00    -0.418 A  
HETATM   13  C   UNL     1     -12.610  11.254  71.234  1.00  0.00    -0.382 A  
HETATM   14  C   UNL     1     -13.122  10.269  72.069  1.00  0.00    -0.529 A  
HETATM   15 CL   UNL     1     -13.315  12.821  71.236  1.00  0.00    -0.128 Cl 
HETATM   16  C   UNL     1     -12.562   8.986  72.063  1.00  0.00    -0.464 A  
ENDBRANCH   9  10
ENDBRANCH   3   4
ENDBRANCH   2   3
TORSDOF 3
ENDMDL
MODEL       74
REMARK 921   NORMALIZED FREE ENERGY PREDICTED BY IDOCK:   -3.34 KCAL/MOL
REMARK 922        TOTAL FREE ENERGY PREDICTED BY IDOCK:   -4.22 KCAL/MOL
REMARK 923 INTER-LIGAND FREE ENERGY PREDICTED BY IDOCK:   -3.84 KCAL/MOL
REMARK 924 INTRA-LIGAND FREE ENERGY PREDICTED BY IDOCK:   -0.38 KCAL/MOL
REMARK 927      BINDING AFFINITY PREDICTED BY RF-SCORE:    0.00 PKD
ROOT
HETATM    1  C   UNL     1      -5.804   8.453  66.307  1.00  0.00    -0.044 C  
HETATM    2  C   UNL     1      -5.921   9.960  66.117  1.00  0.00    -0.065 C  
ENDROOT
BRANCH   2   3
HETATM    3  O   UNL     1      -7.287  10.348  66.328  1.00  0.00    -0.114 OA 
BRANCH   3   4
HETATM    4  C   UNL     1      -7.620  10.698  67.612  1.00  0.00    -0.092 C  
HETATM    5  O   UNL     1      -6.921  11.402  68.329  1.00  0.00    -0.066 OA 
HETATM    6  C   UNL     1      -9.060  10.209  67.934  1.00  0.00    -0.131 C  
HETATM    7  C   UNL     1      -9.078   8.680  67.829  1.00  0.00    -0.143 C  
HETATM    8  C   UNL     1      -9.931  10.918  66.882  1.00  0.00    -0.232 C  
HETATM    9  O   UNL     1      -9.331  10.646  69.280  1.00  0.00    -0.187 OA 
BRANCH   9  10
HETATM   10  C   UNL     1     -10.457  10.309  69.969  1.00  0.00    -0.241 A  
HETATM   11  C   UNL     1     -10.276   9.330  70.952  1.00  0.00    -0.371 A  
HETATM   12  C   UNL     1     -11.336   8.941  71.790  1.00  0.00    -0.431 A  
HETATM   13  C   UNL     1     -12.580   9.538  71.649  1.00  0.00    -0.388 A  
HETATM   14  C   UNL     1     -12.772  10.519  70.684  1.00  0.00    -0.441 A  
HETATM   15 CL   UNL     1     -13.882   9.092  72.678  1.00  0.00    -0.475 Cl 
HETATM   16  C   UNL     1     -11.713  10.897  69.851  1.00  0.00    -0.418 A  
ENDBRANCH   9  10
ENDBRANCH   3   4
ENDBRANCH   2   3
TORSDOF 3
ENDMDL
MODEL       75
REMARK 921   NORMALIZED FREE ENERGY PREDICTED BY IDOCK:   -3.33 KCAL/MOL
REMARK 922        TOTAL FREE ENERGY PREDICTED BY IDOCK:   -4.22 KCAL/MOL
REMARK 923 INTER-LIGAND FREE ENERGY PREDICTED BY IDOCK:   -4.03 KCAL/MOL
REMARK 924 INTRA-LIGAND FREE ENERGY PREDICTED BY IDOCK:   -0.19 KCAL/MOL
REMARK 927      BINDING AFFINITY PREDICTED BY RF-SCORE:    0.00 PKD
ROOT
HETATM    1  C   UNL     1      -9.215  13.869  68.103  1.00  0.00    -0.202 C  
HETATM    2  C   UNL     1      -9.916  12.623  67.578  1.00  0.00    -0.205 C  
ENDROOT
BRANCH   2   3
HETATM    3  O   UNL     1     -10.458  11.894  68.690  1.00  0.00    -0.211 OA 
BRANCH   3   4
HETATM    4  C   UNL     1     -10.778  10.582  68.448  1.00  0.00    -0.224 C  
HETATM    5  O   UNL     1     -11.060  10.144  67.340  1.00  0.00    -0.283 OA 
HETATM    6  C   UNL     1     -10.563   9.742  69.737  1.00  0.00    -0.257 C  
HETATM    7  C   UNL     1     -11.508  10.278  70.818  1.00  0.00    -0.438 C  
HETATM    8  C   UNL     1      -9.070   9.939  70.059  1.00  0.00    -0.217 C  
HETATM    9  O   UNL     1     -10.889   8.385  69.380  1.00  0.00    -0.191 OA 
BRANCH   9  10
HETATM   10  C   UNL     1     -10.936   7.360  70.277  1.00  0.00    -0.255 A  
HETATM   11  C   UNL     1      -9.765   6.601  70.367  1.00  0.00    -0.186 A  
HETATM   12  C   UNL     1      -9.647   5.561  71.305  1.00  0.00    -0.198 A  
HETATM   13  C   UNL     1     -10.703   5.283  72.162  1.00  0.00    -0.209 A  
HETATM   14  C   UNL     1     -11.868   6.035  72.091  1.00  0.00    -0.304 A  
HETATM   15 CL   UNL     1     -10.569   4.030  73.330  1.00  0.00    -0.249 Cl 
HETATM   16  C   UNL     1     -11.979   7.066  71.151  1.00  0.00    -0.398 A  
ENDBRANCH   9  10
ENDBRANCH   3   4
ENDBRANCH   2   3
TORSDOF 3
ENDMDL
MODEL       76
REMARK 921   NORMALIZED FREE ENERGY PREDICTED BY IDOCK:   -3.33 KCAL/MOL
REMARK 922        TOTAL FREE ENERGY PREDICTED BY IDOCK:   -4.21 KCAL/MOL
REMARK 923 INTER-LIGAND FREE ENERGY PREDICTED BY IDOCK:   -4.33 KCAL/MOL
REMARK 924 INTRA-LIGAND FREE ENERGY PREDICTED BY IDOCK:    0.12 KCAL/MOL
REMARK 927      BINDING AFFINITY PREDICTED BY RF-SCORE:    0.00 PKD
ROOT
HETATM    1  C   UNL     1      -9.229   4.669  69.398  1.00  0.00    -0.179 C  
HETATM    2  C   UNL     1      -9.633   5.940  70.134  1.00  0.00    -0.162 C  
ENDROOT
BRANCH   2   3
HETATM    3  O   UNL     1      -9.322   7.072  69.308  1.00  0.00    -0.146 OA 
BRANCH   3   4
HETATM    4  C   UNL     1     -10.201   8.123  69.375  1.00  0.00    -0.211 C  
HETATM    5  O   UNL     1     -10.911   8.356  70.345  1.00  0.00    -0.229 OA 
HETATM    6  C   UNL     1     -10.027   9.035  68.128  1.00  0.00    -0.175 C  
HETATM    7  C   UNL     1     -10.359   8.206  66.883  1.00  0.00    -0.401 C  
HETATM    8  C   UNL     1      -8.557   9.486  68.205  1.00  0.00    -0.120 C  
HETATM    9  O   UNL     1     -10.960  10.119  68.302  1.00  0.00    -0.245 OA 
BRANCH   9  10
HETATM   10  C   UNL     1     -11.192  11.073  67.356  1.00  0.00    -0.285 A  
HETATM   11  C   UNL     1     -11.759  12.257  67.839  1.00  0.00    -0.410 A  
HETATM   12  C   UNL     1     -11.981  13.352  66.987  1.00  0.00    -0.429 A  
HETATM   13  C   UNL     1     -11.628  13.266  65.648  1.00  0.00    -0.335 A  
HETATM   14  C   UNL     1     -11.054  12.100  65.157  1.00  0.00    -0.369 A  
HETATM   15 CL   UNL     1     -11.872  14.603  64.596  1.00  0.00    -0.445 Cl 
HETATM   16  C   UNL     1     -10.841  11.013  66.011  1.00  0.00    -0.189 A  
ENDBRANCH   9  10
ENDBRANCH   3   4
ENDBRANCH   2   3
TORSDOF 3
ENDMDL
MODEL       77
REMARK 921   NORMALIZED FREE ENERGY PREDICTED BY IDOCK:   -3.33 KCAL/MOL
REMARK 922        TOTAL FREE ENERGY PREDICTED BY IDOCK:   -4.21 KCAL/MOL
REMARK 923 INTER-LIGAND FREE ENERGY PREDICTED BY IDOCK:   -3.93 KCAL/MOL
REMARK 924 INTRA-LIGAND FREE ENERGY PREDICTED BY IDOCK:   -0.28 KCAL/MOL
REMARK 927      BINDING AFFINITY PREDICTED BY RF-SCORE:    0.00 PKD
ROOT
HETATM    1  C   UNL     1     -12.109  14.904  69.902  1.00  0.00    -0.379 C  
HETATM    2  C   UNL     1     -12.010  15.449  68.483  1.00  0.00    -0.181 C  
ENDROOT
BRANCH   2   3
HETATM    3  O   UNL     1     -11.986  14.345  67.565  1.00  0.00    -0.384 OA 
BRANCH   3   4
HETATM    4  C   UNL     1     -10.803  13.655  67.487  1.00  0.00    -0.264 C  
HETATM    5  O   UNL     1      -9.718  14.128  67.798  1.00  0.00    -0.215 OA 
HETATM    6  C   UNL     1     -11.082  12.172  67.115  1.00  0.00    -0.291 C  
HETATM    7  C   UNL     1     -11.748  12.145  65.735  1.00  0.00    -0.391 C  
HETATM    8  C   UNL     1     -11.987  11.672  68.256  1.00  0.00    -0.236 C  
HETATM    9  O   UNL     1      -9.795  11.525  67.089  1.00  0.00    -0.189 OA 
BRANCH   9  10
HETATM   10  C   UNL     1      -9.607  10.236  66.688  1.00  0.00    -0.175 A  
HETATM   11  C   UNL     1      -8.673  10.069  65.660  1.00  0.00    -0.171 A  
HETATM   12  C   UNL     1      -8.326   8.787  65.200  1.00  0.00    -0.176 A  
HETATM   13  C   UNL     1      -8.909   7.667  65.775  1.00  0.00    -0.100 A  
HETATM   14  C   UNL     1      -9.831   7.818  66.804  1.00  0.00    -0.312 A  
HETATM   15 CL   UNL     1      -8.481   6.091  65.241  1.00  0.00    -0.148 Cl 
HETATM   16  C   UNL     1     -10.175   9.098  67.252  1.00  0.00    -0.319 A  
ENDBRANCH   9  10
ENDBRANCH   3   4
ENDBRANCH   2   3
TORSDOF 3
ENDMDL
MODEL       78
REMARK 921   NORMALIZED FREE ENERGY PREDICTED BY IDOCK:   -3.29 KCAL/MOL
REMARK 922        TOTAL FREE ENERGY PREDICTED BY IDOCK:   -4.16 KCAL/MOL
REMARK 923 INTER-LIGAND FREE ENERGY PREDICTED BY IDOCK:   -3.85 KCAL/MOL
REMARK 924 INTRA-LIGAND FREE ENERGY PREDICTED BY IDOCK:   -0.32 KCAL/MOL
REMARK 927      BINDING AFFINITY PREDICTED BY RF-SCORE:    0.00 PKD
ROOT
HETATM    1  C   UNL     1      -6.055   6.498  68.910  1.00  0.00    -0.026 C  
HETATM    2  C   UNL     1      -6.737   7.041  67.661  1.00  0.00    -0.068 C  
ENDROOT
BRANCH   2   3
HETATM    3  O   UNL     1      -7.885   7.807  68.056  1.00  0.00    -0.119 OA 
BRANCH   3   4
HETATM    4  C   UNL     1      -8.759   8.139  67.052  1.00  0.00    -0.131 C  
HETATM    5  O   UNL     1      -9.237   7.328  66.269  1.00  0.00    -0.168 OA 
HETATM    6  C   UNL     1      -9.160   9.635  67.178  1.00  0.00    -0.134 C  
HETATM    7  C   UNL     1      -7.894  10.483  67.015  1.00  0.00    -0.114 C  
HETATM    8  C   UNL     1      -9.800   9.728  68.574  1.00  0.00    -0.169 C  
HETATM    9  O   UNL     1     -10.097   9.882  66.110  1.00  0.00    -0.250 OA 
BRANCH   9  10
HETATM   10  C   UNL     1     -10.594  11.115  65.813  1.00  0.00    -0.227 A  
HETATM   11  C   UNL     1     -10.288  11.581  64.530  1.00  0.00    -0.354 A  
HETATM   12  C   UNL     1     -10.800  12.804  64.063  1.00  0.00    -0.458 A  
HETATM   13  C   UNL     1     -11.626  13.562  64.881  1.00  0.00    -0.335 A  
HETATM   14  C   UNL     1     -11.946  13.107  66.154  1.00  0.00    -0.478 A  
HETATM   15 CL   UNL     1     -12.279  15.049  64.320  1.00  0.00    -0.433 Cl 
HETATM   16  C   UNL     1     -11.429  11.890  66.612  1.00  0.00    -0.382 A  
ENDBRANCH   9  10
ENDBRANCH   3   4
ENDBRANCH   2   3
TORSDOF 3
ENDMDL
MODEL       79
REMARK 921   NORMALIZED FREE ENERGY PREDICTED BY IDOCK:   -3.29 KCAL/MOL
REMARK 922        TOTAL FREE ENERGY PREDICTED BY IDOCK:   -4.16 KCAL/MOL
REMARK 923 INTER-LIGAND FREE ENERGY PREDICTED BY IDOCK:   -4.06 KCAL/MOL
REMARK 924 INTRA-LIGAND FREE ENERGY PREDICTED BY IDOCK:   -0.11 KCAL/MOL
REMARK 927      BINDING AFFINITY PREDICTED BY RF-SCORE:    0.00 PKD
ROOT
HETATM    1  C   UNL     1      -8.173   8.435  66.293  1.00  0.00    -0.111 C  
HETATM    2  C   UNL     1      -7.906   9.929  66.173  1.00  0.00    -0.110 C  
ENDROOT
BRANCH   2   3
HETATM    3  O   UNL     1      -8.920  10.640  66.901  1.00  0.00    -0.137 OA 
BRANCH   3   4
HETATM    4  C   UNL     1      -9.540  11.659  66.224  1.00  0.00    -0.221 C  
HETATM    5  O   UNL     1     -10.173  11.503  65.188  1.00  0.00    -0.248 OA 
HETATM    6  C   UNL     1      -9.453  12.971  67.054  1.00  0.00    -0.237 C  
HETATM    7  C   UNL     1      -7.974  13.332  67.220  1.00  0.00    -0.134 C  
HETATM    8  C   UNL     1     -10.162  12.618  68.374  1.00  0.00    -0.233 C  
HETATM    9  O   UNL     1     -10.155  13.968  66.286  1.00  0.00    -0.282 OA 
BRANCH   9  10
HETATM   10  C   UNL     1     -10.201  15.287  66.627  1.00  0.00    -0.271 A  
HETATM   11  C   UNL     1     -11.029  15.587  67.713  1.00  0.00    -0.317 A  
HETATM   12  C   UNL     1     -11.113  16.895  68.220  1.00  0.00    -0.213 A  
HETATM   13  C   UNL     1     -10.360  17.907  67.642  1.00  0.00    -0.381 A  
HETATM   14  C   UNL     1      -9.525  17.622  66.568  1.00  0.00    -0.294 A  
HETATM   15 CL   UNL     1     -10.432  19.508  68.261  1.00  0.00    -0.497 Cl 
HETATM   16  C   UNL     1      -9.451  16.317  66.067  1.00  0.00    -0.369 A  
ENDBRANCH   9  10
ENDBRANCH   3   4
ENDBRANCH   2   3
TORSDOF 3
ENDMDL
MODEL       80
REMARK 921   NORMALIZED FREE ENERGY PREDICTED BY IDOCK:   -3.27 KCAL/MOL
REMARK 922        TOTAL FREE ENERGY PREDICTED BY IDOCK:   -4.14 KCAL/MOL
REMARK 923 INTER-LIGAND FREE ENERGY PREDICTED BY IDOCK:   -3.75 KCAL/MOL
REMARK 924 INTRA-LIGAND FREE ENERGY PREDICTED BY IDOCK:   -0.39 KCAL/MOL
REMARK 927      BINDING AFFINITY PREDICTED BY RF-SCORE:    0.00 PKD
ROOT
HETATM    1  C   UNL     1      -9.251   3.318  64.666  1.00  0.00    -0.141 C  
HETATM    2  C   UNL     1      -8.086   3.671  65.581  1.00  0.00    -0.093 C  
ENDROOT
BRANCH   2   3
HETATM    3  O   UNL     1      -8.310   4.978  66.132  1.00  0.00    -0.111 OA 
BRANCH   3   4
HETATM    4  C   UNL     1      -8.636   5.019  67.464  1.00  0.00    -0.104 C  
HETATM    5  O   UNL     1      -8.192   4.241  68.298  1.00  0.00    -0.088 OA 
HETATM    6  C   UNL     1      -9.499   6.279  67.755  1.00  0.00    -0.118 C  
HETATM    7  C   UNL     1     -10.794   6.167  66.944  1.00  0.00    -0.411 C  
HETATM    8  C   UNL     1      -8.594   7.449  67.331  1.00  0.00    -0.118 C  
HETATM    9  O   UNL     1      -9.763   6.255  69.172  1.00  0.00    -0.134 OA 
BRANCH   9  10
HETATM   10  C   UNL     1     -10.590   7.137  69.800  1.00  0.00    -0.234 A  
HETATM   11  C   UNL     1     -11.634   6.553  70.525  1.00  0.00    -0.455 A  
HETATM   12  C   UNL     1     -12.517   7.341  71.283  1.00  0.00    -0.402 A  
HETATM   13  C   UNL     1     -12.353   8.718  71.322  1.00  0.00    -0.270 A  
HETATM   14  C   UNL     1     -11.314   9.311  70.614  1.00  0.00    -0.330 A  
HETATM   15 CL   UNL     1     -13.409   9.695  72.260  1.00  0.00    -0.520 Cl 
HETATM   16  C   UNL     1     -10.441   8.519  69.858  1.00  0.00    -0.219 A  
ENDBRANCH   9  10
ENDBRANCH   3   4
ENDBRANCH   2   3
TORSDOF 3
ENDMDL
MODEL       81
REMARK 921   NORMALIZED FREE ENERGY PREDICTED BY IDOCK:   -3.21 KCAL/MOL
REMARK 922        TOTAL FREE ENERGY PREDICTED BY IDOCK:   -4.07 KCAL/MOL
REMARK 923 INTER-LIGAND FREE ENERGY PREDICTED BY IDOCK:   -3.93 KCAL/MOL
REMARK 924 INTRA-LIGAND FREE ENERGY PREDICTED BY IDOCK:   -0.14 KCAL/MOL
REMARK 927      BINDING AFFINITY PREDICTED BY RF-SCORE:    0.00 PKD
ROOT
HETATM    1  C   UNL     1      -6.317   6.465  65.084  1.00  0.00    -0.034 C  
HETATM    2  C   UNL     1      -7.744   6.834  65.468  1.00  0.00    -0.101 C  
ENDROOT
BRANCH   2   3
HETATM    3  O   UNL     1      -8.068   8.102  64.878  1.00  0.00    -0.140 OA 
BRANCH   3   4
HETATM    4  C   UNL     1      -9.159   8.747  65.404  1.00  0.00    -0.134 C  
HETATM    5  O   UNL     1      -9.913   8.247  66.228  1.00  0.00    -0.224 OA 
HETATM    6  C   UNL     1      -9.176  10.226  64.926  1.00  0.00    -0.227 C  
HETATM    7  C   UNL     1      -9.304  10.231  63.399  1.00  0.00    -0.340 C  
HETATM    8  C   UNL     1      -7.844  10.795  65.444  1.00  0.00    -0.001 C  
HETATM    9  O   UNL     1     -10.328  10.827  65.551  1.00  0.00    -0.265 OA 
BRANCH   9  10
HETATM   10  C   UNL     1     -10.754  12.094  65.286  1.00  0.00    -0.288 A  
HETATM   11  C   UNL     1      -9.979  13.108  65.858  1.00  0.00    -0.275 A  
HETATM   12  C   UNL     1     -10.259  14.462  65.606  1.00  0.00    -0.371 A  
HETATM   13  C   UNL     1     -11.314  14.804  64.772  1.00  0.00    -0.397 A  
HETATM   14  C   UNL     1     -12.086  13.807  64.188  1.00  0.00    -0.478 A  
HETATM   15 CL   UNL     1     -11.658  16.453  64.434  1.00  0.00    -0.190 Cl 
HETATM   16  C   UNL     1     -11.803  12.461  64.449  1.00  0.00    -0.461 A  
ENDBRANCH   9  10
ENDBRANCH   3   4
ENDBRANCH   2   3
TORSDOF 3
ENDMDL
MODEL       82
REMARK 921   NORMALIZED FREE ENERGY PREDICTED BY IDOCK:   -3.19 KCAL/MOL
REMARK 922        TOTAL FREE ENERGY PREDICTED BY IDOCK:   -4.05 KCAL/MOL
REMARK 923 INTER-LIGAND FREE ENERGY PREDICTED BY IDOCK:   -3.89 KCAL/MOL
REMARK 924 INTRA-LIGAND FREE ENERGY PREDICTED BY IDOCK:   -0.16 KCAL/MOL
REMARK 927      BINDING AFFINITY PREDICTED BY RF-SCORE:    0.00 PKD
ROOT
HETATM    1  C   UNL     1      -8.086   1.856  63.119  1.00  0.00    -0.061 C  
HETATM    2  C   UNL     1      -9.365   2.255  63.844  1.00  0.00    -0.114 C  
ENDROOT
BRANCH   2   3
HETATM    3  O   UNL     1      -9.051   3.266  64.814  1.00  0.00    -0.126 OA 
BRANCH   3   4
HETATM    4  C   UNL     1     -10.071   4.125  65.137  1.00  0.00    -0.209 C  
HETATM    5  O   UNL     1     -11.162   4.126  64.580  1.00  0.00    -0.331 OA 
HETATM    6  C   UNL     1      -9.686   4.949  66.396  1.00  0.00    -0.189 C  
HETATM    7  C   UNL     1      -8.444   5.781  66.059  1.00  0.00    -0.135 C  
HETATM    8  C   UNL     1      -9.447   3.879  67.477  1.00  0.00    -0.236 C  
HETATM    9  O   UNL     1     -10.821   5.792  66.677  1.00  0.00    -0.297 OA 
BRANCH   9  10
HETATM   10  C   UNL     1     -10.827   6.751  67.644  1.00  0.00    -0.289 A  
HETATM   11  C   UNL     1     -11.114   6.288  68.933  1.00  0.00    -0.434 A  
HETATM   12  C   UNL     1     -11.079   7.157  70.038  1.00  0.00    -0.288 A  
HETATM   13  C   UNL     1     -10.749   8.492  69.855  1.00  0.00    -0.224 A  
HETATM   14  C   UNL     1     -10.452   8.963  68.582  1.00  0.00    -0.223 A  
HETATM   15 CL   UNL     1     -10.680   9.563  71.196  1.00  0.00    -0.408 Cl 
HETATM   16  C   UNL     1     -10.493   8.093  67.487  1.00  0.00    -0.326 A  
ENDBRANCH   9  10
ENDBRANCH   3   4
ENDBRANCH   2   3
TORSDOF 3
ENDMDL
MODEL       83
REMARK 921   NORMALIZED FREE ENERGY PREDICTED BY IDOCK:   -3.19 KCAL/MOL
REMARK 922        TOTAL FREE ENERGY PREDICTED BY IDOCK:   -4.05 KCAL/MOL
REMARK 923 INTER-LIGAND FREE ENERGY PREDICTED BY IDOCK:   -3.74 KCAL/MOL
REMARK 924 INTRA-LIGAND FREE ENERGY PREDICTED BY IDOCK:   -0.31 KCAL/MOL
REMARK 927      BINDING AFFINITY PREDICTED BY RF-SCORE:    0.00 PKD
ROOT
HETATM    1  C   UNL     1      -5.906   2.436  69.892  1.00  0.00    -0.022 C  
HETATM    2  C   UNL     1      -7.185   2.713  69.114  1.00  0.00    -0.044 C  
ENDROOT
BRANCH   2   3
HETATM    3  O   UNL     1      -8.202   3.143  70.032  1.00  0.00    -0.045 OA 
BRANCH   3   4
HETATM    4  C   UNL     1      -9.187   3.939  69.506  1.00  0.00    -0.156 C  
HETATM    5  O   UNL     1      -9.741   3.720  68.437  1.00  0.00    -0.131 OA 
HETATM    6  C   UNL     1      -9.588   5.031  70.537  1.00  0.00    -0.185 C  
HETATM    7  C   UNL     1      -8.358   5.902  70.811  1.00  0.00    -0.125 C  
HETATM    8  C   UNL     1     -10.066   4.224  71.758  1.00  0.00    -0.227 C  
HETATM    9  O   UNL     1     -10.642   5.791  69.915  1.00  0.00    -0.261 OA 
BRANCH   9  10
HETATM   10  C   UNL     1     -11.184   6.916  70.460  1.00  0.00    -0.307 A  
HETATM   11  C   UNL     1     -10.703   8.118  69.931  1.00  0.00    -0.241 A  
HETATM   12  C   UNL     1     -11.228   9.354  70.348  1.00  0.00    -0.309 A  
HETATM   13  C   UNL     1     -12.244   9.387  71.292  1.00  0.00    -0.345 A  
HETATM   14  C   UNL     1     -12.739   8.200  71.818  1.00  0.00    -0.356 A  
HETATM   15 CL   UNL     1     -12.914  10.886  71.797  1.00  0.00    -0.578 Cl 
HETATM   16  C   UNL     1     -12.207   6.975  71.401  1.00  0.00    -0.407 A  
ENDBRANCH   9  10
ENDBRANCH   3   4
ENDBRANCH   2   3
TORSDOF 3
ENDMDL
MODEL       84
REMARK 921   NORMALIZED FREE ENERGY PREDICTED BY IDOCK:   -3.15 KCAL/MOL
REMARK 922        TOTAL FREE ENERGY PREDICTED BY IDOCK:   -4.00 KCAL/MOL
REMARK 923 INTER-LIGAND FREE ENERGY PREDICTED BY IDOCK:   -4.60 KCAL/MOL
REMARK 924 INTRA-LIGAND FREE ENERGY PREDICTED BY IDOCK:    0.60 KCAL/MOL
REMARK 927      BINDING AFFINITY PREDICTED BY RF-SCORE:    0.00 PKD
ROOT
HETATM    1  C   UNL     1      -9.941   7.851  67.568  1.00  0.00    -0.250 C  
HETATM    2  C   UNL     1      -9.016   8.905  66.973  1.00  0.00    -0.127 C  
ENDROOT
BRANCH   2   3
HETATM    3  O   UNL     1      -9.807  10.021  66.538  1.00  0.00    -0.188 OA 
BRANCH   3   4
HETATM    4  C   UNL     1      -9.572  11.210  67.181  1.00  0.00    -0.173 C  
HETATM    5  O   UNL     1      -8.521  11.832  67.099  1.00  0.00    -0.156 OA 
HETATM    6  C   UNL     1     -10.876  11.703  67.868  1.00  0.00    -0.210 C  
HETATM    7  C   UNL     1     -11.286  10.660  68.914  1.00  0.00    -0.337 C  
HETATM    8  C   UNL     1     -11.873  11.846  66.704  1.00  0.00    -0.150 C  
HETATM    9  O   UNL     1     -10.543  12.962  68.485  1.00  0.00    -0.245 OA 
BRANCH   9  10
HETATM   10  C   UNL     1     -11.397  13.658  69.287  1.00  0.00    -0.269 A  
HETATM   11  C   UNL     1     -12.047  12.892  70.261  1.00  0.00    -0.377 A  
HETATM   12  C   UNL     1     -12.898  13.494  71.205  1.00  0.00    -0.387 A  
HETATM   13  C   UNL     1     -13.094  14.867  71.179  1.00  0.00    -0.396 A  
HETATM   14  C   UNL     1     -12.447  15.641  70.224  1.00  0.00    -0.369 A  
HETATM   15 CL   UNL     1     -14.113  15.623  72.338  1.00  0.00    -0.625 Cl 
HETATM   16  C   UNL     1     -11.605  15.034  69.285  1.00  0.00    -0.338 A  
ENDBRANCH   9  10
ENDBRANCH   3   4
ENDBRANCH   2   3
TORSDOF 3
ENDMDL
MODEL       85
REMARK 921   NORMALIZED FREE ENERGY PREDICTED BY IDOCK:   -3.11 KCAL/MOL
REMARK 922        TOTAL FREE ENERGY PREDICTED BY IDOCK:   -3.95 KCAL/MOL
REMARK 923 INTER-LIGAND FREE ENERGY PREDICTED BY IDOCK:   -3.84 KCAL/MOL
REMARK 924 INTRA-LIGAND FREE ENERGY PREDICTED BY IDOCK:   -0.11 KCAL/MOL
REMARK 927      BINDING AFFINITY PREDICTED BY RF-SCORE:    0.00 PKD
ROOT
HETATM    1  C   UNL     1     -10.551  19.731  66.947  1.00  0.00    -0.588 C  
HETATM    2  C   UNL     1      -9.476  19.698  68.025  1.00  0.00    -0.354 C  
ENDROOT
BRANCH   2   3
HETATM    3  O   UNL     1      -8.681  18.516  67.850  1.00  0.00    -0.274 OA 
BRANCH   3   4
HETATM    4  C   UNL     1      -9.242  17.345  68.293  1.00  0.00    -0.271 C  
HETATM    5  O   UNL     1     -10.179  17.293  69.078  1.00  0.00    -0.316 OA 
HETATM    6  C   UNL     1      -8.623  16.143  67.526  1.00  0.00    -0.177 C  
HETATM    7  C   UNL     1      -7.122  16.105  67.831  1.00  0.00    -0.147 C  
HETATM    8  C   UNL     1      -8.954  16.439  66.052  1.00  0.00    -0.307 C  
HETATM    9  O   UNL     1      -9.292  14.970  68.030  1.00  0.00    -0.181 OA 
BRANCH   9  10
HETATM   10  C   UNL     1      -8.945  13.698  67.686  1.00  0.00    -0.202 A  
HETATM   11  C   UNL     1      -9.855  13.045  66.848  1.00  0.00    -0.240 A  
HETATM   12  C   UNL     1      -9.587  11.756  66.354  1.00  0.00    -0.234 A  
HETATM   13  C   UNL     1      -8.400  11.121  66.692  1.00  0.00    -0.160 A  
HETATM   14  C   UNL     1      -7.482  11.763  67.515  1.00  0.00    -0.131 A  
HETATM   15 CL   UNL     1      -8.045   9.556  66.080  1.00  0.00    -0.110 Cl 
HETATM   16  C   UNL     1      -7.759  13.043  68.006  1.00  0.00    -0.145 A  
ENDBRANCH   9  10
ENDBRANCH   3   4
ENDBRANCH   2   3
TORSDOF 3
ENDMDL
MODEL       86
REMARK 921   NORMALIZED FREE ENERGY PREDICTED BY IDOCK:   -3.09 KCAL/MOL
REMARK 922        TOTAL FREE ENERGY PREDICTED BY IDOCK:   -3.93 KCAL/MOL
REMARK 923 INTER-LIGAND FREE ENERGY PREDICTED BY IDOCK:   -3.81 KCAL/MOL
REMARK 924 INTRA-LIGAND FREE ENERGY PREDICTED BY IDOCK:   -0.12 KCAL/MOL
REMARK 927      BINDING AFFINITY PREDICTED BY RF-SCORE:    0.00 PKD
ROOT
HETATM    1  C   UNL     1     -11.707  11.888  63.895  1.00  0.00    -0.509 C  
HETATM    2  C   UNL     1     -10.241  12.270  64.057  1.00  0.00    -0.373 C  
ENDROOT
BRANCH   2   3
HETATM    3  O   UNL     1      -9.747  11.698  65.278  1.00  0.00    -0.235 OA 
BRANCH   3   4
HETATM    4  C   UNL     1      -9.710  10.327  65.326  1.00  0.00    -0.291 C  
HETATM    5  O   UNL     1      -9.658   9.612  64.334  1.00  0.00    -0.196 OA 
HETATM    6  C   UNL     1      -9.578   9.857  66.802  1.00  0.00    -0.183 C  
HETATM    7  C   UNL     1     -10.817  10.334  67.566  1.00  0.00    -0.355 C  
HETATM    8  C   UNL     1      -8.264  10.501  67.276  1.00  0.00    -0.119 C  
HETATM    9  O   UNL     1      -9.516   8.418  66.750  1.00  0.00    -0.167 OA 
BRANCH   9  10
HETATM   10  C   UNL     1      -9.513   7.623  67.858  1.00  0.00    -0.143 A  
HETATM   11  C   UNL     1     -10.432   6.570  67.830  1.00  0.00    -0.279 A  
HETATM   12  C   UNL     1     -10.485   5.628  68.873  1.00  0.00    -0.310 A  
HETATM   13  C   UNL     1      -9.610   5.737  69.944  1.00  0.00    -0.159 A  
HETATM   14  C   UNL     1      -8.684   6.772  69.979  1.00  0.00    -0.141 A  
HETATM   15 CL   UNL     1      -9.645   4.583  71.216  1.00  0.00    -0.225 Cl 
HETATM   16  C   UNL     1      -8.642   7.708  68.940  1.00  0.00    -0.129 A  
ENDBRANCH   9  10
ENDBRANCH   3   4
ENDBRANCH   2   3
TORSDOF 3
ENDMDL
MODEL       87
REMARK 921   NORMALIZED FREE ENERGY PREDICTED BY IDOCK:   -3.09 KCAL/MOL
REMARK 922        TOTAL FREE ENERGY PREDICTED BY IDOCK:   -3.93 KCAL/MOL
REMARK 923 INTER-LIGAND FREE ENERGY PREDICTED BY IDOCK:   -3.79 KCAL/MOL
REMARK 924 INTRA-LIGAND FREE ENERGY PREDICTED BY IDOCK:   -0.14 KCAL/MOL
REMARK 927      BINDING AFFINITY PREDICTED BY RF-SCORE:    0.00 PKD
ROOT
HETATM    1  C   UNL     1     -12.560  15.354  70.860  1.00  0.00    -0.496 C  
HETATM    2  C   UNL     1     -11.556  16.124  70.012  1.00  0.00    -0.239 C  
ENDROOT
BRANCH   2   3
HETATM    3  O   UNL     1     -11.411  15.459  68.748  1.00  0.00    -0.281 OA 
BRANCH   3   4
HETATM    4  C   UNL     1     -10.350  14.595  68.644  1.00  0.00    -0.246 C  
HETATM    5  O   UNL     1      -9.423  14.556  69.443  1.00  0.00    -0.004 OA 
HETATM    6  C   UNL     1     -10.599  13.595  67.480  1.00  0.00    -0.241 C  
HETATM    7  C   UNL     1     -10.699  14.396  66.178  1.00  0.00    -0.304 C  
HETATM    8  C   UNL     1     -11.904  12.885  67.880  1.00  0.00    -0.388 C  
HETATM    9  O   UNL     1      -9.458  12.715  67.469  1.00  0.00    -0.178 OA 
BRANCH   9  10
HETATM   10  C   UNL     1      -9.247  11.767  66.513  1.00  0.00    -0.201 A  
HETATM   11  C   UNL     1      -7.911  11.389  66.342  1.00  0.00    -0.088 A  
HETATM   12  C   UNL     1      -7.558  10.367  65.443  1.00  0.00    -0.131 A  
HETATM   13  C   UNL     1      -8.546   9.715  64.718  1.00  0.00    -0.179 A  
HETATM   14  C   UNL     1      -9.878  10.073  64.887  1.00  0.00    -0.352 A  
HETATM   15 CL   UNL     1      -8.136   8.448  63.632  1.00  0.00    -0.158 Cl 
HETATM   16  C   UNL     1     -10.220  11.095  65.779  1.00  0.00    -0.310 A  
ENDBRANCH   9  10
ENDBRANCH   3   4
ENDBRANCH   2   3
TORSDOF 3
ENDMDL
MODEL       88
REMARK 921   NORMALIZED FREE ENERGY PREDICTED BY IDOCK:   -3.08 KCAL/MOL
REMARK 922        TOTAL FREE ENERGY PREDICTED BY IDOCK:   -3.92 KCAL/MOL
REMARK 923 INTER-LIGAND FREE ENERGY PREDICTED BY IDOCK:   -3.62 KCAL/MOL
REMARK 924 INTRA-LIGAND FREE ENERGY PREDICTED BY IDOCK:   -0.30 KCAL/MOL
REMARK 927      BINDING AFFINITY PREDICTED BY RF-SCORE:    0.00 PKD
ROOT
HETATM    1  C   UNL     1      -7.353   2.538  63.441  1.00  0.00    -0.052 C  
HETATM    2  C   UNL     1      -8.645   2.396  64.237  1.00  0.00    -0.091 C  
ENDROOT
BRANCH   2   3
HETATM    3  O   UNL     1      -8.542   3.187  65.431  1.00  0.00    -0.103 OA 
BRANCH   3   4
HETATM    4  C   UNL     1      -9.547   4.099  65.634  1.00  0.00    -0.188 C  
HETATM    5  O   UNL     1     -10.469   4.282  64.850  1.00  0.00    -0.229 OA 
HETATM    6  C   UNL     1      -9.417   4.715  67.055  1.00  0.00    -0.160 C  
HETATM    7  C   UNL     1      -8.075   5.450  67.135  1.00  0.00    -0.101 C  
HETATM    8  C   UNL     1      -9.521   3.500  67.994  1.00  0.00    -0.217 C  
HETATM    9  O   UNL     1     -10.524   5.628  67.189  1.00  0.00    -0.221 OA 
BRANCH   9  10
HETATM   10  C   UNL     1     -10.695   6.455  68.259  1.00  0.00    -0.285 A  
HETATM   11  C   UNL     1     -10.352   7.792  68.032  1.00  0.00    -0.263 A  
HETATM   12  C   UNL     1     -10.548   8.768  69.025  1.00  0.00    -0.191 A  
HETATM   13  C   UNL     1     -11.097   8.406  70.247  1.00  0.00    -0.213 A  
HETATM   14  C   UNL     1     -11.453   7.084  70.482  1.00  0.00    -0.363 A  
HETATM   15 CL   UNL     1     -11.366   9.589  71.464  1.00  0.00    -0.460 Cl 
HETATM   16  C   UNL     1     -11.249   6.118  69.490  1.00  0.00    -0.482 A  
ENDBRANCH   9  10
ENDBRANCH   3   4
ENDBRANCH   2   3
TORSDOF 3
ENDMDL
MODEL       89
REMARK 921   NORMALIZED FREE ENERGY PREDICTED BY IDOCK:   -3.04 KCAL/MOL
REMARK 922        TOTAL FREE ENERGY PREDICTED BY IDOCK:   -3.86 KCAL/MOL
REMARK 923 INTER-LIGAND FREE ENERGY PREDICTED BY IDOCK:   -3.45 KCAL/MOL
REMARK 924 INTRA-LIGAND FREE ENERGY PREDICTED BY IDOCK:   -0.42 KCAL/MOL
REMARK 927      BINDING AFFINITY PREDICTED BY RF-SCORE:    0.00 PKD
ROOT
HETATM    1  C   UNL     1     -14.396   8.618  71.668  1.00  0.00    -0.451 C  
HETATM    2  C   UNL     1     -13.305   9.609  72.055  1.00  0.00    -0.457 C  
ENDROOT
BRANCH   2   3
HETATM    3  O   UNL     1     -12.114   8.879  72.388  1.00  0.00    -0.349 OA 
BRANCH   3   4
HETATM    4  C   UNL     1     -11.108   8.918  71.456  1.00  0.00    -0.326 C  
HETATM    5  O   UNL     1     -10.793   9.925  70.836  1.00  0.00    -0.319 OA 
HETATM    6  C   UNL     1     -10.349   7.561  71.446  1.00  0.00    -0.194 C  
HETATM    7  C   UNL     1     -11.339   6.465  71.041  1.00  0.00    -0.386 C  
HETATM    8  C   UNL     1      -9.820   7.425  72.885  1.00  0.00    -0.253 C  
HETATM    9  O   UNL     1      -9.299   7.707  70.469  1.00  0.00    -0.163 OA 
BRANCH   9  10
HETATM   10  C   UNL     1      -8.481   6.687  70.084  1.00  0.00    -0.136 A  
HETATM   11  C   UNL     1      -8.632   6.280  68.755  1.00  0.00    -0.122 A  
HETATM   12  C   UNL     1      -7.801   5.290  68.203  1.00  0.00    -0.088 A  
HETATM   13  C   UNL     1      -6.809   4.709  68.981  1.00  0.00    -0.050 A  
HETATM   14  C   UNL     1      -6.641   5.112  70.300  1.00  0.00    -0.039 A  
HETATM   15 CL   UNL     1      -5.770   3.514  68.317  1.00  0.00    -0.021 Cl 
HETATM   16  C   UNL     1      -7.476   6.095  70.844  1.00  0.00    -0.095 A  
ENDBRANCH   9  10
ENDBRANCH   3   4
ENDBRANCH   2   3
TORSDOF 3
ENDMDL
MODEL       90
REMARK 921   NORMALIZED FREE ENERGY PREDICTED BY IDOCK:   -3.03 KCAL/MOL
REMARK 922        TOTAL FREE ENERGY PREDICTED BY IDOCK:   -3.86 KCAL/MOL
REMARK 923 INTER-LIGAND FREE ENERGY PREDICTED BY IDOCK:   -3.50 KCAL/MOL
REMARK 924 INTRA-LIGAND FREE ENERGY PREDICTED BY IDOCK:   -0.36 KCAL/MOL
REMARK 927      BINDING AFFINITY PREDICTED BY RF-SCORE:    0.00 PKD
ROOT
HETATM    1  C   UNL     1      -6.590   6.310  64.705  1.00  0.00    -0.038 C  
HETATM    2  C   UNL     1      -8.092   6.428  64.929  1.00  0.00    -0.120 C  
ENDROOT
BRANCH   2   3
HETATM    3  O   UNL     1      -8.480   7.799  64.749  1.00  0.00    -0.094 OA 
BRANCH   3   4
HETATM    4  C   UNL     1      -9.217   8.351  65.766  1.00  0.00    -0.111 C  
HETATM    5  O   UNL     1      -9.769   7.696  66.640  1.00  0.00    -0.202 OA 
HETATM    6  C   UNL     1      -9.096   9.900  65.722  1.00  0.00    -0.168 C  
HETATM    7  C   UNL     1      -9.674  10.385  64.388  1.00  0.00    -0.396 C  
HETATM    8  C   UNL     1      -7.586  10.155  65.878  1.00  0.00    -0.128 C  
HETATM    9  O   UNL     1      -9.869  10.386  66.837  1.00  0.00    -0.178 OA 
BRANCH   9  10
HETATM   10  C   UNL     1     -10.105  11.708  67.071  1.00  0.00    -0.209 A  
HETATM   11  C   UNL     1     -11.427  12.116  66.868  1.00  0.00    -0.414 A  
HETATM   12  C   UNL     1     -11.828  13.435  67.145  1.00  0.00    -0.429 A  
HETATM   13  C   UNL     1     -10.904  14.347  67.635  1.00  0.00    -0.273 A  
HETATM   14  C   UNL     1      -9.590  13.952  67.852  1.00  0.00    -0.227 A  
HETATM   15 CL   UNL     1     -11.380  15.957  68.000  1.00  0.00    -0.322 Cl 
HETATM   16  C   UNL     1      -9.198  12.639  67.569  1.00  0.00    -0.190 A  
ENDBRANCH   9  10
ENDBRANCH   3   4
ENDBRANCH   2   3
TORSDOF 3
ENDMDL
MODEL       91
REMARK 921   NORMALIZED FREE ENERGY PREDICTED BY IDOCK:   -3.02 KCAL/MOL
REMARK 922        TOTAL FREE ENERGY PREDICTED BY IDOCK:   -3.85 KCAL/MOL
REMARK 923 INTER-LIGAND FREE ENERGY PREDICTED BY IDOCK:   -3.77 KCAL/MOL
REMARK 924 INTRA-LIGAND FREE ENERGY PREDICTED BY IDOCK:   -0.07 KCAL/MOL
REMARK 927      BINDING AFFINITY PREDICTED BY RF-SCORE:    0.00 PKD
ROOT
HETATM    1  C   UNL     1     -10.822  14.005  67.726  1.00  0.00    -0.257 C  
HETATM    2  C   UNL     1      -9.962  12.816  67.319  1.00  0.00    -0.219 C  
ENDROOT
BRANCH   2   3
HETATM    3  O   UNL     1      -9.904  11.890  68.415  1.00  0.00    -0.198 OA 
BRANCH   3   4
HETATM    4  C   UNL     1     -10.736  10.802  68.325  1.00  0.00    -0.213 C  
HETATM    5  O   UNL     1     -11.869  10.848  67.863  1.00  0.00    -0.590 OA 
HETATM    6  C   UNL     1      -9.965   9.516  68.733  1.00  0.00    -0.174 C  
HETATM    7  C   UNL     1      -9.526   9.668  70.193  1.00  0.00    -0.298 C  
HETATM    8  C   UNL     1      -8.797   9.454  67.732  1.00  0.00    -0.124 C  
HETATM    9  O   UNL     1     -10.901   8.431  68.577  1.00  0.00    -0.078 OA 
BRANCH   9  10
HETATM   10  C   UNL     1     -10.636   7.148  68.949  1.00  0.00    -0.201 A  
HETATM   11  C   UNL     1     -10.118   6.335  67.935  1.00  0.00    -0.169 A  
HETATM   12  C   UNL     1      -9.729   5.010  68.198  1.00  0.00    -0.199 A  
HETATM   13  C   UNL     1      -9.852   4.498  69.482  1.00  0.00    -0.207 A  
HETATM   14  C   UNL     1     -10.355   5.297  70.501  1.00  0.00    -0.336 A  
HETATM   15 CL   UNL     1      -9.360   2.888  69.827  1.00  0.00    -0.218 Cl 
HETATM   16  C   UNL     1     -10.744   6.613  70.229  1.00  0.00    -0.294 A  
ENDBRANCH   9  10
ENDBRANCH   3   4
ENDBRANCH   2   3
TORSDOF 3
ENDMDL
MODEL       92
REMARK 921   NORMALIZED FREE ENERGY PREDICTED BY IDOCK:   -3.01 KCAL/MOL
REMARK 922        TOTAL FREE ENERGY PREDICTED BY IDOCK:   -3.83 KCAL/MOL
REMARK 923 INTER-LIGAND FREE ENERGY PREDICTED BY IDOCK:   -4.45 KCAL/MOL
REMARK 924 INTRA-LIGAND FREE ENERGY PREDICTED BY IDOCK:    0.62 KCAL/MOL
REMARK 927      BINDING AFFINITY PREDICTED BY RF-SCORE:    0.00 PKD
ROOT
HETATM    1  C   UNL     1      -9.583   3.761  71.362  1.00  0.00    -0.236 C  
HETATM    2  C   UNL     1     -10.144   5.174  71.456  1.00  0.00    -0.193 C  
ENDROOT
BRANCH   2   3
HETATM    3  O   UNL     1     -10.316   5.693  70.128  1.00  0.00    -0.224 OA 
BRANCH   3   4
HETATM    4  C   UNL     1     -10.733   6.997  70.044  1.00  0.00    -0.242 C  
HETATM    5  O   UNL     1     -11.234   7.613  70.976  1.00  0.00    -0.257 OA 
HETATM    6  C   UNL     1     -10.321   7.593  68.669  1.00  0.00    -0.200 C  
HETATM    7  C   UNL     1     -11.026   6.789  67.572  1.00  0.00    -0.375 C  
HETATM    8  C   UNL     1      -8.788   7.460  68.655  1.00  0.00    -0.126 C  
HETATM    9  O   UNL     1     -10.768   8.964  68.686  1.00  0.00    -0.178 OA 
BRANCH   9  10
HETATM   10  C   UNL     1     -10.694   9.793  67.607  1.00  0.00    -0.274 A  
HETATM   11  C   UNL     1      -9.998   9.275  66.511  1.00  0.00    -0.344 A  
HETATM   12  C   UNL     1      -9.909   9.993  65.305  1.00  0.00    -0.388 A  
HETATM   13  C   UNL     1     -10.525  11.231  65.194  1.00  0.00    -0.291 A  
HETATM   14  C   UNL     1     -11.229  11.754  66.271  1.00  0.00    -0.370 A  
HETATM   15 CL   UNL     1     -10.446  12.113  63.721  1.00  0.00    -0.425 Cl 
HETATM   16  C   UNL     1     -11.309  11.035  67.470  1.00  0.00    -0.332 A  
ENDBRANCH   9  10
ENDBRANCH   3   4
ENDBRANCH   2   3
TORSDOF 3
ENDMDL
MODEL       93
REMARK 921   NORMALIZED FREE ENERGY PREDICTED BY IDOCK:   -2.97 KCAL/MOL
REMARK 922        TOTAL FREE ENERGY PREDICTED BY IDOCK:   -3.79 KCAL/MOL
REMARK 923 INTER-LIGAND FREE ENERGY PREDICTED BY IDOCK:   -3.47 KCAL/MOL
REMARK 924 INTRA-LIGAND FREE ENERGY PREDICTED BY IDOCK:   -0.33 KCAL/MOL
REMARK 927      BINDING AFFINITY PREDICTED BY RF-SCORE:    0.00 PKD
ROOT
HETATM    1  C   UNL     1     -11.863  11.358  67.731  1.00  0.00    -0.196 C  
HETATM    2  C   UNL     1     -10.515  11.870  68.221  1.00  0.00    -0.205 C  
ENDROOT
BRANCH   2   3
HETATM    3  O   UNL     1     -10.584  13.298  68.356  1.00  0.00    -0.240 OA 
BRANCH   3   4
HETATM    4  C   UNL     1      -9.522  14.000  67.846  1.00  0.00    -0.210 C  
HETATM    5  O   UNL     1      -8.866  13.636  66.879  1.00  0.00    -0.231 OA 
HETATM    6  C   UNL     1      -9.402  15.371  68.570  1.00  0.00    -0.198 C  
HETATM    7  C   UNL     1      -9.136  15.104  70.055  1.00  0.00     0.306 C  
HETATM    8  C   UNL     1     -10.753  16.053  68.290  1.00  0.00    -0.298 C  
HETATM    9  O   UNL     1      -8.289  16.046  67.950  1.00  0.00    -0.151 OA 
BRANCH   9  10
HETATM   10  C   UNL     1      -7.791  17.236  68.388  1.00  0.00    -0.254 A  
HETATM   11  C   UNL     1      -6.466  17.193  68.834  1.00  0.00    -0.192 A  
HETATM   12  C   UNL     1      -5.802  18.363  69.242  1.00  0.00    -0.227 A  
HETATM   13  C   UNL     1      -6.463  19.582  69.196  1.00  0.00    -0.321 A  
HETATM   14  C   UNL     1      -7.775  19.641  68.745  1.00  0.00    -0.337 A  
HETATM   15 CL   UNL     1      -5.660  21.025  69.670  1.00  0.00    -0.360 Cl 
HETATM   16  C   UNL     1      -8.431  18.471  68.346  1.00  0.00    -0.352 A  
ENDBRANCH   9  10
ENDBRANCH   3   4
ENDBRANCH   2   3
TORSDOF 3
ENDMDL
MODEL       94
REMARK 921   NORMALIZED FREE ENERGY PREDICTED BY IDOCK:   -2.97 KCAL/MOL
REMARK 922        TOTAL FREE ENERGY PREDICTED BY IDOCK:   -3.78 KCAL/MOL
REMARK 923 INTER-LIGAND FREE ENERGY PREDICTED BY IDOCK:   -4.37 KCAL/MOL
REMARK 924 INTRA-LIGAND FREE ENERGY PREDICTED BY IDOCK:    0.59 KCAL/MOL
REMARK 927      BINDING AFFINITY PREDICTED BY RF-SCORE:    0.00 PKD
ROOT
HETATM    1  C   UNL     1     -13.036  14.857  71.445  1.00  0.00    -0.441 C  
HETATM    2  C   UNL     1     -12.897  15.195  69.966  1.00  0.00    -0.086 C  
ENDROOT
BRANCH   2   3
HETATM    3  O   UNL     1     -11.801  14.444  69.421  1.00  0.00    -0.287 OA 
BRANCH   3   4
HETATM    4  C   UNL     1     -11.402  14.797  68.157  1.00  0.00    -0.307 C  
HETATM    5  O   UNL     1     -11.928  14.377  67.135  1.00  0.00    -0.405 OA 
HETATM    6  C   UNL     1     -10.321  15.910  68.239  1.00  0.00    -0.242 C  
HETATM    7  C   UNL     1      -9.110  15.344  68.987  1.00  0.00    -0.233 C  
HETATM    8  C   UNL     1     -11.031  17.058  68.979  1.00  0.00    -0.103 C  
HETATM    9  O   UNL     1      -9.989  16.237  66.875  1.00  0.00    -0.246 OA 
BRANCH   9  10
HETATM   10  C   UNL     1      -8.990  17.095  66.527  1.00  0.00    -0.272 A  
HETATM   11  C   UNL     1      -9.332  18.451  66.577  1.00  0.00    -0.311 A  
HETATM   12  C   UNL     1      -8.376  19.448  66.317  1.00  0.00    -0.346 A  
HETATM   13  C   UNL     1      -7.071  19.089  66.012  1.00  0.00    -0.264 A  
HETATM   14  C   UNL     1      -6.714  17.747  65.968  1.00  0.00    -0.316 A  
HETATM   15 CL   UNL     1      -5.884  20.294  65.712  1.00  0.00    -0.202 Cl 
HETATM   16  C   UNL     1      -7.673  16.760  66.225  1.00  0.00    -0.310 A  
ENDBRANCH   9  10
ENDBRANCH   3   4
ENDBRANCH   2   3
TORSDOF 3
ENDMDL
MODEL       95
REMARK 921   NORMALIZED FREE ENERGY PREDICTED BY IDOCK:   -2.95 KCAL/MOL
REMARK 922        TOTAL FREE ENERGY PREDICTED BY IDOCK:   -3.76 KCAL/MOL
REMARK 923 INTER-LIGAND FREE ENERGY PREDICTED BY IDOCK:   -3.61 KCAL/MOL
REMARK 924 INTRA-LIGAND FREE ENERGY PREDICTED BY IDOCK:   -0.15 KCAL/MOL
REMARK 927      BINDING AFFINITY PREDICTED BY RF-SCORE:    0.00 PKD
ROOT
HETATM    1  C   UNL     1      -5.889   3.757  69.661  1.00  0.00    -0.018 C  
HETATM    2  C   UNL     1      -7.007   4.420  68.867  1.00  0.00    -0.051 C  
ENDROOT
BRANCH   2   3
HETATM    3  O   UNL     1      -7.966   4.968  69.784  1.00  0.00    -0.072 OA 
BRANCH   3   4
HETATM    4  C   UNL     1      -9.009   5.656  69.221  1.00  0.00    -0.113 C  
HETATM    5  O   UNL     1      -9.557   5.328  68.176  1.00  0.00    -0.118 OA 
HETATM    6  C   UNL     1      -9.476   6.783  70.184  1.00  0.00    -0.158 C  
HETATM    7  C   UNL     1      -8.308   7.755  70.382  1.00  0.00    -0.123 C  
HETATM    8  C   UNL     1      -9.885   6.029  71.461  1.00  0.00    -0.197 C  
HETATM    9  O   UNL     1     -10.587   7.426  69.527  1.00  0.00    -0.231 OA 
BRANCH   9  10
HETATM   10  C   UNL     1     -11.201   8.544  70.005  1.00  0.00    -0.086 A  
HETATM   11  C   UNL     1     -12.030   8.335  71.112  1.00  0.00    -0.290 A  
HETATM   12  C   UNL     1     -12.666   9.412  71.753  1.00  0.00    -0.476 A  
HETATM   13  C   UNL     1     -12.467  10.705  71.290  1.00  0.00    -0.410 A  
HETATM   14  C   UNL     1     -11.637  10.929  70.198  1.00  0.00    -0.425 A  
HETATM   15 CL   UNL     1     -13.218  12.036  72.075  1.00  0.00    -0.570 Cl 
HETATM   16  C   UNL     1     -11.012   9.850  69.563  1.00  0.00    -0.274 A  
ENDBRANCH   9  10
ENDBRANCH   3   4
ENDBRANCH   2   3
TORSDOF 3
ENDMDL
MODEL       96
REMARK 921   NORMALIZED FREE ENERGY PREDICTED BY IDOCK:   -2.91 KCAL/MOL
REMARK 922        TOTAL FREE ENERGY PREDICTED BY IDOCK:   -3.72 KCAL/MOL
REMARK 923 INTER-LIGAND FREE ENERGY PREDICTED BY IDOCK:   -3.87 KCAL/MOL
REMARK 924 INTRA-LIGAND FREE ENERGY PREDICTED BY IDOCK:    0.15 KCAL/MOL
REMARK 927      BINDING AFFINITY PREDICTED BY RF-SCORE:    0.00 PKD
ROOT
HETATM    1  C   UNL     1      -8.992   3.383  68.373  1.00  0.00    -0.185 C  
HETATM    2  C   UNL     1      -8.510   4.747  68.851  1.00  0.00    -0.081 C  
ENDROOT
BRANCH   2   3
HETATM    3  O   UNL     1      -8.337   5.602  67.711  1.00  0.00    -0.101 OA 
BRANCH   3   4
HETATM    4  C   UNL     1      -8.364   6.951  67.963  1.00  0.00    -0.121 C  
HETATM    5  O   UNL     1      -7.747   7.485  68.876  1.00  0.00    -0.109 OA 
HETATM    6  C   UNL     1      -9.145   7.681  66.835  1.00  0.00    -0.144 C  
HETATM    7  C   UNL     1     -10.585   7.160  66.838  1.00  0.00    -0.371 C  
HETATM    8  C   UNL     1      -8.357   7.333  65.559  1.00  0.00    -0.137 C  
HETATM    9  O   UNL     1      -9.093   9.083  67.166  1.00  0.00    -0.134 OA 
BRANCH   9  10
HETATM   10  C   UNL     1      -9.765  10.046  66.475  1.00  0.00    -0.200 A  
HETATM   11  C   UNL     1      -9.701   9.926  65.083  1.00  0.00    -0.376 A  
HETATM   12  C   UNL     1     -10.411  10.806  64.248  1.00  0.00    -0.401 A  
HETATM   13  C   UNL     1     -11.193  11.807  64.807  1.00  0.00    -0.271 A  
HETATM   14  C   UNL     1     -11.273  11.932  66.189  1.00  0.00    -0.387 A  
HETATM   15 CL   UNL     1     -12.084  12.879  63.803  1.00  0.00    -0.549 Cl 
HETATM   16  C   UNL     1     -10.560  11.054  67.013  1.00  0.00    -0.303 A  
ENDBRANCH   9  10
ENDBRANCH   3   4
ENDBRANCH   2   3
TORSDOF 3
ENDMDL
MODEL       97
REMARK 921   NORMALIZED FREE ENERGY PREDICTED BY IDOCK:   -2.90 KCAL/MOL
REMARK 922        TOTAL FREE ENERGY PREDICTED BY IDOCK:   -3.71 KCAL/MOL
REMARK 923 INTER-LIGAND FREE ENERGY PREDICTED BY IDOCK:   -3.46 KCAL/MOL
REMARK 924 INTRA-LIGAND FREE ENERGY PREDICTED BY IDOCK:   -0.25 KCAL/MOL
REMARK 927      BINDING AFFINITY PREDICTED BY RF-SCORE:    0.00 PKD
ROOT
HETATM    1  C   UNL     1     -12.921   9.222  71.972  1.00  0.00    -0.504 C  
HETATM    2  C   UNL     1     -11.608   9.784  71.443  1.00  0.00    -0.378 C  
ENDROOT
BRANCH   2   3
HETATM    3  O   UNL     1     -11.325   9.179  70.172  1.00  0.00    -0.231 OA 
BRANCH   3   4
HETATM    4  C   UNL     1     -10.201   8.393  70.119  1.00  0.00    -0.195 C  
HETATM    5  O   UNL     1      -9.221   8.558  70.832  1.00  0.00    -0.152 OA 
HETATM    6  C   UNL     1     -10.442   7.197  69.156  1.00  0.00    -0.211 C  
HETATM    7  C   UNL     1     -10.704   7.759  67.755  1.00  0.00    -0.197 C  
HETATM    8  C   UNL     1     -11.648   6.466  69.772  1.00  0.00    -0.397 C  
HETATM    9  O   UNL     1      -9.230   6.417  69.189  1.00  0.00    -0.134 OA 
BRANCH   9  10
HETATM   10  C   UNL     1      -9.004   5.341  68.384  1.00  0.00    -0.108 A  
HETATM   11  C   UNL     1      -9.409   4.112  68.914  1.00  0.00    -0.228 A  
HETATM   12  C   UNL     1      -9.304   2.929  68.161  1.00  0.00    -0.258 A  
HETATM   13  C   UNL     1      -8.800   2.978  66.869  1.00  0.00    -0.145 A  
HETATM   14  C   UNL     1      -8.404   4.194  66.326  1.00  0.00    -0.105 A  
HETATM   15 CL   UNL     1      -8.685   1.547  65.925  1.00  0.00    -0.112 Cl 
HETATM   16  C   UNL     1      -8.507   5.365  67.084  1.00  0.00    -0.106 A  
ENDBRANCH   9  10
ENDBRANCH   3   4
ENDBRANCH   2   3
TORSDOF 3
ENDMDL
MODEL       98
REMARK 921   NORMALIZED FREE ENERGY PREDICTED BY IDOCK:   -2.88 KCAL/MOL
REMARK 922        TOTAL FREE ENERGY PREDICTED BY IDOCK:   -3.68 KCAL/MOL
REMARK 923 INTER-LIGAND FREE ENERGY PREDICTED BY IDOCK:   -3.53 KCAL/MOL
REMARK 924 INTRA-LIGAND FREE ENERGY PREDICTED BY IDOCK:   -0.15 KCAL/MOL
REMARK 927      BINDING AFFINITY PREDICTED BY RF-SCORE:    0.00 PKD
ROOT
HETATM    1  C   UNL     1      -7.991   5.591  67.883  1.00  0.00    -0.097 C  
HETATM    2  C   UNL     1      -7.977   6.981  67.261  1.00  0.00    -0.111 C  
ENDROOT
BRANCH   2   3
HETATM    3  O   UNL     1      -8.908   7.814  67.968  1.00  0.00    -0.125 OA 
BRANCH   3   4
HETATM    4  C   UNL     1      -9.604   8.717  67.205  1.00  0.00    -0.167 C  
HETATM    5  O   UNL     1     -10.259   8.411  66.217  1.00  0.00    -0.212 OA 
HETATM    6  C   UNL     1      -9.564  10.117  67.879  1.00  0.00    -0.148 C  
HETATM    7  C   UNL     1      -8.102  10.569  67.949  1.00  0.00    -0.107 C  
HETATM    8  C   UNL     1     -10.211   9.880  69.256  1.00  0.00    -0.222 C  
HETATM    9  O   UNL     1     -10.342  10.983  67.031  1.00  0.00    -0.209 OA 
BRANCH   9  10
HETATM   10  C   UNL     1     -10.451  12.328  67.223  1.00  0.00    -0.218 A  
HETATM   11  C   UNL     1     -11.596  12.735  67.915  1.00  0.00    -0.400 A  
HETATM   12  C   UNL     1     -11.798  14.085  68.249  1.00  0.00    -0.406 A  
HETATM   13  C   UNL     1     -10.847  15.032  67.896  1.00  0.00    -0.280 A  
HETATM   14  C   UNL     1      -9.699  14.641  67.219  1.00  0.00    -0.231 A  
HETATM   15 CL   UNL     1     -11.067  16.684  68.316  1.00  0.00    -0.346 Cl 
HETATM   16  C   UNL     1      -9.508  13.295  66.885  1.00  0.00    -0.249 A  
ENDBRANCH   9  10
ENDBRANCH   3   4
ENDBRANCH   2   3
TORSDOF 3
ENDMDL
MODEL       99
REMARK 921   NORMALIZED FREE ENERGY PREDICTED BY IDOCK:   -2.85 KCAL/MOL
REMARK 922        TOTAL FREE ENERGY PREDICTED BY IDOCK:   -3.65 KCAL/MOL
REMARK 923 INTER-LIGAND FREE ENERGY PREDICTED BY IDOCK:   -4.22 KCAL/MOL
REMARK 924 INTRA-LIGAND FREE ENERGY PREDICTED BY IDOCK:    0.56 KCAL/MOL
REMARK 927      BINDING AFFINITY PREDICTED BY RF-SCORE:    0.00 PKD
ROOT
HETATM    1  C   UNL     1     -14.123   8.650  72.409  1.00  0.00    -0.449 C  
HETATM    2  C   UNL     1     -13.054   9.668  72.035  1.00  0.00    -0.445 C  
ENDROOT
BRANCH   2   3
HETATM    3  O   UNL     1     -11.782   9.005  71.981  1.00  0.00    -0.357 OA 
BRANCH   3   4
HETATM    4  C   UNL     1     -11.538   8.267  70.851  1.00  0.00    -0.262 C  
HETATM    5  O   UNL     1     -12.060   7.184  70.619  1.00  0.00    -0.308 OA 
HETATM    6  C   UNL     1     -10.651   9.084  69.870  1.00  0.00    -0.228 C  
HETATM    7  C   UNL     1      -9.313   9.366  70.560  1.00  0.00    -0.319 C  
HETATM    8  C   UNL     1     -11.486  10.345  69.585  1.00  0.00    -0.326 C  
HETATM    9  O   UNL     1     -10.477   8.248  68.709  1.00  0.00    -0.214 OA 
BRANCH   9  10
HETATM   10  C   UNL     1      -9.660   8.567  67.666  1.00  0.00    -0.153 A  
HETATM   11  C   UNL     1     -10.279   9.262  66.623  1.00  0.00    -0.323 A  
HETATM   12  C   UNL     1      -9.538   9.720  65.519  1.00  0.00    -0.348 A  
HETATM   13  C   UNL     1      -8.171   9.487  65.462  1.00  0.00    -0.125 A  
HETATM   14  C   UNL     1      -7.541   8.807  66.497  1.00  0.00    -0.095 A  
HETATM   15 CL   UNL     1      -7.246  10.058  64.132  1.00  0.00    -0.134 Cl 
HETATM   16  C   UNL     1      -8.287   8.351  67.590  1.00  0.00    -0.130 A  
ENDBRANCH   9  10
ENDBRANCH   3   4
ENDBRANCH   2   3
TORSDOF 3
ENDMDL
MODEL      100
REMARK 921   NORMALIZED FREE ENERGY PREDICTED BY IDOCK:   -2.77 KCAL/MOL
REMARK 922        TOTAL FREE ENERGY PREDICTED BY IDOCK:   -3.55 KCAL/MOL
REMARK 923 INTER-LIGAND FREE ENERGY PREDICTED BY IDOCK:   -3.30 KCAL/MOL
REMARK 924 INTRA-LIGAND FREE ENERGY PREDICTED BY IDOCK:   -0.25 KCAL/MOL
REMARK 927      BINDING AFFINITY PREDICTED BY RF-SCORE:    0.00 PKD
ROOT
HETATM    1  C   UNL     1      -9.572   9.852  64.975  1.00  0.00    -0.364 C  
HETATM    2  C   UNL     1      -8.754  10.497  66.086  1.00  0.00    -0.158 C  
ENDROOT
BRANCH   2   3
HETATM    3  O   UNL     1      -9.436  10.306  67.335  1.00  0.00    -0.151 OA 
BRANCH   3   4
HETATM    4  C   UNL     1      -8.744   9.616  68.297  1.00  0.00    -0.120 C  
HETATM    5  O   UNL     1      -7.564   9.810  68.557  1.00  0.00    -0.079 OA 
HETATM    6  C   UNL     1      -9.717   8.699  69.089  1.00  0.00    -0.173 C  
HETATM    7  C   UNL     1     -10.321   7.687  68.110  1.00  0.00    -0.250 C  
HETATM    8  C   UNL     1     -10.742   9.680  69.686  1.00  0.00    -0.260 C  
HETATM    9  O   UNL     1      -8.912   8.045  70.090  1.00  0.00    -0.148 OA 
BRANCH   9  10
HETATM   10  C   UNL     1      -9.383   7.068  70.916  1.00  0.00    -0.157 A  
HETATM   11  C   UNL     1      -9.986   7.530  72.091  1.00  0.00    -0.218 A  
HETATM   12  C   UNL     1     -10.582   6.635  72.997  1.00  0.00    -0.283 A  
HETATM   13  C   UNL     1     -10.582   5.275  72.724  1.00  0.00    -0.230 A  
HETATM   14  C   UNL     1      -9.997   4.804  71.555  1.00  0.00    -0.263 A  
HETATM   15 CL   UNL     1     -11.325   4.169  73.809  1.00  0.00    -0.258 Cl 
HETATM   16  C   UNL     1      -9.401   5.700  70.661  1.00  0.00    -0.191 A  
ENDBRANCH   9  10
ENDBRANCH   3   4
ENDBRANCH   2   3
TORSDOF 3
ENDMDL
MODEL      101
REMARK 921   NORMALIZED FREE ENERGY PREDICTED BY IDOCK:   -2.77 KCAL/MOL
REMARK 922        TOTAL FREE ENERGY PREDICTED BY IDOCK:   -3.55 KCAL/MOL
REMARK 923 INTER-LIGAND FREE ENERGY PREDICTED BY IDOCK:   -3.22 KCAL/MOL
REMARK 924 INTRA-LIGAND FREE ENERGY PREDICTED BY IDOCK:   -0.33 KCAL/MOL
REMARK 927      BINDING AFFINITY PREDICTED BY RF-SCORE:    0.00 PKD
ROOT
HETATM    1  C   UNL     1     -11.283   8.719  72.009  1.00  0.00    -0.443 C  
HETATM    2  C   UNL     1     -10.155   9.186  71.098  1.00  0.00    -0.314 C  
ENDROOT
BRANCH   2   3
HETATM    3  O   UNL     1     -10.389   8.678  69.775  1.00  0.00    -0.202 OA 
BRANCH   3   4
HETATM    4  C   UNL     1      -9.385   7.910  69.241  1.00  0.00    -0.148 C  
HETATM    5  O   UNL     1      -8.219   7.960  69.613  1.00  0.00    -0.119 OA 
HETATM    6  C   UNL     1      -9.984   6.883  68.241  1.00  0.00    -0.153 C  
HETATM    7  C   UNL     1     -10.653   7.660  67.103  1.00  0.00    -0.410 C  
HETATM    8  C   UNL     1     -10.963   6.063  69.100  1.00  0.00    -0.429 C  
HETATM    9  O   UNL     1      -8.868   6.106  67.761  1.00  0.00    -0.113 OA 
BRANCH   9  10
HETATM   10  C   UNL     1      -8.969   5.172  66.774  1.00  0.00    -0.113 A  
HETATM   11  C   UNL     1      -8.580   5.611  65.505  1.00  0.00    -0.151 A  
HETATM   12  C   UNL     1      -8.561   4.730  64.409  1.00  0.00    -0.145 A  
HETATM   13  C   UNL     1      -8.926   3.403  64.586  1.00  0.00    -0.127 A  
HETATM   14  C   UNL     1      -9.305   2.951  65.843  1.00  0.00    -0.056 A  
HETATM   15 CL   UNL     1      -8.888   2.307  63.263  1.00  0.00    -0.085 Cl 
HETATM   16  C   UNL     1      -9.325   3.835  66.928  1.00  0.00    -0.214 A  
ENDBRANCH   9  10
ENDBRANCH   3   4
ENDBRANCH   2   3
TORSDOF 3
ENDMDL
MODEL      102
REMARK 921   NORMALIZED FREE ENERGY PREDICTED BY IDOCK:   -2.72 KCAL/MOL
REMARK 922        TOTAL FREE ENERGY PREDICTED BY IDOCK:   -3.50 KCAL/MOL
REMARK 923 INTER-LIGAND FREE ENERGY PREDICTED BY IDOCK:   -3.29 KCAL/MOL
REMARK 924 INTRA-LIGAND FREE ENERGY PREDICTED BY IDOCK:   -0.21 KCAL/MOL
REMARK 927      BINDING AFFINITY PREDICTED BY RF-SCORE:    0.00 PKD
ROOT
HETATM    1  C   UNL     1     -11.075  15.313  64.877  1.00  0.00    -0.435 C  
HETATM    2  C   UNL     1     -11.530  14.026  64.203  1.00  0.00    -0.209 C  
ENDROOT
BRANCH   2   3
HETATM    3  O   UNL     1     -10.600  12.980  64.527  1.00  0.00    -0.348 OA 
BRANCH   3   4
HETATM    4  C   UNL     1     -10.941  12.182  65.589  1.00  0.00    -0.295 C  
HETATM    5  O   UNL     1     -12.095  11.907  65.891  1.00  0.00    -0.474 OA 
HETATM    6  C   UNL     1      -9.659  11.568  66.218  1.00  0.00    -0.218 C  
HETATM    7  C   UNL     1      -8.787  12.716  66.738  1.00  0.00    -0.168 C  
HETATM    8  C   UNL     1      -9.025  10.776  65.061  1.00  0.00    -0.211 C  
HETATM    9  O   UNL     1     -10.115  10.726  67.296  1.00  0.00    -0.184 OA 
BRANCH   9  10
HETATM   10  C   UNL     1      -9.278  10.100  68.169  1.00  0.00    -0.135 A  
HETATM   11  C   UNL     1      -8.522   9.059  67.618  1.00  0.00    -0.117 A  
HETATM   12  C   UNL     1      -7.563   8.376  68.386  1.00  0.00    -0.097 A  
HETATM   13  C   UNL     1      -7.353   8.740  69.708  1.00  0.00    -0.052 A  
HETATM   14  C   UNL     1      -8.089   9.779  70.266  1.00  0.00    -0.181 A  
HETATM   15 CL   UNL     1      -6.170   7.931  70.656  1.00  0.00    -0.036 Cl 
HETATM   16  C   UNL     1      -9.045  10.450  69.495  1.00  0.00    -0.129 A  
ENDBRANCH   9  10
ENDBRANCH   3   4
ENDBRANCH   2   3
TORSDOF 3
ENDMDL
MODEL      103
REMARK 921   NORMALIZED FREE ENERGY PREDICTED BY IDOCK:   -2.72 KCAL/MOL
REMARK 922        TOTAL FREE ENERGY PREDICTED BY IDOCK:   -3.49 KCAL/MOL
REMARK 923 INTER-LIGAND FREE ENERGY PREDICTED BY IDOCK:   -3.30 KCAL/MOL
REMARK 924 INTRA-LIGAND FREE ENERGY PREDICTED BY IDOCK:   -0.19 KCAL/MOL
REMARK 927      BINDING AFFINITY PREDICTED BY RF-SCORE:    0.00 PKD
ROOT
HETATM    1  C   UNL     1      -6.824   4.628  68.620  1.00  0.00    -0.051 C  
HETATM    2  C   UNL     1      -8.253   5.154  68.667  1.00  0.00    -0.085 C  
ENDROOT
BRANCH   2   3
HETATM    3  O   UNL     1      -8.313   6.396  67.949  1.00  0.00    -0.117 OA 
BRANCH   3   4
HETATM    4  C   UNL     1      -8.620   7.505  68.695  1.00  0.00    -0.129 C  
HETATM    5  O   UNL     1      -8.396   7.602  69.895  1.00  0.00    -0.128 OA 
HETATM    6  C   UNL     1      -9.123   8.643  67.764  1.00  0.00    -0.135 C  
HETATM    7  C   UNL     1     -10.401   8.160  67.070  1.00  0.00    -0.403 C  
HETATM    8  C   UNL     1      -7.943   8.882  66.805  1.00  0.00    -0.107 C  
HETATM    9  O   UNL     1      -9.387   9.768  68.626  1.00  0.00    -0.142 OA 
BRANCH   9  10
HETATM   10  C   UNL     1      -9.956  10.929  68.196  1.00  0.00    -0.174 A  
HETATM   11  C   UNL     1      -9.052  11.908  67.773  1.00  0.00    -0.180 A  
HETATM   12  C   UNL     1      -9.503  13.126  67.235  1.00  0.00    -0.225 A  
HETATM   13  C   UNL     1     -10.865  13.362  67.113  1.00  0.00    -0.276 A  
HETATM   14  C   UNL     1     -11.775  12.394  67.519  1.00  0.00    -0.425 A  
HETATM   15 CL   UNL     1     -11.435  14.836  66.437  1.00  0.00    -0.343 Cl 
HETATM   16  C   UNL     1     -11.317  11.187  68.058  1.00  0.00    -0.380 A  
ENDBRANCH   9  10
ENDBRANCH   3   4
ENDBRANCH   2   3
TORSDOF 3
ENDMDL
MODEL      104
REMARK 921   NORMALIZED FREE ENERGY PREDICTED BY IDOCK:   -2.72 KCAL/MOL
REMARK 922        TOTAL FREE ENERGY PREDICTED BY IDOCK:   -3.49 KCAL/MOL
REMARK 923 INTER-LIGAND FREE ENERGY PREDICTED BY IDOCK:   -3.35 KCAL/MOL
REMARK 924 INTRA-LIGAND FREE ENERGY PREDICTED BY IDOCK:   -0.14 KCAL/MOL
REMARK 927      BINDING AFFINITY PREDICTED BY RF-SCORE:    0.00 PKD
ROOT
HETATM    1  C   UNL     1      -5.546  13.987  71.950  1.00  0.00    -0.215 C  
HETATM    2  C   UNL     1      -5.454  14.188  70.443  1.00  0.00    -0.120 C  
ENDROOT
BRANCH   2   3
HETATM    3  O   UNL     1      -6.461  13.386  69.807  1.00  0.00    -0.109 OA 
BRANCH   3   4
HETATM    4  C   UNL     1      -7.536  14.068  69.296  1.00  0.00     0.059 C  
HETATM    5  O   UNL     1      -7.821  15.218  69.602  1.00  0.00    -0.220 OA 
HETATM    6  C   UNL     1      -8.208  13.226  68.175  1.00  0.00    -0.160 C  
HETATM    7  C   UNL     1      -8.715  11.922  68.799  1.00  0.00     0.056 C  
HETATM    8  C   UNL     1      -7.085  13.029  67.141  1.00  0.00     0.067 C  
HETATM    9  O   UNL     1      -9.297  14.030  67.680  1.00  0.00    -0.192 OA 
BRANCH   9  10
HETATM   10  C   UNL     1     -10.204  13.588  66.764  1.00  0.00    -0.264 A  
HETATM   11  C   UNL     1     -10.055  14.126  65.481  1.00  0.00    -0.360 A  
HETATM   12  C   UNL     1     -10.874  13.702  64.420  1.00  0.00    -0.374 A  
HETATM   13  C   UNL     1     -11.841  12.731  64.641  1.00  0.00    -0.374 A  
HETATM   14  C   UNL     1     -11.992  12.180  65.907  1.00  0.00    -0.252 A  
HETATM   15 CL   UNL     1     -12.835  12.185  63.351  1.00  0.00    -0.545 Cl 
HETATM   16  C   UNL     1     -11.176  12.612  66.959  1.00  0.00    -0.348 A  
ENDBRANCH   9  10
ENDBRANCH   3   4
ENDBRANCH   2   3
TORSDOF 3
ENDMDL
MODEL      105
REMARK 921   NORMALIZED FREE ENERGY PREDICTED BY IDOCK:   -2.70 KCAL/MOL
REMARK 922        TOTAL FREE ENERGY PREDICTED BY IDOCK:   -3.47 KCAL/MOL
REMARK 923 INTER-LIGAND FREE ENERGY PREDICTED BY IDOCK:   -3.71 KCAL/MOL
REMARK 924 INTRA-LIGAND FREE ENERGY PREDICTED BY IDOCK:    0.24 KCAL/MOL
REMARK 927      BINDING AFFINITY PREDICTED BY RF-SCORE:    0.00 PKD
ROOT
HETATM    1  C   UNL     1     -11.892  15.988  69.681  1.00  0.00    -0.234 C  
HETATM    2  C   UNL     1     -11.558  15.615  68.243  1.00  0.00    -0.319 C  
ENDROOT
BRANCH   2   3
HETATM    3  O   UNL     1     -11.641  14.188  68.103  1.00  0.00    -0.293 OA 
BRANCH   3   4
HETATM    4  C   UNL     1     -10.526  13.483  68.479  1.00  0.00    -0.244 C  
HETATM    5  O   UNL     1      -9.411  13.977  68.583  1.00  0.00    -0.196 OA 
HETATM    6  C   UNL     1     -10.932  12.044  68.902  1.00  0.00    -0.232 C  
HETATM    7  C   UNL     1     -11.556  11.349  67.687  1.00  0.00    -0.315 C  
HETATM    8  C   UNL     1     -11.914  12.266  70.066  1.00  0.00    -0.379 C  
HETATM    9  O   UNL     1      -9.711  11.394  69.308  1.00  0.00     0.008 OA 
BRANCH   9  10
HETATM   10  C   UNL     1      -9.633  10.075  69.640  1.00  0.00    -0.226 A  
HETATM   11  C   UNL     1     -10.740   9.575  70.334  1.00  0.00    -0.341 A  
HETATM   12  C   UNL     1     -10.827   8.214  70.673  1.00  0.00    -0.246 A  
HETATM   13  C   UNL     1      -9.806   7.347  70.310  1.00  0.00    -0.187 A  
HETATM   14  C   UNL     1      -8.706   7.828  69.611  1.00  0.00    -0.135 A  
HETATM   15 CL   UNL     1      -9.905   5.676  70.696  1.00  0.00    -0.231 Cl 
HETATM   16  C   UNL     1      -8.625   9.185  69.282  1.00  0.00    -0.137 A  
ENDBRANCH   9  10
ENDBRANCH   3   4
ENDBRANCH   2   3
TORSDOF 3
ENDMDL
MODEL      106
REMARK 921   NORMALIZED FREE ENERGY PREDICTED BY IDOCK:   -2.70 KCAL/MOL
REMARK 922        TOTAL FREE ENERGY PREDICTED BY IDOCK:   -3.47 KCAL/MOL
REMARK 923 INTER-LIGAND FREE ENERGY PREDICTED BY IDOCK:   -3.81 KCAL/MOL
REMARK 924 INTRA-LIGAND FREE ENERGY PREDICTED BY IDOCK:    0.35 KCAL/MOL
REMARK 927      BINDING AFFINITY PREDICTED BY RF-SCORE:    0.00 PKD
ROOT
HETATM    1  C   UNL     1     -10.328   8.056  66.729  1.00  0.00    -0.360 C  
HETATM    2  C   UNL     1      -9.253   8.482  67.720  1.00  0.00    -0.135 C  
ENDROOT
BRANCH   2   3
HETATM    3  O   UNL     1      -8.963   9.874  67.518  1.00  0.00    -0.134 OA 
BRANCH   3   4
HETATM    4  C   UNL     1      -9.820  10.759  68.122  1.00  0.00    -0.158 C  
HETATM    5  O   UNL     1     -10.760  10.421  68.829  1.00  0.00    -0.199 OA 
HETATM    6  C   UNL     1      -9.314  12.212  67.905  1.00  0.00    -0.192 C  
HETATM    7  C   UNL     1      -9.310  12.495  66.399  1.00  0.00    -0.209 C  
HETATM    8  C   UNL     1      -7.914  12.213  68.545  1.00  0.00    -0.119 C  
HETATM    9  O   UNL     1     -10.251  13.061  68.596  1.00  0.00    -0.232 OA 
BRANCH   9  10
HETATM   10  C   UNL     1     -10.216  14.422  68.543  1.00  0.00    -0.243 A  
HETATM   11  C   UNL     1     -10.404  14.969  67.270  1.00  0.00    -0.249 A  
HETATM   12  C   UNL     1     -10.466  16.360  67.081  1.00  0.00    -0.297 A  
HETATM   13  C   UNL     1     -10.347  17.209  68.173  1.00  0.00    -0.350 A  
HETATM   14  C   UNL     1     -10.171  16.680  69.445  1.00  0.00    -0.251 A  
HETATM   15 CL   UNL     1     -10.443  18.912  67.965  1.00  0.00    -0.439 Cl 
HETATM   16  C   UNL     1     -10.105  15.294  69.623  1.00  0.00    -0.246 A  
ENDBRANCH   9  10
ENDBRANCH   3   4
ENDBRANCH   2   3
TORSDOF 3
ENDMDL
MODEL      107
REMARK 921   NORMALIZED FREE ENERGY PREDICTED BY IDOCK:   -2.69 KCAL/MOL
REMARK 922        TOTAL FREE ENERGY PREDICTED BY IDOCK:   -3.46 KCAL/MOL
REMARK 923 INTER-LIGAND FREE ENERGY PREDICTED BY IDOCK:   -3.11 KCAL/MOL
REMARK 924 INTRA-LIGAND FREE ENERGY PREDICTED BY IDOCK:   -0.34 KCAL/MOL
REMARK 927      BINDING AFFINITY PREDICTED BY RF-SCORE:    0.00 PKD
ROOT
HETATM    1  C   UNL     1     -12.297  11.777  70.728  1.00  0.00    -0.433 C  
HETATM    2  C   UNL     1     -11.398  11.084  69.713  1.00  0.00    -0.292 C  
ENDROOT
BRANCH   2   3
HETATM    3  O   UNL     1     -11.580   9.664  69.828  1.00  0.00    -0.126 OA 
BRANCH   3   4
HETATM    4  C   UNL     1     -10.444   8.903  69.715  1.00  0.00    -0.212 C  
HETATM    5  O   UNL     1      -9.508   9.182  68.976  1.00  0.00    -0.149 OA 
HETATM    6  C   UNL     1     -10.468   7.762  70.769  1.00  0.00    -0.210 C  
HETATM    7  C   UNL     1     -11.678   6.869  70.477  1.00  0.00    -0.401 C  
HETATM    8  C   UNL     1     -10.551   8.506  72.114  1.00  0.00    -0.419 C  
HETATM    9  O   UNL     1      -9.231   7.043  70.598  1.00  0.00    -0.158 OA 
BRANCH   9  10
HETATM   10  C   UNL     1      -8.928   5.894  71.265  1.00  0.00    -0.140 A  
HETATM   11  C   UNL     1      -8.884   4.744  70.471  1.00  0.00    -0.142 A  
HETATM   12  C   UNL     1      -8.511   3.502  71.014  1.00  0.00    -0.097 A  
HETATM   13  C   UNL     1      -8.172   3.412  72.357  1.00  0.00    -0.079 A  
HETATM   14  C   UNL     1      -8.201   4.548  73.156  1.00  0.00    -0.099 A  
HETATM   15 CL   UNL     1      -7.691   1.908  73.034  1.00  0.00    -0.040 Cl 
HETATM   16  C   UNL     1      -8.578   5.780  72.608  1.00  0.00    -0.120 A  
ENDBRANCH   9  10
ENDBRANCH   3   4
ENDBRANCH   2   3
TORSDOF 3
ENDMDL
MODEL      108
REMARK 921   NORMALIZED FREE ENERGY PREDICTED BY IDOCK:   -2.67 KCAL/MOL
REMARK 922        TOTAL FREE ENERGY PREDICTED BY IDOCK:   -3.44 KCAL/MOL
REMARK 923 INTER-LIGAND FREE ENERGY PREDICTED BY IDOCK:   -3.03 KCAL/MOL
REMARK 924 INTRA-LIGAND FREE ENERGY PREDICTED BY IDOCK:   -0.40 KCAL/MOL
REMARK 927      BINDING AFFINITY PREDICTED BY RF-SCORE:    0.00 PKD
ROOT
HETATM    1  C   UNL     1     -12.007  12.844  69.430  1.00  0.00    -0.327 C  
HETATM    2  C   UNL     1     -11.506  13.749  68.312  1.00  0.00    -0.312 C  
ENDROOT
BRANCH   2   3
HETATM    3  O   UNL     1     -11.281  12.955  67.138  1.00  0.00    -0.265 OA 
BRANCH   3   4
HETATM    4  C   UNL     1      -9.994  12.520  66.945  1.00  0.00    -0.224 C  
HETATM    5  O   UNL     1      -9.020  13.007  67.505  1.00  0.00    -0.174 OA 
HETATM    6  C   UNL     1      -9.997  11.241  66.063  1.00  0.00    -0.231 C  
HETATM    7  C   UNL     1     -10.593  11.606  64.699  1.00  0.00    -0.366 C  
HETATM    8  C   UNL     1     -10.846  10.241  66.868  1.00  0.00    -0.205 C  
HETATM    9  O   UNL     1      -8.617  10.843  65.943  1.00  0.00    -0.172 OA 
BRANCH   9  10
HETATM   10  C   UNL     1      -8.193   9.823  65.145  1.00  0.00    -0.140 A  
HETATM   11  C   UNL     1      -7.275  10.190  64.156  1.00  0.00    -0.106 A  
HETATM   12  C   UNL     1      -6.698   9.226  63.311  1.00  0.00    -0.091 A  
HETATM   13  C   UNL     1      -7.034   7.888  63.461  1.00  0.00    -0.076 A  
HETATM   14  C   UNL     1      -7.937   7.508  64.446  1.00  0.00    -0.117 A  
HETATM   15 CL   UNL     1      -6.322   6.694  62.453  1.00  0.00    -0.035 Cl 
HETATM   16  C   UNL     1      -8.511   8.474  65.280  1.00  0.00    -0.192 A  
ENDBRANCH   9  10
ENDBRANCH   3   4
ENDBRANCH   2   3
TORSDOF 3
ENDMDL
MODEL      109
REMARK 921   NORMALIZED FREE ENERGY PREDICTED BY IDOCK:   -2.65 KCAL/MOL
REMARK 922        TOTAL FREE ENERGY PREDICTED BY IDOCK:   -3.41 KCAL/MOL
REMARK 923 INTER-LIGAND FREE ENERGY PREDICTED BY IDOCK:   -3.06 KCAL/MOL
REMARK 924 INTRA-LIGAND FREE ENERGY PREDICTED BY IDOCK:   -0.36 KCAL/MOL
REMARK 927      BINDING AFFINITY PREDICTED BY RF-SCORE:    0.00 PKD
ROOT
HETATM    1  C   UNL     1      -6.546   9.477  64.015  1.00  0.00    -0.101 C  
HETATM    2  C   UNL     1      -7.782   8.632  63.734  1.00  0.00    -0.136 C  
ENDROOT
BRANCH   2   3
HETATM    3  O   UNL     1      -8.716   8.807  64.810  1.00  0.00    -0.173 OA 
BRANCH   3   4
HETATM    4  C   UNL     1      -8.782   7.783  65.720  1.00  0.00    -0.133 C  
HETATM    5  O   UNL     1      -8.507   6.620  65.457  1.00  0.00    -0.151 OA 
HETATM    6  C   UNL     1      -9.088   8.354  67.133  1.00  0.00    -0.138 C  
HETATM    7  C   UNL     1     -10.455   9.043  67.082  1.00  0.00    -0.333 C  
HETATM    8  C   UNL     1      -7.914   9.312  67.404  1.00  0.00    -0.106 C  
HETATM    9  O   UNL     1      -9.105   7.218  68.020  1.00  0.00    -0.134 OA 
BRANCH   9  10
HETATM   10  C   UNL     1      -9.455   7.293  69.335  1.00  0.00    -0.154 A  
HETATM   11  C   UNL     1     -10.447   6.391  69.733  1.00  0.00    -0.266 A  
HETATM   12  C   UNL     1     -10.851   6.308  71.077  1.00  0.00    -0.326 A  
HETATM   13  C   UNL     1     -10.255   7.124  72.028  1.00  0.00    -0.190 A  
HETATM   14  C   UNL     1      -9.261   8.017  71.648  1.00  0.00    -0.196 A  
HETATM   15 CL   UNL     1     -10.720   7.021  73.679  1.00  0.00    -0.377 Cl 
HETATM   16  C   UNL     1      -8.868   8.097  70.307  1.00  0.00    -0.141 A  
ENDBRANCH   9  10
ENDBRANCH   3   4
ENDBRANCH   2   3
TORSDOF 3
ENDMDL
MODEL      110
REMARK 921   NORMALIZED FREE ENERGY PREDICTED BY IDOCK:   -2.59 KCAL/MOL
REMARK 922        TOTAL FREE ENERGY PREDICTED BY IDOCK:   -3.34 KCAL/MOL
REMARK 923 INTER-LIGAND FREE ENERGY PREDICTED BY IDOCK:   -2.95 KCAL/MOL
REMARK 924 INTRA-LIGAND FREE ENERGY PREDICTED BY IDOCK:   -0.40 KCAL/MOL
REMARK 927      BINDING AFFINITY PREDICTED BY RF-SCORE:    0.00 PKD
ROOT
HETATM    1  C   UNL     1      -9.495   6.716  73.146  1.00  0.00    -0.160 C  
HETATM    2  C   UNL     1      -8.850   5.678  72.238  1.00  0.00    -0.132 C  
ENDROOT
BRANCH   2   3
HETATM    3  O   UNL     1      -9.244   5.941  70.882  1.00  0.00    -0.151 OA 
BRANCH   3   4
HETATM    4  C   UNL     1      -8.621   7.000  70.272  1.00  0.00    -0.140 C  
HETATM    5  O   UNL     1      -7.426   7.244  70.384  1.00  0.00    -0.080 OA 
HETATM    6  C   UNL     1      -9.614   7.712  69.313  1.00  0.00    -0.159 C  
HETATM    7  C   UNL     1     -10.778   8.254  70.149  1.00  0.00    -0.239 C  
HETATM    8  C   UNL     1     -10.019   6.609  68.318  1.00  0.00    -0.148 C  
HETATM    9  O   UNL     1      -8.868   8.781  68.698  1.00  0.00    -0.136 OA 
BRANCH   9  10
HETATM   10  C   UNL     1      -9.426   9.713  67.874  1.00  0.00    -0.131 A  
HETATM   11  C   UNL     1      -9.384  11.025  68.355  1.00  0.00    -0.179 A  
HETATM   12  C   UNL     1      -9.855  12.097  67.576  1.00  0.00    -0.193 A  
HETATM   13  C   UNL     1     -10.362  11.855  66.307  1.00  0.00    -0.224 A  
HETATM   14  C   UNL     1     -10.400  10.558  65.812  1.00  0.00    -0.270 A  
HETATM   15 CL   UNL     1     -10.921  13.154  65.332  1.00  0.00    -0.291 Cl 
HETATM   16  C   UNL     1      -9.934   9.496  66.597  1.00  0.00    -0.314 A  
ENDBRANCH   9  10
ENDBRANCH   3   4
ENDBRANCH   2   3
TORSDOF 3
ENDMDL
MODEL      111
REMARK 921   NORMALIZED FREE ENERGY PREDICTED BY IDOCK:   -2.47 KCAL/MOL
REMARK 922        TOTAL FREE ENERGY PREDICTED BY IDOCK:   -3.20 KCAL/MOL
REMARK 923 INTER-LIGAND FREE ENERGY PREDICTED BY IDOCK:   -3.07 KCAL/MOL
REMARK 924 INTRA-LIGAND FREE ENERGY PREDICTED BY IDOCK:   -0.13 KCAL/MOL
REMARK 927      BINDING AFFINITY PREDICTED BY RF-SCORE:    0.00 PKD
ROOT
HETATM    1  C   UNL     1     -11.090  13.360  64.463  1.00  0.00    -0.396 C  
HETATM    2  C   UNL     1     -10.853  11.999  63.823  1.00  0.00    -0.420 C  
ENDROOT
BRANCH   2   3
HETATM    3  O   UNL     1      -9.575  11.503  64.248  1.00  0.00    -0.220 OA 
BRANCH   3   4
HETATM    4  C   UNL     1      -9.337  10.173  64.007  1.00  0.00    -0.287 C  
HETATM    5  O   UNL     1      -9.373   9.666  62.893  1.00  0.00    -0.236 OA 
HETATM    6  C   UNL     1      -8.862   9.479  65.314  1.00  0.00    -0.184 C  
HETATM    7  C   UNL     1      -9.987   9.588  66.347  1.00  0.00    -0.339 C  
HETATM    8  C   UNL     1      -7.585  10.250  65.696  1.00  0.00    -0.148 C  
HETATM    9  O   UNL     1      -8.607   8.106  64.958  1.00  0.00    -0.143 OA 
BRANCH   9  10
HETATM   10  C   UNL     1      -8.282   7.140  65.863  1.00  0.00    -0.132 A  
HETATM   11  C   UNL     1      -8.743   5.858  65.549  1.00  0.00    -0.133 A  
HETATM   12  C   UNL     1      -8.417   4.754  66.356  1.00  0.00    -0.110 A  
HETATM   13  C   UNL     1      -7.618   4.932  67.477  1.00  0.00    -0.086 A  
HETATM   14  C   UNL     1      -7.144   6.198  67.795  1.00  0.00    -0.081 A  
HETATM   15 CL   UNL     1      -7.190   3.591  68.462  1.00  0.00    -0.050 Cl 
HETATM   16  C   UNL     1      -7.478   7.293  66.989  1.00  0.00    -0.105 A  
ENDBRANCH   9  10
ENDBRANCH   3   4
ENDBRANCH   2   3
TORSDOF 3
ENDMDL
MODEL      112
REMARK 921   NORMALIZED FREE ENERGY PREDICTED BY IDOCK:   -2.47 KCAL/MOL
REMARK 922        TOTAL FREE ENERGY PREDICTED BY IDOCK:   -3.20 KCAL/MOL
REMARK 923 INTER-LIGAND FREE ENERGY PREDICTED BY IDOCK:   -3.02 KCAL/MOL
REMARK 924 INTRA-LIGAND FREE ENERGY PREDICTED BY IDOCK:   -0.17 KCAL/MOL
REMARK 927      BINDING AFFINITY PREDICTED BY RF-SCORE:    0.00 PKD
ROOT
HETATM    1  C   UNL     1     -10.161   2.880  72.611  1.00  0.00    -0.232 C  
HETATM    2  C   UNL     1      -9.860   3.312  71.182  1.00  0.00    -0.074 C  
ENDROOT
BRANCH   2   3
HETATM    3  O   UNL     1     -10.512   4.566  70.930  1.00  0.00    -0.078 OA 
BRANCH   3   4
HETATM    4  C   UNL     1     -10.120   5.228  69.795  1.00  0.00    -0.264 C  
HETATM    5  O   UNL     1      -9.880   4.672  68.731  1.00  0.00    -0.167 OA 
HETATM    6  C   UNL     1     -10.195   6.763  70.029  1.00  0.00    -0.191 C  
HETATM    7  C   UNL     1      -9.222   7.121  71.157  1.00  0.00    -0.157 C  
HETATM    8  C   UNL     1     -11.674   7.009  70.378  1.00  0.00    -0.326 C  
HETATM    9  O   UNL     1      -9.800   7.370  68.783  1.00  0.00    -0.157 OA 
BRANCH   9  10
HETATM   10  C   UNL     1      -9.627   8.712  68.619  1.00  0.00    -0.155 A  
HETATM   11  C   UNL     1     -10.693   9.373  68.000  1.00  0.00    -0.246 A  
HETATM   12  C   UNL     1     -10.681  10.769  67.836  1.00  0.00    -0.282 A  
HETATM   13  C   UNL     1      -9.602  11.508  68.300  1.00  0.00    -0.189 A  
HETATM   14  C   UNL     1      -8.541  10.866  68.927  1.00  0.00    -0.143 A  
HETATM   15 CL   UNL     1      -9.580  13.217  68.129  1.00  0.00    -0.223 Cl 
HETATM   16  C   UNL     1      -8.559   9.475  69.082  1.00  0.00    -0.140 A  
ENDBRANCH   9  10
ENDBRANCH   3   4
ENDBRANCH   2   3
TORSDOF 3
ENDMDL
MODEL      113
REMARK 921   NORMALIZED FREE ENERGY PREDICTED BY IDOCK:   -2.38 KCAL/MOL
REMARK 922        TOTAL FREE ENERGY PREDICTED BY IDOCK:   -3.10 KCAL/MOL
REMARK 923 INTER-LIGAND FREE ENERGY PREDICTED BY IDOCK:   -3.27 KCAL/MOL
REMARK 924 INTRA-LIGAND FREE ENERGY PREDICTED BY IDOCK:    0.17 KCAL/MOL
REMARK 927      BINDING AFFINITY PREDICTED BY RF-SCORE:    0.00 PKD
ROOT
HETATM    1  C   UNL     1     -10.475   3.105  73.284  1.00  0.00    -0.255 C  
HETATM    2  C   UNL     1     -10.654   4.477  72.648  1.00  0.00    -0.179 C  
ENDROOT
BRANCH   2   3
HETATM    3  O   UNL     1     -10.099   4.450  71.324  1.00  0.00    -0.186 OA 
BRANCH   3   4
HETATM    4  C   UNL     1      -9.340   5.536  70.969  1.00  0.00    -0.153 C  
HETATM    5  O   UNL     1      -8.435   5.988  71.657  1.00  0.00    -0.126 OA 
HETATM    6  C   UNL     1      -9.697   5.976  69.522  1.00  0.00    -0.147 C  
HETATM    7  C   UNL     1     -11.172   6.389  69.499  1.00  0.00    -0.477 C  
HETATM    8  C   UNL     1      -9.383   4.731  68.672  1.00  0.00    -0.187 C  
HETATM    9  O   UNL     1      -8.834   7.092  69.227  1.00  0.00    -0.136 OA 
BRANCH   9  10
HETATM   10  C   UNL     1      -8.924   7.834  68.087  1.00  0.00    -0.127 A  
HETATM   11  C   UNL     1     -10.106   8.569  67.953  1.00  0.00    -0.258 A  
HETATM   12  C   UNL     1     -10.300   9.435  66.863  1.00  0.00    -0.308 A  
HETATM   13  C   UNL     1      -9.303   9.573  65.907  1.00  0.00    -0.226 A  
HETATM   14  C   UNL     1      -8.119   8.857  66.033  1.00  0.00    -0.111 A  
HETATM   15 CL   UNL     1      -9.513  10.644  64.580  1.00  0.00    -0.277 Cl 
HETATM   16  C   UNL     1      -7.937   7.993  67.119  1.00  0.00    -0.113 A  
ENDBRANCH   9  10
ENDBRANCH   3   4
ENDBRANCH   2   3
TORSDOF 3
ENDMDL
MODEL      114
REMARK 921   NORMALIZED FREE ENERGY PREDICTED BY IDOCK:   -2.37 KCAL/MOL
REMARK 922        TOTAL FREE ENERGY PREDICTED BY IDOCK:   -3.08 KCAL/MOL
REMARK 923 INTER-LIGAND FREE ENERGY PREDICTED BY IDOCK:   -3.25 KCAL/MOL
REMARK 924 INTRA-LIGAND FREE ENERGY PREDICTED BY IDOCK:    0.17 KCAL/MOL
REMARK 927      BINDING AFFINITY PREDICTED BY RF-SCORE:    0.00 PKD
ROOT
HETATM    1  C   UNL     1      -9.139  19.312  67.494  1.00  0.00    -0.349 C  
HETATM    2  C   UNL     1      -8.953  18.237  66.432  1.00  0.00    -0.243 C  
ENDROOT
BRANCH   2   3
HETATM    3  O   UNL     1      -8.637  16.995  67.080  1.00  0.00    -0.193 OA 
BRANCH   3   4
HETATM    4  C   UNL     1      -9.104  15.861  66.466  1.00  0.00    -0.286 C  
HETATM    5  O   UNL     1      -9.673  15.860  65.382  1.00  0.00    -0.397 OA 
HETATM    6  C   UNL     1      -8.655  14.607  67.266  1.00  0.00    -0.214 C  
HETATM    7  C   UNL     1      -9.275  14.688  68.665  1.00  0.00    -0.194 C  
HETATM    8  C   UNL     1      -7.119  14.696  67.256  1.00  0.00    -0.030 C  
HETATM    9  O   UNL     1      -9.160  13.473  66.533  1.00  0.00    -0.211 OA 
BRANCH   9  10
HETATM   10  C   UNL     1      -9.072  12.188  66.978  1.00  0.00    -0.198 A  
HETATM   11  C   UNL     1      -9.819  11.909  68.127  1.00  0.00    -0.192 A  
HETATM   12  C   UNL     1      -9.880  10.606  68.652  1.00  0.00    -0.183 A  
HETATM   13  C   UNL     1      -9.197   9.577  68.021  1.00  0.00    -0.129 A  
HETATM   14  C   UNL     1      -8.459   9.837  66.873  1.00  0.00    -0.120 A  
HETATM   15 CL   UNL     1      -9.278   7.974  68.635  1.00  0.00    -0.143 Cl 
HETATM   16  C   UNL     1      -8.400  11.138  66.360  1.00  0.00    -0.167 A  
ENDBRANCH   9  10
ENDBRANCH   3   4
ENDBRANCH   2   3
TORSDOF 3
ENDMDL
MODEL      115
REMARK 921   NORMALIZED FREE ENERGY PREDICTED BY IDOCK:   -2.36 KCAL/MOL
REMARK 922        TOTAL FREE ENERGY PREDICTED BY IDOCK:   -3.07 KCAL/MOL
REMARK 923 INTER-LIGAND FREE ENERGY PREDICTED BY IDOCK:   -2.86 KCAL/MOL
REMARK 924 INTRA-LIGAND FREE ENERGY PREDICTED BY IDOCK:   -0.21 KCAL/MOL
REMARK 927      BINDING AFFINITY PREDICTED BY RF-SCORE:    0.00 PKD
ROOT
HETATM    1  C   UNL     1      -6.832   2.411  67.181  1.00  0.00    -0.040 C  
HETATM    2  C   UNL     1      -7.810   2.800  66.080  1.00  0.00    -0.081 C  
ENDROOT
BRANCH   2   3
HETATM    3  O   UNL     1      -8.729   3.773  66.600  1.00  0.00    -0.109 OA 
BRANCH   3   4
HETATM    4  C   UNL     1      -8.351   5.085  66.469  1.00  0.00    -0.107 C  
HETATM    5  O   UNL     1      -7.472   5.467  65.707  1.00  0.00    -0.079 OA 
HETATM    6  C   UNL     1      -9.308   5.993  67.292  1.00  0.00    -0.113 C  
HETATM    7  C   UNL     1      -9.184   5.600  68.767  1.00  0.00    -0.133 C  
HETATM    8  C   UNL     1     -10.694   5.711  66.684  1.00  0.00    -0.339 C  
HETATM    9  O   UNL     1      -8.856   7.343  67.068  1.00  0.00    -0.123 OA 
BRANCH   9  10
HETATM   10  C   UNL     1      -9.372   8.427  67.713  1.00  0.00    -0.134 A  
HETATM   11  C   UNL     1     -10.392   9.092  67.027  1.00  0.00    -0.333 A  
HETATM   12  C   UNL     1     -11.065  10.181  67.608  1.00  0.00    -0.275 A  
HETATM   13  C   UNL     1     -10.721  10.601  68.885  1.00  0.00    -0.219 A  
HETATM   14  C   UNL     1      -9.716   9.943  69.583  1.00  0.00    -0.252 A  
HETATM   15 CL   UNL     1     -11.547  11.916  69.621  1.00  0.00    -0.384 Cl 
HETATM   16  C   UNL     1      -9.048   8.863  68.995  1.00  0.00    -0.137 A  
ENDBRANCH   9  10
ENDBRANCH   3   4
ENDBRANCH   2   3
TORSDOF 3
ENDMDL
MODEL      116
REMARK 921   NORMALIZED FREE ENERGY PREDICTED BY IDOCK:   -2.32 KCAL/MOL
REMARK 922        TOTAL FREE ENERGY PREDICTED BY IDOCK:   -3.03 KCAL/MOL
REMARK 923 INTER-LIGAND FREE ENERGY PREDICTED BY IDOCK:   -2.83 KCAL/MOL
REMARK 924 INTRA-LIGAND FREE ENERGY PREDICTED BY IDOCK:   -0.19 KCAL/MOL
REMARK 927      BINDING AFFINITY PREDICTED BY RF-SCORE:    0.00 PKD
ROOT
HETATM    1  C   UNL     1      -9.487  10.830  66.538  1.00  0.00    -0.197 C  
HETATM    2  C   UNL     1      -9.194   9.391  66.136  1.00  0.00    -0.190 C  
ENDROOT
BRANCH   2   3
HETATM    3  O   UNL     1      -8.805   8.653  67.305  1.00  0.00    -0.131 OA 
BRANCH   3   4
HETATM    4  C   UNL     1      -9.790   7.900  67.893  1.00  0.00    -0.165 C  
HETATM    5  O   UNL     1     -10.913   7.764  67.426  1.00  0.00    -0.189 OA 
HETATM    6  C   UNL     1      -9.208   7.136  69.115  1.00  0.00    -0.139 C  
HETATM    7  C   UNL     1      -8.719   8.171  70.134  1.00  0.00    -0.130 C  
HETATM    8  C   UNL     1      -8.084   6.276  68.510  1.00  0.00    -0.109 C  
HETATM    9  O   UNL     1     -10.297   6.353  69.643  1.00  0.00    -0.182 OA 
BRANCH   9  10
HETATM   10  C   UNL     1     -10.216   5.629  70.795  1.00  0.00    -0.227 A  
HETATM   11  C   UNL     1      -9.834   4.294  70.626  1.00  0.00    -0.265 A  
HETATM   12  C   UNL     1      -9.638   3.453  71.735  1.00  0.00    -0.225 A  
HETATM   13  C   UNL     1      -9.816   3.951  73.018  1.00  0.00    -0.131 A  
HETATM   14  C   UNL     1     -10.184   5.278  73.201  1.00  0.00    -0.213 A  
HETATM   15 CL   UNL     1      -9.558   2.943  74.386  1.00  0.00    -0.114 Cl 
HETATM   16  C   UNL     1     -10.383   6.107  72.091  1.00  0.00    -0.227 A  
ENDBRANCH   9  10
ENDBRANCH   3   4
ENDBRANCH   2   3
TORSDOF 3
ENDMDL
MODEL      117
REMARK 921   NORMALIZED FREE ENERGY PREDICTED BY IDOCK:   -2.22 KCAL/MOL
REMARK 922        TOTAL FREE ENERGY PREDICTED BY IDOCK:   -2.91 KCAL/MOL
REMARK 923 INTER-LIGAND FREE ENERGY PREDICTED BY IDOCK:   -3.22 KCAL/MOL
REMARK 924 INTRA-LIGAND FREE ENERGY PREDICTED BY IDOCK:    0.31 KCAL/MOL
REMARK 927      BINDING AFFINITY PREDICTED BY RF-SCORE:    0.00 PKD
ROOT
HETATM    1  C   UNL     1     -10.915  13.423  64.296  1.00  0.00    -0.391 C  
HETATM    2  C   UNL     1     -10.981  11.902  64.299  1.00  0.00    -0.353 C  
ENDROOT
BRANCH   2   3
HETATM    3  O   UNL     1     -11.045  11.444  65.659  1.00  0.00    -0.243 OA 
BRANCH   3   4
HETATM    4  C   UNL     1     -10.149  10.464  66.005  1.00  0.00    -0.243 C  
HETATM    5  O   UNL     1      -9.683   9.657  65.211  1.00  0.00    -0.300 OA 
HETATM    6  C   UNL     1      -9.711  10.651  67.484  1.00  0.00    -0.166 C  
HETATM    7  C   UNL     1     -10.952  10.506  68.371  1.00  0.00    -0.310 C  
HETATM    8  C   UNL     1      -9.088  12.059  67.507  1.00  0.00    -0.177 C  
HETATM    9  O   UNL     1      -8.753   9.606  67.745  1.00  0.00    -0.122 OA 
BRANCH   9  10
HETATM   10  C   UNL     1      -8.220   9.362  68.974  1.00  0.00    -0.108 A  
HETATM   11  C   UNL     1      -9.155   9.190  70.000  1.00  0.00    -0.207 A  
HETATM   12  C   UNL     1      -8.747   8.858  71.303  1.00  0.00    -0.279 A  
HETATM   13  C   UNL     1      -7.398   8.689  71.581  1.00  0.00    -0.093 A  
HETATM   14  C   UNL     1      -6.459   8.847  70.570  1.00  0.00    -0.046 A  
HETATM   15 CL   UNL     1      -6.882   8.262  73.163  1.00  0.00    -0.128 Cl 
HETATM   16  C   UNL     1      -6.873   9.182  69.276  1.00  0.00    -0.049 A  
ENDBRANCH   9  10
ENDBRANCH   3   4
ENDBRANCH   2   3
TORSDOF 3
ENDMDL
MODEL      118
REMARK 921   NORMALIZED FREE ENERGY PREDICTED BY IDOCK:   -2.22 KCAL/MOL
REMARK 922        TOTAL FREE ENERGY PREDICTED BY IDOCK:   -2.90 KCAL/MOL
REMARK 923 INTER-LIGAND FREE ENERGY PREDICTED BY IDOCK:   -3.03 KCAL/MOL
REMARK 924 INTRA-LIGAND FREE ENERGY PREDICTED BY IDOCK:    0.12 KCAL/MOL
REMARK 927      BINDING AFFINITY PREDICTED BY RF-SCORE:    0.00 PKD
ROOT
HETATM    1  C   UNL     1     -11.392   5.058  72.673  1.00  0.00    -0.209 C  
HETATM    2  C   UNL     1     -11.595   6.508  72.255  1.00  0.00    -0.292 C  
ENDROOT
BRANCH   2   3
HETATM    3  O   UNL     1     -11.072   6.686  70.929  1.00  0.00    -0.255 OA 
BRANCH   3   4
HETATM    4  C   UNL     1      -9.829   7.262  70.848  1.00  0.00    -0.184 C  
HETATM    5  O   UNL     1      -8.804   6.731  71.256  1.00  0.00    -0.135 OA 
HETATM    6  C   UNL     1      -9.913   8.578  70.026  1.00  0.00    -0.188 C  
HETATM    7  C   UNL     1     -10.845   9.543  70.766  1.00  0.00    -0.386 C  
HETATM    8  C   UNL     1     -10.446   8.122  68.656  1.00  0.00    -0.195 C  
HETATM    9  O   UNL     1      -8.567   9.090  69.966  1.00  0.00    -0.127 OA 
BRANCH   9  10
HETATM   10  C   UNL     1      -8.243  10.298  69.426  1.00  0.00    -0.165 A  
HETATM   11  C   UNL     1      -6.972  10.774  69.764  1.00  0.00    -0.141 A  
HETATM   12  C   UNL     1      -6.479  11.971  69.216  1.00  0.00    -0.111 A  
HETATM   13  C   UNL     1      -7.257  12.692  68.321  1.00  0.00    -0.113 A  
HETATM   14  C   UNL     1      -8.517  12.226  67.968  1.00  0.00    -0.171 A  
HETATM   15 CL   UNL     1      -6.662  14.145  67.625  1.00  0.00    -0.192 Cl 
HETATM   16  C   UNL     1      -9.003  11.035  68.521  1.00  0.00    -0.163 A  
ENDBRANCH   9  10
ENDBRANCH   3   4
ENDBRANCH   2   3
TORSDOF 3
ENDMDL
MODEL      119
REMARK 921   NORMALIZED FREE ENERGY PREDICTED BY IDOCK:   -2.21 KCAL/MOL
REMARK 922        TOTAL FREE ENERGY PREDICTED BY IDOCK:   -2.90 KCAL/MOL
REMARK 923 INTER-LIGAND FREE ENERGY PREDICTED BY IDOCK:   -2.52 KCAL/MOL
REMARK 924 INTRA-LIGAND FREE ENERGY PREDICTED BY IDOCK:   -0.38 KCAL/MOL
REMARK 927      BINDING AFFINITY PREDICTED BY RF-SCORE:    0.00 PKD
ROOT
HETATM    1  C   UNL     1      -7.091   7.281  63.943  1.00  0.00    -0.068 C  
HETATM    2  C   UNL     1      -7.946   6.041  64.172  1.00  0.00    -0.119 C  
ENDROOT
BRANCH   2   3
HETATM    3  O   UNL     1      -8.728   6.231  65.361  1.00  0.00    -0.134 OA 
BRANCH   3   4
HETATM    4  C   UNL     1      -8.304   5.549  66.473  1.00  0.00    -0.109 C  
HETATM    5  O   UNL     1      -7.385   4.740  66.466  1.00  0.00    -0.079 OA 
HETATM    6  C   UNL     1      -9.044   6.082  67.731  1.00  0.00    -0.109 C  
HETATM    7  C   UNL     1     -10.543   5.822  67.548  1.00  0.00    -0.327 C  
HETATM    8  C   UNL     1      -8.669   7.575  67.772  1.00  0.00    -0.123 C  
HETATM    9  O   UNL     1      -8.514   5.336  68.844  1.00  0.00    -0.092 OA 
BRANCH   9  10
HETATM   10  C   UNL     1      -8.995   5.433  70.115  1.00  0.00    -0.134 A  
HETATM   11  C   UNL     1      -9.578   4.265  70.616  1.00  0.00    -0.260 A  
HETATM   12  C   UNL     1     -10.049   4.201  71.939  1.00  0.00    -0.224 A  
HETATM   13  C   UNL     1      -9.928   5.308  72.767  1.00  0.00    -0.160 A  
HETATM   14  C   UNL     1      -9.342   6.472  72.286  1.00  0.00    -0.137 A  
HETATM   15 CL   UNL     1     -10.477   5.241  74.394  1.00  0.00    -0.301 Cl 
HETATM   16  C   UNL     1      -8.881   6.528  70.966  1.00  0.00    -0.139 A  
ENDBRANCH   9  10
ENDBRANCH   3   4
ENDBRANCH   2   3
TORSDOF 3
ENDMDL
MODEL      120
REMARK 921   NORMALIZED FREE ENERGY PREDICTED BY IDOCK:   -2.19 KCAL/MOL
REMARK 922        TOTAL FREE ENERGY PREDICTED BY IDOCK:   -2.87 KCAL/MOL
REMARK 923 INTER-LIGAND FREE ENERGY PREDICTED BY IDOCK:   -2.75 KCAL/MOL
REMARK 924 INTRA-LIGAND FREE ENERGY PREDICTED BY IDOCK:   -0.12 KCAL/MOL
REMARK 927      BINDING AFFINITY PREDICTED BY RF-SCORE:    0.00 PKD
ROOT
HETATM    1  C   UNL     1      -9.057   8.718  71.895  1.00  0.00    -0.291 C  
HETATM    2  C   UNL     1     -10.569   8.611  71.741  1.00  0.00    -0.325 C  
ENDROOT
BRANCH   2   3
HETATM    3  O   UNL     1     -10.863   7.989  70.481  1.00  0.00    -0.233 OA 
BRANCH   3   4
HETATM    4  C   UNL     1     -10.583   6.649  70.394  1.00  0.00    -0.223 C  
HETATM    5  O   UNL     1     -10.778   5.852  71.303  1.00  0.00    -0.244 OA 
HETATM    6  C   UNL     1     -10.154   6.295  68.943  1.00  0.00    -0.168 C  
HETATM    7  C   UNL     1      -8.877   7.076  68.620  1.00  0.00    -0.128 C  
HETATM    8  C   UNL     1     -11.369   6.703  68.091  1.00  0.00    -0.079 C  
HETATM    9  O   UNL     1      -9.915   4.873  68.940  1.00  0.00    -0.173 OA 
BRANCH   9  10
HETATM   10  C   UNL     1      -9.407   4.196  67.872  1.00  0.00    -0.164 A  
HETATM   11  C   UNL     1      -8.742   3.007  68.189  1.00  0.00    -0.139 A  
HETATM   12  C   UNL     1      -8.235   2.171  67.180  1.00  0.00    -0.079 A  
HETATM   13  C   UNL     1      -8.400   2.521  65.847  1.00  0.00    -0.093 A  
HETATM   14  C   UNL     1      -9.068   3.693  65.517  1.00  0.00    -0.148 A  
HETATM   15 CL   UNL     1      -7.807   1.500  64.599  1.00  0.00    -0.063 Cl 
HETATM   16  C   UNL     1      -9.565   4.523  66.529  1.00  0.00    -0.200 A  
ENDBRANCH   9  10
ENDBRANCH   3   4
ENDBRANCH   2   3
TORSDOF 3
ENDMDL
MODEL      121
REMARK 921   NORMALIZED FREE ENERGY PREDICTED BY IDOCK:   -2.19 KCAL/MOL
REMARK 922        TOTAL FREE ENERGY PREDICTED BY IDOCK:   -2.87 KCAL/MOL
REMARK 923 INTER-LIGAND FREE ENERGY PREDICTED BY IDOCK:   -2.48 KCAL/MOL
REMARK 924 INTRA-LIGAND FREE ENERGY PREDICTED BY IDOCK:   -0.39 KCAL/MOL
REMARK 927      BINDING AFFINITY PREDICTED BY RF-SCORE:    0.00 PKD
ROOT
HETATM    1  C   UNL     1      -8.121   2.939  64.073  1.00  0.00    -0.082 C  
HETATM    2  C   UNL     1      -8.722   2.814  65.467  1.00  0.00    -0.127 C  
ENDROOT
BRANCH   2   3
HETATM    3  O   UNL     1      -8.202   3.869  66.291  1.00  0.00    -0.103 OA 
BRANCH   3   4
HETATM    4  C   UNL     1      -9.136   4.662  66.909  1.00  0.00    -0.120 C  
HETATM    5  O   UNL     1     -10.160   4.232  67.425  1.00  0.00    -0.117 OA 
HETATM    6  C   UNL     1      -8.612   6.123  66.994  1.00  0.00    -0.108 C  
HETATM    7  C   UNL     1      -8.410   6.640  65.566  1.00  0.00    -0.144 C  
HETATM    8  C   UNL     1      -7.309   5.999  67.804  1.00  0.00    -0.077 C  
HETATM    9  O   UNL     1      -9.636   6.868  67.682  1.00  0.00    -0.125 OA 
BRANCH   9  10
HETATM   10  C   UNL     1      -9.600   8.219  67.851  1.00  0.00    -0.152 A  
HETATM   11  C   UNL     1     -10.634   8.921  67.222  1.00  0.00    -0.304 A  
HETATM   12  C   UNL     1     -10.762  10.312  67.375  1.00  0.00    -0.339 A  
HETATM   13  C   UNL     1      -9.857  11.004  68.167  1.00  0.00    -0.176 A  
HETATM   14  C   UNL     1      -8.832  10.319  68.807  1.00  0.00    -0.148 A  
HETATM   15 CL   UNL     1     -10.012  12.702  68.385  1.00  0.00    -0.226 Cl 
HETATM   16  C   UNL     1      -8.708   8.935  68.645  1.00  0.00    -0.134 A  
ENDBRANCH   9  10
ENDBRANCH   3   4
ENDBRANCH   2   3
TORSDOF 3
ENDMDL
MODEL      122
REMARK 921   NORMALIZED FREE ENERGY PREDICTED BY IDOCK:   -2.18 KCAL/MOL
REMARK 922        TOTAL FREE ENERGY PREDICTED BY IDOCK:   -2.86 KCAL/MOL
REMARK 923 INTER-LIGAND FREE ENERGY PREDICTED BY IDOCK:   -2.51 KCAL/MOL
REMARK 924 INTRA-LIGAND FREE ENERGY PREDICTED BY IDOCK:   -0.35 KCAL/MOL
REMARK 927      BINDING AFFINITY PREDICTED BY RF-SCORE:    0.00 PKD
ROOT
HETATM    1  C   UNL     1     -14.220  15.320  72.002  1.00  0.00    -0.679 C  
HETATM    2  C   UNL     1     -13.133  14.295  72.295  1.00  0.00    -0.405 C  
ENDROOT
BRANCH   2   3
HETATM    3  O   UNL     1     -12.418  14.018  71.081  1.00  0.00    -0.334 OA 
BRANCH   3   4
HETATM    4  C   UNL     1     -12.427  12.711  70.664  1.00  0.00    -0.239 C  
HETATM    5  O   UNL     1     -13.073  11.826  71.212  1.00  0.00    -0.307 OA 
HETATM    6  C   UNL     1     -11.644  12.579  69.328  1.00  0.00    -0.319 C  
HETATM    7  C   UNL     1     -10.191  12.994  69.585  1.00  0.00     1.013 C  
HETATM    8  C   UNL     1     -12.400  13.513  68.366  1.00  0.00     0.057 C  
HETATM    9  O   UNL     1     -11.735  11.190  68.955  1.00  0.00    -0.287 OA 
BRANCH   9  10
HETATM   10  C   UNL     1     -11.073  10.650  67.894  1.00  0.00    -0.308 A  
HETATM   11  C   UNL     1     -10.183   9.620  68.215  1.00  0.00    -0.216 A  
HETATM   12  C   UNL     1      -9.490   8.923  67.210  1.00  0.00    -0.195 A  
HETATM   13  C   UNL     1      -9.694   9.251  65.877  1.00  0.00    -0.285 A  
HETATM   14  C   UNL     1     -10.584  10.265  65.543  1.00  0.00    -0.025 A  
HETATM   15 CL   UNL     1      -8.873   8.395  64.635  1.00  0.00     0.029 Cl 
HETATM   16  C   UNL     1     -11.266  10.957  66.550  1.00  0.00    -0.009 A  
ENDBRANCH   9  10
ENDBRANCH   3   4
ENDBRANCH   2   3
TORSDOF 3
ENDMDL
MODEL      123
REMARK 921   NORMALIZED FREE ENERGY PREDICTED BY IDOCK:   -2.16 KCAL/MOL
REMARK 922        TOTAL FREE ENERGY PREDICTED BY IDOCK:   -2.84 KCAL/MOL
REMARK 923 INTER-LIGAND FREE ENERGY PREDICTED BY IDOCK:   -2.66 KCAL/MOL
REMARK 924 INTRA-LIGAND FREE ENERGY PREDICTED BY IDOCK:   -0.18 KCAL/MOL
REMARK 927      BINDING AFFINITY PREDICTED BY RF-SCORE:    0.00 PKD
ROOT
HETATM    1  C   UNL     1     -12.402  11.538  70.746  1.00  0.00    -0.472 C  
HETATM    2  C   UNL     1     -11.045  11.217  70.132  1.00  0.00    -0.025 C  
ENDROOT
BRANCH   2   3
HETATM    3  O   UNL     1     -10.875   9.791  70.105  1.00  0.00    -0.247 OA 
BRANCH   3   4
HETATM    4  C   UNL     1      -9.674   9.340  69.620  1.00  0.00    -0.182 C  
HETATM    5  O   UNL     1      -8.588   9.787  69.966  1.00  0.00    -0.193 OA 
HETATM    6  C   UNL     1      -9.906   8.096  68.717  1.00  0.00    -0.176 C  
HETATM    7  C   UNL     1     -10.776   8.525  67.531  1.00  0.00    -0.211 C  
HETATM    8  C   UNL     1     -10.584   7.083  69.656  1.00  0.00    -0.253 C  
HETATM    9  O   UNL     1      -8.597   7.677  68.283  1.00  0.00    -0.124 OA 
BRANCH   9  10
HETATM   10  C   UNL     1      -8.387   6.680  67.378  1.00  0.00    -0.121 A  
HETATM   11  C   UNL     1      -8.312   5.394  67.923  1.00  0.00    -0.099 A  
HETATM   12  C   UNL     1      -8.173   4.266  67.096  1.00  0.00    -0.100 A  
HETATM   13  C   UNL     1      -8.116   4.423  65.719  1.00  0.00    -0.102 A  
HETATM   14  C   UNL     1      -8.200   5.694  65.163  1.00  0.00    -0.136 A  
HETATM   15 CL   UNL     1      -7.969   3.053  64.692  1.00  0.00    -0.082 Cl 
HETATM   16  C   UNL     1      -8.333   6.812  65.993  1.00  0.00    -0.134 A  
ENDBRANCH   9  10
ENDBRANCH   3   4
ENDBRANCH   2   3
TORSDOF 3
ENDMDL
MODEL      124
REMARK 921   NORMALIZED FREE ENERGY PREDICTED BY IDOCK:   -2.14 KCAL/MOL
REMARK 922        TOTAL FREE ENERGY PREDICTED BY IDOCK:   -2.82 KCAL/MOL
REMARK 923 INTER-LIGAND FREE ENERGY PREDICTED BY IDOCK:   -2.54 KCAL/MOL
REMARK 924 INTRA-LIGAND FREE ENERGY PREDICTED BY IDOCK:   -0.27 KCAL/MOL
REMARK 927      BINDING AFFINITY PREDICTED BY RF-SCORE:    0.00 PKD
ROOT
HETATM    1  C   UNL     1      -6.187   2.597  67.386  1.00  0.00    -0.028 C  
HETATM    2  C   UNL     1      -7.371   2.267  66.486  1.00  0.00    -0.061 C  
ENDROOT
BRANCH   2   3
HETATM    3  O   UNL     1      -8.372   3.283  66.648  1.00  0.00    -0.097 OA 
BRANCH   3   4
HETATM    4  C   UNL     1      -8.178   4.436  65.930  1.00  0.00    -0.109 C  
HETATM    5  O   UNL     1      -7.652   4.470  64.826  1.00  0.00    -0.072 OA 
HETATM    6  C   UNL     1      -8.868   5.627  66.652  1.00  0.00    -0.119 C  
HETATM    7  C   UNL     1      -8.209   5.797  68.026  1.00  0.00    -0.104 C  
HETATM    8  C   UNL     1     -10.348   5.211  66.716  1.00  0.00    -0.306 C  
HETATM    9  O   UNL     1      -8.640   6.779  65.815  1.00  0.00    -0.148 OA 
BRANCH   9  10
HETATM   10  C   UNL     1      -8.994   8.047  66.166  1.00  0.00    -0.175 A  
HETATM   11  C   UNL     1      -8.083   9.039  65.788  1.00  0.00    -0.109 A  
HETATM   12  C   UNL     1      -8.356  10.398  66.019  1.00  0.00    -0.149 A  
HETATM   13  C   UNL     1      -9.549  10.768  66.623  1.00  0.00    -0.178 A  
HETATM   14  C   UNL     1     -10.468   9.794  66.994  1.00  0.00    -0.295 A  
HETATM   15 CL   UNL     1      -9.911  12.426  66.893  1.00  0.00    -0.217 Cl 
HETATM   16  C   UNL     1     -10.186   8.443  66.765  1.00  0.00    -0.376 A  
ENDBRANCH   9  10
ENDBRANCH   3   4
ENDBRANCH   2   3
TORSDOF 3
ENDMDL
MODEL      125
REMARK 921   NORMALIZED FREE ENERGY PREDICTED BY IDOCK:   -2.14 KCAL/MOL
REMARK 922        TOTAL FREE ENERGY PREDICTED BY IDOCK:   -2.81 KCAL/MOL
REMARK 923 INTER-LIGAND FREE ENERGY PREDICTED BY IDOCK:   -2.76 KCAL/MOL
REMARK 924 INTRA-LIGAND FREE ENERGY PREDICTED BY IDOCK:   -0.05 KCAL/MOL
REMARK 927      BINDING AFFINITY PREDICTED BY RF-SCORE:    0.00 PKD
ROOT
HETATM    1  C   UNL     1      -9.370   2.273  68.471  1.00  0.00    -0.250 C  
HETATM    2  C   UNL     1      -8.404   3.328  67.950  1.00  0.00    -0.084 C  
ENDROOT
BRANCH   2   3
HETATM    3  O   UNL     1      -8.599   4.541  68.693  1.00  0.00    -0.087 OA 
BRANCH   3   4
HETATM    4  C   UNL     1      -9.600   5.365  68.243  1.00  0.00    -0.125 C  
HETATM    5  O   UNL     1     -10.647   4.960  67.756  1.00  0.00    -0.001 OA 
HETATM    6  C   UNL     1      -9.266   6.840  68.601  1.00  0.00    -0.132 C  
HETATM    7  C   UNL     1      -7.968   7.222  67.884  1.00  0.00    -0.119 C  
HETATM    8  C   UNL     1      -9.153   6.829  70.136  1.00  0.00    -0.155 C  
HETATM    9  O   UNL     1     -10.380   7.621  68.123  1.00  0.00    -0.197 OA 
BRANCH   9  10
HETATM   10  C   UNL     1     -10.410   8.983  68.146  1.00  0.00    -0.214 A  
HETATM   11  C   UNL     1     -10.678   9.588  66.914  1.00  0.00    -0.184 A  
HETATM   12  C   UNL     1     -10.813  10.983  66.807  1.00  0.00    -0.307 A  
HETATM   13  C   UNL     1     -10.688  11.776  67.939  1.00  0.00    -0.204 A  
HETATM   14  C   UNL     1     -10.433  11.188  69.171  1.00  0.00    -0.211 A  
HETATM   15 CL   UNL     1     -10.873  13.481  67.832  1.00  0.00    -0.254 Cl 
HETATM   16  C   UNL     1     -10.295   9.799  69.268  1.00  0.00    -0.230 A  
ENDBRANCH   9  10
ENDBRANCH   3   4
ENDBRANCH   2   3
TORSDOF 3
ENDMDL
MODEL      126
REMARK 921   NORMALIZED FREE ENERGY PREDICTED BY IDOCK:   -2.13 KCAL/MOL
REMARK 922        TOTAL FREE ENERGY PREDICTED BY IDOCK:   -2.80 KCAL/MOL
REMARK 923 INTER-LIGAND FREE ENERGY PREDICTED BY IDOCK:   -2.59 KCAL/MOL
REMARK 924 INTRA-LIGAND FREE ENERGY PREDICTED BY IDOCK:   -0.21 KCAL/MOL
REMARK 927      BINDING AFFINITY PREDICTED BY RF-SCORE:    0.00 PKD
ROOT
HETATM    1  C   UNL     1      -9.293   5.497  73.651  1.00  0.00    -0.137 C  
HETATM    2  C   UNL     1     -10.741   5.146  73.337  1.00  0.00    -0.278 C  
ENDROOT
BRANCH   2   3
HETATM    3  O   UNL     1     -11.075   5.673  72.043  1.00  0.00    -0.254 OA 
BRANCH   3   4
HETATM    4  C   UNL     1     -10.248   5.302  71.013  1.00  0.00    -0.229 C  
HETATM    5  O   UNL     1      -9.851   4.157  70.838  1.00  0.00    -0.188 OA 
HETATM    6  C   UNL     1     -10.047   6.499  70.043  1.00  0.00    -0.174 C  
HETATM    7  C   UNL     1      -9.370   7.633  70.821  1.00  0.00    -0.162 C  
HETATM    8  C   UNL     1     -11.473   6.832  69.569  1.00  0.00    -0.247 C  
HETATM    9  O   UNL     1      -9.199   6.009  68.986  1.00  0.00    -0.122 OA 
BRANCH   9  10
HETATM   10  C   UNL     1      -8.697   6.799  67.995  1.00  0.00    -0.118 A  
HETATM   11  C   UNL     1      -7.301   6.848  67.930  1.00  0.00    -0.097 A  
HETATM   12  C   UNL     1      -6.649   7.563  66.911  1.00  0.00    -0.061 A  
HETATM   13  C   UNL     1      -7.396   8.226  65.947  1.00  0.00    -0.076 A  
HETATM   14  C   UNL     1      -8.784   8.176  65.993  1.00  0.00    -0.182 A  
HETATM   15 CL   UNL     1      -6.616   9.086  64.681  1.00  0.00    -0.070 Cl 
HETATM   16  C   UNL     1      -9.425   7.466  67.014  1.00  0.00    -0.199 A  
ENDBRANCH   9  10
ENDBRANCH   3   4
ENDBRANCH   2   3
TORSDOF 3
ENDMDL
MODEL      127
REMARK 921   NORMALIZED FREE ENERGY PREDICTED BY IDOCK:   -2.10 KCAL/MOL
REMARK 922        TOTAL FREE ENERGY PREDICTED BY IDOCK:   -2.77 KCAL/MOL
REMARK 923 INTER-LIGAND FREE ENERGY PREDICTED BY IDOCK:   -2.37 KCAL/MOL
REMARK 924 INTRA-LIGAND FREE ENERGY PREDICTED BY IDOCK:   -0.40 KCAL/MOL
REMARK 927      BINDING AFFINITY PREDICTED BY RF-SCORE:    0.00 PKD
ROOT
HETATM    1  C   UNL     1      -6.836  13.659  68.887  1.00  0.00    -0.110 C  
HETATM    2  C   UNL     1      -7.564  13.587  67.551  1.00  0.00    -0.167 C  
ENDROOT
BRANCH   2   3
HETATM    3  O   UNL     1      -8.419  12.434  67.551  1.00  0.00    -0.155 OA 
BRANCH   3   4
HETATM    4  C   UNL     1      -7.867  11.278  67.060  1.00  0.00    -0.150 C  
HETATM    5  O   UNL     1      -6.884  11.250  66.331  1.00  0.00    -0.124 OA 
HETATM    6  C   UNL     1      -8.569  10.047  67.698  1.00  0.00    -0.118 C  
HETATM    7  C   UNL     1     -10.048  10.083  67.300  1.00  0.00    -0.259 C  
HETATM    8  C   UNL     1      -8.324  10.226  69.207  1.00  0.00    -0.167 C  
HETATM    9  O   UNL     1      -7.906   8.890  67.152  1.00  0.00    -0.095 OA 
BRANCH   9  10
HETATM   10  C   UNL     1      -8.312   7.610  67.381  1.00  0.00    -0.116 A  
HETATM   11  C   UNL     1      -8.839   6.950  66.266  1.00  0.00    -0.161 A  
HETATM   12  C   UNL     1      -9.227   5.600  66.341  1.00  0.00    -0.160 A  
HETATM   13  C   UNL     1      -9.081   4.907  67.534  1.00  0.00    -0.118 A  
HETATM   14  C   UNL     1      -8.549   5.547  68.647  1.00  0.00    -0.103 A  
HETATM   15 CL   UNL     1      -9.529   3.251  67.639  1.00  0.00    -0.248 Cl 
HETATM   16  C   UNL     1      -8.170   6.892  68.565  1.00  0.00    -0.121 A  
ENDBRANCH   9  10
ENDBRANCH   3   4
ENDBRANCH   2   3
TORSDOF 3
ENDMDL
MODEL      128
REMARK 921   NORMALIZED FREE ENERGY PREDICTED BY IDOCK:   -2.07 KCAL/MOL
REMARK 922        TOTAL FREE ENERGY PREDICTED BY IDOCK:   -2.73 KCAL/MOL
REMARK 923 INTER-LIGAND FREE ENERGY PREDICTED BY IDOCK:   -2.66 KCAL/MOL
REMARK 924 INTRA-LIGAND FREE ENERGY PREDICTED BY IDOCK:   -0.07 KCAL/MOL
REMARK 927      BINDING AFFINITY PREDICTED BY RF-SCORE:    0.00 PKD
ROOT
HETATM    1  C   UNL     1      -5.174  13.593  71.146  1.00  0.00    -0.163 C  
HETATM    2  C   UNL     1      -5.268  14.009  69.684  1.00  0.00    -0.091 C  
ENDROOT
BRANCH   2   3
HETATM    3  O   UNL     1      -6.569  13.660  69.186  1.00  0.00    -0.101 OA 
BRANCH   3   4
HETATM    4  C   UNL     1      -6.592  12.809  68.110  1.00  0.00    -0.088 C  
HETATM    5  O   UNL     1      -5.844  12.911  67.146  1.00  0.00    -0.339 OA 
HETATM    6  C   UNL     1      -7.572  11.636  68.389  1.00  0.00    -0.126 C  
HETATM    7  C   UNL     1      -8.976  12.221  68.570  1.00  0.00    -0.070 C  
HETATM    8  C   UNL     1      -7.002  10.974  69.656  1.00  0.00    -0.110 C  
HETATM    9  O   UNL     1      -7.504  10.784  67.228  1.00  0.00    -0.095 OA 
BRANCH   9  10
HETATM   10  C   UNL     1      -8.310   9.702  67.039  1.00  0.00    -0.117 A  
HETATM   11  C   UNL     1      -7.704   8.465  67.281  1.00  0.00    -0.098 A  
HETATM   12  C   UNL     1      -8.439   7.270  67.198  1.00  0.00    -0.118 A  
HETATM   13  C   UNL     1      -9.789   7.312  66.879  1.00  0.00    -0.214 A  
HETATM   14  C   UNL     1     -10.407   8.535  66.646  1.00  0.00    -0.303 A  
HETATM   15 CL   UNL     1     -10.709   5.864  66.794  1.00  0.00    -0.376 Cl 
HETATM   16  C   UNL     1      -9.667   9.719  66.726  1.00  0.00    -0.248 A  
ENDBRANCH   9  10
ENDBRANCH   3   4
ENDBRANCH   2   3
TORSDOF 3
ENDMDL
MODEL      129
REMARK 921   NORMALIZED FREE ENERGY PREDICTED BY IDOCK:   -2.06 KCAL/MOL
REMARK 922        TOTAL FREE ENERGY PREDICTED BY IDOCK:   -2.71 KCAL/MOL
REMARK 923 INTER-LIGAND FREE ENERGY PREDICTED BY IDOCK:   -3.66 KCAL/MOL
REMARK 924 INTRA-LIGAND FREE ENERGY PREDICTED BY IDOCK:    0.94 KCAL/MOL
REMARK 927      BINDING AFFINITY PREDICTED BY RF-SCORE:    0.00 PKD
ROOT
HETATM    1  C   UNL     1      -5.427   8.606  67.999  1.00  0.00    -0.035 C  
HETATM    2  C   UNL     1      -5.762   9.502  69.184  1.00  0.00    -0.035 C  
ENDROOT
BRANCH   2   3
HETATM    3  O   UNL     1      -7.172   9.423  69.441  1.00  0.00    -0.061 OA 
BRANCH   3   4
HETATM    4  C   UNL     1      -7.950   9.008  68.390  1.00  0.00    -0.104 C  
HETATM    5  O   UNL     1      -8.149   7.832  68.113  1.00  0.00    -0.120 OA 
HETATM    6  C   UNL     1      -8.650  10.233  67.738  1.00  0.00    -0.118 C  
HETATM    7  C   UNL     1      -7.565  11.168  67.195  1.00  0.00    -0.125 C  
HETATM    8  C   UNL     1      -9.478  10.836  68.887  1.00  0.00    -0.190 C  
HETATM    9  O   UNL     1      -9.464   9.700  66.675  1.00  0.00    -0.155 OA 
BRANCH   9  10
HETATM   10  C   UNL     1     -10.148  10.476  65.788  1.00  0.00    -0.265 A  
HETATM   11  C   UNL     1     -11.010  11.413  66.367  1.00  0.00    -0.315 A  
HETATM   12  C   UNL     1     -11.721  12.330  65.573  1.00  0.00    -0.433 A  
HETATM   13  C   UNL     1     -11.565  12.313  64.194  1.00  0.00    -0.388 A  
HETATM   14  C   UNL     1     -10.704  11.394  63.606  1.00  0.00    -0.470 A  
HETATM   15 CL   UNL     1     -12.408  13.440  63.209  1.00  0.00    -0.431 Cl 
HETATM   16  C   UNL     1     -10.004  10.482  64.404  1.00  0.00    -0.410 A  
ENDBRANCH   9  10
ENDBRANCH   3   4
ENDBRANCH   2   3
TORSDOF 3
ENDMDL
MODEL      130
REMARK 921   NORMALIZED FREE ENERGY PREDICTED BY IDOCK:   -2.00 KCAL/MOL
REMARK 922        TOTAL FREE ENERGY PREDICTED BY IDOCK:   -2.65 KCAL/MOL
REMARK 923 INTER-LIGAND FREE ENERGY PREDICTED BY IDOCK:   -2.62 KCAL/MOL
REMARK 924 INTRA-LIGAND FREE ENERGY PREDICTED BY IDOCK:   -0.03 KCAL/MOL
REMARK 927      BINDING AFFINITY PREDICTED BY RF-SCORE:    0.00 PKD
ROOT
HETATM    1  C   UNL     1     -10.070  11.254  64.736  1.00  0.00    -0.338 C  
HETATM    2  C   UNL     1      -9.642   9.800  64.891  1.00  0.00    -0.246 C  
ENDROOT
BRANCH   2   3
HETATM    3  O   UNL     1      -9.572   9.485  66.290  1.00  0.00    -0.188 OA 
BRANCH   3   4
HETATM    4  C   UNL     1      -9.240   8.190  66.597  1.00  0.00    -0.180 C  
HETATM    5  O   UNL     1      -8.797   7.390  65.784  1.00  0.00    -0.149 OA 
HETATM    6  C   UNL     1      -9.356   7.967  68.131  1.00  0.00    -0.139 C  
HETATM    7  C   UNL     1     -10.814   8.201  68.538  1.00  0.00     0.040 C  
HETATM    8  C   UNL     1      -8.370   8.989  68.726  1.00  0.00    -0.122 C  
HETATM    9  O   UNL     1      -8.960   6.600  68.360  1.00  0.00    -0.124 OA 
BRANCH   9  10
HETATM   10  C   UNL     1      -9.038   5.986  69.574  1.00  0.00    -0.137 A  
HETATM   11  C   UNL     1      -8.275   6.579  70.585  1.00  0.00    -0.125 A  
HETATM   12  C   UNL     1      -8.320   6.094  71.904  1.00  0.00    -0.118 A  
HETATM   13  C   UNL     1      -9.139   5.017  72.215  1.00  0.00    -0.131 A  
HETATM   14  C   UNL     1      -9.911   4.426  71.223  1.00  0.00    -0.260 A  
HETATM   15 CL   UNL     1      -9.224   4.426  73.825  1.00  0.00    -0.107 Cl 
HETATM   16  C   UNL     1      -9.856   4.911  69.911  1.00  0.00    -0.295 A  
ENDBRANCH   9  10
ENDBRANCH   3   4
ENDBRANCH   2   3
TORSDOF 3
ENDMDL
MODEL      131
REMARK 921   NORMALIZED FREE ENERGY PREDICTED BY IDOCK:   -1.92 KCAL/MOL
REMARK 922        TOTAL FREE ENERGY PREDICTED BY IDOCK:   -2.55 KCAL/MOL
REMARK 923 INTER-LIGAND FREE ENERGY PREDICTED BY IDOCK:   -2.26 KCAL/MOL
REMARK 924 INTRA-LIGAND FREE ENERGY PREDICTED BY IDOCK:   -0.29 KCAL/MOL
REMARK 927      BINDING AFFINITY PREDICTED BY RF-SCORE:    0.00 PKD
ROOT
HETATM    1  C   UNL     1      -9.821  11.068  68.629  1.00  0.00    -0.197 C  
HETATM    2  C   UNL     1      -8.376  10.705  68.314  1.00  0.00    -0.122 C  
ENDROOT
BRANCH   2   3
HETATM    3  O   UNL     1      -7.901   9.789  69.313  1.00  0.00    -0.088 OA 
BRANCH   3   4
HETATM    4  C   UNL     1      -8.370   8.504  69.220  1.00  0.00    -0.120 C  
HETATM    5  O   UNL     1      -8.748   7.991  68.175  1.00  0.00    -0.126 OA 
HETATM    6  C   UNL     1      -8.186   7.777  70.582  1.00  0.00    -0.115 C  
HETATM    7  C   UNL     1      -9.018   8.520  71.633  1.00  0.00    -0.285 C  
HETATM    8  C   UNL     1      -6.668   7.838  70.829  1.00  0.00    -0.038 C  
HETATM    9  O   UNL     1      -8.673   6.436  70.380  1.00  0.00    -0.143 OA 
BRANCH   9  10
HETATM   10  C   UNL     1      -8.787   5.517  71.379  1.00  0.00    -0.136 A  
HETATM   11  C   UNL     1     -10.088   5.319  71.853  1.00  0.00    -0.252 A  
HETATM   12  C   UNL     1     -10.363   4.347  72.830  1.00  0.00    -0.246 A  
HETATM   13  C   UNL     1      -9.333   3.564  73.331  1.00  0.00    -0.100 A  
HETATM   14  C   UNL     1      -8.037   3.742  72.862  1.00  0.00    -0.086 A  
HETATM   15 CL   UNL     1      -9.653   2.355  74.509  1.00  0.00    -0.115 Cl 
HETATM   16  C   UNL     1      -7.772   4.715  71.893  1.00  0.00    -0.097 A  
ENDBRANCH   9  10
ENDBRANCH   3   4
ENDBRANCH   2   3
TORSDOF 3
ENDMDL
MODEL      132
REMARK 921   NORMALIZED FREE ENERGY PREDICTED BY IDOCK:   -1.78 KCAL/MOL
REMARK 922        TOTAL FREE ENERGY PREDICTED BY IDOCK:   -2.39 KCAL/MOL
REMARK 923 INTER-LIGAND FREE ENERGY PREDICTED BY IDOCK:   -2.50 KCAL/MOL
REMARK 924 INTRA-LIGAND FREE ENERGY PREDICTED BY IDOCK:    0.11 KCAL/MOL
REMARK 927      BINDING AFFINITY PREDICTED BY RF-SCORE:    0.00 PKD
ROOT
HETATM    1  C   UNL     1      -9.440   3.452  69.456  1.00  0.00    -0.219 C  
HETATM    2  C   UNL     1     -10.065   4.806  69.764  1.00  0.00    -0.219 C  
ENDROOT
BRANCH   2   3
HETATM    3  O   UNL     1      -9.194   5.839  69.279  1.00  0.00    -0.117 OA 
BRANCH   3   4
HETATM    4  C   UNL     1      -9.807   6.894  68.651  1.00  0.00    -0.145 C  
HETATM    5  O   UNL     1     -10.825   6.789  67.980  1.00  0.00    -0.235 OA 
HETATM    6  C   UNL     1      -9.115   8.224  69.061  1.00  0.00    -0.147 C  
HETATM    7  C   UNL     1      -7.656   8.165  68.594  1.00  0.00    -0.103 C  
HETATM    8  C   UNL     1      -9.280   8.267  70.591  1.00  0.00    -0.167 C  
HETATM    9  O   UNL     1      -9.840   9.269  68.385  1.00  0.00    -0.148 OA 
BRANCH   9  10
HETATM   10  C   UNL     1      -9.465  10.579  68.399  1.00  0.00    -0.157 A  
HETATM   11  C   UNL     1     -10.520  11.495  68.448  1.00  0.00    -0.226 A  
HETATM   12  C   UNL     1     -10.276  12.876  68.544  1.00  0.00    -0.210 A  
HETATM   13  C   UNL     1      -8.970  13.342  68.599  1.00  0.00     0.018 A  
HETATM   14  C   UNL     1      -7.912  12.443  68.562  1.00  0.00    -0.110 A  
HETATM   15 CL   UNL     1      -8.653  15.025  68.738  1.00  0.00    -0.173 Cl 
HETATM   16  C   UNL     1      -8.164  11.070  68.462  1.00  0.00    -0.146 A  
ENDBRANCH   9  10
ENDBRANCH   3   4
ENDBRANCH   2   3
TORSDOF 3
ENDMDL
MODEL      133
REMARK 921   NORMALIZED FREE ENERGY PREDICTED BY IDOCK:   -1.67 KCAL/MOL
REMARK 922        TOTAL FREE ENERGY PREDICTED BY IDOCK:   -2.26 KCAL/MOL
REMARK 923 INTER-LIGAND FREE ENERGY PREDICTED BY IDOCK:   -4.36 KCAL/MOL
REMARK 924 INTRA-LIGAND FREE ENERGY PREDICTED BY IDOCK:    2.10 KCAL/MOL
REMARK 927      BINDING AFFINITY PREDICTED BY RF-SCORE:    0.00 PKD
ROOT
HETATM    1  C   UNL     1     -10.657  13.277  68.326  1.00  0.00    -0.262 C  
HETATM    2  C   UNL     1     -11.085  14.301  67.283  1.00  0.00    -0.306 C  
ENDROOT
BRANCH   2   3
HETATM    3  O   UNL     1     -10.015  14.479  66.342  1.00  0.00    -0.270 OA 
BRANCH   3   4
HETATM    4  C   UNL     1      -9.722  15.776  66.006  1.00  0.00    -0.345 C  
HETATM    5  O   UNL     1     -10.110  16.317  64.978  1.00  0.00    -0.484 OA 
HETATM    6  C   UNL     1      -8.986  16.472  67.184  1.00  0.00    -0.205 C  
HETATM    7  C   UNL     1      -7.670  15.728  67.430  1.00  0.00    -0.211 C  
HETATM    8  C   UNL     1      -9.986  16.374  68.350  1.00  0.00    -0.238 C  
HETATM    9  O   UNL     1      -8.751  17.828  66.755  1.00  0.00    -0.240 OA 
BRANCH   9  10
HETATM   10  C   UNL     1      -8.023  18.730  67.470  1.00  0.00    -0.244 A  
HETATM   11  C   UNL     1      -7.681  18.319  68.763  1.00  0.00    -0.286 A  
HETATM   12  C   UNL     1      -6.867  19.118  69.585  1.00  0.00    -0.172 A  
HETATM   13  C   UNL     1      -6.387  20.330  69.109  1.00  0.00    -0.304 A  
HETATM   14  C   UNL     1      -6.710  20.746  67.823  1.00  0.00    -0.381 A  
HETATM   15 CL   UNL     1      -5.373  21.310  70.090  1.00  0.00    -0.129 Cl 
HETATM   16  C   UNL     1      -7.525  19.946  67.014  1.00  0.00    -0.281 A  
ENDBRANCH   9  10
ENDBRANCH   3   4
ENDBRANCH   2   3
TORSDOF 3
ENDMDL
MODEL      134
REMARK 921   NORMALIZED FREE ENERGY PREDICTED BY IDOCK:   -1.65 KCAL/MOL
REMARK 922        TOTAL FREE ENERGY PREDICTED BY IDOCK:   -2.24 KCAL/MOL
REMARK 923 INTER-LIGAND FREE ENERGY PREDICTED BY IDOCK:   -1.93 KCAL/MOL
REMARK 924 INTRA-LIGAND FREE ENERGY PREDICTED BY IDOCK:   -0.31 KCAL/MOL
REMARK 927      BINDING AFFINITY PREDICTED BY RF-SCORE:    0.00 PKD
ROOT
HETATM    1  C   UNL     1      -9.936   4.926  65.882  1.00  0.00    -0.222 C  
HETATM    2  C   UNL     1      -9.429   5.488  67.203  1.00  0.00    -0.122 C  
ENDROOT
BRANCH   2   3
HETATM    3  O   UNL     1      -8.551   6.592  66.931  1.00  0.00    -0.112 OA 
BRANCH   3   4
HETATM    4  C   UNL     1      -8.855   7.770  67.564  1.00  0.00    -0.124 C  
HETATM    5  O   UNL     1      -9.817   7.915  68.307  1.00  0.00    -0.160 OA 
HETATM    6  C   UNL     1      -7.719   8.803  67.325  1.00  0.00    -0.096 C  
HETATM    7  C   UNL     1      -7.630   9.074  65.820  1.00  0.00    -0.090 C  
HETATM    8  C   UNL     1      -6.471   8.119  67.912  1.00  0.00    -0.053 C  
HETATM    9  O   UNL     1      -8.107   9.988  68.049  1.00  0.00    -0.110 OA 
BRANCH   9  10
HETATM   10  C   UNL     1      -7.422  11.164  67.993  1.00  0.00    -0.094 A  
HETATM   11  C   UNL     1      -8.191  12.278  67.643  1.00  0.00    -0.166 A  
HETATM   12  C   UNL     1      -7.630  13.567  67.620  1.00  0.00    -0.181 A  
HETATM   13  C   UNL     1      -6.295  13.743  67.955  1.00  0.00    -0.141 A  
HETATM   14  C   UNL     1      -5.521  12.646  68.315  1.00  0.00    -0.064 A  
HETATM   15 CL   UNL     1      -5.597  15.313  67.955  1.00  0.00    -0.146 Cl 
HETATM   16  C   UNL     1      -6.087  11.366  68.330  1.00  0.00    -0.045 A  
ENDBRANCH   9  10
ENDBRANCH   3   4
ENDBRANCH   2   3
TORSDOF 3
ENDMDL
MODEL      135
REMARK 921   NORMALIZED FREE ENERGY PREDICTED BY IDOCK:   -1.65 KCAL/MOL
REMARK 922        TOTAL FREE ENERGY PREDICTED BY IDOCK:   -2.24 KCAL/MOL
REMARK 923 INTER-LIGAND FREE ENERGY PREDICTED BY IDOCK:   -2.29 KCAL/MOL
REMARK 924 INTRA-LIGAND FREE ENERGY PREDICTED BY IDOCK:    0.05 KCAL/MOL
REMARK 927      BINDING AFFINITY PREDICTED BY RF-SCORE:    0.00 PKD
ROOT
HETATM    1  C   UNL     1     -11.375   5.076  72.652  1.00  0.00    -0.209 C  
HETATM    2  C   UNL     1     -11.492   6.478  72.068  1.00  0.00    -0.300 C  
ENDROOT
BRANCH   2   3
HETATM    3  O   UNL     1     -10.969   6.467  70.730  1.00  0.00    -0.245 OA 
BRANCH   3   4
HETATM    4  C   UNL     1      -9.697   6.958  70.580  1.00  0.00    -0.175 C  
HETATM    5  O   UNL     1      -8.826   6.867  71.436  1.00  0.00    -0.133 OA 
HETATM    6  C   UNL     1      -9.502   7.478  69.129  1.00  0.00    -0.150 C  
HETATM    7  C   UNL     1     -10.492   8.624  68.896  1.00  0.00    -0.211 C  
HETATM    8  C   UNL     1      -9.766   6.238  68.256  1.00  0.00    -0.122 C  
HETATM    9  O   UNL     1      -8.138   7.939  69.057  1.00  0.00    -0.120 OA 
BRANCH   9  10
HETATM   10  C   UNL     1      -7.614   8.577  67.972  1.00  0.00    -0.098 A  
HETATM   11  C   UNL     1      -6.410   9.248  68.208  1.00  0.00    -0.054 A  
HETATM   12  C   UNL     1      -5.720   9.885  67.161  1.00  0.00    -0.046 A  
HETATM   13  C   UNL     1      -6.234   9.844  65.873  1.00  0.00    -0.079 A  
HETATM   14  C   UNL     1      -7.423   9.172  65.622  1.00  0.00    -0.093 A  
HETATM   15 CL   UNL     1      -5.393  10.598  64.577  1.00  0.00    -0.146 Cl 
HETATM   16  C   UNL     1      -8.106   8.545  66.671  1.00  0.00    -0.104 A  
ENDBRANCH   9  10
ENDBRANCH   3   4
ENDBRANCH   2   3
TORSDOF 3
ENDMDL
MODEL      136
REMARK 921   NORMALIZED FREE ENERGY PREDICTED BY IDOCK:   -1.63 KCAL/MOL
REMARK 922        TOTAL FREE ENERGY PREDICTED BY IDOCK:   -2.21 KCAL/MOL
REMARK 923 INTER-LIGAND FREE ENERGY PREDICTED BY IDOCK:   -2.01 KCAL/MOL
REMARK 924 INTRA-LIGAND FREE ENERGY PREDICTED BY IDOCK:   -0.21 KCAL/MOL
REMARK 927      BINDING AFFINITY PREDICTED BY RF-SCORE:    0.00 PKD
ROOT
HETATM    1  C   UNL     1      -8.450   4.891  62.560  1.00  0.00    -0.107 C  
HETATM    2  C   UNL     1      -9.344   4.147  63.545  1.00  0.00    -0.140 C  
ENDROOT
BRANCH   2   3
HETATM    3  O   UNL     1      -8.705   4.135  64.831  1.00  0.00    -0.118 OA 
BRANCH   3   4
HETATM    4  C   UNL     1      -9.420   4.693  65.860  1.00  0.00    -0.172 C  
HETATM    5  O   UNL     1     -10.642   4.756  65.885  1.00  0.00    -0.303 OA 
HETATM    6  C   UNL     1      -8.461   5.065  67.025  1.00  0.00    -0.106 C  
HETATM    7  C   UNL     1      -7.465   6.108  66.507  1.00  0.00    -0.086 C  
HETATM    8  C   UNL     1      -7.815   3.723  67.412  1.00  0.00    -0.083 C  
HETATM    9  O   UNL     1      -9.298   5.610  68.064  1.00  0.00    -0.107 OA 
BRANCH   9  10
HETATM   10  C   UNL     1      -8.812   6.161  69.212  1.00  0.00    -0.124 A  
HETATM   11  C   UNL     1      -8.846   5.322  70.330  1.00  0.00    -0.146 A  
HETATM   12  C   UNL     1      -8.308   5.735  71.561  1.00  0.00    -0.127 A  
HETATM   13  C   UNL     1      -7.727   6.990  71.673  1.00  0.00    -0.093 A  
HETATM   14  C   UNL     1      -7.676   7.830  70.568  1.00  0.00    -0.088 A  
HETATM   15 CL   UNL     1      -7.044   7.503  73.164  1.00  0.00    -0.076 Cl 
HETATM   16  C   UNL     1      -8.219   7.413  69.347  1.00  0.00    -0.131 A  
ENDBRANCH   9  10
ENDBRANCH   3   4
ENDBRANCH   2   3
TORSDOF 3
ENDMDL
MODEL      137
REMARK 921   NORMALIZED FREE ENERGY PREDICTED BY IDOCK:   -1.63 KCAL/MOL
REMARK 922        TOTAL FREE ENERGY PREDICTED BY IDOCK:   -2.21 KCAL/MOL
REMARK 923 INTER-LIGAND FREE ENERGY PREDICTED BY IDOCK:   -2.15 KCAL/MOL
REMARK 924 INTRA-LIGAND FREE ENERGY PREDICTED BY IDOCK:   -0.06 KCAL/MOL
REMARK 927      BINDING AFFINITY PREDICTED BY RF-SCORE:    0.00 PKD
ROOT
HETATM    1  C   UNL     1      -9.798   2.580  72.525  1.00  0.00    -0.208 C  
HETATM    2  C   UNL     1      -9.091   2.758  71.188  1.00  0.00    -0.112 C  
ENDROOT
BRANCH   2   3
HETATM    3  O   UNL     1      -8.709   4.134  71.046  1.00  0.00    -0.085 OA 
BRANCH   3   4
HETATM    4  C   UNL     1      -8.197   4.491  69.825  1.00  0.00    -0.063 C  
HETATM    5  O   UNL     1      -7.495   3.758  69.140  1.00  0.00    -0.053 OA 
HETATM    6  C   UNL     1      -8.775   5.868  69.394  1.00  0.00    -0.116 C  
HETATM    7  C   UNL     1      -8.336   6.913  70.425  1.00  0.00    -0.130 C  
HETATM    8  C   UNL     1     -10.295   5.631  69.353  1.00  0.00    -0.343 C  
HETATM    9  O   UNL     1      -8.211   6.142  68.096  1.00  0.00    -0.113 OA 
BRANCH   9  10
HETATM   10  C   UNL     1      -8.388   7.318  67.431  1.00  0.00    -0.119 A  
HETATM   11  C   UNL     1      -9.074   7.211  66.217  1.00  0.00    -0.182 A  
HETATM   12  C   UNL     1      -9.392   8.354  65.463  1.00  0.00     0.026 A  
HETATM   13  C   UNL     1      -9.029   9.610  65.928  1.00  0.00    -0.167 A  
HETATM   14  C   UNL     1      -8.356   9.732  67.138  1.00  0.00    -0.121 A  
HETATM   15 CL   UNL     1      -9.429  11.020  65.032  1.00  0.00    -0.254 Cl 
HETATM   16  C   UNL     1      -8.039   8.589  67.880  1.00  0.00    -0.115 A  
ENDBRANCH   9  10
ENDBRANCH   3   4
ENDBRANCH   2   3
TORSDOF 3
ENDMDL
MODEL      138
REMARK 921   NORMALIZED FREE ENERGY PREDICTED BY IDOCK:   -1.56 KCAL/MOL
REMARK 922        TOTAL FREE ENERGY PREDICTED BY IDOCK:   -2.13 KCAL/MOL
REMARK 923 INTER-LIGAND FREE ENERGY PREDICTED BY IDOCK:   -1.89 KCAL/MOL
REMARK 924 INTRA-LIGAND FREE ENERGY PREDICTED BY IDOCK:   -0.24 KCAL/MOL
REMARK 927      BINDING AFFINITY PREDICTED BY RF-SCORE:    0.00 PKD
ROOT
HETATM    1  C   UNL     1      -8.559   1.791  63.651  1.00  0.00    -0.080 C  
HETATM    2  C   UNL     1      -9.732   1.904  64.617  1.00  0.00     0.041 C  
ENDROOT
BRANCH   2   3
HETATM    3  O   UNL     1      -9.823   3.261  65.077  1.00  0.00    -0.130 OA 
BRANCH   3   4
HETATM    4  C   UNL     1      -9.299   3.509  66.320  1.00  0.00    -0.166 C  
HETATM    5  O   UNL     1      -8.898   2.634  67.077  1.00  0.00    -0.119 OA 
HETATM    6  C   UNL     1      -9.148   5.042  66.531  1.00  0.00    -0.125 C  
HETATM    7  C   UNL     1     -10.543   5.672  66.460  1.00  0.00    -0.320 C  
HETATM    8  C   UNL     1      -8.206   5.477  65.394  1.00  0.00    -0.133 C  
HETATM    9  O   UNL     1      -8.565   5.202  67.840  1.00  0.00    -0.104 OA 
BRANCH   9  10
HETATM   10  C   UNL     1      -8.382   6.412  68.440  1.00  0.00    -0.116 A  
HETATM   11  C   UNL     1      -7.133   6.999  68.214  1.00  0.00    -0.082 A  
HETATM   12  C   UNL     1      -6.835   8.280  68.710  1.00  0.00    -0.062 A  
HETATM   13  C   UNL     1      -7.794   8.980  69.429  1.00  0.00    -0.094 A  
HETATM   14  C   UNL     1      -9.042   8.413  69.653  1.00  0.00    -0.153 A  
HETATM   15 CL   UNL     1      -7.456  10.556  70.025  1.00  0.00    -0.107 Cl 
HETATM   16  C   UNL     1      -9.329   7.135  69.159  1.00  0.00    -0.141 A  
ENDBRANCH   9  10
ENDBRANCH   3   4
ENDBRANCH   2   3
TORSDOF 3
ENDMDL
MODEL      139
REMARK 921   NORMALIZED FREE ENERGY PREDICTED BY IDOCK:   -1.54 KCAL/MOL
REMARK 922        TOTAL FREE ENERGY PREDICTED BY IDOCK:   -2.11 KCAL/MOL
REMARK 923 INTER-LIGAND FREE ENERGY PREDICTED BY IDOCK:   -1.91 KCAL/MOL
REMARK 924 INTRA-LIGAND FREE ENERGY PREDICTED BY IDOCK:   -0.20 KCAL/MOL
REMARK 927      BINDING AFFINITY PREDICTED BY RF-SCORE:    0.00 PKD
ROOT
HETATM    1  C   UNL     1      -5.340   4.497  74.242  1.00  0.00    -0.009 C  
HETATM    2  C   UNL     1      -5.388   5.324  72.964  1.00  0.00    -0.017 C  
ENDROOT
BRANCH   2   3
HETATM    3  O   UNL     1      -6.686   5.928  72.851  1.00  0.00    -0.070 OA 
BRANCH   3   4
HETATM    4  C   UNL     1      -7.222   5.968  71.589  1.00  0.00    -0.087 C  
HETATM    5  O   UNL     1      -7.396   4.976  70.892  1.00  0.00    -0.064 OA 
HETATM    6  C   UNL     1      -7.711   7.408  71.271  1.00  0.00    -0.087 C  
HETATM    7  C   UNL     1      -6.497   8.342  71.310  1.00  0.00    -0.051 C  
HETATM    8  C   UNL     1      -8.754   7.692  72.366  1.00  0.00    -0.170 C  
HETATM    9  O   UNL     1      -8.282   7.345  69.949  1.00  0.00    -0.127 OA 
BRANCH   9  10
HETATM   10  C   UNL     1      -8.720   8.439  69.264  1.00  0.00    -0.138 A  
HETATM   11  C   UNL     1      -8.359   8.473  67.913  1.00  0.00    -0.126 A  
HETATM   12  C   UNL     1      -8.806   9.505  67.070  1.00  0.00    -0.139 A  
HETATM   13  C   UNL     1      -9.625  10.504  67.579  1.00  0.00    -0.160 A  
HETATM   14  C   UNL     1     -10.000  10.477  68.916  1.00  0.00    -0.213 A  
HETATM   15 CL   UNL     1     -10.199  11.761  66.559  1.00  0.00    -0.233 Cl 
HETATM   16  C   UNL     1      -9.546   9.449  69.750  1.00  0.00    -0.216 A  
ENDBRANCH   9  10
ENDBRANCH   3   4
ENDBRANCH   2   3
TORSDOF 3
ENDMDL
MODEL      140
REMARK 921   NORMALIZED FREE ENERGY PREDICTED BY IDOCK:   -1.49 KCAL/MOL
REMARK 922        TOTAL FREE ENERGY PREDICTED BY IDOCK:   -2.05 KCAL/MOL
REMARK 923 INTER-LIGAND FREE ENERGY PREDICTED BY IDOCK:   -1.85 KCAL/MOL
REMARK 924 INTRA-LIGAND FREE ENERGY PREDICTED BY IDOCK:   -0.20 KCAL/MOL
REMARK 927      BINDING AFFINITY PREDICTED BY RF-SCORE:    0.00 PKD
ROOT
HETATM    1  C   UNL     1      -8.232   8.390  72.854  1.00  0.00    -0.181 C  
HETATM    2  C   UNL     1      -9.657   8.658  72.388  1.00  0.00    -0.235 C  
ENDROOT
BRANCH   2   3
HETATM    3  O   UNL     1      -9.703   8.555  70.957  1.00  0.00    -0.171 OA 
BRANCH   3   4
HETATM    4  C   UNL     1      -9.558   7.292  70.442  1.00  0.00    -0.165 C  
HETATM    5  O   UNL     1     -10.087   6.297  70.920  1.00  0.00    -0.184 OA 
HETATM    6  C   UNL     1      -8.778   7.357  69.099  1.00  0.00    -0.136 C  
HETATM    7  C   UNL     1      -7.384   7.924  69.385  1.00  0.00    -0.081 C  
HETATM    8  C   UNL     1      -9.651   8.262  68.211  1.00  0.00    -0.158 C  
HETATM    9  O   UNL     1      -8.705   5.999  68.621  1.00  0.00    -0.111 OA 
BRANCH   9  10
HETATM   10  C   UNL     1      -7.994   5.625  67.521  1.00  0.00    -0.102 A  
HETATM   11  C   UNL     1      -6.650   5.323  67.761  1.00  0.00    -0.053 A  
HETATM   12  C   UNL     1      -5.819   4.850  66.731  1.00  0.00    -0.022 A  
HETATM   13  C   UNL     1      -6.336   4.672  65.455  1.00  0.00    -0.035 A  
HETATM   14  C   UNL     1      -7.672   4.958  65.204  1.00  0.00    -0.082 A  
HETATM   15 CL   UNL     1      -5.341   4.075  64.189  1.00  0.00    -0.012 Cl 
HETATM   16  C   UNL     1      -8.491   5.433  66.235  1.00  0.00    -0.117 A  
ENDBRANCH   9  10
ENDBRANCH   3   4
ENDBRANCH   2   3
TORSDOF 3
ENDMDL
MODEL      141
REMARK 921   NORMALIZED FREE ENERGY PREDICTED BY IDOCK:   -1.47 KCAL/MOL
REMARK 922        TOTAL FREE ENERGY PREDICTED BY IDOCK:   -2.02 KCAL/MOL
REMARK 923 INTER-LIGAND FREE ENERGY PREDICTED BY IDOCK:   -1.88 KCAL/MOL
REMARK 924 INTRA-LIGAND FREE ENERGY PREDICTED BY IDOCK:   -0.14 KCAL/MOL
REMARK 927      BINDING AFFINITY PREDICTED BY RF-SCORE:    0.00 PKD
ROOT
HETATM    1  C   UNL     1     -10.070  11.254  64.736  1.00  0.00    -0.338 C  
HETATM    2  C   UNL     1      -9.642   9.800  64.891  1.00  0.00    -0.246 C  
ENDROOT
BRANCH   2   3
HETATM    3  O   UNL     1      -9.572   9.485  66.290  1.00  0.00    -0.188 OA 
BRANCH   3   4
HETATM    4  C   UNL     1      -8.343   9.095  66.756  1.00  0.00    -0.123 C  
HETATM    5  O   UNL     1      -7.303   9.218  66.121  1.00  0.00    -0.093 OA 
HETATM    6  C   UNL     1      -8.461   8.643  68.239  1.00  0.00    -0.131 C  
HETATM    7  C   UNL     1      -9.404   7.437  68.295  1.00  0.00    -0.140 C  
HETATM    8  C   UNL     1      -8.999   9.892  68.961  1.00  0.00    -0.160 C  
HETATM    9  O   UNL     1      -7.126   8.286  68.648  1.00  0.00    -0.069 OA 
BRANCH   9  10
HETATM   10  C   UNL     1      -6.832   7.728  69.856  1.00  0.00    -0.049 A  
HETATM   11  C   UNL     1      -6.958   8.590  70.950  1.00  0.00    -0.057 A  
HETATM   12  C   UNL     1      -6.759   8.127  72.263  1.00  0.00    -0.081 A  
HETATM   13  C   UNL     1      -6.441   6.794  72.482  1.00  0.00    -0.058 A  
HETATM   14  C   UNL     1      -6.323   5.924  71.406  1.00  0.00    -0.044 A  
HETATM   15 CL   UNL     1      -6.216   6.205  74.081  1.00  0.00    -0.065 Cl 
HETATM   16  C   UNL     1      -6.518   6.395  70.102  1.00  0.00    -0.040 A  
ENDBRANCH   9  10
ENDBRANCH   3   4
ENDBRANCH   2   3
TORSDOF 3
ENDMDL
MODEL      142
REMARK 921   NORMALIZED FREE ENERGY PREDICTED BY IDOCK:   -1.38 KCAL/MOL
REMARK 922        TOTAL FREE ENERGY PREDICTED BY IDOCK:   -1.92 KCAL/MOL
REMARK 923 INTER-LIGAND FREE ENERGY PREDICTED BY IDOCK:   -3.18 KCAL/MOL
REMARK 924 INTRA-LIGAND FREE ENERGY PREDICTED BY IDOCK:    1.27 KCAL/MOL
REMARK 927      BINDING AFFINITY PREDICTED BY RF-SCORE:    0.00 PKD
ROOT
HETATM    1  C   UNL     1      -7.595   5.674  73.450  1.00  0.00    -0.095 C  
HETATM    2  C   UNL     1      -8.936   5.903  74.134  1.00  0.00    -0.123 C  
ENDROOT
BRANCH   2   3
HETATM    3  O   UNL     1      -9.988   5.628  73.195  1.00  0.00    -0.168 OA 
BRANCH   3   4
HETATM    4  C   UNL     1      -9.635   5.672  71.870  1.00  0.00    -0.152 C  
HETATM    5  O   UNL     1      -9.119   4.738  71.271  1.00  0.00    -0.131 OA 
HETATM    6  C   UNL     1     -10.139   6.999  71.236  1.00  0.00    -0.190 C  
HETATM    7  C   UNL     1      -9.452   8.162  71.958  1.00  0.00    -0.279 C  
HETATM    8  C   UNL     1     -11.664   6.948  71.442  1.00  0.00    -0.358 C  
HETATM    9  O   UNL     1      -9.755   6.941  69.848  1.00  0.00    -0.163 OA 
BRANCH   9  10
HETATM   10  C   UNL     1      -9.918   7.977  68.977  1.00  0.00    -0.185 A  
HETATM   11  C   UNL     1      -9.382   9.196  69.404  1.00  0.00    -0.160 A  
HETATM   12  C   UNL     1      -9.412  10.330  68.573  1.00  0.00    -0.158 A  
HETATM   13  C   UNL     1      -9.975  10.241  67.307  1.00  0.00    -0.190 A  
HETATM   14  C   UNL     1     -10.501   9.034  66.867  1.00  0.00    -0.293 A  
HETATM   15 CL   UNL     1     -10.001  11.610  66.269  1.00  0.00    -0.237 Cl 
HETATM   16  C   UNL     1     -10.472   7.911  67.702  1.00  0.00    -0.303 A  
ENDBRANCH   9  10
ENDBRANCH   3   4
ENDBRANCH   2   3
TORSDOF 3
ENDMDL
MODEL      143
REMARK 921   NORMALIZED FREE ENERGY PREDICTED BY IDOCK:   -1.37 KCAL/MOL
REMARK 922        TOTAL FREE ENERGY PREDICTED BY IDOCK:   -1.91 KCAL/MOL
REMARK 923 INTER-LIGAND FREE ENERGY PREDICTED BY IDOCK:   -1.76 KCAL/MOL
REMARK 924 INTRA-LIGAND FREE ENERGY PREDICTED BY IDOCK:   -0.15 KCAL/MOL
REMARK 927      BINDING AFFINITY PREDICTED BY RF-SCORE:    0.00 PKD
ROOT
HETATM    1  C   UNL     1     -10.428   7.653  73.529  1.00  0.00    -0.284 C  
HETATM    2  C   UNL     1      -9.134   7.557  72.731  1.00  0.00    -0.152 C  
ENDROOT
BRANCH   2   3
HETATM    3  O   UNL     1      -9.452   7.576  71.330  1.00  0.00    -0.149 OA 
BRANCH   3   4
HETATM    4  C   UNL     1      -8.486   8.090  70.503  1.00  0.00    -0.125 C  
HETATM    5  O   UNL     1      -7.651   8.912  70.859  1.00  0.00    -0.086 OA 
HETATM    6  C   UNL     1      -8.519   7.353  69.135  1.00  0.00    -0.133 C  
HETATM    7  C   UNL     1      -9.887   7.604  68.493  1.00  0.00    -0.174 C  
HETATM    8  C   UNL     1      -8.262   5.881  69.505  1.00  0.00    -0.113 C  
HETATM    9  O   UNL     1      -7.457   7.933  68.351  1.00  0.00    -0.095 OA 
BRANCH   9  10
HETATM   10  C   UNL     1      -7.237   7.631  67.041  1.00  0.00    -0.089 A  
HETATM   11  C   UNL     1      -6.193   6.729  66.811  1.00  0.00    -0.040 A  
HETATM   12  C   UNL     1      -5.904   6.272  65.514  1.00  0.00    -0.025 A  
HETATM   13  C   UNL     1      -6.668   6.712  64.442  1.00  0.00    -0.042 A  
HETATM   14  C   UNL     1      -7.715   7.600  64.657  1.00  0.00    -0.121 A  
HETATM   15 CL   UNL     1      -6.344   6.147  62.852  1.00  0.00    -0.025 Cl 
HETATM   16  C   UNL     1      -7.992   8.054  65.951  1.00  0.00    -0.107 A  
ENDBRANCH   9  10
ENDBRANCH   3   4
ENDBRANCH   2   3
TORSDOF 3
ENDMDL
MODEL      144
REMARK 921   NORMALIZED FREE ENERGY PREDICTED BY IDOCK:   -1.29 KCAL/MOL
REMARK 922        TOTAL FREE ENERGY PREDICTED BY IDOCK:   -1.82 KCAL/MOL
REMARK 923 INTER-LIGAND FREE ENERGY PREDICTED BY IDOCK:   -1.64 KCAL/MOL
REMARK 924 INTRA-LIGAND FREE ENERGY PREDICTED BY IDOCK:   -0.18 KCAL/MOL
REMARK 927      BINDING AFFINITY PREDICTED BY RF-SCORE:    0.00 PKD
ROOT
HETATM    1  C   UNL     1      -7.067   2.460  63.713  1.00  0.00    -0.041 C  
HETATM    2  C   UNL     1      -7.791   2.317  65.045  1.00  0.00    -0.077 C  
ENDROOT
BRANCH   2   3
HETATM    3  O   UNL     1      -7.437   3.427  65.885  1.00  0.00    -0.074 OA 
BRANCH   3   4
HETATM    4  C   UNL     1      -7.199   3.129  67.203  1.00  0.00    -0.058 C  
HETATM    5  O   UNL     1      -6.511   2.187  67.574  1.00  0.00    -0.030 OA 
HETATM    6  C   UNL     1      -7.786   4.247  68.109  1.00  0.00    -0.079 C  
HETATM    7  C   UNL     1      -9.302   4.290  67.890  1.00  0.00    -0.200 C  
HETATM    8  C   UNL     1      -7.052   5.518  67.646  1.00  0.00    -0.071 C  
HETATM    9  O   UNL     1      -7.461   3.868  69.461  1.00  0.00    -0.052 OA 
BRANCH   9  10
HETATM   10  C   UNL     1      -7.907   4.539  70.560  1.00  0.00    -0.053 A  
HETATM   11  C   UNL     1      -7.010   5.476  71.083  1.00  0.00    -0.065 A  
HETATM   12  C   UNL     1      -7.369   6.292  72.169  1.00  0.00    -0.093 A  
HETATM   13  C   UNL     1      -8.633   6.177  72.730  1.00  0.00    -0.123 A  
HETATM   14  C   UNL     1      -9.538   5.258  72.214  1.00  0.00    -0.180 A  
HETATM   15 CL   UNL     1      -9.097   7.182  74.044  1.00  0.00    -0.240 Cl 
HETATM   16  C   UNL     1      -9.171   4.445  71.135  1.00  0.00    -0.199 A  
ENDBRANCH   9  10
ENDBRANCH   3   4
ENDBRANCH   2   3
TORSDOF 3
ENDMDL
MODEL      145
REMARK 921   NORMALIZED FREE ENERGY PREDICTED BY IDOCK:   -1.28 KCAL/MOL
REMARK 922        TOTAL FREE ENERGY PREDICTED BY IDOCK:   -1.81 KCAL/MOL
REMARK 923 INTER-LIGAND FREE ENERGY PREDICTED BY IDOCK:   -1.85 KCAL/MOL
REMARK 924 INTRA-LIGAND FREE ENERGY PREDICTED BY IDOCK:    0.05 KCAL/MOL
REMARK 927      BINDING AFFINITY PREDICTED BY RF-SCORE:    0.00 PKD
ROOT
HETATM    1  C   UNL     1      -8.060  10.700  65.747  1.00  0.00    -0.158 C  
HETATM    2  C   UNL     1      -7.772   9.313  65.185  1.00  0.00    -0.108 C  
ENDROOT
BRANCH   2   3
HETATM    3  O   UNL     1      -7.447   8.432  66.272  1.00  0.00    -0.086 OA 
BRANCH   3   4
HETATM    4  C   UNL     1      -8.452   7.594  66.685  1.00  0.00    -0.130 C  
HETATM    5  O   UNL     1      -9.556   7.545  66.160  1.00  0.00    -0.114 OA 
HETATM    6  C   UNL     1      -7.916   6.632  67.781  1.00  0.00    -0.112 C  
HETATM    7  C   UNL     1      -7.468   7.476  68.979  1.00  0.00    -0.096 C  
HETATM    8  C   UNL     1      -6.769   5.881  67.082  1.00  0.00    -0.061 C  
HETATM    9  O   UNL     1      -9.023   5.776  68.127  1.00  0.00    -0.115 OA 
BRANCH   9  10
HETATM   10  C   UNL     1      -8.985   4.866  69.141  1.00  0.00    -0.098 A  
HETATM   11  C   UNL     1      -7.894   3.991  69.107  1.00  0.00    -0.056 A  
HETATM   12  C   UNL     1      -7.689   3.052  70.133  1.00  0.00    -0.044 A  
HETATM   13  C   UNL     1      -8.574   2.993  71.200  1.00  0.00    -0.067 A  
HETATM   14  C   UNL     1      -9.655   3.863  71.252  1.00  0.00    -0.241 A  
HETATM   15 CL   UNL     1      -8.326   1.866  72.474  1.00  0.00    -0.053 Cl 
HETATM   16  C   UNL     1      -9.855   4.792  70.225  1.00  0.00    -0.313 A  
ENDBRANCH   9  10
ENDBRANCH   3   4
ENDBRANCH   2   3
TORSDOF 3
ENDMDL
MODEL      146
REMARK 921   NORMALIZED FREE ENERGY PREDICTED BY IDOCK:   -1.26 KCAL/MOL
REMARK 922        TOTAL FREE ENERGY PREDICTED BY IDOCK:   -1.78 KCAL/MOL
REMARK 923 INTER-LIGAND FREE ENERGY PREDICTED BY IDOCK:   -1.77 KCAL/MOL
REMARK 924 INTRA-LIGAND FREE ENERGY PREDICTED BY IDOCK:   -0.01 KCAL/MOL
REMARK 927      BINDING AFFINITY PREDICTED BY RF-SCORE:    0.00 PKD
ROOT
HETATM    1  C   UNL     1     -10.070  11.254  64.736  1.00  0.00    -0.338 C  
HETATM    2  C   UNL     1      -9.642   9.800  64.891  1.00  0.00    -0.246 C  
ENDROOT
BRANCH   2   3
HETATM    3  O   UNL     1      -9.572   9.485  66.290  1.00  0.00    -0.188 OA 
BRANCH   3   4
HETATM    4  C   UNL     1      -8.343   9.095  66.756  1.00  0.00    -0.123 C  
HETATM    5  O   UNL     1      -7.385   9.849  66.866  1.00  0.00    -0.090 OA 
HETATM    6  C   UNL     1      -8.415   7.628  67.265  1.00  0.00    -0.121 C  
HETATM    7  C   UNL     1      -8.789   6.731  66.080  1.00  0.00    -0.161 C  
HETATM    8  C   UNL     1      -9.481   7.676  68.374  1.00  0.00    -0.150 C  
HETATM    9  O   UNL     1      -7.097   7.319  67.761  1.00  0.00    -0.083 OA 
BRANCH   9  10
HETATM   10  C   UNL     1      -6.724   6.080  68.189  1.00  0.00    -0.064 A  
HETATM   11  C   UNL     1      -7.296   5.678  69.400  1.00  0.00    -0.070 A  
HETATM   12  C   UNL     1      -7.058   4.394  69.921  1.00  0.00    -0.046 A  
HETATM   13  C   UNL     1      -6.250   3.506  69.224  1.00  0.00    -0.028 A  
HETATM   14  C   UNL     1      -5.684   3.889  68.014  1.00  0.00    -0.022 A  
HETATM   15 CL   UNL     1      -5.966   1.925  69.833  1.00  0.00    -0.022 Cl 
HETATM   16  C   UNL     1      -5.922   5.171  67.505  1.00  0.00    -0.022 A  
ENDBRANCH   9  10
ENDBRANCH   3   4
ENDBRANCH   2   3
TORSDOF 3
ENDMDL
MODEL      147
REMARK 921   NORMALIZED FREE ENERGY PREDICTED BY IDOCK:   -1.06 KCAL/MOL
REMARK 922        TOTAL FREE ENERGY PREDICTED BY IDOCK:   -1.54 KCAL/MOL
REMARK 923 INTER-LIGAND FREE ENERGY PREDICTED BY IDOCK:   -1.56 KCAL/MOL
REMARK 924 INTRA-LIGAND FREE ENERGY PREDICTED BY IDOCK:    0.03 KCAL/MOL
REMARK 927      BINDING AFFINITY PREDICTED BY RF-SCORE:    0.00 PKD
ROOT
HETATM    1  C   UNL     1      -9.643  11.173  65.600  1.00  0.00    -0.259 C  
HETATM    2  C   UNL     1      -9.029   9.781  65.681  1.00  0.00    -0.163 C  
ENDROOT
BRANCH   2   3
HETATM    3  O   UNL     1      -8.816   9.449  67.061  1.00  0.00    -0.126 OA 
BRANCH   3   4
HETATM    4  C   UNL     1      -8.144   8.276  67.299  1.00  0.00    -0.109 C  
HETATM    5  O   UNL     1      -7.554   7.643  66.434  1.00  0.00    -0.085 OA 
HETATM    6  C   UNL     1      -8.115   7.987  68.826  1.00  0.00    -0.125 C  
HETATM    7  C   UNL     1      -9.560   7.821  69.307  1.00  0.00    -0.159 C  
HETATM    8  C   UNL     1      -7.395   9.213  69.417  1.00  0.00    -0.076 C  
HETATM    9  O   UNL     1      -7.367   6.765  68.979  1.00  0.00    -0.088 OA 
BRANCH   9  10
HETATM   10  C   UNL     1      -7.217   6.117  70.169  1.00  0.00    -0.076 A  
HETATM   11  C   UNL     1      -6.731   4.809  70.071  1.00  0.00    -0.037 A  
HETATM   12  C   UNL     1      -6.458   4.051  71.223  1.00  0.00    -0.018 A  
HETATM   13  C   UNL     1      -6.664   4.606  72.478  1.00  0.00    -0.051 A  
HETATM   14  C   UNL     1      -7.137   5.908  72.590  1.00  0.00    -0.085 A  
HETATM   15 CL   UNL     1      -6.315   3.703  73.897  1.00  0.00    -0.024 Cl 
HETATM   16  C   UNL     1      -7.411   6.654  71.438  1.00  0.00    -0.083 A  
ENDBRANCH   9  10
ENDBRANCH   3   4
ENDBRANCH   2   3
TORSDOF 3
ENDMDL
MODEL      148
REMARK 921   NORMALIZED FREE ENERGY PREDICTED BY IDOCK:   -0.10 KCAL/MOL
REMARK 922        TOTAL FREE ENERGY PREDICTED BY IDOCK:   -0.41 KCAL/MOL
REMARK 923 INTER-LIGAND FREE ENERGY PREDICTED BY IDOCK:   -1.56 KCAL/MOL
REMARK 924 INTRA-LIGAND FREE ENERGY PREDICTED BY IDOCK:    1.15 KCAL/MOL
REMARK 927      BINDING AFFINITY PREDICTED BY RF-SCORE:    0.00 PKD
ROOT
HETATM    1  C   UNL     1     -11.147  14.478  67.705  1.00  0.00    -0.295 C  
HETATM    2  C   UNL     1      -9.895  13.614  67.780  1.00  0.00    -0.232 C  
ENDROOT
BRANCH   2   3
HETATM    3  O   UNL     1     -10.017  12.717  68.895  1.00  0.00    -0.057 OA 
BRANCH   3   4
HETATM    4  C   UNL     1     -10.480  11.459  68.604  1.00  0.00    -0.201 C  
HETATM    5  O   UNL     1     -11.620  11.081  68.841  1.00  0.00    -0.265 OA 
HETATM    6  C   UNL     1      -9.406  10.677  67.797  1.00  0.00    -0.146 C  
HETATM    7  C   UNL     1      -8.157  10.542  68.673  1.00  0.00    -0.127 C  
HETATM    8  C   UNL     1      -9.195  11.537  66.537  1.00  0.00    -0.203 C  
HETATM    9  O   UNL     1      -9.989   9.391  67.511  1.00  0.00    -0.176 OA 
BRANCH   9  10
HETATM   10  C   UNL     1      -9.309   8.371  66.915  1.00  0.00    -0.174 A  
HETATM   11  C   UNL     1      -9.523   8.245  65.538  1.00  0.00     0.203 A  
HETATM   12  C   UNL     1      -8.829   7.284  64.783  1.00  0.00     0.482 A  
HETATM   13  C   UNL     1      -7.910   6.451  65.405  1.00  0.00    -0.105 A  
HETATM   14  C   UNL     1      -7.679   6.572  66.770  1.00  0.00    -0.099 A  
HETATM   15 CL   UNL     1      -7.035   5.286  64.495  1.00  0.00    -0.048 Cl 
HETATM   16  C   UNL     1      -8.379   7.528  67.515  1.00  0.00    -0.117 A  
ENDBRANCH   9  10
ENDBRANCH   3   4
ENDBRANCH   2   3
TORSDOF 3
ENDMDL
MODEL      149
REMARK 921   NORMALIZED FREE ENERGY PREDICTED BY IDOCK:   -0.05 KCAL/MOL
REMARK 922        TOTAL FREE ENERGY PREDICTED BY IDOCK:   -0.36 KCAL/MOL
REMARK 923 INTER-LIGAND FREE ENERGY PREDICTED BY IDOCK:   -2.15 KCAL/MOL
REMARK 924 INTRA-LIGAND FREE ENERGY PREDICTED BY IDOCK:    1.80 KCAL/MOL
REMARK 927      BINDING AFFINITY PREDICTED BY RF-SCORE:    0.00 PKD
ROOT
HETATM    1  C   UNL     1      -9.519  11.307  68.710  1.00  0.00    -0.147 C  
HETATM    2  C   UNL     1      -8.023  11.143  68.479  1.00  0.00    -0.143 C  
ENDROOT
BRANCH   2   3
HETATM    3  O   UNL     1      -7.640   9.809  68.850  1.00  0.00    -0.076 OA 
BRANCH   3   4
HETATM    4  C   UNL     1      -8.585   8.836  68.644  1.00  0.00    -0.134 C  
HETATM    5  O   UNL     1      -9.625   8.749  69.284  1.00  0.00    -0.160 OA 
HETATM    6  C   UNL     1      -8.208   7.994  67.393  1.00  0.00    -0.123 C  
HETATM    7  C   UNL     1      -6.863   7.312  67.665  1.00  0.00    -0.074 C  
HETATM    8  C   UNL     1      -8.165   9.028  66.254  1.00  0.00    -0.115 C  
HETATM    9  O   UNL     1      -9.265   7.026  67.238  1.00  0.00    -0.125 OA 
BRANCH   9  10
HETATM   10  C   UNL     1      -9.241   6.025  66.314  1.00  0.00    -0.154 A  
HETATM   11  C   UNL     1      -8.244   6.144  65.341  1.00  0.00    -0.145 A  
HETATM   12  C   UNL     1      -8.056   5.144  64.371  1.00  0.00    -0.121 A  
HETATM   13  C   UNL     1      -8.863   4.015  64.380  1.00  0.00    -0.129 A  
HETATM   14  C   UNL     1      -9.850   3.878  65.348  1.00  0.00    -0.167 A  
HETATM   15 CL   UNL     1      -8.634   2.772  63.217  1.00  0.00    -0.085 Cl 
HETATM   16  C   UNL     1     -10.034   4.881  66.306  1.00  0.00    -0.256 A  
ENDBRANCH   9  10
ENDBRANCH   3   4
ENDBRANCH   2   3
TORSDOF 3
ENDMDL
MODEL      150
REMARK 921   NORMALIZED FREE ENERGY PREDICTED BY IDOCK:   -0.04 KCAL/MOL
REMARK 922        TOTAL FREE ENERGY PREDICTED BY IDOCK:   -0.34 KCAL/MOL
REMARK 923 INTER-LIGAND FREE ENERGY PREDICTED BY IDOCK:   -1.41 KCAL/MOL
REMARK 924 INTRA-LIGAND FREE ENERGY PREDICTED BY IDOCK:    1.07 KCAL/MOL
REMARK 927      BINDING AFFINITY PREDICTED BY RF-SCORE:    0.00 PKD
ROOT
HETATM    1  C   UNL     1      -9.494  11.269  68.733  1.00  0.00    -0.147 C  
HETATM    2  C   UNL     1      -7.973  11.330  68.665  1.00  0.00    -0.145 C  
ENDROOT
BRANCH   2   3
HETATM    3  O   UNL     1      -7.432  10.249  69.441  1.00  0.00    -0.099 OA 
BRANCH   3   4
HETATM    4  C   UNL     1      -8.155   9.084  69.432  1.00  0.00    -0.108 C  
HETATM    5  O   UNL     1      -9.322   9.004  69.791  1.00  0.00    -0.159 OA 
HETATM    6  C   UNL     1      -7.327   7.957  68.753  1.00  0.00    -0.086 C  
HETATM    7  C   UNL     1      -6.059   7.732  69.583  1.00  0.00    -0.030 C  
HETATM    8  C   UNL     1      -7.060   8.499  67.338  1.00  0.00    -0.080 C  
HETATM    9  O   UNL     1      -8.173   6.790  68.761  1.00  0.00    -0.118 OA 
BRANCH   9  10
HETATM   10  C   UNL     1      -7.760   5.556  68.354  1.00  0.00    -0.085 A  
HETATM   11  C   UNL     1      -8.299   5.125  67.138  1.00  0.00    -0.107 A  
HETATM   12  C   UNL     1      -7.901   3.906  66.562  1.00  0.00    -0.089 A  
HETATM   13  C   UNL     1      -6.955   3.117  67.203  1.00  0.00    -0.050 A  
HETATM   14  C   UNL     1      -6.404   3.539  68.406  1.00  0.00    -0.033 A  
HETATM   15 CL   UNL     1      -6.441   1.635  66.503  1.00  0.00    -0.023 Cl 
HETATM   16  C   UNL     1      -6.808   4.752  68.974  1.00  0.00    -0.051 A  
ENDBRANCH   9  10
ENDBRANCH   3   4
ENDBRANCH   2   3
TORSDOF 3
ENDMDL
MODEL      151
REMARK 921   NORMALIZED FREE ENERGY PREDICTED BY IDOCK:    1.49 KCAL/MOL
REMARK 922        TOTAL FREE ENERGY PREDICTED BY IDOCK:    1.45 KCAL/MOL
REMARK 923 INTER-LIGAND FREE ENERGY PREDICTED BY IDOCK:   -1.66 KCAL/MOL
REMARK 924 INTRA-LIGAND FREE ENERGY PREDICTED BY IDOCK:    3.11 KCAL/MOL
REMARK 927      BINDING AFFINITY PREDICTED BY RF-SCORE:    0.00 PKD
ROOT
HETATM    1  C   UNL     1     -10.430  13.554  67.551  1.00  0.00    -0.237 C  
HETATM    2  C   UNL     1      -8.931  13.332  67.706  1.00  0.00    -0.196 C  
ENDROOT
BRANCH   2   3
HETATM    3  O   UNL     1      -8.698  12.549  68.886  1.00  0.00     0.106 OA 
BRANCH   3   4
HETATM    4  C   UNL     1      -8.543  11.200  68.690  1.00  0.00    -0.151 C  
HETATM    5  O   UNL     1      -8.997  10.346  69.440  1.00  0.00    -0.194 OA 
HETATM    6  C   UNL     1      -7.866  10.944  67.314  1.00  0.00    -0.116 C  
HETATM    7  C   UNL     1      -6.478  11.591  67.338  1.00  0.00    -0.094 C  
HETATM    8  C   UNL     1      -8.836  11.582  66.303  1.00  0.00    -0.186 C  
HETATM    9  O   UNL     1      -7.775   9.512  67.182  1.00  0.00    -0.091 OA 
BRANCH   9  10
HETATM   10  C   UNL     1      -7.133   8.889  66.155  1.00  0.00    -0.085 A  
HETATM   11  C   UNL     1      -7.960   8.472  65.107  1.00  0.00    -0.130 A  
HETATM   12  C   UNL     1      -7.422   7.884  63.950  1.00  0.00    -0.110 A  
HETATM   13  C   UNL     1      -6.049   7.718  63.836  1.00  0.00    -0.057 A  
HETATM   14  C   UNL     1      -5.214   8.136  64.864  1.00  0.00    -0.036 A  
HETATM   15 CL   UNL     1      -5.370   7.021  62.420  1.00  0.00    -0.032 Cl 
HETATM   16  C   UNL     1      -5.758   8.717  66.015  1.00  0.00    -0.046 A  
ENDBRANCH   9  10
ENDBRANCH   3   4
ENDBRANCH   2   3
TORSDOF 3
ENDMDL
MODEL      152
REMARK 921   NORMALIZED FREE ENERGY PREDICTED BY IDOCK:    4.42 KCAL/MOL
REMARK 922        TOTAL FREE ENERGY PREDICTED BY IDOCK:    4.90 KCAL/MOL
REMARK 923 INTER-LIGAND FREE ENERGY PREDICTED BY IDOCK:   -1.82 KCAL/MOL
REMARK 924 INTRA-LIGAND FREE ENERGY PREDICTED BY IDOCK:    6.72 KCAL/MOL
REMARK 927      BINDING AFFINITY PREDICTED BY RF-SCORE:    0.00 PKD
ROOT
HETATM    1  C   UNL     1     -10.657  13.277  68.326  1.00  0.00    -0.262 C  
HETATM    2  C   UNL     1     -11.085  14.301  67.283  1.00  0.00    -0.306 C  
ENDROOT
BRANCH   2   3
HETATM    3  O   UNL     1     -10.015  14.479  66.342  1.00  0.00    -0.270 OA 
BRANCH   3   4
HETATM    4  C   UNL     1      -8.802  13.950  66.707  1.00  0.00    -0.149 C  
HETATM    5  O   UNL     1      -7.888  14.609  67.184  1.00  0.00    -0.197 OA 
HETATM    6  C   UNL     1      -8.844  12.402  66.576  1.00  0.00    -0.106 C  
HETATM    7  C   UNL     1      -9.101  12.054  65.106  1.00  0.00     0.329 C  
HETATM    8  C   UNL     1      -9.982  11.984  67.525  1.00  0.00    -0.199 C  
HETATM    9  O   UNL     1      -7.550  11.936  67.008  1.00  0.00    -0.151 OA 
BRANCH   9  10
HETATM   10  C   UNL     1      -7.152  10.635  66.930  1.00  0.00    -0.109 A  
HETATM   11  C   UNL     1      -8.162   9.729  66.591  1.00  0.00    -0.120 A  
HETATM   12  C   UNL     1      -7.877   8.366  66.402  1.00  0.00    -0.098 A  
HETATM   13  C   UNL     1      -6.575   7.908  66.546  1.00  0.00    -0.054 A  
HETATM   14  C   UNL     1      -5.560   8.798  66.872  1.00  0.00    -0.041 A  
HETATM   15 CL   UNL     1      -6.203   6.249  66.297  1.00  0.00    -0.036 Cl 
HETATM   16  C   UNL     1      -5.853  10.154  67.063  1.00  0.00    -0.050 A  
ENDBRANCH   9  10
ENDBRANCH   3   4
ENDBRANCH   2   3
TORSDOF 3
ENDMDL
MODEL      153
REMARK 921   NORMALIZED FREE ENERGY PREDICTED BY IDOCK:    9.72 KCAL/MOL
REMARK 922        TOTAL FREE ENERGY PREDICTED BY IDOCK:   11.12 KCAL/MOL
REMARK 923 INTER-LIGAND FREE ENERGY PREDICTED BY IDOCK:   -1.93 KCAL/MOL
REMARK 924 INTRA-LIGAND FREE ENERGY PREDICTED BY IDOCK:   13.05 KCAL/MOL
REMARK 927      BINDING AFFINITY PREDICTED BY RF-SCORE:    0.00 PKD
ROOT
HETATM    1  C   UNL     1      -6.446  19.898  65.122  1.00  0.00    -0.320 C  
HETATM    2  C   UNL     1      -5.299  20.512  65.915  1.00  0.00    -0.178 C  
ENDROOT
BRANCH   2   3
HETATM    3  O   UNL     1      -5.841  21.217  67.042  1.00  0.00    -0.226 OA 
BRANCH   3   4
HETATM    4  C   UNL     1      -7.016  20.723  67.550  1.00  0.00    -0.354 C  
HETATM    5  O   UNL     1      -7.604  21.214  68.505  1.00  0.00     0.641 OA 
HETATM    6  C   UNL     1      -7.544  19.581  66.638  1.00  0.00    -0.256 C  
HETATM    7  C   UNL     1      -6.507  18.454  66.637  1.00  0.00    -0.216 C  
HETATM    8  C   UNL     1      -7.730  20.261  65.269  1.00  0.00     0.247 C  
HETATM    9  O   UNL     1      -8.787  19.151  67.228  1.00  0.00    -0.283 OA 
BRANCH   9  10
HETATM   10  C   UNL     1      -9.503  18.081  66.781  1.00  0.00    -0.293 A  
HETATM   11  C   UNL     1      -9.920  17.193  67.777  1.00  0.00    -0.290 A  
HETATM   12  C   UNL     1     -10.730  16.086  67.467  1.00  0.00    -0.314 A  
HETATM   13  C   UNL     1     -11.131  15.872  66.156  1.00  0.00    -0.024 A  
HETATM   14  C   UNL     1     -10.733  16.752  65.158  1.00  0.00    -0.159 A  
HETATM   15 CL   UNL     1     -12.139  14.538  65.762  1.00  0.00    -0.323 Cl 
HETATM   16  C   UNL     1      -9.922  17.848  65.474  1.00  0.00     0.418 A  
ENDBRANCH   9  10
ENDBRANCH   3   4
ENDBRANCH   2   3
TORSDOF 3
ENDMDL
MODEL      154
REMARK 921   NORMALIZED FREE ENERGY PREDICTED BY IDOCK:   10.81 KCAL/MOL
REMARK 922        TOTAL FREE ENERGY PREDICTED BY IDOCK:   12.41 KCAL/MOL
REMARK 923 INTER-LIGAND FREE ENERGY PREDICTED BY IDOCK:    1.11 KCAL/MOL
REMARK 924 INTRA-LIGAND FREE ENERGY PREDICTED BY IDOCK:   11.30 KCAL/MOL
REMARK 927      BINDING AFFINITY PREDICTED BY RF-SCORE:    0.00 PKD
ROOT
HETATM    1  C   UNL     1     -10.103  13.997  67.398  1.00  0.00    -0.244 C  
HETATM    2  C   UNL     1      -9.087  15.055  67.809  1.00  0.00    -0.180 C  
ENDROOT
BRANCH   2   3
HETATM    3  O   UNL     1      -8.291  14.537  68.886  1.00  0.00    -0.157 OA 
BRANCH   3   4
HETATM    4  C   UNL     1      -7.922  13.220  68.779  1.00  0.00     0.034 C  
HETATM    5  O   UNL     1      -7.502  12.552  69.716  1.00  0.00     0.594 OA 
HETATM    6  C   UNL     1      -8.274  12.689  67.362  1.00  0.00    -0.184 C  
HETATM    7  C   UNL     1      -7.474  13.499  66.337  1.00  0.00     1.961 C  
HETATM    8  C   UNL     1      -9.797  12.887  67.264  1.00  0.00    -0.218 C  
HETATM    9  O   UNL     1      -7.884  11.301  67.355  1.00  0.00    -0.118 OA 
BRANCH   9  10
HETATM   10  C   UNL     1      -7.926  10.512  66.245  1.00  0.00    -0.144 A  
HETATM   11  C   UNL     1      -8.671   9.337  66.385  1.00  0.00    -0.148 A  
HETATM   12  C   UNL     1      -8.862   8.467  65.297  1.00  0.00    -0.113 A  
HETATM   13  C   UNL     1      -8.312   8.778  64.062  1.00  0.00    -0.141 A  
HETATM   14  C   UNL     1      -7.578   9.947  63.905  1.00  0.00    -0.141 A  
HETATM   15 CL   UNL     1      -8.553   7.738  62.715  1.00  0.00     0.115 Cl 
HETATM   16  C   UNL     1      -7.389  10.805  64.995  1.00  0.00     0.197 A  
ENDBRANCH   9  10
ENDBRANCH   3   4
ENDBRANCH   2   3
TORSDOF 3
ENDMDL
MODEL      155
REMARK 921   NORMALIZED FREE ENERGY PREDICTED BY IDOCK:   13.38 KCAL/MOL
REMARK 922        TOTAL FREE ENERGY PREDICTED BY IDOCK:   15.43 KCAL/MOL
REMARK 923 INTER-LIGAND FREE ENERGY PREDICTED BY IDOCK:   11.95 KCAL/MOL
REMARK 924 INTRA-LIGAND FREE ENERGY PREDICTED BY IDOCK:    3.48 KCAL/MOL
REMARK 927      BINDING AFFINITY PREDICTED BY RF-SCORE:    0.00 PKD
ROOT
HETATM    1  C   UNL     1      -6.448  19.903  65.120  1.00  0.00    -0.320 C  
HETATM    2  C   UNL     1      -5.299  20.489  65.929  1.00  0.00    -0.178 C  
ENDROOT
BRANCH   2   3
HETATM    3  O   UNL     1      -5.839  21.205  67.050  1.00  0.00    -0.226 OA 
BRANCH   3   4
HETATM    4  C   UNL     1      -7.053  20.766  67.513  1.00  0.00    -0.346 C  
HETATM    5  O   UNL     1      -8.109  21.356  67.323  1.00  0.00    -0.153 OA 
HETATM    6  C   UNL     1      -6.895  19.356  68.149  1.00  0.00    -0.267 C  
HETATM    7  C   UNL     1      -5.939  19.476  69.340  1.00  0.00    -0.300 C  
HETATM    8  C   UNL     1      -6.352  18.493  66.996  1.00  0.00    -0.193 C  
HETATM    9  O   UNL     1      -8.216  18.966  68.573  1.00  0.00    -0.331 OA 
BRANCH   9  10
HETATM   10  C   UNL     1      -8.475  17.834  69.285  1.00  0.00     0.281 A  
HETATM   11  C   UNL     1      -9.299  18.013  70.400  1.00  0.00     2.984 A  
HETATM   12  C   UNL     1      -9.710  16.919  71.181  1.00  0.00     4.387 A  
HETATM   13  C   UNL     1      -9.300  15.637  70.840  1.00  0.00     2.123 A  
HETATM   14  C   UNL     1      -8.489  15.443  69.729  1.00  0.00     0.000 A  
HETATM   15 CL   UNL     1      -9.809  14.285  71.769  1.00  0.00     4.700 Cl 
HETATM   16  C   UNL     1      -8.082  16.539  68.960  1.00  0.00    -0.214 A  
ENDBRANCH   9  10
ENDBRANCH   3   4
ENDBRANCH   2   3
TORSDOF 3
ENDMDL
