MODEL        1
REMARK 921   NORMALIZED FREE ENERGY PREDICTED BY IDOCK:   -6.22 KCAL/MOL
REMARK 922        TOTAL FREE ENERGY PREDICTED BY IDOCK:  -11.63 KCAL/MOL
REMARK 923 INTER-LIGAND FREE ENERGY PREDICTED BY IDOCK:   -9.49 KCAL/MOL
REMARK 924 INTRA-LIGAND FREE ENERGY PREDICTED BY IDOCK:   -2.14 KCAL/MOL
REMARK 927      BINDING AFFINITY PREDICTED BY RF-SCORE:    0.00 PKD
ROOT
HETATM    1  C   UNL     1      -9.191  20.547  66.976  1.00  0.00    -0.446 C  
HETATM    2  C   UNL     1     -10.004  19.656  66.041  1.00  0.00    -0.422 C  
ENDROOT
BRANCH   2   3
HETATM    3  N   UNL     1     -10.489  18.412  66.657  1.00  0.00    -0.393 NA 
BRANCH   3   4
HETATM    4  C   UNL     1      -9.790  17.198  66.208  1.00  0.00    -0.291 C  
HETATM    5  C   UNL     1     -10.647  16.157  65.498  1.00  0.00    -0.394 C  
ENDBRANCH   3   4
BRANCH   3   6
HETATM    6  C   UNL     1     -10.547  18.567  68.128  1.00  0.00    -0.255 C  
BRANCH   6   7
HETATM    7  C   UNL     1      -9.869  17.420  68.886  1.00  0.00    -0.286 C  
BRANCH   7   8
HETATM    8  O   UNL     1     -10.837  16.651  69.614  1.00  0.00    -0.341 OA 
BRANCH   8   9
HETATM    9  C   UNL     1     -10.806  15.308  69.328  1.00  0.00    -0.257 A  
HETATM   10  C   UNL     1     -11.857  14.422  69.578  1.00  0.00    -0.376 A  
HETATM   11  C   UNL     1     -11.697  13.058  69.349  1.00  0.00    -0.386 A  
HETATM   12  C   UNL     1     -10.500  12.562  68.827  1.00  0.00    -0.169 A  
HETATM   13  C   UNL     1      -9.463  13.454  68.524  1.00  0.00    -0.121 A  
HETATM   14  C   UNL     1      -9.621  14.824  68.769  1.00  0.00    -0.215 A  
BRANCH  12  15
HETATM   15  C   UNL     1     -10.363  11.097  68.629  1.00  0.00    -0.219 C  
HETATM   16 CL   UNL     1     -10.554   8.853  67.091  1.00  0.00    -0.344 Cl 
HETATM   17  C   UNL     1     -10.570  10.568  67.396  1.00  0.00    -0.263 C  
BRANCH  15  18
HETATM   18  C   UNL     1     -10.079  10.216  69.792  1.00  0.00    -0.269 A  
HETATM   19  C   UNL     1      -8.806   9.655  69.968  1.00  0.00    -0.259 A  
HETATM   20  C   UNL     1     -11.089   9.920  70.717  1.00  0.00    -0.417 A  
HETATM   21  C   UNL     1     -10.827   9.085  71.808  1.00  0.00    -0.437 A  
HETATM   22  C   UNL     1      -8.547   8.820  71.059  1.00  0.00    -0.236 A  
HETATM   23  C   UNL     1      -9.556   8.539  71.978  1.00  0.00    -0.371 A  
ENDBRANCH  15  18
BRANCH  17  24
HETATM   24  C   UNL     1     -10.822  11.373  66.182  1.00  0.00    -0.310 A  
HETATM   25  C   UNL     1     -11.397  12.798  63.838  1.00  0.00    -0.498 A  
HETATM   26  C   UNL     1     -12.007  12.114  66.074  1.00  0.00    -0.236 A  
HETATM   27  C   UNL     1     -12.294  12.822  64.904  1.00  0.00    -0.551 A  
HETATM   28  C   UNL     1     -10.202  12.090  63.946  1.00  0.00    -0.424 A  
HETATM   29  C   UNL     1      -9.910  11.382  65.118  1.00  0.00    -0.302 A  
ENDBRANCH  17  24
ENDBRANCH  12  15
ENDBRANCH   8   9
ENDBRANCH   7   8
ENDBRANCH   6   7
ENDBRANCH   3   6
ENDBRANCH   2   3
TORSDOF 9
ENDMDL
MODEL        2
REMARK 921   NORMALIZED FREE ENERGY PREDICTED BY IDOCK:   -6.08 KCAL/MOL
REMARK 922        TOTAL FREE ENERGY PREDICTED BY IDOCK:  -11.41 KCAL/MOL
REMARK 923 INTER-LIGAND FREE ENERGY PREDICTED BY IDOCK:   -9.50 KCAL/MOL
REMARK 924 INTRA-LIGAND FREE ENERGY PREDICTED BY IDOCK:   -1.91 KCAL/MOL
REMARK 927      BINDING AFFINITY PREDICTED BY RF-SCORE:    0.00 PKD
ROOT
HETATM    1  C   UNL     1      -6.232  20.554  66.186  1.00  0.00    -0.254 C  
HETATM    2  C   UNL     1      -7.336  20.525  67.238  1.00  0.00    -0.327 C  
ENDROOT
BRANCH   2   3
HETATM    3  N   UNL     1      -7.894  19.188  67.497  1.00  0.00    -0.243 NA 
BRANCH   3   4
HETATM    4  C   UNL     1      -8.970  19.162  68.499  1.00  0.00    -0.363 C  
HETATM    5  C   UNL     1     -10.384  18.996  67.957  1.00  0.00    -0.472 C  
ENDBRANCH   3   4
BRANCH   3   6
HETATM    6  C   UNL     1      -8.243  18.532  66.217  1.00  0.00    -0.225 C  
BRANCH   6   7
HETATM    7  C   UNL     1      -8.109  17.005  66.263  1.00  0.00    -0.297 C  
BRANCH   7   8
HETATM    8  O   UNL     1      -9.319  16.376  65.821  1.00  0.00    -0.468 OA 
BRANCH   8   9
HETATM    9  C   UNL     1      -9.953  15.646  66.796  1.00  0.00    -0.250 A  
HETATM   10  C   UNL     1     -11.313  15.323  66.785  1.00  0.00    -0.183 A  
HETATM   11  C   UNL     1     -11.889  14.667  67.869  1.00  0.00    -0.352 A  
HETATM   12  C   UNL     1     -11.109  14.284  68.963  1.00  0.00    -0.284 A  
HETATM   13  C   UNL     1      -9.735  14.558  68.954  1.00  0.00    -0.169 A  
HETATM   14  C   UNL     1      -9.160  15.232  67.869  1.00  0.00    -0.175 A  
BRANCH  12  15
HETATM   15  C   UNL     1     -11.772  13.614  70.110  1.00  0.00    -0.288 C  
HETATM   16 CL   UNL     1     -12.705  11.388  71.379  1.00  0.00    -0.509 Cl 
HETATM   17  C   UNL     1     -11.842  12.259  70.143  1.00  0.00    -0.272 C  
BRANCH  15  18
HETATM   18  C   UNL     1     -12.420  14.430  71.170  1.00  0.00    -0.429 A  
HETATM   19  C   UNL     1     -11.686  14.870  72.281  1.00  0.00    -0.333 A  
HETATM   20  C   UNL     1     -13.781  14.753  71.081  1.00  0.00    -0.413 A  
HETATM   21  C   UNL     1     -14.395  15.514  72.081  1.00  0.00    -0.598 A  
HETATM   22  C   UNL     1     -12.302  15.630  73.279  1.00  0.00    -0.609 A  
HETATM   23  C   UNL     1     -13.654  15.952  73.176  1.00  0.00    -0.580 A  
ENDBRANCH  15  18
BRANCH  17  24
HETATM   24  C   UNL     1     -11.196  11.373  69.150  1.00  0.00    -0.335 A  
HETATM   25  C   UNL     1     -10.091   9.606  67.276  1.00  0.00    -0.267 A  
HETATM   26  C   UNL     1     -11.659  11.360  67.827  1.00  0.00    -0.325 A  
HETATM   27  C   UNL     1     -11.109  10.477  66.894  1.00  0.00    -0.124 A  
HETATM   28  C   UNL     1      -9.601   9.633  68.580  1.00  0.00    -0.154 A  
HETATM   29  C   UNL     1     -10.148  10.519  69.516  1.00  0.00    -0.208 A  
ENDBRANCH  17  24
ENDBRANCH  12  15
ENDBRANCH   8   9
ENDBRANCH   7   8
ENDBRANCH   6   7
ENDBRANCH   3   6
ENDBRANCH   2   3
TORSDOF 9
ENDMDL
MODEL        3
REMARK 921   NORMALIZED FREE ENERGY PREDICTED BY IDOCK:   -6.01 KCAL/MOL
REMARK 922        TOTAL FREE ENERGY PREDICTED BY IDOCK:  -11.31 KCAL/MOL
REMARK 923 INTER-LIGAND FREE ENERGY PREDICTED BY IDOCK:   -9.75 KCAL/MOL
REMARK 924 INTRA-LIGAND FREE ENERGY PREDICTED BY IDOCK:   -1.55 KCAL/MOL
REMARK 927      BINDING AFFINITY PREDICTED BY RF-SCORE:    0.00 PKD
ROOT
HETATM    1  C   UNL     1     -10.533  19.648  65.993  1.00  0.00    -0.622 C  
HETATM    2  C   UNL     1      -9.021  19.595  66.193  1.00  0.00    -0.334 C  
ENDROOT
BRANCH   2   3
HETATM    3  N   UNL     1      -8.601  19.082  67.506  1.00  0.00    -0.283 NA 
BRANCH   3   4
HETATM    4  C   UNL     1      -7.484  19.819  68.117  1.00  0.00    -0.308 C  
HETATM    5  C   UNL     1      -6.908  20.964  67.292  1.00  0.00    -0.426 C  
ENDBRANCH   3   4
BRANCH   3   6
HETATM    6  C   UNL     1      -9.779  18.928  68.388  1.00  0.00    -0.379 C  
BRANCH   6   7
HETATM    7  C   UNL     1      -9.855  17.553  69.062  1.00  0.00    -0.225 C  
BRANCH   7   8
HETATM    8  O   UNL     1     -10.995  16.820  68.594  1.00  0.00    -0.338 OA 
BRANCH   8   9
HETATM    9  C   UNL     1     -10.818  15.459  68.596  1.00  0.00    -0.259 A  
HETATM   10  C   UNL     1      -9.622  14.817  68.262  1.00  0.00    -0.215 A  
HETATM   11  C   UNL     1      -9.566  13.427  68.192  1.00  0.00    -0.222 A  
HETATM   12  C   UNL     1     -10.690  12.655  68.496  1.00  0.00    -0.271 A  
HETATM   13  C   UNL     1     -11.875  13.294  68.884  1.00  0.00    -0.367 A  
HETATM   14  C   UNL     1     -11.934  14.693  68.938  1.00  0.00    -0.309 A  
BRANCH  12  15
HETATM   15  C   UNL     1     -10.592  11.178  68.379  1.00  0.00    -0.223 C  
HETATM   16 CL   UNL     1     -10.774   8.867  66.944  1.00  0.00    -0.247 Cl 
HETATM   17  C   UNL     1     -10.748  10.594  67.164  1.00  0.00    -0.272 C  
BRANCH  15  18
HETATM   18  C   UNL     1     -10.404  10.349  69.598  1.00  0.00    -0.261 A  
HETATM   19  C   UNL     1     -11.465  10.143  70.491  1.00  0.00    -0.417 A  
HETATM   20  C   UNL     1      -9.155   9.780  69.879  1.00  0.00    -0.257 A  
HETATM   21  C   UNL     1      -8.973   9.005  71.030  1.00  0.00    -0.304 A  
HETATM   22  C   UNL     1     -11.281   9.369  71.640  1.00  0.00    -0.431 A  
HETATM   23  C   UNL     1     -10.036   8.800  71.907  1.00  0.00    -0.409 A  
ENDBRANCH  15  18
BRANCH  17  24
HETATM   24  C   UNL     1     -10.904  11.343  65.899  1.00  0.00    -0.292 A  
HETATM   25  C   UNL     1     -11.304  12.668  63.461  1.00  0.00    -0.527 A  
HETATM   26  C   UNL     1     -12.031  12.156  65.708  1.00  0.00    -0.267 A  
HETATM   27  C   UNL     1     -12.230  12.814  64.492  1.00  0.00    -0.500 A  
HETATM   28  C   UNL     1     -10.165  11.888  63.651  1.00  0.00    -0.466 A  
HETATM   29  C   UNL     1      -9.961  11.230  64.869  1.00  0.00    -0.323 A  
ENDBRANCH  17  24
ENDBRANCH  12  15
ENDBRANCH   8   9
ENDBRANCH   7   8
ENDBRANCH   6   7
ENDBRANCH   3   6
ENDBRANCH   2   3
TORSDOF 9
ENDMDL
MODEL        4
REMARK 921   NORMALIZED FREE ENERGY PREDICTED BY IDOCK:   -5.99 KCAL/MOL
REMARK 922        TOTAL FREE ENERGY PREDICTED BY IDOCK:  -11.29 KCAL/MOL
REMARK 923 INTER-LIGAND FREE ENERGY PREDICTED BY IDOCK:   -9.16 KCAL/MOL
REMARK 924 INTRA-LIGAND FREE ENERGY PREDICTED BY IDOCK:   -2.13 KCAL/MOL
REMARK 927      BINDING AFFINITY PREDICTED BY RF-SCORE:    0.00 PKD
ROOT
HETATM    1  C   UNL     1      -5.820  20.653  69.030  1.00  0.00    -0.390 C  
HETATM    2  C   UNL     1      -6.709  19.791  68.139  1.00  0.00    -0.273 C  
ENDROOT
BRANCH   2   3
HETATM    3  N   UNL     1      -6.282  19.730  66.733  1.00  0.00    -0.182 NA 
BRANCH   3   4
HETATM    4  C   UNL     1      -5.328  18.651  66.434  1.00  0.00    -0.143 C  
HETATM    5  C   UNL     1      -5.522  17.354  67.211  1.00  0.00    -0.154 C  
ENDBRANCH   3   4
BRANCH   3   6
HETATM    6  C   UNL     1      -7.465  19.755  65.844  1.00  0.00    -0.324 C  
BRANCH   6   7
HETATM    7  C   UNL     1      -8.717  19.146  66.485  1.00  0.00    -0.337 C  
BRANCH   7   8
HETATM    8  O   UNL     1      -8.889  17.784  66.068  1.00  0.00    -0.494 OA 
BRANCH   8   9
HETATM    9  C   UNL     1      -9.508  16.992  67.004  1.00  0.00    -0.250 A  
HETATM   10  C   UNL     1      -9.068  16.834  68.321  1.00  0.00    -0.228 A  
HETATM   11  C   UNL     1      -9.700  15.929  69.170  1.00  0.00    -0.249 A  
HETATM   12  C   UNL     1     -10.808  15.200  68.731  1.00  0.00    -0.247 A  
HETATM   13  C   UNL     1     -11.285  15.396  67.428  1.00  0.00    -0.287 A  
HETATM   14  C   UNL     1     -10.637  16.295  66.571  1.00  0.00    -0.256 A  
BRANCH  12  15
HETATM   15  C   UNL     1     -11.430  14.224  69.660  1.00  0.00    -0.334 C  
HETATM   16 CL   UNL     1     -12.155  11.686  70.346  1.00  0.00    -0.459 Cl 
HETATM   17  C   UNL     1     -11.353  12.897  69.386  1.00  0.00    -0.201 C  
BRANCH  15  18
HETATM   18  C   UNL     1     -12.199  14.708  70.837  1.00  0.00    -0.391 A  
HETATM   19  C   UNL     1     -11.547  14.994  72.046  1.00  0.00    -0.419 A  
HETATM   20  C   UNL     1     -13.589  14.866  70.758  1.00  0.00    -0.221 A  
HETATM   21  C   UNL     1     -14.315  15.315  71.866  1.00  0.00    -0.691 A  
HETATM   22  C   UNL     1     -12.275  15.442  73.152  1.00  0.00    -0.567 A  
HETATM   23  C   UNL     1     -13.656  15.603  73.060  1.00  0.00    -0.619 A  
ENDBRANCH  15  18
BRANCH  17  24
HETATM   24  C   UNL     1     -10.582  12.329  68.259  1.00  0.00    -0.243 A  
HETATM   25  C   UNL     1      -9.079  11.389  66.088  1.00  0.00    -0.217 A  
HETATM   26  C   UNL     1      -9.184  12.261  68.339  1.00  0.00    -0.145 A  
HETATM   27  C   UNL     1      -8.436  11.794  67.255  1.00  0.00    -0.160 A  
HETATM   28  C   UNL     1     -10.469  11.423  66.009  1.00  0.00    -0.305 A  
HETATM   29  C   UNL     1     -11.222  11.887  67.094  1.00  0.00    -0.377 A  
ENDBRANCH  17  24
ENDBRANCH  12  15
ENDBRANCH   8   9
ENDBRANCH   7   8
ENDBRANCH   6   7
ENDBRANCH   3   6
ENDBRANCH   2   3
TORSDOF 9
ENDMDL
MODEL        5
REMARK 921   NORMALIZED FREE ENERGY PREDICTED BY IDOCK:   -5.81 KCAL/MOL
REMARK 922        TOTAL FREE ENERGY PREDICTED BY IDOCK:  -11.00 KCAL/MOL
REMARK 923 INTER-LIGAND FREE ENERGY PREDICTED BY IDOCK:   -9.68 KCAL/MOL
REMARK 924 INTRA-LIGAND FREE ENERGY PREDICTED BY IDOCK:   -1.33 KCAL/MOL
REMARK 927      BINDING AFFINITY PREDICTED BY RF-SCORE:    0.00 PKD
ROOT
HETATM    1  C   UNL     1     -10.359  19.742  65.998  1.00  0.00    -0.612 C  
HETATM    2  C   UNL     1      -8.939  19.430  66.459  1.00  0.00    -0.356 C  
ENDROOT
BRANCH   2   3
HETATM    3  N   UNL     1      -8.862  18.593  67.666  1.00  0.00    -0.273 NA 
BRANCH   3   4
HETATM    4  C   UNL     1      -7.789  18.969  68.599  1.00  0.00    -0.348 C  
HETATM    5  C   UNL     1      -6.872  20.097  68.143  1.00  0.00    -0.326 C  
ENDBRANCH   3   4
BRANCH   3   6
HETATM    6  C   UNL     1     -10.199  18.489  68.293  1.00  0.00    -0.376 C  
BRANCH   6   7
HETATM    7  C   UNL     1     -10.681  17.043  68.454  1.00  0.00    -0.361 C  
BRANCH   7   8
HETATM    8  O   UNL     1     -10.728  16.378  67.184  1.00  0.00    -0.307 OA 
BRANCH   8   9
HETATM    9  C   UNL     1     -10.768  15.009  67.276  1.00  0.00    -0.298 A  
HETATM   10  C   UNL     1     -11.931  14.242  67.162  1.00  0.00    -0.449 A  
HETATM   11  C   UNL     1     -11.890  12.866  67.372  1.00  0.00    -0.418 A  
HETATM   12  C   UNL     1     -10.681  12.227  67.656  1.00  0.00    -0.250 A  
HETATM   13  C   UNL     1      -9.504  12.986  67.718  1.00  0.00    -0.209 A  
HETATM   14  C   UNL     1      -9.550  14.372  67.521  1.00  0.00    -0.215 A  
BRANCH  12  15
HETATM   15  C   UNL     1     -10.689  10.764  67.903  1.00  0.00    -0.282 C  
HETATM   16 CL   UNL     1     -10.606   8.181  67.034  1.00  0.00    -0.393 Cl 
HETATM   17  C   UNL     1     -10.491   9.911  66.867  1.00  0.00    -0.215 C  
BRANCH  15  18
HETATM   18  C   UNL     1     -10.992  10.244  69.263  1.00  0.00    -0.284 A  
HETATM   19  C   UNL     1     -12.245  10.473  69.851  1.00  0.00    -0.289 A  
HETATM   20  C   UNL     1     -10.020   9.536  69.982  1.00  0.00    -0.274 A  
HETATM   21  C   UNL     1     -10.300   9.053  71.264  1.00  0.00    -0.383 A  
HETATM   22  C   UNL     1     -12.522   9.989  71.133  1.00  0.00    -0.480 A  
HETATM   23  C   UNL     1     -11.550   9.279  71.836  1.00  0.00    -0.405 A  
ENDBRANCH  15  18
BRANCH  17  24
HETATM   24  C   UNL     1     -10.151  10.341  65.494  1.00  0.00    -0.351 A  
HETATM   25  C   UNL     1      -9.410  11.254  62.950  1.00  0.00    -0.376 A  
HETATM   26  C   UNL     1      -8.929   9.952  64.928  1.00  0.00    -0.246 A  
HETATM   27  C   UNL     1      -8.560  10.410  63.660  1.00  0.00    -0.186 A  
HETATM   28  C   UNL     1     -10.641  11.621  63.490  1.00  0.00    -0.496 A  
HETATM   29  C   UNL     1     -11.015  11.162  64.758  1.00  0.00    -0.218 A  
ENDBRANCH  17  24
ENDBRANCH  12  15
ENDBRANCH   8   9
ENDBRANCH   7   8
ENDBRANCH   6   7
ENDBRANCH   3   6
ENDBRANCH   2   3
TORSDOF 9
ENDMDL
MODEL        6
REMARK 921   NORMALIZED FREE ENERGY PREDICTED BY IDOCK:   -5.74 KCAL/MOL
REMARK 922        TOTAL FREE ENERGY PREDICTED BY IDOCK:  -10.90 KCAL/MOL
REMARK 923 INTER-LIGAND FREE ENERGY PREDICTED BY IDOCK:   -9.27 KCAL/MOL
REMARK 924 INTRA-LIGAND FREE ENERGY PREDICTED BY IDOCK:   -1.63 KCAL/MOL
REMARK 927      BINDING AFFINITY PREDICTED BY RF-SCORE:    0.00 PKD
ROOT
HETATM    1  C   UNL     1     -10.289  19.765  67.872  1.00  0.00    -0.569 C  
HETATM    2  C   UNL     1      -9.897  19.887  66.403  1.00  0.00    -0.459 C  
ENDROOT
BRANCH   2   3
HETATM    3  N   UNL     1      -8.636  19.216  66.053  1.00  0.00    -0.461 NA 
BRANCH   3   4
HETATM    4  C   UNL     1      -7.448  20.080  66.121  1.00  0.00    -0.302 C  
HETATM    5  C   UNL     1      -6.471  19.967  64.956  1.00  0.00    -0.324 C  
ENDBRANCH   3   4
BRANCH   3   6
HETATM    6  C   UNL     1      -8.509  17.952  66.814  1.00  0.00    -0.249 C  
BRANCH   6   7
HETATM    7  C   UNL     1      -9.151  16.753  66.107  1.00  0.00    -0.253 C  
BRANCH   7   8
HETATM    8  O   UNL     1     -10.362  16.363  66.768  1.00  0.00    -0.286 OA 
BRANCH   8   9
HETATM    9  C   UNL     1     -10.385  15.044  67.152  1.00  0.00    -0.257 A  
HETATM   10  C   UNL     1      -9.255  14.308  67.516  1.00  0.00    -0.197 A  
HETATM   11  C   UNL     1      -9.361  12.947  67.792  1.00  0.00    -0.203 A  
HETATM   12  C   UNL     1     -10.603  12.309  67.750  1.00  0.00    -0.241 A  
HETATM   13  C   UNL     1     -11.747  13.057  67.438  1.00  0.00    -0.427 A  
HETATM   14  C   UNL     1     -11.635  14.423  67.146  1.00  0.00    -0.406 A  
BRANCH  12  15
HETATM   15  C   UNL     1     -10.664  10.851  68.021  1.00  0.00    -0.263 C  
HETATM   16 CL   UNL     1     -10.591   8.251  67.201  1.00  0.00    -0.383 Cl 
HETATM   17  C   UNL     1     -10.422   9.974  67.014  1.00  0.00    -0.238 C  
BRANCH  15  18
HETATM   18  C   UNL     1     -11.066  10.364  69.367  1.00  0.00    -0.304 A  
HETATM   19  C   UNL     1     -10.136   9.728  70.202  1.00  0.00    -0.317 A  
HETATM   20  C   UNL     1     -12.387  10.518  69.809  1.00  0.00    -0.200 A  
HETATM   21  C   UNL     1     -12.769  10.053  71.072  1.00  0.00    -0.455 A  
HETATM   22  C   UNL     1     -10.520   9.265  71.464  1.00  0.00    -0.385 A  
HETATM   23  C   UNL     1     -11.835   9.430  71.897  1.00  0.00    -0.402 A  
ENDBRANCH  15  18
BRANCH  17  24
HETATM   24  C   UNL     1      -9.984  10.372  65.658  1.00  0.00    -0.337 A  
HETATM   25  C   UNL     1      -9.231  11.012  63.036  1.00  0.00    -0.337 A  
HETATM   26  C   UNL     1     -10.893  10.991  64.789  1.00  0.00    -0.234 A  
HETATM   27  C   UNL     1     -10.518  11.307  63.481  1.00  0.00    -0.457 A  
HETATM   28  C   UNL     1      -8.310  10.425  63.900  1.00  0.00    -0.143 A  
HETATM   29  C   UNL     1      -8.682  10.110  65.212  1.00  0.00    -0.180 A  
ENDBRANCH  17  24
ENDBRANCH  12  15
ENDBRANCH   8   9
ENDBRANCH   7   8
ENDBRANCH   6   7
ENDBRANCH   3   6
ENDBRANCH   2   3
TORSDOF 9
ENDMDL
MODEL        7
REMARK 921   NORMALIZED FREE ENERGY PREDICTED BY IDOCK:   -5.66 KCAL/MOL
REMARK 922        TOTAL FREE ENERGY PREDICTED BY IDOCK:  -10.78 KCAL/MOL
REMARK 923 INTER-LIGAND FREE ENERGY PREDICTED BY IDOCK:   -9.31 KCAL/MOL
REMARK 924 INTRA-LIGAND FREE ENERGY PREDICTED BY IDOCK:   -1.47 KCAL/MOL
REMARK 927      BINDING AFFINITY PREDICTED BY RF-SCORE:    0.00 PKD
ROOT
HETATM    1  C   UNL     1      -7.049  10.302  62.528  1.00  0.00    -0.151 C  
HETATM    2  C   UNL     1      -7.598   9.829  63.871  1.00  0.00    -0.133 C  
ENDROOT
BRANCH   2   3
HETATM    3  N   UNL     1      -9.067   9.784  63.944  1.00  0.00    -0.247 NA 
BRANCH   3   4
HETATM    4  C   UNL     1      -9.605   9.713  65.311  1.00  0.00    -0.277 C  
HETATM    5  C   UNL     1      -9.062   8.591  66.187  1.00  0.00    -0.245 C  
ENDBRANCH   3   4
BRANCH   3   6
HETATM    6  C   UNL     1      -9.646  10.868  63.120  1.00  0.00    -0.357 C  
BRANCH   6   7
HETATM    7  C   UNL     1     -10.952  11.432  63.693  1.00  0.00    -0.363 C  
BRANCH   7   8
HETATM    8  O   UNL     1     -10.847  12.849  63.893  1.00  0.00    -0.394 OA 
BRANCH   8   9
HETATM    9  C   UNL     1     -10.910  13.228  65.212  1.00  0.00    -0.301 A  
HETATM   10  C   UNL     1      -9.826  13.205  66.094  1.00  0.00    -0.284 A  
HETATM   11  C   UNL     1     -10.009  13.510  67.440  1.00  0.00    -0.234 A  
HETATM   12  C   UNL     1     -11.266  13.885  67.919  1.00  0.00    -0.302 A  
HETATM   13  C   UNL     1     -12.344  13.962  67.026  1.00  0.00    -0.287 A  
HETATM   14  C   UNL     1     -12.161  13.639  65.675  1.00  0.00    -0.490 A  
BRANCH  12  15
HETATM   15  C   UNL     1     -11.420  14.171  69.367  1.00  0.00    -0.337 C  
HETATM   16 CL   UNL     1     -10.950  15.698  71.577  1.00  0.00    -0.234 Cl 
HETATM   17  C   UNL     1     -10.928  15.330  69.875  1.00  0.00    -0.290 C  
BRANCH  15  18
HETATM   18  C   UNL     1     -12.039  13.157  70.261  1.00  0.00    -0.399 A  
HETATM   19  C   UNL     1     -12.850  13.552  71.335  1.00  0.00    -0.440 A  
HETATM   20  C   UNL     1     -11.802  11.792  70.051  1.00  0.00    -0.422 A  
HETATM   21  C   UNL     1     -12.377  10.836  70.895  1.00  0.00    -0.497 A  
HETATM   22  C   UNL     1     -13.423  12.594  72.177  1.00  0.00    -0.561 A  
HETATM   23  C   UNL     1     -13.187  11.239  71.954  1.00  0.00    -0.491 A  
ENDBRANCH  15  18
BRANCH  17  24
HETATM   24  C   UNL     1     -10.331  16.405  69.054  1.00  0.00    -0.278 A  
HETATM   25  C   UNL     1      -9.175  18.519  67.623  1.00  0.00    -0.292 A  
HETATM   26  C   UNL     1      -8.941  16.585  69.051  1.00  0.00    -0.225 A  
HETATM   27  C   UNL     1      -8.366  17.640  68.339  1.00  0.00    -0.290 A  
HETATM   28  C   UNL     1     -10.555  18.331  67.593  1.00  0.00    -0.427 A  
HETATM   29  C   UNL     1     -11.134  17.273  68.303  1.00  0.00    -0.064 A  
ENDBRANCH  17  24
ENDBRANCH  12  15
ENDBRANCH   8   9
ENDBRANCH   7   8
ENDBRANCH   6   7
ENDBRANCH   3   6
ENDBRANCH   2   3
TORSDOF 9
ENDMDL
MODEL        8
REMARK 921   NORMALIZED FREE ENERGY PREDICTED BY IDOCK:   -5.66 KCAL/MOL
REMARK 922        TOTAL FREE ENERGY PREDICTED BY IDOCK:  -10.78 KCAL/MOL
REMARK 923 INTER-LIGAND FREE ENERGY PREDICTED BY IDOCK:   -8.28 KCAL/MOL
REMARK 924 INTRA-LIGAND FREE ENERGY PREDICTED BY IDOCK:   -2.49 KCAL/MOL
REMARK 927      BINDING AFFINITY PREDICTED BY RF-SCORE:    0.00 PKD
ROOT
HETATM    1  C   UNL     1     -10.382  15.982  65.257  1.00  0.00    -0.319 C  
HETATM    2  C   UNL     1     -10.780  17.425  65.550  1.00  0.00    -0.078 C  
ENDROOT
BRANCH   2   3
HETATM    3  N   UNL     1      -9.972  18.079  66.591  1.00  0.00    -0.343 NA 
BRANCH   3   4
HETATM    4  C   UNL     1      -9.278  19.297  66.147  1.00  0.00    -0.260 C  
HETATM    5  C   UNL     1      -9.404  20.509  67.062  1.00  0.00    -0.482 C  
ENDBRANCH   3   4
BRANCH   3   6
HETATM    6  C   UNL     1     -10.779  18.255  67.819  1.00  0.00    -0.333 C  
BRANCH   6   7
HETATM    7  C   UNL     1     -10.503  17.188  68.884  1.00  0.00    -0.346 C  
BRANCH   7   8
HETATM    8  O   UNL     1      -9.294  16.475  68.587  1.00  0.00    -0.223 OA 
BRANCH   8   9
HETATM    9  C   UNL     1      -9.427  15.110  68.647  1.00  0.00    -0.206 A  
HETATM   10  C   UNL     1      -8.416  14.202  68.321  1.00  0.00    -0.169 A  
HETATM   11  C   UNL     1      -8.675  12.834  68.313  1.00  0.00    -0.168 A  
HETATM   12  C   UNL     1      -9.935  12.347  68.671  1.00  0.00    -0.117 A  
HETATM   13  C   UNL     1     -10.935  13.252  69.051  1.00  0.00    -0.249 A  
HETATM   14  C   UNL     1     -10.677  14.629  69.043  1.00  0.00    -0.253 A  
BRANCH  12  15
HETATM   15  C   UNL     1     -10.174  10.884  68.618  1.00  0.00    -0.201 C  
HETATM   16 CL   UNL     1     -10.951   8.623  67.305  1.00  0.00    -0.058 Cl 
HETATM   17  C   UNL     1     -10.529  10.307  67.441  1.00  0.00    -0.251 C  
BRANCH  15  18
HETATM   18  C   UNL     1     -10.102  10.076  69.864  1.00  0.00    -0.289 A  
HETATM   19  C   UNL     1      -8.895   9.482  70.260  1.00  0.00    -0.281 A  
HETATM   20  C   UNL     1     -11.248   9.882  70.647  1.00  0.00    -0.416 A  
HETATM   21  C   UNL     1     -11.184   9.116  71.816  1.00  0.00    -0.451 A  
HETATM   22  C   UNL     1      -8.834   8.717  71.428  1.00  0.00    -0.292 A  
HETATM   23  C   UNL     1      -9.977   8.536  72.204  1.00  0.00    -0.387 A  
ENDBRANCH  15  18
BRANCH  17  24
HETATM   24  C   UNL     1     -10.590  11.029  66.152  1.00  0.00    -0.288 A  
HETATM   25  C   UNL     1     -10.814  12.305  63.667  1.00  0.00    -0.522 A  
HETATM   26  C   UNL     1     -11.658  11.900  65.894  1.00  0.00    -0.291 A  
HETATM   27  C   UNL     1     -11.770  12.533  64.654  1.00  0.00    -0.416 A  
HETATM   28  C   UNL     1      -9.732  11.467  63.923  1.00  0.00    -0.299 A  
HETATM   29  C   UNL     1      -9.615  10.832  65.165  1.00  0.00    -0.295 A  
ENDBRANCH  17  24
ENDBRANCH  12  15
ENDBRANCH   8   9
ENDBRANCH   7   8
ENDBRANCH   6   7
ENDBRANCH   3   6
ENDBRANCH   2   3
TORSDOF 9
ENDMDL
MODEL        9
REMARK 921   NORMALIZED FREE ENERGY PREDICTED BY IDOCK:   -5.63 KCAL/MOL
REMARK 922        TOTAL FREE ENERGY PREDICTED BY IDOCK:  -10.73 KCAL/MOL
REMARK 923 INTER-LIGAND FREE ENERGY PREDICTED BY IDOCK:   -9.90 KCAL/MOL
REMARK 924 INTRA-LIGAND FREE ENERGY PREDICTED BY IDOCK:   -0.83 KCAL/MOL
REMARK 927      BINDING AFFINITY PREDICTED BY RF-SCORE:    0.00 PKD
ROOT
HETATM    1  C   UNL     1      -8.144   7.559  71.193  1.00  0.00    -0.100 C  
HETATM    2  C   UNL     1      -9.095   6.371  71.081  1.00  0.00    -0.150 C  
ENDROOT
BRANCH   2   3
HETATM    3  N   UNL     1     -10.457   6.723  70.649  1.00  0.00    -0.211 NA 
BRANCH   3   4
HETATM    4  C   UNL     1     -10.996   5.867  69.582  1.00  0.00    -0.377 C  
HETATM    5  C   UNL     1     -10.903   6.423  68.167  1.00  0.00    -0.386 C  
ENDBRANCH   3   4
BRANCH   3   6
HETATM    6  C   UNL     1     -11.343   6.853  71.828  1.00  0.00    -0.261 C  
BRANCH   6   7
HETATM    7  C   UNL     1     -12.540   7.779  71.587  1.00  0.00    -0.332 C  
BRANCH   7   8
HETATM    8  O   UNL     1     -12.334   9.050  72.219  1.00  0.00    -0.364 OA 
BRANCH   8   9
HETATM    9  C   UNL     1     -12.189  10.091  71.336  1.00  0.00    -0.416 A  
HETATM   10  C   UNL     1     -11.278  10.109  70.276  1.00  0.00    -0.387 A  
HETATM   11  C   UNL     1     -11.131  11.252  69.494  1.00  0.00    -0.299 A  
HETATM   12  C   UNL     1     -11.921  12.380  69.730  1.00  0.00    -0.359 A  
HETATM   13  C   UNL     1     -12.873  12.346  70.757  1.00  0.00    -0.097 A  
HETATM   14  C   UNL     1     -13.009  11.201  71.553  1.00  0.00    -0.542 A  
BRANCH  12  15
HETATM   15  C   UNL     1     -11.707  13.586  68.891  1.00  0.00    -0.379 C  
HETATM   16 CL   UNL     1     -11.852  16.276  68.474  1.00  0.00    -0.113 Cl 
HETATM   17  C   UNL     1     -11.953  14.814  69.413  1.00  0.00    -0.303 C  
BRANCH  15  18
HETATM   18  C   UNL     1     -11.304  13.436  67.468  1.00  0.00    -0.327 A  
HETATM   19  C   UNL     1      -9.957  13.547  67.093  1.00  0.00    -0.246 A  
HETATM   20  C   UNL     1     -12.270  13.201  66.481  1.00  0.00    -0.358 A  
HETATM   21  C   UNL     1     -11.893  13.068  65.140  1.00  0.00    -0.404 A  
HETATM   22  C   UNL     1      -9.584  13.414  65.753  1.00  0.00    -0.068 A  
HETATM   23  C   UNL     1     -10.552  13.173  64.780  1.00  0.00    -0.390 A  
ENDBRANCH  15  18
BRANCH  17  24
HETATM   24  C   UNL     1     -12.323  15.054  70.825  1.00  0.00    -0.400 A  
HETATM   25  C   UNL     1     -13.049  15.649  73.466  1.00  0.00    -0.638 A  
HETATM   26  C   UNL     1     -13.671  15.224  71.170  1.00  0.00    -0.519 A  
HETATM   27  C   UNL     1     -14.032  15.524  72.486  1.00  0.00    -0.646 A  
HETATM   28  C   UNL     1     -11.710  15.451  73.141  1.00  0.00    -0.443 A  
HETATM   29  C   UNL     1     -11.345  15.148  71.823  1.00  0.00    -0.391 A  
ENDBRANCH  17  24
ENDBRANCH  12  15
ENDBRANCH   8   9
ENDBRANCH   7   8
ENDBRANCH   6   7
ENDBRANCH   3   6
ENDBRANCH   2   3
TORSDOF 9
ENDMDL
MODEL       10
REMARK 921   NORMALIZED FREE ENERGY PREDICTED BY IDOCK:   -5.60 KCAL/MOL
REMARK 922        TOTAL FREE ENERGY PREDICTED BY IDOCK:  -10.69 KCAL/MOL
REMARK 923 INTER-LIGAND FREE ENERGY PREDICTED BY IDOCK:   -8.37 KCAL/MOL
REMARK 924 INTRA-LIGAND FREE ENERGY PREDICTED BY IDOCK:   -2.32 KCAL/MOL
REMARK 927      BINDING AFFINITY PREDICTED BY RF-SCORE:    0.00 PKD
ROOT
HETATM    1  C   UNL     1     -12.438  15.583  74.208  1.00  0.00    -0.792 C  
HETATM    2  C   UNL     1     -12.215  15.970  72.750  1.00  0.00    -0.516 C  
ENDROOT
BRANCH   2   3
HETATM    3  N   UNL     1     -12.395  14.866  71.794  1.00  0.00    -0.326 NA 
BRANCH   3   4
HETATM    4  C   UNL     1     -13.363  13.845  72.221  1.00  0.00    -0.503 C  
HETATM    5  C   UNL     1     -13.044  12.411  71.817  1.00  0.00    -0.446 C  
ENDBRANCH   3   4
BRANCH   3   6
HETATM    6  C   UNL     1     -12.643  15.407  70.439  1.00  0.00    -0.389 C  
BRANCH   6   7
HETATM    7  C   UNL     1     -11.358  15.646  69.637  1.00  0.00    -0.329 C  
BRANCH   7   8
HETATM    8  O   UNL     1     -11.412  14.963  68.378  1.00  0.00    -0.290 OA 
BRANCH   8   9
HETATM    9  C   UNL     1     -11.077  13.633  68.454  1.00  0.00    -0.264 A  
HETATM   10  C   UNL     1     -11.994  12.581  68.371  1.00  0.00    -0.271 A  
HETATM   11  C   UNL     1     -11.576  11.267  68.562  1.00  0.00    -0.384 A  
HETATM   12  C   UNL     1     -10.229  10.977  68.796  1.00  0.00    -0.211 A  
HETATM   13  C   UNL     1      -9.299  12.025  68.825  1.00  0.00     0.044 A  
HETATM   14  C   UNL     1      -9.724  13.348  68.648  1.00  0.00    -0.084 A  
BRANCH  12  15
HETATM   15  C   UNL     1      -9.834   9.565  69.024  1.00  0.00    -0.178 C  
HETATM   16 CL   UNL     1      -8.938   7.148  68.136  1.00  0.00    -0.128 Cl 
HETATM   17  C   UNL     1      -9.315   8.842  68.000  1.00  0.00    -0.142 C  
BRANCH  15  18
HETATM   18  C   UNL     1     -10.081   8.932  70.347  1.00  0.00    -0.232 A  
HETATM   19  C   UNL     1     -11.324   8.352  70.639  1.00  0.00    -0.262 A  
HETATM   20  C   UNL     1      -9.078   8.925  71.325  1.00  0.00    -0.323 A  
HETATM   21  C   UNL     1      -9.311   8.337  72.573  1.00  0.00    -0.350 A  
HETATM   22  C   UNL     1     -11.554   7.765  71.886  1.00  0.00    -0.330 A  
HETATM   23  C   UNL     1     -10.547   7.757  72.850  1.00  0.00    -0.428 A  
ENDBRANCH  15  18
BRANCH  17  24
HETATM   24  C   UNL     1      -9.005   9.402  66.666  1.00  0.00    -0.170 A  
HETATM   25  C   UNL     1      -8.394  10.592  64.203  1.00  0.00    -0.095 A  
HETATM   26  C   UNL     1      -7.675   9.679  66.322  1.00  0.00    -0.101 A  
HETATM   27  C   UNL     1      -7.372  10.275  65.095  1.00  0.00    -0.127 A  
HETATM   28  C   UNL     1      -9.717  10.292  64.522  1.00  0.00    -0.395 A  
HETATM   29  C   UNL     1     -10.024   9.693  65.749  1.00  0.00    -0.342 A  
ENDBRANCH  17  24
ENDBRANCH  12  15
ENDBRANCH   8   9
ENDBRANCH   7   8
ENDBRANCH   6   7
ENDBRANCH   3   6
ENDBRANCH   2   3
TORSDOF 9
ENDMDL
MODEL       11
REMARK 921   NORMALIZED FREE ENERGY PREDICTED BY IDOCK:   -5.59 KCAL/MOL
REMARK 922        TOTAL FREE ENERGY PREDICTED BY IDOCK:  -10.66 KCAL/MOL
REMARK 923 INTER-LIGAND FREE ENERGY PREDICTED BY IDOCK:   -9.78 KCAL/MOL
REMARK 924 INTRA-LIGAND FREE ENERGY PREDICTED BY IDOCK:   -0.88 KCAL/MOL
REMARK 927      BINDING AFFINITY PREDICTED BY RF-SCORE:    0.00 PKD
ROOT
HETATM    1  C   UNL     1      -9.389   4.462  71.482  1.00  0.00    -0.203 C  
HETATM    2  C   UNL     1      -9.318   5.335  72.732  1.00  0.00    -0.139 C  
ENDROOT
BRANCH   2   3
HETATM    3  N   UNL     1     -10.571   6.035  73.055  1.00  0.00    -0.227 NA 
BRANCH   3   4
HETATM    4  C   UNL     1     -10.387   7.368  73.647  1.00  0.00    -0.316 C  
HETATM    5  C   UNL     1      -9.057   8.053  73.353  1.00  0.00    -0.340 C  
ENDBRANCH   3   4
BRANCH   3   6
HETATM    6  C   UNL     1     -11.478   6.012  71.885  1.00  0.00    -0.269 C  
BRANCH   6   7
HETATM    7  C   UNL     1     -12.141   7.366  71.607  1.00  0.00    -0.317 C  
BRANCH   7   8
HETATM    8  O   UNL     1     -11.532   8.006  70.477  1.00  0.00    -0.264 OA 
BRANCH   8   9
HETATM    9  C   UNL     1     -11.653   9.374  70.484  1.00  0.00    -0.235 A  
HETATM   10  C   UNL     1     -12.659  10.076  71.154  1.00  0.00    -0.480 A  
HETATM   11  C   UNL     1     -12.761  11.458  71.019  1.00  0.00    -0.447 A  
HETATM   12  C   UNL     1     -11.837  12.167  70.249  1.00  0.00    -0.339 A  
HETATM   13  C   UNL     1     -10.795  11.473  69.619  1.00  0.00    -0.053 A  
HETATM   14  C   UNL     1     -10.703  10.080  69.743  1.00  0.00    -0.304 A  
BRANCH  12  15
HETATM   15  C   UNL     1     -12.004  13.635  70.108  1.00  0.00    -0.407 C  
HETATM   16 CL   UNL     1     -11.705  15.964  68.722  1.00  0.00    -0.394 Cl 
HETATM   17  C   UNL     1     -11.663  14.237  68.941  1.00  0.00    -0.328 C  
BRANCH  15  18
HETATM   18  C   UNL     1     -12.467  14.442  71.268  1.00  0.00    -0.423 A  
HETATM   19  C   UNL     1     -13.824  14.760  71.419  1.00  0.00    -0.509 A  
HETATM   20  C   UNL     1     -11.547  14.911  72.215  1.00  0.00    -0.266 A  
HETATM   21  C   UNL     1     -11.979  15.677  73.303  1.00  0.00    -0.573 A  
HETATM   22  C   UNL     1     -14.254  15.526  72.507  1.00  0.00    -0.502 A  
HETATM   23  C   UNL     1     -13.331  15.981  73.447  1.00  0.00    -0.582 A  
ENDBRANCH  15  18
BRANCH  17  24
HETATM   24  C   UNL     1     -11.228  13.508  67.730  1.00  0.00    -0.308 A  
HETATM   25  C   UNL     1     -10.362  12.255  65.377  1.00  0.00    -0.298 A  
HETATM   26  C   UNL     1      -9.860  13.319  67.488  1.00  0.00    -0.220 A  
HETATM   27  C   UNL     1      -9.430  12.697  66.313  1.00  0.00    -0.207 A  
HETATM   28  C   UNL     1     -11.725  12.410  65.622  1.00  0.00    -0.468 A  
HETATM   29  C   UNL     1     -12.159  13.031  66.799  1.00  0.00    -0.366 A  
ENDBRANCH  17  24
ENDBRANCH  12  15
ENDBRANCH   8   9
ENDBRANCH   7   8
ENDBRANCH   6   7
ENDBRANCH   3   6
ENDBRANCH   2   3
TORSDOF 9
ENDMDL
MODEL       12
REMARK 921   NORMALIZED FREE ENERGY PREDICTED BY IDOCK:   -5.55 KCAL/MOL
REMARK 922        TOTAL FREE ENERGY PREDICTED BY IDOCK:  -10.61 KCAL/MOL
REMARK 923 INTER-LIGAND FREE ENERGY PREDICTED BY IDOCK:   -9.35 KCAL/MOL
REMARK 924 INTRA-LIGAND FREE ENERGY PREDICTED BY IDOCK:   -1.26 KCAL/MOL
REMARK 927      BINDING AFFINITY PREDICTED BY RF-SCORE:    0.00 PKD
ROOT
HETATM    1  C   UNL     1     -10.783  16.410  69.362  1.00  0.00    -0.324 C  
HETATM    2  C   UNL     1     -10.041  17.615  68.791  1.00  0.00    -0.377 C  
ENDROOT
BRANCH   2   3
HETATM    3  N   UNL     1     -10.656  18.190  67.585  1.00  0.00    -0.420 NA 
BRANCH   3   4
HETATM    4  C   UNL     1     -10.902  19.638  67.660  1.00  0.00    -0.282 C  
HETATM    5  C   UNL     1      -9.727  20.537  67.294  1.00  0.00    -0.600 C  
ENDBRANCH   3   4
BRANCH   3   6
HETATM    6  C   UNL     1      -9.902  17.767  66.383  1.00  0.00    -0.324 C  
BRANCH   6   7
HETATM    7  C   UNL     1     -10.803  17.266  65.249  1.00  0.00     0.004 C  
BRANCH   7   8
HETATM    8  O   UNL     1     -10.386  15.967  64.805  1.00  0.00    -0.510 OA 
BRANCH   8   9
HETATM    9  C   UNL     1     -10.507  14.990  65.763  1.00  0.00    -0.337 A  
HETATM   10  C   UNL     1      -9.452  14.516  66.547  1.00  0.00    -0.310 A  
HETATM   11  C   UNL     1      -9.648  13.450  67.420  1.00  0.00    -0.223 A  
HETATM   12  C   UNL     1     -10.911  12.867  67.557  1.00  0.00    -0.256 A  
HETATM   13  C   UNL     1     -11.984  13.376  66.812  1.00  0.00    -0.447 A  
HETATM   14  C   UNL     1     -11.780  14.438  65.922  1.00  0.00    -0.371 A  
BRANCH  12  15
HETATM   15  C   UNL     1     -11.066  11.713  68.477  1.00  0.00    -0.286 C  
HETATM   16 CL   UNL     1     -10.774   9.071  69.087  1.00  0.00    -0.213 Cl 
HETATM   17  C   UNL     1     -10.538  10.511  68.135  1.00  0.00    -0.204 C  
BRANCH  15  18
HETATM   18  C   UNL     1     -11.863  11.862  69.724  1.00  0.00    -0.411 A  
HETATM   19  C   UNL     1     -12.118  13.133  70.260  1.00  0.00    -0.399 A  
HETATM   20  C   UNL     1     -12.353  10.730  70.389  1.00  0.00    -0.438 A  
HETATM   21  C   UNL     1     -13.096  10.867  71.566  1.00  0.00    -0.503 A  
HETATM   22  C   UNL     1     -12.860  13.267  71.436  1.00  0.00    -0.411 A  
HETATM   23  C   UNL     1     -13.349  12.135  72.086  1.00  0.00    -0.438 A  
ENDBRANCH  15  18
BRANCH  17  24
HETATM   24  C   UNL     1      -9.705  10.284  66.935  1.00  0.00    -0.229 A  
HETATM   25  C   UNL     1      -8.086   9.996  64.665  1.00  0.00    -0.155 A  
HETATM   26  C   UNL     1      -8.312  10.205  67.062  1.00  0.00    -0.125 A  
HETATM   27  C   UNL     1      -7.505  10.064  65.930  1.00  0.00    -0.115 A  
HETATM   28  C   UNL     1      -9.471  10.042  64.530  1.00  0.00    -0.359 A  
HETATM   29  C   UNL     1     -10.283  10.181  65.663  1.00  0.00    -0.288 A  
ENDBRANCH  17  24
ENDBRANCH  12  15
ENDBRANCH   8   9
ENDBRANCH   7   8
ENDBRANCH   6   7
ENDBRANCH   3   6
ENDBRANCH   2   3
TORSDOF 9
ENDMDL
MODEL       13
REMARK 921   NORMALIZED FREE ENERGY PREDICTED BY IDOCK:   -5.55 KCAL/MOL
REMARK 922        TOTAL FREE ENERGY PREDICTED BY IDOCK:  -10.60 KCAL/MOL
REMARK 923 INTER-LIGAND FREE ENERGY PREDICTED BY IDOCK:   -8.48 KCAL/MOL
REMARK 924 INTRA-LIGAND FREE ENERGY PREDICTED BY IDOCK:   -2.13 KCAL/MOL
REMARK 927      BINDING AFFINITY PREDICTED BY RF-SCORE:    0.00 PKD
ROOT
HETATM    1  C   UNL     1     -10.321   7.326  73.366  1.00  0.00    -0.410 C  
HETATM    2  C   UNL     1     -10.405   8.473  72.363  1.00  0.00    -0.302 C  
ENDROOT
BRANCH   2   3
HETATM    3  N   UNL     1     -11.259   8.197  71.197  1.00  0.00    -0.252 NA 
BRANCH   3   4
HETATM    4  C   UNL     1     -12.319   9.192  70.971  1.00  0.00    -0.214 C  
HETATM    5  C   UNL     1     -13.287   9.412  72.128  1.00  0.00    -0.545 C  
ENDBRANCH   3   4
BRANCH   3   6
HETATM    6  C   UNL     1     -10.419   7.927  70.009  1.00  0.00    -0.231 C  
BRANCH   6   7
HETATM    7  C   UNL     1     -10.415   9.078  68.996  1.00  0.00    -0.218 C  
BRANCH   7   8
HETATM    8  O   UNL     1      -9.373  10.016  69.298  1.00  0.00    -0.188 OA 
BRANCH   8   9
HETATM    9  C   UNL     1      -9.592  11.271  68.786  1.00  0.00    -0.151 A  
HETATM   10  C   UNL     1     -10.773  11.999  68.954  1.00  0.00    -0.222 A  
HETATM   11  C   UNL     1     -10.943  13.222  68.311  1.00  0.00    -0.280 A  
HETATM   12  C   UNL     1      -9.921  13.759  67.525  1.00  0.00    -0.233 A  
HETATM   13  C   UNL     1      -8.715  13.057  67.398  1.00  0.00    -0.205 A  
HETATM   14  C   UNL     1      -8.552  11.819  68.033  1.00  0.00    -0.158 A  
BRANCH  12  15
HETATM   15  C   UNL     1     -10.159  15.051  66.834  1.00  0.00    -0.249 C  
HETATM   16 CL   UNL     1     -10.916  16.505  64.655  1.00  0.00    -0.280 Cl 
HETATM   17  C   UNL     1     -10.713  15.053  65.595  1.00  0.00    -0.354 C  
BRANCH  15  18
HETATM   18  C   UNL     1      -9.718  16.322  67.467  1.00  0.00    -0.234 A  
HETATM   19  C   UNL     1     -10.616  17.092  68.219  1.00  0.00    -0.375 A  
HETATM   20  C   UNL     1      -8.402  16.774  67.302  1.00  0.00    -0.197 A  
HETATM   21  C   UNL     1      -7.987  17.973  67.891  1.00  0.00    -0.241 A  
HETATM   22  C   UNL     1     -10.199  18.291  68.806  1.00  0.00    -0.342 A  
HETATM   23  C   UNL     1      -8.886  18.728  68.643  1.00  0.00    -0.360 A  
ENDBRANCH  15  18
BRANCH  17  24
HETATM   24  C   UNL     1     -11.210  13.841  64.908  1.00  0.00    -0.352 A  
HETATM   25  C   UNL     1     -12.150  11.620  63.481  1.00  0.00    -0.355 A  
HETATM   26  C   UNL     1     -10.337  13.087  64.112  1.00  0.00    -0.345 A  
HETATM   27  C   UNL     1     -10.807  11.982  63.399  1.00  0.00    -0.471 A  
HETATM   28  C   UNL     1     -13.019  12.343  64.294  1.00  0.00    -0.257 A  
HETATM   29  C   UNL     1     -12.551  13.450  65.012  1.00  0.00    -0.459 A  
ENDBRANCH  17  24
ENDBRANCH  12  15
ENDBRANCH   8   9
ENDBRANCH   7   8
ENDBRANCH   6   7
ENDBRANCH   3   6
ENDBRANCH   2   3
TORSDOF 9
ENDMDL
MODEL       14
REMARK 921   NORMALIZED FREE ENERGY PREDICTED BY IDOCK:   -5.52 KCAL/MOL
REMARK 922        TOTAL FREE ENERGY PREDICTED BY IDOCK:  -10.57 KCAL/MOL
REMARK 923 INTER-LIGAND FREE ENERGY PREDICTED BY IDOCK:   -8.09 KCAL/MOL
REMARK 924 INTRA-LIGAND FREE ENERGY PREDICTED BY IDOCK:   -2.47 KCAL/MOL
REMARK 927      BINDING AFFINITY PREDICTED BY RF-SCORE:    0.00 PKD
ROOT
HETATM    1  C   UNL     1     -10.463  19.841  67.727  1.00  0.00    -0.555 C  
HETATM    2  C   UNL     1     -10.655  18.341  67.532  1.00  0.00    -0.409 C  
ENDROOT
BRANCH   2   3
HETATM    3  N   UNL     1     -10.223  17.520  68.673  1.00  0.00    -0.356 NA 
BRANCH   3   4
HETATM    4  C   UNL     1     -11.080  16.355  68.943  1.00  0.00    -0.328 C  
HETATM    5  C   UNL     1     -10.545  15.353  69.960  1.00  0.00    -0.319 C  
ENDBRANCH   3   4
BRANCH   3   6
HETATM    6  C   UNL     1      -8.784  17.195  68.545  1.00  0.00    -0.261 C  
BRANCH   6   7
HETATM    7  C   UNL     1      -8.391  16.730  67.138  1.00  0.00    -0.183 C  
BRANCH   7   8
HETATM    8  O   UNL     1      -7.479  15.624  67.206  1.00  0.00    -0.184 OA 
BRANCH   8   9
HETATM    9  C   UNL     1      -8.098  14.401  67.290  1.00  0.00    -0.187 A  
HETATM   10  C   UNL     1      -9.322  14.091  66.692  1.00  0.00    -0.292 A  
HETATM   11  C   UNL     1      -9.922  12.854  66.918  1.00  0.00    -0.238 A  
HETATM   12  C   UNL     1      -9.289  11.892  67.708  1.00  0.00    -0.184 A  
HETATM   13  C   UNL     1      -8.035  12.180  68.265  1.00  0.00    -0.163 A  
HETATM   14  C   UNL     1      -7.441  13.430  68.050  1.00  0.00    -0.139 A  
BRANCH  12  15
HETATM   15  C   UNL     1      -9.980  10.600  67.947  1.00  0.00    -0.189 C  
HETATM   16 CL   UNL     1     -10.891   8.173  67.103  1.00  0.00    -0.249 Cl 
HETATM   17  C   UNL     1     -10.003   9.664  66.965  1.00  0.00    -0.206 C  
BRANCH  15  18
HETATM   18  C   UNL     1     -10.704  10.373  69.225  1.00  0.00    -0.270 A  
HETATM   19  C   UNL     1     -10.129   9.599  70.243  1.00  0.00    -0.331 A  
HETATM   20  C   UNL     1     -11.982  10.915  69.418  1.00  0.00    -0.393 A  
HETATM   21  C   UNL     1     -12.669  10.696  70.617  1.00  0.00    -0.445 A  
HETATM   22  C   UNL     1     -10.818   9.382  71.440  1.00  0.00    -0.430 A  
HETATM   23  C   UNL     1     -12.085   9.932  71.625  1.00  0.00    -0.457 A  
ENDBRANCH  15  18
BRANCH  17  24
HETATM   24  C   UNL     1      -9.282   9.794  65.680  1.00  0.00    -0.252 A  
HETATM   25  C   UNL     1      -7.984   9.921  63.199  1.00  0.00    -0.145 A  
HETATM   26  C   UNL     1      -9.964  10.251  64.544  1.00  0.00    -0.359 A  
HETATM   27  C   UNL     1      -9.317  10.311  63.307  1.00  0.00    -0.340 A  
HETATM   28  C   UNL     1      -7.288   9.495  64.328  1.00  0.00    -0.118 A  
HETATM   29  C   UNL     1      -7.932   9.436  65.569  1.00  0.00    -0.111 A  
ENDBRANCH  17  24
ENDBRANCH  12  15
ENDBRANCH   8   9
ENDBRANCH   7   8
ENDBRANCH   6   7
ENDBRANCH   3   6
ENDBRANCH   2   3
TORSDOF 9
ENDMDL
MODEL       15
REMARK 921   NORMALIZED FREE ENERGY PREDICTED BY IDOCK:   -5.50 KCAL/MOL
REMARK 922        TOTAL FREE ENERGY PREDICTED BY IDOCK:  -10.54 KCAL/MOL
REMARK 923 INTER-LIGAND FREE ENERGY PREDICTED BY IDOCK:   -8.61 KCAL/MOL
REMARK 924 INTRA-LIGAND FREE ENERGY PREDICTED BY IDOCK:   -1.93 KCAL/MOL
REMARK 927      BINDING AFFINITY PREDICTED BY RF-SCORE:    0.00 PKD
ROOT
HETATM    1  C   UNL     1     -14.294   8.156  71.720  1.00  0.00    -0.582 C  
HETATM    2  C   UNL     1     -13.018   8.981  71.857  1.00  0.00    -0.389 C  
ENDROOT
BRANCH   2   3
HETATM    3  N   UNL     1     -11.802   8.184  72.084  1.00  0.00    -0.336 NA 
BRANCH   3   4
HETATM    4  C   UNL     1     -11.854   6.824  71.526  1.00  0.00    -0.333 C  
HETATM    5  C   UNL     1     -11.277   5.719  72.403  1.00  0.00    -0.343 C  
ENDBRANCH   3   4
BRANCH   3   6
HETATM    6  C   UNL     1     -10.608   8.960  71.679  1.00  0.00    -0.352 C  
BRANCH   6   7
HETATM    7  C   UNL     1     -10.866   9.892  70.489  1.00  0.00    -0.326 C  
BRANCH   7   8
HETATM    8  O   UNL     1      -9.634  10.246  69.846  1.00  0.00    -0.176 OA 
BRANCH   8   9
HETATM    9  C   UNL     1      -9.722  11.369  69.061  1.00  0.00    -0.012 A  
HETATM   10  C   UNL     1      -8.670  11.886  68.300  1.00  0.00    -0.170 A  
HETATM   11  C   UNL     1      -8.823  13.089  67.615  1.00  0.00    -0.191 A  
HETATM   12  C   UNL     1     -10.040  13.773  67.644  1.00  0.00    -0.242 A  
HETATM   13  C   UNL     1     -11.114  13.229  68.362  1.00  0.00    -0.299 A  
HETATM   14  C   UNL     1     -10.954  12.027  69.063  1.00  0.00    -0.260 A  
BRANCH  12  15
HETATM   15  C   UNL     1     -10.148  15.067  66.924  1.00  0.00    -0.249 C  
HETATM   16 CL   UNL     1     -10.715  16.538  64.700  1.00  0.00    -0.092 Cl 
HETATM   17  C   UNL     1     -10.663  15.093  65.669  1.00  0.00    -0.363 C  
BRANCH  15  18
HETATM   18  C   UNL     1      -9.620  16.308  67.550  1.00  0.00    -0.230 A  
HETATM   19  C   UNL     1      -8.255  16.621  67.473  1.00  0.00    -0.180 A  
HETATM   20  C   UNL     1     -10.479  17.171  68.243  1.00  0.00    -0.373 A  
HETATM   21  C   UNL     1      -9.984  18.335  68.839  1.00  0.00    -0.361 A  
HETATM   22  C   UNL     1      -7.762  17.785  68.070  1.00  0.00    -0.238 A  
HETATM   23  C   UNL     1      -8.627  18.640  68.751  1.00  0.00    -0.292 A  
ENDBRANCH  15  18
BRANCH  17  24
HETATM   24  C   UNL     1     -11.240  13.914  64.988  1.00  0.00    -0.342 A  
HETATM   25  C   UNL     1     -12.332  11.757  63.570  1.00  0.00    -0.495 A  
HETATM   26  C   UNL     1     -10.431  13.128  64.156  1.00  0.00    -0.348 A  
HETATM   27  C   UNL     1     -10.977  12.054  63.448  1.00  0.00    -0.475 A  
HETATM   28  C   UNL     1     -13.139  12.513  64.418  1.00  0.00    -0.076 A  
HETATM   29  C   UNL     1     -12.595  13.587  65.131  1.00  0.00    -0.485 A  
ENDBRANCH  17  24
ENDBRANCH  12  15
ENDBRANCH   8   9
ENDBRANCH   7   8
ENDBRANCH   6   7
ENDBRANCH   3   6
ENDBRANCH   2   3
TORSDOF 9
ENDMDL
MODEL       16
REMARK 921   NORMALIZED FREE ENERGY PREDICTED BY IDOCK:   -5.50 KCAL/MOL
REMARK 922        TOTAL FREE ENERGY PREDICTED BY IDOCK:  -10.53 KCAL/MOL
REMARK 923 INTER-LIGAND FREE ENERGY PREDICTED BY IDOCK:   -8.30 KCAL/MOL
REMARK 924 INTRA-LIGAND FREE ENERGY PREDICTED BY IDOCK:   -2.22 KCAL/MOL
REMARK 927      BINDING AFFINITY PREDICTED BY RF-SCORE:    0.00 PKD
ROOT
HETATM    1  C   UNL     1     -13.970   8.899  71.920  1.00  0.00    -0.476 C  
HETATM    2  C   UNL     1     -12.455   9.055  72.016  1.00  0.00    -0.390 C  
ENDROOT
BRANCH   2   3
HETATM    3  N   UNL     1     -11.945  10.342  71.518  1.00  0.00    -0.328 NA 
BRANCH   3   4
HETATM    4  C   UNL     1     -10.958  10.226  70.434  1.00  0.00    -0.296 C  
HETATM    5  C   UNL     1     -11.421  10.688  69.057  1.00  0.00    -0.342 C  
ENDBRANCH   3   4
BRANCH   3   6
HETATM    6  C   UNL     1     -13.074  11.249  71.215  1.00  0.00    -0.219 C  
BRANCH   6   7
HETATM    7  C   UNL     1     -13.036  12.554  72.018  1.00  0.00    -0.366 C  
BRANCH   7   8
HETATM    8  O   UNL     1     -13.461  13.660  71.209  1.00  0.00    -0.249 OA 
BRANCH   8   9
HETATM    9  C   UNL     1     -12.448  14.241  70.488  1.00  0.00    -0.361 A  
HETATM   10  C   UNL     1     -11.424  15.014  71.043  1.00  0.00    -0.344 A  
HETATM   11  C   UNL     1     -10.497  15.649  70.221  1.00  0.00    -0.277 A  
HETATM   12  C   UNL     1     -10.550  15.488  68.835  1.00  0.00    -0.240 A  
HETATM   13  C   UNL     1     -11.543  14.670  68.278  1.00  0.00    -0.353 A  
HETATM   14  C   UNL     1     -12.484  14.045  69.106  1.00  0.00     0.011 A  
BRANCH  12  15
HETATM   15  C   UNL     1      -9.561  16.209  67.995  1.00  0.00    -0.220 C  
HETATM   16 CL   UNL     1      -7.142  16.382  66.748  1.00  0.00    -0.252 Cl 
HETATM   17  C   UNL     1      -8.417  15.581  67.624  1.00  0.00    -0.166 C  
BRANCH  15  18
HETATM   18  C   UNL     1      -9.793  17.633  67.635  1.00  0.00    -0.294 A  
HETATM   19  C   UNL     1      -9.633  18.646  68.593  1.00  0.00    -0.407 A  
HETATM   20  C   UNL     1     -10.193  17.977  66.338  1.00  0.00    -0.393 A  
HETATM   21  C   UNL     1     -10.419  19.316  65.999  1.00  0.00    -0.573 A  
HETATM   22  C   UNL     1      -9.860  19.982  68.251  1.00  0.00    -0.475 A  
HETATM   23  C   UNL     1     -10.251  20.315  66.955  1.00  0.00    -0.503 A  
ENDBRANCH  15  18
BRANCH  17  24
HETATM   24  C   UNL     1      -8.123  14.160  67.909  1.00  0.00    -0.154 A  
HETATM   25  C   UNL     1      -7.437  11.484  68.382  1.00  0.00    -0.109 A  
HETATM   26  C   UNL     1      -7.198  13.830  68.910  1.00  0.00    -0.095 A  
HETATM   27  C   UNL     1      -6.855  12.496  69.143  1.00  0.00    -0.062 A  
HETATM   28  C   UNL     1      -8.381  11.799  67.407  1.00  0.00    -0.159 A  
HETATM   29  C   UNL     1      -8.729  13.134  67.173  1.00  0.00    -0.214 A  
ENDBRANCH  17  24
ENDBRANCH  12  15
ENDBRANCH   8   9
ENDBRANCH   7   8
ENDBRANCH   6   7
ENDBRANCH   3   6
ENDBRANCH   2   3
TORSDOF 9
ENDMDL
MODEL       17
REMARK 921   NORMALIZED FREE ENERGY PREDICTED BY IDOCK:   -5.47 KCAL/MOL
REMARK 922        TOTAL FREE ENERGY PREDICTED BY IDOCK:  -10.49 KCAL/MOL
REMARK 923 INTER-LIGAND FREE ENERGY PREDICTED BY IDOCK:   -9.10 KCAL/MOL
REMARK 924 INTRA-LIGAND FREE ENERGY PREDICTED BY IDOCK:   -1.39 KCAL/MOL
REMARK 927      BINDING AFFINITY PREDICTED BY RF-SCORE:    0.00 PKD
ROOT
HETATM    1  C   UNL     1      -7.608   7.938  63.497  1.00  0.00    -0.130 C  
HETATM    2  C   UNL     1      -7.849   9.049  64.515  1.00  0.00    -0.123 C  
ENDROOT
BRANCH   2   3
HETATM    3  N   UNL     1      -9.240   9.523  64.578  1.00  0.00    -0.216 NA 
BRANCH   3   4
HETATM    4  C   UNL     1      -9.703   9.871  65.930  1.00  0.00    -0.262 C  
HETATM    5  C   UNL     1     -10.199   8.711  66.785  1.00  0.00    -0.361 C  
ENDBRANCH   3   4
BRANCH   3   6
HETATM    6  C   UNL     1      -9.455  10.588  63.572  1.00  0.00    -0.312 C  
BRANCH   6   7
HETATM    7  C   UNL     1     -10.759  11.366  63.783  1.00  0.00    -0.403 C  
BRANCH   7   8
HETATM    8  O   UNL     1     -10.499  12.772  63.896  1.00  0.00    -0.418 OA 
BRANCH   8   9
HETATM    9  C   UNL     1     -10.665  13.266  65.167  1.00  0.00    -0.322 A  
HETATM   10  C   UNL     1      -9.636  13.401  66.104  1.00  0.00    -0.216 A  
HETATM   11  C   UNL     1      -9.919  13.815  67.403  1.00  0.00    -0.237 A  
HETATM   12  C   UNL     1     -11.224  14.144  67.775  1.00  0.00    -0.307 A  
HETATM   13  C   UNL     1     -12.249  14.062  66.823  1.00  0.00    -0.439 A  
HETATM   14  C   UNL     1     -11.965  13.630  65.521  1.00  0.00    -0.409 A  
BRANCH  12  15
HETATM   15  C   UNL     1     -11.483  14.552  69.179  1.00  0.00    -0.324 C  
HETATM   16 CL   UNL     1     -11.214  16.288  71.264  1.00  0.00    -0.257 Cl 
HETATM   17  C   UNL     1     -11.068  15.770  69.608  1.00  0.00    -0.307 C  
BRANCH  15  18
HETATM   18  C   UNL     1     -12.121  13.596  70.121  1.00  0.00    -0.431 A  
HETATM   19  C   UNL     1     -11.884  12.218  70.010  1.00  0.00    -0.372 A  
HETATM   20  C   UNL     1     -12.985  14.060  71.122  1.00  0.00    -0.402 A  
HETATM   21  C   UNL     1     -13.593  13.162  72.005  1.00  0.00    -0.554 A  
HETATM   22  C   UNL     1     -12.493  11.322  70.894  1.00  0.00    -0.493 A  
HETATM   23  C   UNL     1     -13.345  11.796  71.890  1.00  0.00    -0.401 A  
ENDBRANCH  15  18
BRANCH  17  24
HETATM   24  C   UNL     1     -10.458  16.792  68.730  1.00  0.00    -0.338 A  
HETATM   25  C   UNL     1      -9.290  18.818  67.184  1.00  0.00    -0.315 A  
HETATM   26  C   UNL     1      -9.080  17.041  68.808  1.00  0.00    -0.252 A  
HETATM   27  C   UNL     1      -8.500  18.053  68.039  1.00  0.00    -0.263 A  
HETATM   28  C   UNL     1     -10.654  18.558  67.075  1.00  0.00    -0.421 A  
HETATM   29  C   UNL     1     -11.239  17.544  67.843  1.00  0.00     0.190 A  
ENDBRANCH  17  24
ENDBRANCH  12  15
ENDBRANCH   8   9
ENDBRANCH   7   8
ENDBRANCH   6   7
ENDBRANCH   3   6
ENDBRANCH   2   3
TORSDOF 9
ENDMDL
MODEL       18
REMARK 921   NORMALIZED FREE ENERGY PREDICTED BY IDOCK:   -5.46 KCAL/MOL
REMARK 922        TOTAL FREE ENERGY PREDICTED BY IDOCK:  -10.47 KCAL/MOL
REMARK 923 INTER-LIGAND FREE ENERGY PREDICTED BY IDOCK:   -8.01 KCAL/MOL
REMARK 924 INTRA-LIGAND FREE ENERGY PREDICTED BY IDOCK:   -2.47 KCAL/MOL
REMARK 927      BINDING AFFINITY PREDICTED BY RF-SCORE:    0.00 PKD
ROOT
HETATM    1  C   UNL     1      -9.257   5.478  70.711  1.00  0.00    -0.179 C  
HETATM    2  C   UNL     1     -10.691   5.521  71.229  1.00  0.00    -0.218 C  
ENDROOT
BRANCH   2   3
HETATM    3  N   UNL     1     -10.837   5.143  72.643  1.00  0.00    -0.238 NA 
BRANCH   3   4
HETATM    4  C   UNL     1     -10.174   3.883  73.008  1.00  0.00    -0.160 C  
HETATM    5  C   UNL     1     -11.085   2.767  73.504  1.00  0.00    -0.315 C  
ENDBRANCH   3   4
BRANCH   3   6
HETATM    6  C   UNL     1     -10.480   6.289  73.510  1.00  0.00    -0.271 C  
BRANCH   6   7
HETATM    7  C   UNL     1     -11.066   7.620  73.027  1.00  0.00    -0.381 C  
BRANCH   7   8
HETATM    8  O   UNL     1     -10.022   8.561  72.742  1.00  0.00    -0.258 OA 
BRANCH   8   9
HETATM    9  C   UNL     1     -10.109   9.125  71.493  1.00  0.00    -0.311 A  
HETATM   10  C   UNL     1     -11.297   9.575  70.910  1.00  0.00    -0.410 A  
HETATM   11  C   UNL     1     -11.304  10.038  69.597  1.00  0.00    -0.253 A  
HETATM   12  C   UNL     1     -10.120  10.101  68.859  1.00  0.00    -0.211 A  
HETATM   13  C   UNL     1      -8.918   9.701  69.459  1.00  0.00    -0.203 A  
HETATM   14  C   UNL     1      -8.915   9.220  70.775  1.00  0.00    -0.292 A  
BRANCH  12  15
HETATM   15  C   UNL     1     -10.180  10.572  67.453  1.00  0.00    -0.253 C  
HETATM   16 CL   UNL     1      -9.906  10.168  64.771  1.00  0.00    -0.398 Cl 
HETATM   17  C   UNL     1      -9.978   9.689  66.443  1.00  0.00    -0.255 C  
BRANCH  15  18
HETATM   18  C   UNL     1     -10.383  12.016  67.165  1.00  0.00    -0.235 A  
HETATM   19  C   UNL     1     -11.667  12.518  66.903  1.00  0.00    -0.447 A  
HETATM   20  C   UNL     1      -9.289  12.891  67.132  1.00  0.00    -0.229 A  
HETATM   21  C   UNL     1      -9.477  14.249  66.853  1.00  0.00    -0.272 A  
HETATM   22  C   UNL     1     -11.851  13.875  66.624  1.00  0.00    -0.447 A  
HETATM   23  C   UNL     1     -10.757  14.738  66.602  1.00  0.00    -0.309 A  
ENDBRANCH  15  18
BRANCH  17  24
HETATM   24  C   UNL     1      -9.804   8.233  66.640  1.00  0.00    -0.337 A  
HETATM   25  C   UNL     1      -9.471   5.499  67.156  1.00  0.00    -0.122 A  
HETATM   26  C   UNL     1     -10.878   7.462  67.104  1.00  0.00    -0.340 A  
HETATM   27  C   UNL     1     -10.711   6.100  67.363  1.00  0.00    -0.403 A  
HETATM   28  C   UNL     1      -8.405   6.249  66.666  1.00  0.00    -0.112 A  
HETATM   29  C   UNL     1      -8.570   7.614  66.402  1.00  0.00    -0.149 A  
ENDBRANCH  17  24
ENDBRANCH  12  15
ENDBRANCH   8   9
ENDBRANCH   7   8
ENDBRANCH   6   7
ENDBRANCH   3   6
ENDBRANCH   2   3
TORSDOF 9
ENDMDL
MODEL       19
REMARK 921   NORMALIZED FREE ENERGY PREDICTED BY IDOCK:   -5.39 KCAL/MOL
REMARK 922        TOTAL FREE ENERGY PREDICTED BY IDOCK:  -10.36 KCAL/MOL
REMARK 923 INTER-LIGAND FREE ENERGY PREDICTED BY IDOCK:   -8.84 KCAL/MOL
REMARK 924 INTRA-LIGAND FREE ENERGY PREDICTED BY IDOCK:   -1.53 KCAL/MOL
REMARK 927      BINDING AFFINITY PREDICTED BY RF-SCORE:    0.00 PKD
ROOT
HETATM    1  C   UNL     1     -11.183   4.219  73.370  1.00  0.00    -0.361 C  
HETATM    2  C   UNL     1     -10.370   5.183  72.510  1.00  0.00    -0.204 C  
ENDROOT
BRANCH   2   3
HETATM    3  N   UNL     1     -11.134   5.825  71.430  1.00  0.00    -0.242 NA 
BRANCH   3   4
HETATM    4  C   UNL     1     -11.895   7.013  71.845  1.00  0.00    -0.305 C  
HETATM    5  C   UNL     1     -11.166   7.985  72.765  1.00  0.00    -0.448 C  
ENDBRANCH   3   4
BRANCH   3   6
HETATM    6  C   UNL     1     -10.260   6.045  70.256  1.00  0.00    -0.208 C  
BRANCH   6   7
HETATM    7  C   UNL     1     -10.746   7.177  69.343  1.00  0.00    -0.231 C  
BRANCH   7   8
HETATM    8  O   UNL     1      -9.710   8.149  69.145  1.00  0.00    -0.160 OA 
BRANCH   8   9
HETATM    9  C   UNL     1     -10.164   9.445  69.115  1.00  0.00    -0.202 A  
HETATM   10  C   UNL     1      -9.361  10.559  68.857  1.00  0.00    -0.192 A  
HETATM   11  C   UNL     1      -9.889  11.843  68.949  1.00  0.00     0.008 A  
HETATM   12  C   UNL     1     -11.238  12.036  69.257  1.00  0.00    -0.291 A  
HETATM   13  C   UNL     1     -12.060  10.919  69.463  1.00  0.00    -0.380 A  
HETATM   14  C   UNL     1     -11.522   9.628  69.385  1.00  0.00     0.048 A  
BRANCH  12  15
HETATM   15  C   UNL     1     -11.751  13.424  69.375  1.00  0.00    -0.382 C  
HETATM   16 CL   UNL     1     -12.274  15.888  68.331  1.00  0.00     0.175 Cl 
HETATM   17  C   UNL     1     -11.806  14.211  68.272  1.00  0.00    -0.356 C  
BRANCH  15  18
HETATM   18  C   UNL     1     -12.123  13.965  70.709  1.00  0.00    -0.404 A  
HETATM   19  C   UNL     1     -11.360  14.978  71.306  1.00  0.00    -0.315 A  
HETATM   20  C   UNL     1     -13.233  13.451  71.395  1.00  0.00    -0.329 A  
HETATM   21  C   UNL     1     -13.581  13.953  72.653  1.00  0.00    -0.626 A  
HETATM   22  C   UNL     1     -11.710  15.478  72.564  1.00  0.00    -0.569 A  
HETATM   23  C   UNL     1     -12.820  14.966  73.234  1.00  0.00    -0.646 A  
ENDBRANCH  15  18
BRANCH  17  24
HETATM   24  C   UNL     1     -11.488  13.744  66.905  1.00  0.00    -0.368 A  
HETATM   25  C   UNL     1     -10.949  12.980  64.263  1.00  0.00    -0.427 A  
HETATM   26  C   UNL     1     -10.451  14.355  66.186  1.00  0.00    -0.295 A  
HETATM   27  C   UNL     1     -10.185  13.976  64.869  1.00  0.00    -0.377 A  
HETATM   28  C   UNL     1     -11.961  12.344  64.978  1.00  0.00    -0.458 A  
HETATM   29  C   UNL     1     -12.228  12.721  66.300  1.00  0.00    -0.289 A  
ENDBRANCH  17  24
ENDBRANCH  12  15
ENDBRANCH   8   9
ENDBRANCH   7   8
ENDBRANCH   6   7
ENDBRANCH   3   6
ENDBRANCH   2   3
TORSDOF 9
ENDMDL
MODEL       20
REMARK 921   NORMALIZED FREE ENERGY PREDICTED BY IDOCK:   -5.37 KCAL/MOL
REMARK 922        TOTAL FREE ENERGY PREDICTED BY IDOCK:  -10.34 KCAL/MOL
REMARK 923 INTER-LIGAND FREE ENERGY PREDICTED BY IDOCK:   -8.40 KCAL/MOL
REMARK 924 INTRA-LIGAND FREE ENERGY PREDICTED BY IDOCK:   -1.94 KCAL/MOL
REMARK 927      BINDING AFFINITY PREDICTED BY RF-SCORE:    0.00 PKD
ROOT
HETATM    1  C   UNL     1     -10.165  15.247  65.639  1.00  0.00    -0.398 C  
HETATM    2  C   UNL     1     -10.383  13.937  64.888  1.00  0.00    -0.406 C  
ENDROOT
BRANCH   2   3
HETATM    3  N   UNL     1     -11.019  12.878  65.686  1.00  0.00    -0.268 NA 
BRANCH   3   4
HETATM    4  C   UNL     1     -12.278  12.365  65.124  1.00  0.00    -0.384 C  
HETATM    5  C   UNL     1     -12.306  12.174  63.613  1.00  0.00    -0.673 C  
ENDBRANCH   3   4
BRANCH   3   6
HETATM    6  C   UNL     1     -10.028  11.826  66.010  1.00  0.00    -0.229 C  
BRANCH   6   7
HETATM    7  C   UNL     1     -10.567  10.761  66.972  1.00  0.00    -0.260 C  
BRANCH   7   8
HETATM    8  O   UNL     1     -10.221   9.446  66.518  1.00  0.00    -0.258 OA 
BRANCH   8   9
HETATM    9  C   UNL     1     -10.178   8.507  67.520  1.00  0.00    -0.242 A  
HETATM   10  C   UNL     1     -10.857   7.286  67.489  1.00  0.00    -0.284 A  
HETATM   11  C   UNL     1     -10.836   6.442  68.597  1.00  0.00    -0.379 A  
HETATM   12  C   UNL     1     -10.103   6.783  69.736  1.00  0.00    -0.198 A  
HETATM   13  C   UNL     1      -9.377   7.982  69.749  1.00  0.00    -0.159 A  
HETATM   14  C   UNL     1      -9.412   8.837  68.640  1.00  0.00    -0.143 A  
BRANCH  12  15
HETATM   15  C   UNL     1     -10.135   5.868  70.904  1.00  0.00    -0.251 C  
HETATM   16 CL   UNL     1     -11.044   5.159  73.375  1.00  0.00    -0.376 Cl 
HETATM   17  C   UNL     1     -11.015   6.101  71.910  1.00  0.00    -0.263 C  
BRANCH  15  18
HETATM   18  C   UNL     1      -9.154   4.755  70.999  1.00  0.00    -0.177 A  
HETATM   19  C   UNL     1      -9.480   3.475  70.528  1.00  0.00    -0.249 A  
HETATM   20  C   UNL     1      -7.897   4.968  71.581  1.00  0.00    -0.108 A  
HETATM   21  C   UNL     1      -6.976   3.920  71.678  1.00  0.00    -0.031 A  
HETATM   22  C   UNL     1      -8.558   2.429  70.627  1.00  0.00    -0.100 A  
HETATM   23  C   UNL     1      -7.307   2.654  71.200  1.00  0.00    -0.033 A  
ENDBRANCH  15  18
BRANCH  17  24
HETATM   24  C   UNL     1     -12.044   7.162  71.880  1.00  0.00    -0.357 A  
HETATM   25  C   UNL     1     -14.003   9.165  71.970  1.00  0.00    -0.434 A  
HETATM   26  C   UNL     1     -11.711   8.463  72.281  1.00  0.00    -0.453 A  
HETATM   27  C   UNL     1     -12.689   9.460  72.328  1.00  0.00    -0.416 A  
HETATM   28  C   UNL     1     -14.338   7.883  71.541  1.00  0.00    -0.563 A  
HETATM   29  C   UNL     1     -13.360   6.882  71.490  1.00  0.00    -0.303 A  
ENDBRANCH  17  24
ENDBRANCH  12  15
ENDBRANCH   8   9
ENDBRANCH   7   8
ENDBRANCH   6   7
ENDBRANCH   3   6
ENDBRANCH   2   3
TORSDOF 9
ENDMDL
MODEL       21
REMARK 921   NORMALIZED FREE ENERGY PREDICTED BY IDOCK:   -5.35 KCAL/MOL
REMARK 922        TOTAL FREE ENERGY PREDICTED BY IDOCK:  -10.30 KCAL/MOL
REMARK 923 INTER-LIGAND FREE ENERGY PREDICTED BY IDOCK:   -7.42 KCAL/MOL
REMARK 924 INTRA-LIGAND FREE ENERGY PREDICTED BY IDOCK:   -2.88 KCAL/MOL
REMARK 927      BINDING AFFINITY PREDICTED BY RF-SCORE:    0.00 PKD
ROOT
HETATM    1  C   UNL     1     -12.783   6.864  71.134  1.00  0.00    -0.331 C  
HETATM    2  C   UNL     1     -11.868   6.536  72.310  1.00  0.00    -0.258 C  
ENDROOT
BRANCH   2   3
HETATM    3  N   UNL     1     -10.653   5.791  71.946  1.00  0.00    -0.225 NA 
BRANCH   3   4
HETATM    4  C   UNL     1     -10.455   5.623  70.498  1.00  0.00    -0.277 C  
HETATM    5  C   UNL     1      -9.008   5.582  70.021  1.00  0.00    -0.149 C  
ENDBRANCH   3   4
BRANCH   3   6
HETATM    6  C   UNL     1      -9.483   6.356  72.655  1.00  0.00    -0.148 C  
BRANCH   6   7
HETATM    7  C   UNL     1      -9.685   7.811  73.093  1.00  0.00    -0.285 C  
BRANCH   7   8
HETATM    8  O   UNL     1      -8.691   8.661  72.504  1.00  0.00    -0.360 OA 
BRANCH   8   9
HETATM    9  C   UNL     1      -8.998   9.072  71.229  1.00  0.00    -0.211 A  
HETATM   10  C   UNL     1      -8.074   9.167  70.185  1.00  0.00    -0.145 A  
HETATM   11  C   UNL     1      -8.457   9.693  68.954  1.00  0.00    -0.125 A  
HETATM   12  C   UNL     1      -9.777  10.091  68.731  1.00  0.00    -0.174 A  
HETATM   13  C   UNL     1     -10.719   9.946  69.759  1.00  0.00    -0.298 A  
HETATM   14  C   UNL     1     -10.328   9.432  71.002  1.00  0.00    -0.382 A  
BRANCH  12  15
HETATM   15  C   UNL     1     -10.132  10.673  67.413  1.00  0.00    -0.231 C  
HETATM   16 CL   UNL     1     -10.421  10.495  64.707  1.00  0.00    -0.306 Cl 
HETATM   17  C   UNL     1     -10.140   9.880  66.312  1.00  0.00    -0.241 C  
BRANCH  15  18
HETATM   18  C   UNL     1     -10.399  12.131  67.296  1.00  0.00    -0.230 A  
HETATM   19  C   UNL     1     -11.709  12.626  67.385  1.00  0.00    -0.432 A  
HETATM   20  C   UNL     1      -9.345  13.027  67.075  1.00  0.00    -0.236 A  
HETATM   21  C   UNL     1      -9.595  14.399  66.957  1.00  0.00    -0.251 A  
HETATM   22  C   UNL     1     -11.955  13.997  67.266  1.00  0.00    -0.448 A  
HETATM   23  C   UNL     1     -10.898  14.880  67.054  1.00  0.00    -0.315 A  
ENDBRANCH  15  18
BRANCH  17  24
HETATM   24  C   UNL     1      -9.920   8.418  66.344  1.00  0.00    -0.291 A  
HETATM   25  C   UNL     1      -9.535   5.643  66.262  1.00  0.00    -0.171 A  
HETATM   26  C   UNL     1      -8.752   7.879  65.787  1.00  0.00    -0.163 A  
HETATM   27  C   UNL     1      -8.562   6.496  65.744  1.00  0.00    -0.149 A  
HETATM   28  C   UNL     1     -10.685   6.169  66.846  1.00  0.00    -0.413 A  
HETATM   29  C   UNL     1     -10.877   7.555  66.893  1.00  0.00    -0.174 A  
ENDBRANCH  17  24
ENDBRANCH  12  15
ENDBRANCH   8   9
ENDBRANCH   7   8
ENDBRANCH   6   7
ENDBRANCH   3   6
ENDBRANCH   2   3
TORSDOF 9
ENDMDL
MODEL       22
REMARK 921   NORMALIZED FREE ENERGY PREDICTED BY IDOCK:   -5.34 KCAL/MOL
REMARK 922        TOTAL FREE ENERGY PREDICTED BY IDOCK:  -10.28 KCAL/MOL
REMARK 923 INTER-LIGAND FREE ENERGY PREDICTED BY IDOCK:   -8.19 KCAL/MOL
REMARK 924 INTRA-LIGAND FREE ENERGY PREDICTED BY IDOCK:   -2.09 KCAL/MOL
REMARK 927      BINDING AFFINITY PREDICTED BY RF-SCORE:    0.00 PKD
ROOT
HETATM    1  C   UNL     1     -11.774  12.195  68.519  1.00  0.00    -0.382 C  
HETATM    2  C   UNL     1     -11.668  12.950  67.198  1.00  0.00    -0.377 C  
ENDROOT
BRANCH   2   3
HETATM    3  N   UNL     1     -11.814  12.105  66.002  1.00  0.00    -0.561 NA 
BRANCH   3   4
HETATM    4  C   UNL     1     -12.666  12.681  64.951  1.00  0.00    -0.370 C  
HETATM    5  C   UNL     1     -12.441  12.149  63.541  1.00  0.00    -0.666 C  
ENDBRANCH   3   4
BRANCH   3   6
HETATM    6  C   UNL     1     -10.482  11.668  65.529  1.00  0.00    -0.273 C  
BRANCH   6   7
HETATM    7  C   UNL     1     -10.142  10.226  65.923  1.00  0.00    -0.251 C  
BRANCH   7   8
HETATM    8  O   UNL     1      -9.135  10.202  66.943  1.00  0.00    -0.141 OA 
BRANCH   8   9
HETATM    9  C   UNL     1      -9.389   9.305  67.952  1.00  0.00    -0.129 A  
HETATM   10  C   UNL     1      -8.712   9.276  69.174  1.00  0.00    -0.139 A  
HETATM   11  C   UNL     1      -8.967   8.264  70.096  1.00  0.00    -0.142 A  
HETATM   12  C   UNL     1      -9.933   7.291  69.832  1.00  0.00    -0.183 A  
HETATM   13  C   UNL     1     -10.653   7.348  68.630  1.00  0.00    -0.182 A  
HETATM   14  C   UNL     1     -10.383   8.358  67.698  1.00  0.00    -0.317 A  
BRANCH  12  15
HETATM   15  C   UNL     1     -10.150   6.213  70.830  1.00  0.00    -0.238 C  
HETATM   16 CL   UNL     1     -11.372   5.207  73.050  1.00  0.00    -0.385 Cl 
HETATM   17  C   UNL     1     -11.123   6.356  71.765  1.00  0.00    -0.265 C  
BRANCH  15  18
HETATM   18  C   UNL     1      -9.253   5.028  70.847  1.00  0.00    -0.192 A  
HETATM   19  C   UNL     1      -8.124   5.000  71.679  1.00  0.00    -0.114 A  
HETATM   20  C   UNL     1      -9.515   3.932  70.015  1.00  0.00    -0.263 A  
HETATM   21  C   UNL     1      -8.667   2.819  70.024  1.00  0.00    -0.126 A  
HETATM   22  C   UNL     1      -7.279   3.887  71.685  1.00  0.00    -0.046 A  
HETATM   23  C   UNL     1      -7.552   2.798  70.859  1.00  0.00    -0.036 A  
ENDBRANCH  15  18
BRANCH  17  24
HETATM   24  C   UNL     1     -12.080   7.483  71.799  1.00  0.00    -0.340 A  
HETATM   25  C   UNL     1     -13.898   9.614  71.717  1.00  0.00    -0.261 A  
HETATM   26  C   UNL     1     -13.437   7.249  71.539  1.00  0.00    -0.439 A  
HETATM   27  C   UNL     1     -14.342   8.312  71.496  1.00  0.00    -0.525 A  
HETATM   28  C   UNL     1     -12.557   9.855  72.007  1.00  0.00    -0.410 A  
HETATM   29  C   UNL     1     -11.648   8.791  72.053  1.00  0.00    -0.436 A  
ENDBRANCH  17  24
ENDBRANCH  12  15
ENDBRANCH   8   9
ENDBRANCH   7   8
ENDBRANCH   6   7
ENDBRANCH   3   6
ENDBRANCH   2   3
TORSDOF 9
ENDMDL
MODEL       23
REMARK 921   NORMALIZED FREE ENERGY PREDICTED BY IDOCK:   -5.32 KCAL/MOL
REMARK 922        TOTAL FREE ENERGY PREDICTED BY IDOCK:  -10.26 KCAL/MOL
REMARK 923 INTER-LIGAND FREE ENERGY PREDICTED BY IDOCK:   -7.73 KCAL/MOL
REMARK 924 INTRA-LIGAND FREE ENERGY PREDICTED BY IDOCK:   -2.53 KCAL/MOL
REMARK 927      BINDING AFFINITY PREDICTED BY RF-SCORE:    0.00 PKD
ROOT
HETATM    1  C   UNL     1      -9.914   4.502  66.452  1.00  0.00    -0.267 C  
HETATM    2  C   UNL     1      -8.537   5.124  66.242  1.00  0.00    -0.114 C  
ENDROOT
BRANCH   2   3
HETATM    3  N   UNL     1      -8.472   6.565  66.532  1.00  0.00    -0.116 NA 
BRANCH   3   4
HETATM    4  C   UNL     1      -8.104   6.890  67.918  1.00  0.00    -0.114 C  
HETATM    5  C   UNL     1      -9.231   7.408  68.804  1.00  0.00    -0.144 C  
ENDBRANCH   3   4
BRANCH   3   6
HETATM    6  C   UNL     1      -7.645   7.247  65.511  1.00  0.00    -0.097 C  
BRANCH   6   7
HETATM    7  C   UNL     1      -8.374   8.402  64.814  1.00  0.00    -0.141 C  
BRANCH   7   8
HETATM    8  O   UNL     1      -7.927   9.666  65.324  1.00  0.00    -0.108 OA 
BRANCH   8   9
HETATM    9  C   UNL     1      -8.714  10.166  66.332  1.00  0.00    -0.130 A  
HETATM   10  C   UNL     1      -8.226  10.823  67.465  1.00  0.00    -0.112 A  
HETATM   11  C   UNL     1      -9.093  11.205  68.485  1.00  0.00    -0.175 A  
HETATM   12  C   UNL     1     -10.467  10.977  68.372  1.00  0.00    -0.203 A  
HETATM   13  C   UNL     1     -10.966  10.368  67.213  1.00  0.00    -0.306 A  
HETATM   14  C   UNL     1     -10.090   9.970  66.195  1.00  0.00    -0.317 A  
BRANCH  12  15
HETATM   15  C   UNL     1     -11.349  11.374  69.497  1.00  0.00    -0.357 C  
HETATM   16 CL   UNL     1     -12.620  13.257  71.004  1.00  0.00    -0.435 Cl 
HETATM   17  C   UNL     1     -11.694  12.677  69.648  1.00  0.00    -0.303 C  
BRANCH  15  18
HETATM   18  C   UNL     1     -11.783  10.357  70.491  1.00  0.00    -0.434 A  
HETATM   19  C   UNL     1     -13.143  10.179  70.783  1.00  0.00    -0.351 A  
HETATM   20  C   UNL     1     -10.834   9.576  71.164  1.00  0.00    -0.425 A  
HETATM   21  C   UNL     1     -11.239   8.624  72.105  1.00  0.00    -0.438 A  
HETATM   22  C   UNL     1     -13.546   9.227  71.724  1.00  0.00    -0.465 A  
HETATM   23  C   UNL     1     -12.594   8.451  72.382  1.00  0.00    -0.372 A  
ENDBRANCH  15  18
BRANCH  17  24
HETATM   24  C   UNL     1     -11.336  13.744  68.690  1.00  0.00    -0.321 A  
HETATM   25  C   UNL     1     -10.587  15.666  66.792  1.00  0.00    -0.307 A  
HETATM   26  C   UNL     1     -11.996  13.820  67.456  1.00  0.00    -0.411 A  
HETATM   27  C   UNL     1     -11.621  14.776  66.509  1.00  0.00    -0.306 A  
HETATM   28  C   UNL     1      -9.944  15.621  68.027  1.00  0.00    -0.222 A  
HETATM   29  C   UNL     1     -10.320  14.665  68.978  1.00  0.00    -0.237 A  
ENDBRANCH  17  24
ENDBRANCH  12  15
ENDBRANCH   8   9
ENDBRANCH   7   8
ENDBRANCH   6   7
ENDBRANCH   3   6
ENDBRANCH   2   3
TORSDOF 9
ENDMDL
MODEL       24
REMARK 921   NORMALIZED FREE ENERGY PREDICTED BY IDOCK:   -5.30 KCAL/MOL
REMARK 922        TOTAL FREE ENERGY PREDICTED BY IDOCK:  -10.23 KCAL/MOL
REMARK 923 INTER-LIGAND FREE ENERGY PREDICTED BY IDOCK:   -8.19 KCAL/MOL
REMARK 924 INTRA-LIGAND FREE ENERGY PREDICTED BY IDOCK:   -2.04 KCAL/MOL
REMARK 927      BINDING AFFINITY PREDICTED BY RF-SCORE:    0.00 PKD
ROOT
HETATM    1  C   UNL     1     -11.675  12.762  63.865  1.00  0.00    -0.530 C  
HETATM    2  C   UNL     1     -12.219  12.523  65.271  1.00  0.00    -0.433 C  
ENDROOT
BRANCH   2   3
HETATM    3  N   UNL     1     -11.212  12.631  66.338  1.00  0.00    -0.291 NA 
BRANCH   3   4
HETATM    4  C   UNL     1     -11.307  13.859  67.141  1.00  0.00    -0.327 C  
HETATM    5  C   UNL     1     -11.872  13.696  68.547  1.00  0.00    -0.406 C  
ENDBRANCH   3   4
BRANCH   3   6
HETATM    6  C   UNL     1     -11.189  11.385  67.137  1.00  0.00    -0.296 C  
BRANCH   6   7
HETATM    7  C   UNL     1     -10.005  10.471  66.800  1.00  0.00    -0.204 C  
BRANCH   7   8
HETATM    8  O   UNL     1     -10.462   9.160  66.440  1.00  0.00    -0.213 OA 
BRANCH   8   9
HETATM    9  C   UNL     1     -10.411   8.253  67.470  1.00  0.00    -0.265 A  
HETATM   10  C   UNL     1     -11.150   7.068  67.518  1.00  0.00    -0.231 A  
HETATM   11  C   UNL     1     -11.111   6.260  68.651  1.00  0.00    -0.409 A  
HETATM   12  C   UNL     1     -10.300   6.599  69.737  1.00  0.00    -0.226 A  
HETATM   13  C   UNL     1      -9.515   7.758  69.670  1.00  0.00    -0.156 A  
HETATM   14  C   UNL     1      -9.568   8.578  68.535  1.00  0.00    -0.158 A  
BRANCH  12  15
HETATM   15  C   UNL     1     -10.313   5.724  70.936  1.00  0.00    -0.299 C  
HETATM   16 CL   UNL     1     -11.136   5.131  73.467  1.00  0.00    -0.378 Cl 
HETATM   17  C   UNL     1     -11.138   6.022  71.971  1.00  0.00    -0.274 C  
BRANCH  15  18
HETATM   18  C   UNL     1      -9.371   4.577  71.026  1.00  0.00    -0.214 A  
HETATM   19  C   UNL     1      -8.093   4.746  71.579  1.00  0.00    -0.103 A  
HETATM   20  C   UNL     1      -9.743   3.317  70.541  1.00  0.00    -0.138 A  
HETATM   21  C   UNL     1      -8.856   2.238  70.618  1.00  0.00    -0.133 A  
HETATM   22  C   UNL     1      -7.208   3.667  71.655  1.00  0.00    -0.039 A  
HETATM   23  C   UNL     1      -7.591   2.415  71.176  1.00  0.00    -0.032 A  
ENDBRANCH  15  18
BRANCH  17  24
HETATM   24  C   UNL     1     -12.128   7.121  71.950  1.00  0.00    -0.357 A  
HETATM   25  C   UNL     1     -13.994   9.203  71.764  1.00  0.00    -0.372 A  
HETATM   26  C   UNL     1     -13.443   6.862  71.539  1.00  0.00    -0.290 A  
HETATM   27  C   UNL     1     -14.372   7.901  71.444  1.00  0.00    -0.502 A  
HETATM   28  C   UNL     1     -12.699   9.467  72.204  1.00  0.00    -0.460 A  
HETATM   29  C   UNL     1     -11.767   8.427  72.302  1.00  0.00    -0.453 A  
ENDBRANCH  17  24
ENDBRANCH  12  15
ENDBRANCH   8   9
ENDBRANCH   7   8
ENDBRANCH   6   7
ENDBRANCH   3   6
ENDBRANCH   2   3
TORSDOF 9
ENDMDL
MODEL       25
REMARK 921   NORMALIZED FREE ENERGY PREDICTED BY IDOCK:   -5.27 KCAL/MOL
REMARK 922        TOTAL FREE ENERGY PREDICTED BY IDOCK:  -10.18 KCAL/MOL
REMARK 923 INTER-LIGAND FREE ENERGY PREDICTED BY IDOCK:   -7.58 KCAL/MOL
REMARK 924 INTRA-LIGAND FREE ENERGY PREDICTED BY IDOCK:   -2.60 KCAL/MOL
REMARK 927      BINDING AFFINITY PREDICTED BY RF-SCORE:    0.00 PKD
ROOT
HETATM    1  C   UNL     1     -10.647   5.632  70.729  1.00  0.00    -0.335 C  
HETATM    2  C   UNL     1     -11.265   5.765  72.117  1.00  0.00    -0.269 C  
ENDROOT
BRANCH   2   3
HETATM    3  N   UNL     1     -10.295   6.026  73.191  1.00  0.00    -0.200 NA 
BRANCH   3   4
HETATM    4  C   UNL     1     -10.366   5.083  74.318  1.00  0.00    -0.279 C  
HETATM    5  C   UNL     1     -10.795   3.662  73.974  1.00  0.00    -0.269 C  
ENDBRANCH   3   4
BRANCH   3   6
HETATM    6  C   UNL     1      -8.939   6.184  72.619  1.00  0.00    -0.130 C  
BRANCH   6   7
HETATM    7  C   UNL     1      -8.278   7.517  72.985  1.00  0.00    -0.116 C  
BRANCH   7   8
HETATM    8  O   UNL     1      -9.202   8.602  72.826  1.00  0.00    -0.293 OA 
BRANCH   8   9
HETATM    9  C   UNL     1      -9.374   8.997  71.522  1.00  0.00    -0.224 A  
HETATM   10  C   UNL     1      -8.336   9.158  70.601  1.00  0.00    -0.239 A  
HETATM   11  C   UNL     1      -8.596   9.662  69.329  1.00  0.00    -0.153 A  
HETATM   12  C   UNL     1      -9.901   9.973  68.942  1.00  0.00    -0.187 A  
HETATM   13  C   UNL     1     -10.952   9.762  69.845  1.00  0.00    -0.299 A  
HETATM   14  C   UNL     1     -10.686   9.270  71.129  1.00  0.00    -0.403 A  
BRANCH  12  15
HETATM   15  C   UNL     1     -10.127  10.537  67.587  1.00  0.00    -0.211 C  
HETATM   16 CL   UNL     1     -10.157  10.318  64.870  1.00  0.00    -0.396 Cl 
HETATM   17  C   UNL     1     -10.032   9.727  66.503  1.00  0.00    -0.239 C  
BRANCH  15  18
HETATM   18  C   UNL     1     -10.376  11.993  67.424  1.00  0.00    -0.226 A  
HETATM   19  C   UNL     1      -9.307  12.885  67.254  1.00  0.00    -0.212 A  
HETATM   20  C   UNL     1     -11.684  12.494  67.458  1.00  0.00    -0.439 A  
HETATM   21  C   UNL     1     -11.921  13.865  67.312  1.00  0.00    -0.446 A  
HETATM   22  C   UNL     1      -9.547  14.255  67.108  1.00  0.00    -0.245 A  
HETATM   23  C   UNL     1     -10.852  14.742  67.136  1.00  0.00    -0.311 A  
ENDBRANCH  15  18
BRANCH  17  24
HETATM   24  C   UNL     1      -9.822   8.265  66.577  1.00  0.00    -0.323 A  
HETATM   25  C   UNL     1      -9.430   5.490  66.573  1.00  0.00    -0.161 A  
HETATM   26  C   UNL     1      -8.579   7.723  66.221  1.00  0.00    -0.161 A  
HETATM   27  C   UNL     1      -8.385   6.340  66.217  1.00  0.00    -0.122 A  
HETATM   28  C   UNL     1     -10.660   6.018  66.958  1.00  0.00    -0.385 A  
HETATM   29  C   UNL     1     -10.856   7.404  66.967  1.00  0.00    -0.307 A  
ENDBRANCH  17  24
ENDBRANCH  12  15
ENDBRANCH   8   9
ENDBRANCH   7   8
ENDBRANCH   6   7
ENDBRANCH   3   6
ENDBRANCH   2   3
TORSDOF 9
ENDMDL
MODEL       26
REMARK 921   NORMALIZED FREE ENERGY PREDICTED BY IDOCK:   -5.27 KCAL/MOL
REMARK 922        TOTAL FREE ENERGY PREDICTED BY IDOCK:  -10.17 KCAL/MOL
REMARK 923 INTER-LIGAND FREE ENERGY PREDICTED BY IDOCK:   -8.36 KCAL/MOL
REMARK 924 INTRA-LIGAND FREE ENERGY PREDICTED BY IDOCK:   -1.81 KCAL/MOL
REMARK 927      BINDING AFFINITY PREDICTED BY RF-SCORE:    0.00 PKD
ROOT
HETATM    1  C   UNL     1     -12.929  12.215  71.759  1.00  0.00    -0.437 C  
HETATM    2  C   UNL     1     -13.862  13.332  72.218  1.00  0.00    -0.539 C  
ENDROOT
BRANCH   2   3
HETATM    3  N   UNL     1     -13.466  14.676  71.770  1.00  0.00    -0.346 NA 
BRANCH   3   4
HETATM    4  C   UNL     1     -13.474  15.696  72.829  1.00  0.00    -0.574 C  
HETATM    5  C   UNL     1     -12.653  15.376  74.072  1.00  0.00    -0.741 C  
ENDBRANCH   3   4
BRANCH   3   6
HETATM    6  C   UNL     1     -12.198  14.601  71.010  1.00  0.00    -0.332 C  
BRANCH   6   7
HETATM    7  C   UNL     1     -12.269  15.294  69.644  1.00  0.00    -0.271 C  
BRANCH   7   8
HETATM    8  O   UNL     1     -10.975  15.333  69.027  1.00  0.00    -0.231 OA 
BRANCH   8   9
HETATM    9  C   UNL     1     -10.569  14.125  68.514  1.00  0.00    -0.252 A  
HETATM   10  C   UNL     1      -9.248  13.668  68.518  1.00  0.00    -0.121 A  
HETATM   11  C   UNL     1      -8.916  12.475  67.882  1.00  0.00    -0.188 A  
HETATM   12  C   UNL     1      -9.901  11.697  67.270  1.00  0.00    -0.203 A  
HETATM   13  C   UNL     1     -11.235  12.126  67.311  1.00  0.00    -0.366 A  
HETATM   14  C   UNL     1     -11.565  13.335  67.938  1.00  0.00    -0.370 A  
BRANCH  12  15
HETATM   15  C   UNL     1      -9.496  10.449  66.577  1.00  0.00    -0.204 C  
HETATM   16 CL   UNL     1      -8.751   7.826  66.595  1.00  0.00    -0.137 Cl 
HETATM   17  C   UNL     1      -9.342   9.307  67.294  1.00  0.00    -0.131 C  
BRANCH  15  18
HETATM   18  C   UNL     1      -9.185  10.476  65.124  1.00  0.00    -0.243 A  
HETATM   19  C   UNL     1      -7.905  10.139  64.661  1.00  0.00    -0.144 A  
HETATM   20  C   UNL     1     -10.166  10.859  64.199  1.00  0.00    -0.424 A  
HETATM   21  C   UNL     1      -9.874  10.892  62.831  1.00  0.00    -0.313 A  
HETATM   22  C   UNL     1      -7.616  10.173  63.294  1.00  0.00    -0.143 A  
HETATM   23  C   UNL     1      -8.601  10.548  62.382  1.00  0.00    -0.267 A  
ENDBRANCH  15  18
BRANCH  17  24
HETATM   24  C   UNL     1      -9.662   9.184  68.733  1.00  0.00    -0.167 A  
HETATM   25  C   UNL     1     -10.301   9.095  71.461  1.00  0.00    -0.414 A  
HETATM   26  C   UNL     1     -11.000   9.185  69.149  1.00  0.00    -0.057 A  
HETATM   27  C   UNL     1     -11.318   9.143  70.509  1.00  0.00    -0.300 A  
HETATM   28  C   UNL     1      -8.968   9.062  71.057  1.00  0.00    -0.304 A  
HETATM   29  C   UNL     1      -8.647   9.102  69.695  1.00  0.00    -0.143 A  
ENDBRANCH  17  24
ENDBRANCH  12  15
ENDBRANCH   8   9
ENDBRANCH   7   8
ENDBRANCH   6   7
ENDBRANCH   3   6
ENDBRANCH   2   3
TORSDOF 9
ENDMDL
MODEL       27
REMARK 921   NORMALIZED FREE ENERGY PREDICTED BY IDOCK:   -5.25 KCAL/MOL
REMARK 922        TOTAL FREE ENERGY PREDICTED BY IDOCK:  -10.15 KCAL/MOL
REMARK 923 INTER-LIGAND FREE ENERGY PREDICTED BY IDOCK:   -7.84 KCAL/MOL
REMARK 924 INTRA-LIGAND FREE ENERGY PREDICTED BY IDOCK:   -2.30 KCAL/MOL
REMARK 927      BINDING AFFINITY PREDICTED BY RF-SCORE:    0.00 PKD
ROOT
HETATM    1  C   UNL     1     -11.265  10.966  70.029  1.00  0.00    -0.340 C  
HETATM    2  C   UNL     1     -12.610  10.271  70.216  1.00  0.00    -0.144 C  
ENDROOT
BRANCH   2   3
HETATM    3  N   UNL     1     -13.285  10.585  71.484  1.00  0.00    -0.387 NA 
BRANCH   3   4
HETATM    4  C   UNL     1     -13.347   9.464  72.434  1.00  0.00    -0.424 C  
HETATM    5  C   UNL     1     -13.938   8.166  71.897  1.00  0.00    -0.451 C  
ENDBRANCH   3   4
BRANCH   3   6
HETATM    6  C   UNL     1     -12.728  11.832  72.056  1.00  0.00     0.017 C  
BRANCH   6   7
HETATM    7  C   UNL     1     -13.770  12.946  72.211  1.00  0.00    -0.458 C  
BRANCH   7   8
HETATM    8  O   UNL     1     -13.132  14.217  72.389  1.00  0.00    -0.373 OA 
BRANCH   8   9
HETATM    9  C   UNL     1     -12.421  14.639  71.292  1.00  0.00    -0.339 A  
HETATM   10  C   UNL     1     -11.047  14.897  71.292  1.00  0.00    -0.078 A  
HETATM   11  C   UNL     1     -10.431  15.420  70.158  1.00  0.00    -0.291 A  
HETATM   12  C   UNL     1     -11.166  15.653  68.993  1.00  0.00    -0.306 A  
HETATM   13  C   UNL     1     -12.533  15.344  68.974  1.00  0.00     0.099 A  
HETATM   14  C   UNL     1     -13.154  14.833  70.120  1.00  0.00     0.039 A  
BRANCH  12  15
HETATM   15  C   UNL     1     -10.473  16.241  67.819  1.00  0.00    -0.295 C  
HETATM   16 CL   UNL     1      -9.108  16.005  65.471  1.00  0.00     0.021 Cl 
HETATM   17  C   UNL     1     -10.038  15.427  66.825  1.00  0.00    -0.262 C  
BRANCH  15  18
HETATM   18  C   UNL     1     -10.193  17.700  67.779  1.00  0.00    -0.354 A  
HETATM   19  C   UNL     1     -11.023  18.566  67.052  1.00  0.00    -0.103 A  
HETATM   20  C   UNL     1      -9.083  18.225  68.453  1.00  0.00    -0.331 A  
HETATM   21  C   UNL     1      -8.813  19.597  68.411  1.00  0.00    -0.362 A  
HETATM   22  C   UNL     1     -10.751  19.936  67.010  1.00  0.00    -0.478 A  
HETATM   23  C   UNL     1      -9.648  20.450  67.691  1.00  0.00    -0.517 A  
ENDBRANCH  15  18
BRANCH  17  24
HETATM   24  C   UNL     1     -10.303  13.973  66.769  1.00  0.00    -0.271 A  
HETATM   25  C   UNL     1     -10.712  11.209  66.552  1.00  0.00    -0.314 A  
HETATM   26  C   UNL     1      -9.337  13.073  67.239  1.00  0.00    -0.220 A  
HETATM   27  C   UNL     1      -9.541  11.695  67.128  1.00  0.00    -0.185 A  
HETATM   28  C   UNL     1     -11.693  12.094  66.110  1.00  0.00    -0.384 A  
HETATM   29  C   UNL     1     -11.493  13.475  66.223  1.00  0.00    -0.350 A  
ENDBRANCH  17  24
ENDBRANCH  12  15
ENDBRANCH   8   9
ENDBRANCH   7   8
ENDBRANCH   6   7
ENDBRANCH   3   6
ENDBRANCH   2   3
TORSDOF 9
ENDMDL
MODEL       28
REMARK 921   NORMALIZED FREE ENERGY PREDICTED BY IDOCK:   -5.22 KCAL/MOL
REMARK 922        TOTAL FREE ENERGY PREDICTED BY IDOCK:  -10.11 KCAL/MOL
REMARK 923 INTER-LIGAND FREE ENERGY PREDICTED BY IDOCK:   -8.24 KCAL/MOL
REMARK 924 INTRA-LIGAND FREE ENERGY PREDICTED BY IDOCK:   -1.87 KCAL/MOL
REMARK 927      BINDING AFFINITY PREDICTED BY RF-SCORE:    0.00 PKD
ROOT
HETATM    1  C   UNL     1     -14.211   8.027  71.718  1.00  0.00    -0.550 C  
HETATM    2  C   UNL     1     -13.423   9.288  72.057  1.00  0.00    -0.451 C  
ENDROOT
BRANCH   2   3
HETATM    3  N   UNL     1     -11.981   9.196  71.780  1.00  0.00    -0.358 NA 
BRANCH   3   4
HETATM    4  C   UNL     1     -11.418   7.846  71.934  1.00  0.00    -0.280 C  
HETATM    5  C   UNL     1     -10.784   7.536  73.284  1.00  0.00    -0.437 C  
ENDBRANCH   3   4
BRANCH   3   6
HETATM    6  C   UNL     1     -11.675   9.835  70.481  1.00  0.00    -0.268 C  
BRANCH   6   7
HETATM    7  C   UNL     1     -12.527  11.079  70.202  1.00  0.00    -0.269 C  
BRANCH   7   8
HETATM    8  O   UNL     1     -12.510  11.403  68.805  1.00  0.00    -0.396 OA 
BRANCH   8   9
HETATM    9  C   UNL     1     -11.761  12.513  68.502  1.00  0.00    -0.324 A  
HETATM   10  C   UNL     1     -11.202  12.772  67.247  1.00  0.00    -0.339 A  
HETATM   11  C   UNL     1     -10.371  13.874  67.062  1.00  0.00    -0.267 A  
HETATM   12  C   UNL     1     -10.119  14.758  68.113  1.00  0.00    -0.221 A  
HETATM   13  C   UNL     1     -10.722  14.531  69.358  1.00  0.00    -0.213 A  
HETATM   14  C   UNL     1     -11.545  13.414  69.547  1.00  0.00    -0.352 A  
BRANCH  12  15
HETATM   15  C   UNL     1      -9.202  15.902  67.878  1.00  0.00    -0.198 C  
HETATM   16 CL   UNL     1      -6.727  17.045  67.928  1.00  0.00    -0.152 Cl 
HETATM   17  C   UNL     1      -7.868  15.735  68.059  1.00  0.00    -0.132 C  
BRANCH  15  18
HETATM   18  C   UNL     1      -9.757  17.235  67.524  1.00  0.00    -0.264 A  
HETATM   19  C   UNL     1     -10.130  17.525  66.204  1.00  0.00    -0.317 A  
HETATM   20  C   UNL     1      -9.894  18.226  68.506  1.00  0.00    -0.400 A  
HETATM   21  C   UNL     1     -10.409  19.484  68.174  1.00  0.00    -0.550 A  
HETATM   22  C   UNL     1     -10.644  18.782  65.875  1.00  0.00    -0.405 A  
HETATM   23  C   UNL     1     -10.784  19.759  66.860  1.00  0.00    -0.541 A  
ENDBRANCH  15  18
BRANCH  17  24
HETATM   24  C   UNL     1      -7.231  14.439  68.376  1.00  0.00    -0.114 A  
HETATM   25  C   UNL     1      -5.894  12.051  68.981  1.00  0.00    -0.064 A  
HETATM   26  C   UNL     1      -6.789  14.184  69.681  1.00  0.00    -0.056 A  
HETATM   27  C   UNL     1      -6.120  12.994  69.982  1.00  0.00    -0.112 A  
HETATM   28  C   UNL     1      -6.357  12.280  67.688  1.00  0.00    -0.122 A  
HETATM   29  C   UNL     1      -7.029  13.470  67.384  1.00  0.00    -0.086 A  
ENDBRANCH  17  24
ENDBRANCH  12  15
ENDBRANCH   8   9
ENDBRANCH   7   8
ENDBRANCH   6   7
ENDBRANCH   3   6
ENDBRANCH   2   3
TORSDOF 9
ENDMDL
MODEL       29
REMARK 921   NORMALIZED FREE ENERGY PREDICTED BY IDOCK:   -5.21 KCAL/MOL
REMARK 922        TOTAL FREE ENERGY PREDICTED BY IDOCK:  -10.09 KCAL/MOL
REMARK 923 INTER-LIGAND FREE ENERGY PREDICTED BY IDOCK:   -8.22 KCAL/MOL
REMARK 924 INTRA-LIGAND FREE ENERGY PREDICTED BY IDOCK:   -1.87 KCAL/MOL
REMARK 927      BINDING AFFINITY PREDICTED BY RF-SCORE:    0.00 PKD
ROOT
HETATM    1  C   UNL     1     -10.769   5.837  70.971  1.00  0.00    -0.326 C  
HETATM    2  C   UNL     1     -11.297   6.315  69.622  1.00  0.00    -0.422 C  
ENDROOT
BRANCH   2   3
HETATM    3  N   UNL     1     -10.252   6.593  68.625  1.00  0.00    -0.161 NA 
BRANCH   3   4
HETATM    4  C   UNL     1     -10.712   6.530  67.229  1.00  0.00    -0.356 C  
HETATM    5  C   UNL     1     -10.679   5.153  66.577  1.00  0.00    -0.262 C  
ENDBRANCH   3   4
BRANCH   3   6
HETATM    6  C   UNL     1      -9.544   7.845  68.972  1.00  0.00    -0.155 C  
BRANCH   6   7
HETATM    7  C   UNL     1     -10.389   9.104  68.742  1.00  0.00    -0.214 C  
BRANCH   7   8
HETATM    8  O   UNL     1     -10.005  10.146  69.650  1.00  0.00    -0.223 OA 
BRANCH   8   9
HETATM    9  C   UNL     1     -10.080  11.406  69.110  1.00  0.00    -0.020 A  
HETATM   10  C   UNL     1     -11.156  12.280  69.289  1.00  0.00    -0.220 A  
HETATM   11  C   UNL     1     -11.190  13.500  68.618  1.00  0.00    -0.311 A  
HETATM   12  C   UNL     1     -10.132  13.886  67.792  1.00  0.00    -0.241 A  
HETATM   13  C   UNL     1      -9.026  13.036  67.653  1.00  0.00    -0.192 A  
HETATM   14  C   UNL     1      -9.001  11.802  68.317  1.00  0.00    -0.180 A  
BRANCH  12  15
HETATM   15  C   UNL     1     -10.226  15.181  67.072  1.00  0.00    -0.262 C  
HETATM   16 CL   UNL     1     -10.735  16.653  64.834  1.00  0.00    -0.231 Cl 
HETATM   17  C   UNL     1     -10.702  15.205  65.802  1.00  0.00    -0.351 C  
BRANCH  15  18
HETATM   18  C   UNL     1      -9.727  16.424  67.717  1.00  0.00    -0.235 A  
HETATM   19  C   UNL     1     -10.608  17.469  68.030  1.00  0.00    -0.384 A  
HETATM   20  C   UNL     1      -8.363  16.573  68.002  1.00  0.00    -0.180 A  
HETATM   21  C   UNL     1      -7.890  17.745  68.602  1.00  0.00    -0.278 A  
HETATM   22  C   UNL     1     -10.133  18.639  68.628  1.00  0.00    -0.412 A  
HETATM   23  C   UNL     1      -8.776  18.774  68.915  1.00  0.00    -0.233 A  
ENDBRANCH  15  18
BRANCH  17  24
HETATM   24  C   UNL     1     -11.250  14.024  65.100  1.00  0.00    -0.329 A  
HETATM   25  C   UNL     1     -12.290  11.866  63.647  1.00  0.00    -0.591 A  
HETATM   26  C   UNL     1     -10.428  13.288  64.235  1.00  0.00    -0.372 A  
HETATM   27  C   UNL     1     -10.948  12.214  63.510  1.00  0.00    -0.521 A  
HETATM   28  C   UNL     1     -13.108  12.570  64.527  1.00  0.00    -0.044 A  
HETATM   29  C   UNL     1     -12.589  13.646  65.258  1.00  0.00    -0.512 A  
ENDBRANCH  17  24
ENDBRANCH  12  15
ENDBRANCH   8   9
ENDBRANCH   7   8
ENDBRANCH   6   7
ENDBRANCH   3   6
ENDBRANCH   2   3
TORSDOF 9
ENDMDL
MODEL       30
REMARK 921   NORMALIZED FREE ENERGY PREDICTED BY IDOCK:   -5.20 KCAL/MOL
REMARK 922        TOTAL FREE ENERGY PREDICTED BY IDOCK:  -10.08 KCAL/MOL
REMARK 923 INTER-LIGAND FREE ENERGY PREDICTED BY IDOCK:   -7.96 KCAL/MOL
REMARK 924 INTRA-LIGAND FREE ENERGY PREDICTED BY IDOCK:   -2.12 KCAL/MOL
REMARK 927      BINDING AFFINITY PREDICTED BY RF-SCORE:    0.00 PKD
ROOT
HETATM    1  C   UNL     1     -10.648  17.889  67.813  1.00  0.00    -0.399 C  
HETATM    2  C   UNL     1     -10.277  17.816  66.334  1.00  0.00    -0.365 C  
ENDROOT
BRANCH   2   3
HETATM    3  N   UNL     1      -9.043  18.536  65.983  1.00  0.00    -0.488 NA 
BRANCH   3   4
HETATM    4  C   UNL     1      -9.068  19.973  66.293  1.00  0.00    -0.317 C  
HETATM    5  C   UNL     1      -7.919  20.493  67.149  1.00  0.00    -0.361 C  
ENDBRANCH   3   4
BRANCH   3   6
HETATM    6  C   UNL     1      -7.869  17.819  66.528  1.00  0.00    -0.266 C  
BRANCH   6   7
HETATM    7  C   UNL     1      -7.911  16.308  66.278  1.00  0.00    -0.173 C  
BRANCH   7   8
HETATM    8  O   UNL     1      -7.232  15.601  67.324  1.00  0.00    -0.193 OA 
BRANCH   8   9
HETATM    9  C   UNL     1      -7.743  14.350  67.571  1.00  0.00    -0.192 A  
HETATM   10  C   UNL     1      -6.973  13.188  67.675  1.00  0.00    -0.156 A  
HETATM   11  C   UNL     1      -7.589  11.948  67.824  1.00  0.00    -0.130 A  
HETATM   12  C   UNL     1      -8.980  11.852  67.914  1.00  0.00    -0.179 A  
HETATM   13  C   UNL     1      -9.752  13.021  67.864  1.00  0.00    -0.218 A  
HETATM   14  C   UNL     1      -9.131  14.266  67.699  1.00  0.00    -0.192 A  
BRANCH  12  15
HETATM   15  C   UNL     1      -9.594  10.507  68.041  1.00  0.00    -0.159 C  
HETATM   16 CL   UNL     1     -10.854   8.332  66.983  1.00  0.00    -0.217 Cl 
HETATM   17  C   UNL     1     -10.011   9.855  66.927  1.00  0.00    -0.212 C  
BRANCH  15  18
HETATM   18  C   UNL     1      -9.818   9.919  69.389  1.00  0.00    -0.231 A  
HETATM   19  C   UNL     1     -11.070  10.023  70.012  1.00  0.00    -0.350 A  
HETATM   20  C   UNL     1      -8.772   9.272  70.060  1.00  0.00    -0.208 A  
HETATM   21  C   UNL     1      -8.979   8.725  71.331  1.00  0.00    -0.307 A  
HETATM   22  C   UNL     1     -11.273   9.476  71.283  1.00  0.00    -0.452 A  
HETATM   23  C   UNL     1     -10.229   8.827  71.938  1.00  0.00    -0.415 A  
ENDBRANCH  15  18
BRANCH  17  24
HETATM   24  C   UNL     1      -9.797  10.351  65.550  1.00  0.00    -0.332 A  
HETATM   25  C   UNL     1      -9.290  11.382  62.994  1.00  0.00    -0.344 A  
HETATM   26  C   UNL     1      -8.635   9.988  64.855  1.00  0.00    -0.184 A  
HETATM   27  C   UNL     1      -8.382  10.505  63.582  1.00  0.00    -0.108 A  
HETATM   28  C   UNL     1     -10.463  11.725  63.662  1.00  0.00    -0.490 A  
HETATM   29  C   UNL     1     -10.721  11.207  64.937  1.00  0.00    -0.318 A  
ENDBRANCH  17  24
ENDBRANCH  12  15
ENDBRANCH   8   9
ENDBRANCH   7   8
ENDBRANCH   6   7
ENDBRANCH   3   6
ENDBRANCH   2   3
TORSDOF 9
ENDMDL
MODEL       31
REMARK 921   NORMALIZED FREE ENERGY PREDICTED BY IDOCK:   -5.16 KCAL/MOL
REMARK 922        TOTAL FREE ENERGY PREDICTED BY IDOCK:  -10.01 KCAL/MOL
REMARK 923 INTER-LIGAND FREE ENERGY PREDICTED BY IDOCK:   -8.07 KCAL/MOL
REMARK 924 INTRA-LIGAND FREE ENERGY PREDICTED BY IDOCK:   -1.94 KCAL/MOL
REMARK 927      BINDING AFFINITY PREDICTED BY RF-SCORE:    0.00 PKD
ROOT
HETATM    1  C   UNL     1     -13.648   8.878  72.326  1.00  0.00    -0.513 C  
HETATM    2  C   UNL     1     -12.807  10.046  71.821  1.00  0.00    -0.446 C  
ENDROOT
BRANCH   2   3
HETATM    3  N   UNL     1     -11.456   9.673  71.374  1.00  0.00    -0.380 NA 
BRANCH   3   4
HETATM    4  C   UNL     1     -11.088   8.276  71.653  1.00  0.00    -0.265 C  
HETATM    5  C   UNL     1     -10.786   7.408  70.437  1.00  0.00    -0.258 C  
ENDBRANCH   3   4
BRANCH   3   6
HETATM    6  C   UNL     1     -11.260  10.080  69.964  1.00  0.00    -0.288 C  
BRANCH   6   7
HETATM    7  C   UNL     1     -12.323  11.065  69.465  1.00  0.00    -0.197 C  
BRANCH   7   8
HETATM    8  O   UNL     1     -11.974  11.576  68.172  1.00  0.00    -0.571 OA 
BRANCH   8   9
HETATM    9  C   UNL     1     -11.169  12.688  68.214  1.00  0.00    -0.272 A  
HETATM   10  C   UNL     1     -11.129  13.596  69.277  1.00  0.00    -0.241 A  
HETATM   11  C   UNL     1     -10.357  14.751  69.186  1.00  0.00    -0.237 A  
HETATM   12  C   UNL     1      -9.579  14.998  68.053  1.00  0.00    -0.208 A  
HETATM   13  C   UNL     1      -9.574  14.063  67.008  1.00  0.00    -0.253 A  
HETATM   14  C   UNL     1     -10.364  12.909  67.095  1.00  0.00    -0.239 A  
BRANCH  12  15
HETATM   15  C   UNL     1      -8.796  16.257  67.987  1.00  0.00    -0.182 C  
HETATM   16 CL   UNL     1      -6.526  17.700  68.435  1.00  0.00    -0.188 Cl 
HETATM   17  C   UNL     1      -7.491  16.252  68.359  1.00  0.00    -0.163 C  
BRANCH  15  18
HETATM   18  C   UNL     1      -9.464  17.525  67.592  1.00  0.00    -0.256 A  
HETATM   19  C   UNL     1      -9.754  18.508  68.549  1.00  0.00    -0.399 A  
HETATM   20  C   UNL     1      -9.832  17.743  66.257  1.00  0.00    -0.301 A  
HETATM   21  C   UNL     1     -10.467  18.932  65.884  1.00  0.00    -0.450 A  
HETATM   22  C   UNL     1     -10.389  19.694  68.174  1.00  0.00    -0.561 A  
HETATM   23  C   UNL     1     -10.744  19.905  66.842  1.00  0.00    -0.471 A  
ENDBRANCH  15  18
BRANCH  17  24
HETATM   24  C   UNL     1      -6.741  15.033  68.732  1.00  0.00    -0.099 A  
HETATM   25  C   UNL     1      -5.436  12.643  69.394  1.00  0.00    -0.079 A  
HETATM   26  C   UNL     1      -6.195  14.221  67.729  1.00  0.00    -0.152 A  
HETATM   27  C   UNL     1      -5.547  13.028  68.060  1.00  0.00    -0.106 A  
HETATM   28  C   UNL     1      -5.948  13.458  70.401  1.00  0.00    -0.132 A  
HETATM   29  C   UNL     1      -6.596  14.655  70.073  1.00  0.00    -0.161 A  
ENDBRANCH  17  24
ENDBRANCH  12  15
ENDBRANCH   8   9
ENDBRANCH   7   8
ENDBRANCH   6   7
ENDBRANCH   3   6
ENDBRANCH   2   3
TORSDOF 9
ENDMDL
MODEL       32
REMARK 921   NORMALIZED FREE ENERGY PREDICTED BY IDOCK:   -5.14 KCAL/MOL
REMARK 922        TOTAL FREE ENERGY PREDICTED BY IDOCK:   -9.98 KCAL/MOL
REMARK 923 INTER-LIGAND FREE ENERGY PREDICTED BY IDOCK:   -8.62 KCAL/MOL
REMARK 924 INTRA-LIGAND FREE ENERGY PREDICTED BY IDOCK:   -1.36 KCAL/MOL
REMARK 927      BINDING AFFINITY PREDICTED BY RF-SCORE:    0.00 PKD
ROOT
HETATM    1  C   UNL     1      -7.485   6.206  69.816  1.00  0.00    -0.081 C  
HETATM    2  C   UNL     1      -8.763   5.463  70.195  1.00  0.00    -0.126 C  
ENDROOT
BRANCH   2   3
HETATM    3  N   UNL     1      -9.952   5.874  69.434  1.00  0.00    -0.166 NA 
BRANCH   3   4
HETATM    4  C   UNL     1     -10.275   5.005  68.293  1.00  0.00    -0.073 C  
HETATM    5  C   UNL     1     -10.654   5.714  66.998  1.00  0.00    -0.358 C  
ENDBRANCH   3   4
BRANCH   3   6
HETATM    6  C   UNL     1     -11.086   6.107  70.357  1.00  0.00    -0.352 C  
BRANCH   6   7
HETATM    7  C   UNL     1     -11.390   7.592  70.583  1.00  0.00    -0.272 C  
BRANCH   7   8
HETATM    8  O   UNL     1     -10.842   8.388  69.523  1.00  0.00    -0.210 OA 
BRANCH   8   9
HETATM    9  C   UNL     1     -11.118   9.729  69.637  1.00  0.00    -0.217 A  
HETATM   10  C   UNL     1     -12.254  10.252  70.262  1.00  0.00    -0.298 A  
HETATM   11  C   UNL     1     -12.501  11.622  70.238  1.00  0.00    -0.261 A  
HETATM   12  C   UNL     1     -11.598  12.496  69.629  1.00  0.00    -0.323 A  
HETATM   13  C   UNL     1     -10.431  11.980  69.049  1.00  0.00    -0.087 A  
HETATM   14  C   UNL     1     -10.192  10.600  69.060  1.00  0.00    -0.231 A  
BRANCH  12  15
HETATM   15  C   UNL     1     -11.918  13.945  69.602  1.00  0.00    -0.399 C  
HETATM   16 CL   UNL     1     -12.014  16.360  68.338  1.00  0.00     0.186 Cl 
HETATM   17  C   UNL     1     -11.783  14.637  68.442  1.00  0.00    -0.320 C  
BRANCH  15  18
HETATM   18  C   UNL     1     -12.306  14.642  70.856  1.00  0.00    -0.406 A  
HETATM   19  C   UNL     1     -13.655  14.747  71.225  1.00  0.00    -0.480 A  
HETATM   20  C   UNL     1     -11.327  15.219  71.676  1.00  0.00    -0.440 A  
HETATM   21  C   UNL     1     -11.691  15.882  72.853  1.00  0.00    -0.468 A  
HETATM   22  C   UNL     1     -14.016  15.410  72.402  1.00  0.00    -0.657 A  
HETATM   23  C   UNL     1     -13.034  15.974  73.214  1.00  0.00    -0.653 A  
ENDBRANCH  15  18
BRANCH  17  24
HETATM   24  C   UNL     1     -11.436  14.017  67.145  1.00  0.00    -0.373 A  
HETATM   25  C   UNL     1     -10.768  12.714  64.755  1.00  0.00    -0.335 A  
HETATM   26  C   UNL     1     -12.383  13.227  66.478  1.00  0.00    -0.311 A  
HETATM   27  C   UNL     1     -12.048  12.576  65.288  1.00  0.00    -0.500 A  
HETATM   28  C   UNL     1      -9.829  13.522  65.393  1.00  0.00    -0.141 A  
HETATM   29  C   UNL     1     -10.163  14.178  66.584  1.00  0.00    -0.270 A  
ENDBRANCH  17  24
ENDBRANCH  12  15
ENDBRANCH   8   9
ENDBRANCH   7   8
ENDBRANCH   6   7
ENDBRANCH   3   6
ENDBRANCH   2   3
TORSDOF 9
ENDMDL
MODEL       33
REMARK 921   NORMALIZED FREE ENERGY PREDICTED BY IDOCK:   -5.13 KCAL/MOL
REMARK 922        TOTAL FREE ENERGY PREDICTED BY IDOCK:   -9.97 KCAL/MOL
REMARK 923 INTER-LIGAND FREE ENERGY PREDICTED BY IDOCK:   -7.53 KCAL/MOL
REMARK 924 INTRA-LIGAND FREE ENERGY PREDICTED BY IDOCK:   -2.44 KCAL/MOL
REMARK 927      BINDING AFFINITY PREDICTED BY RF-SCORE:    0.00 PKD
ROOT
HETATM    1  C   UNL     1     -10.328   8.895  66.516  1.00  0.00    -0.267 C  
HETATM    2  C   UNL     1     -10.393   7.737  67.507  1.00  0.00    -0.264 C  
ENDROOT
BRANCH   2   3
HETATM    3  N   UNL     1      -9.593   7.934  68.725  1.00  0.00    -0.150 NA 
BRANCH   3   4
HETATM    4  C   UNL     1      -9.677   6.830  69.693  1.00  0.00    -0.155 C  
HETATM    5  C   UNL     1     -10.817   5.842  69.483  1.00  0.00    -0.410 C  
ENDBRANCH   3   4
BRANCH   3   6
HETATM    6  C   UNL     1      -8.210   8.318  68.363  1.00  0.00    -0.132 C  
BRANCH   6   7
HETATM    7  C   UNL     1      -7.756   9.631  69.013  1.00  0.00    -0.078 C  
BRANCH   7   8
HETATM    8  O   UNL     1      -8.883  10.375  69.495  1.00  0.00    -0.167 OA 
BRANCH   8   9
HETATM    9  C   UNL     1      -9.148  11.511  68.771  1.00  0.00    -0.056 A  
HETATM   10  C   UNL     1      -8.225  12.153  67.941  1.00  0.00    -0.155 A  
HETATM   11  C   UNL     1      -8.552  13.359  67.326  1.00  0.00    -0.216 A  
HETATM   12  C   UNL     1      -9.819  13.921  67.495  1.00  0.00    -0.236 A  
HETATM   13  C   UNL     1     -10.766  13.252  68.283  1.00  0.00    -0.267 A  
HETATM   14  C   UNL     1     -10.429  12.047  68.913  1.00  0.00    -0.154 A  
BRANCH  12  15
HETATM   15  C   UNL     1     -10.113  15.223  66.845  1.00  0.00    -0.257 C  
HETATM   16 CL   UNL     1     -10.968  16.712  64.727  1.00  0.00    -0.274 Cl 
HETATM   17  C   UNL     1     -10.698  15.242  65.621  1.00  0.00    -0.365 C  
BRANCH  15  18
HETATM   18  C   UNL     1      -9.694  16.489  67.502  1.00  0.00    -0.242 A  
HETATM   19  C   UNL     1      -8.360  16.918  67.440  1.00  0.00    -0.201 A  
HETATM   20  C   UNL     1     -10.626  17.260  68.210  1.00  0.00    -0.383 A  
HETATM   21  C   UNL     1     -10.232  18.448  68.836  1.00  0.00    -0.284 A  
HETATM   22  C   UNL     1      -7.970  18.105  68.066  1.00  0.00    -0.269 A  
HETATM   23  C   UNL     1      -8.906  18.868  68.761  1.00  0.00    -0.331 A  
ENDBRANCH  15  18
BRANCH  17  24
HETATM   24  C   UNL     1     -11.176  14.035  64.914  1.00  0.00    -0.362 A  
HETATM   25  C   UNL     1     -12.093  11.679  63.704  1.00  0.00    -0.359 A  
HETATM   26  C   UNL     1     -12.532  13.683  64.979  1.00  0.00    -0.454 A  
HETATM   27  C   UNL     1     -12.987  12.507  64.378  1.00  0.00    -0.248 A  
HETATM   28  C   UNL     1     -10.750  12.034  63.606  1.00  0.00    -0.506 A  
HETATM   29  C   UNL     1     -10.290  13.213  64.205  1.00  0.00    -0.286 A  
ENDBRANCH  17  24
ENDBRANCH  12  15
ENDBRANCH   8   9
ENDBRANCH   7   8
ENDBRANCH   6   7
ENDBRANCH   3   6
ENDBRANCH   2   3
TORSDOF 9
ENDMDL
MODEL       34
REMARK 921   NORMALIZED FREE ENERGY PREDICTED BY IDOCK:   -5.12 KCAL/MOL
REMARK 922        TOTAL FREE ENERGY PREDICTED BY IDOCK:   -9.96 KCAL/MOL
REMARK 923 INTER-LIGAND FREE ENERGY PREDICTED BY IDOCK:   -7.75 KCAL/MOL
REMARK 924 INTRA-LIGAND FREE ENERGY PREDICTED BY IDOCK:   -2.21 KCAL/MOL
REMARK 927      BINDING AFFINITY PREDICTED BY RF-SCORE:    0.00 PKD
ROOT
HETATM    1  C   UNL     1     -10.882   6.748  68.313  1.00  0.00    -0.290 C  
HETATM    2  C   UNL     1     -10.591   6.150  66.940  1.00  0.00    -0.312 C  
ENDROOT
BRANCH   2   3
HETATM    3  N   UNL     1      -9.209   5.677  66.765  1.00  0.00    -0.125 NA 
BRANCH   3   4
HETATM    4  C   UNL     1      -9.032   4.230  66.960  1.00  0.00    -0.123 C  
HETATM    5  C   UNL     1      -8.028   3.549  66.038  1.00  0.00    -0.092 C  
ENDBRANCH   3   4
BRANCH   3   6
HETATM    6  C   UNL     1      -8.659   6.188  65.489  1.00  0.00    -0.130 C  
BRANCH   6   7
HETATM    7  C   UNL     1      -7.592   7.272  65.680  1.00  0.00    -0.089 C  
BRANCH   7   8
HETATM    8  O   UNL     1      -8.087   8.550  65.259  1.00  0.00    -0.121 OA 
BRANCH   8   9
HETATM    9  C   UNL     1      -8.766   9.232  66.239  1.00  0.00    -0.142 A  
HETATM   10  C   UNL     1      -8.246   9.529  67.502  1.00  0.00    -0.121 A  
HETATM   11  C   UNL     1      -9.046  10.134  68.467  1.00  0.00    -0.134 A  
HETATM   12  C   UNL     1     -10.364  10.492  68.175  1.00  0.00    -0.201 A  
HETATM   13  C   UNL     1     -10.872  10.245  66.892  1.00  0.00    -0.205 A  
HETATM   14  C   UNL     1     -10.070   9.622  65.927  1.00  0.00    -0.304 A  
BRANCH  12  15
HETATM   15  C   UNL     1     -11.189  11.107  69.245  1.00  0.00    -0.331 C  
HETATM   16 CL   UNL     1     -12.275  13.273  70.495  1.00  0.00    -0.436 Cl 
HETATM   17  C   UNL     1     -11.426  12.442  69.221  1.00  0.00    -0.288 C  
BRANCH  15  18
HETATM   18  C   UNL     1     -11.682  10.271  70.372  1.00  0.00    -0.404 A  
HETATM   19  C   UNL     1     -10.802   9.445  71.086  1.00  0.00    -0.427 A  
HETATM   20  C   UNL     1     -13.039  10.285  70.721  1.00  0.00    -0.360 A  
HETATM   21  C   UNL     1     -13.506   9.495  71.776  1.00  0.00    -0.480 A  
HETATM   22  C   UNL     1     -11.271   8.656  72.139  1.00  0.00    -0.438 A  
HETATM   23  C   UNL     1     -12.622   8.683  72.483  1.00  0.00    -0.367 A  
ENDBRANCH  15  18
BRANCH  17  24
HETATM   24  C   UNL     1     -11.003  13.338  68.123  1.00  0.00    -0.278 A  
HETATM   25  C   UNL     1     -10.205  15.148  66.138  1.00  0.00    -0.310 A  
HETATM   26  C   UNL     1      -9.686  13.816  68.086  1.00  0.00    -0.227 A  
HETATM   27  C   UNL     1      -9.289  14.720  67.097  1.00  0.00    -0.233 A  
HETATM   28  C   UNL     1     -11.508  14.656  66.147  1.00  0.00    -0.339 A  
HETATM   29  C   UNL     1     -11.907  13.748  67.135  1.00  0.00    -0.441 A  
ENDBRANCH  17  24
ENDBRANCH  12  15
ENDBRANCH   8   9
ENDBRANCH   7   8
ENDBRANCH   6   7
ENDBRANCH   3   6
ENDBRANCH   2   3
TORSDOF 9
ENDMDL
MODEL       35
REMARK 921   NORMALIZED FREE ENERGY PREDICTED BY IDOCK:   -5.12 KCAL/MOL
REMARK 922        TOTAL FREE ENERGY PREDICTED BY IDOCK:   -9.96 KCAL/MOL
REMARK 923 INTER-LIGAND FREE ENERGY PREDICTED BY IDOCK:   -7.36 KCAL/MOL
REMARK 924 INTRA-LIGAND FREE ENERGY PREDICTED BY IDOCK:   -2.59 KCAL/MOL
REMARK 927      BINDING AFFINITY PREDICTED BY RF-SCORE:    0.00 PKD
ROOT
HETATM    1  C   UNL     1      -6.735   6.260  70.403  1.00  0.00    -0.053 C  
HETATM    2  C   UNL     1      -7.919   5.321  70.617  1.00  0.00    -0.103 C  
ENDROOT
BRANCH   2   3
HETATM    3  N   UNL     1      -8.312   4.559  69.422  1.00  0.00    -0.071 NA 
BRANCH   3   4
HETATM    4  C   UNL     1      -9.762   4.507  69.184  1.00  0.00    -0.179 C  
HETATM    5  C   UNL     1     -10.605   5.502  69.973  1.00  0.00    -0.384 C  
ENDBRANCH   3   4
BRANCH   3   6
HETATM    6  C   UNL     1      -7.522   5.009  68.254  1.00  0.00    -0.075 C  
BRANCH   6   7
HETATM    7  C   UNL     1      -8.388   5.381  67.045  1.00  0.00    -0.107 C  
BRANCH   7   8
HETATM    8  O   UNL     1      -8.051   6.689  66.562  1.00  0.00    -0.106 OA 
BRANCH   8   9
HETATM    9  C   UNL     1      -8.762   7.700  67.161  1.00  0.00    -0.125 A  
HETATM   10  C   UNL     1     -10.153   7.821  67.119  1.00  0.00    -0.328 A  
HETATM   11  C   UNL     1     -10.779   8.937  67.668  1.00  0.00    -0.221 A  
HETATM   12  C   UNL     1     -10.030   9.929  68.306  1.00  0.00    -0.172 A  
HETATM   13  C   UNL     1      -8.639   9.784  68.397  1.00  0.00    -0.119 A  
HETATM   14  C   UNL     1      -8.010   8.668  67.830  1.00  0.00    -0.107 A  
BRANCH  12  15
HETATM   15  C   UNL     1     -10.736  11.116  68.849  1.00  0.00    -0.246 C  
HETATM   16 CL   UNL     1     -12.318  12.325  70.712  1.00  0.00    -0.446 Cl 
HETATM   17  C   UNL     1     -11.361  11.029  70.050  1.00  0.00    -0.277 C  
BRANCH  15  18
HETATM   18  C   UNL     1     -10.821  12.361  68.041  1.00  0.00    -0.251 A  
HETATM   19  C   UNL     1      -9.829  13.347  68.144  1.00  0.00    -0.234 A  
HETATM   20  C   UNL     1     -11.906  12.572  67.180  1.00  0.00    -0.386 A  
HETATM   21  C   UNL     1     -11.992  13.747  66.425  1.00  0.00    -0.473 A  
HETATM   22  C   UNL     1      -9.917  14.520  67.388  1.00  0.00    -0.227 A  
HETATM   23  C   UNL     1     -10.997  14.717  66.529  1.00  0.00    -0.318 A  
ENDBRANCH  15  18
BRANCH  17  24
HETATM   24  C   UNL     1     -11.298   9.844  70.932  1.00  0.00    -0.446 A  
HETATM   25  C   UNL     1     -11.221   7.682  72.714  1.00  0.00    -0.431 A  
HETATM   26  C   UNL     1     -12.485   9.235  71.362  1.00  0.00    -0.418 A  
HETATM   27  C   UNL     1     -12.446   8.159  72.253  1.00  0.00    -0.345 A  
HETATM   28  C   UNL     1     -10.034   8.259  72.269  1.00  0.00    -0.366 A  
HETATM   29  C   UNL     1     -10.070   9.336  71.375  1.00  0.00    -0.348 A  
ENDBRANCH  17  24
ENDBRANCH  12  15
ENDBRANCH   8   9
ENDBRANCH   7   8
ENDBRANCH   6   7
ENDBRANCH   3   6
ENDBRANCH   2   3
TORSDOF 9
ENDMDL
MODEL       36
REMARK 921   NORMALIZED FREE ENERGY PREDICTED BY IDOCK:   -5.12 KCAL/MOL
REMARK 922        TOTAL FREE ENERGY PREDICTED BY IDOCK:   -9.96 KCAL/MOL
REMARK 923 INTER-LIGAND FREE ENERGY PREDICTED BY IDOCK:   -8.41 KCAL/MOL
REMARK 924 INTRA-LIGAND FREE ENERGY PREDICTED BY IDOCK:   -1.55 KCAL/MOL
REMARK 927      BINDING AFFINITY PREDICTED BY RF-SCORE:    0.00 PKD
ROOT
HETATM    1  C   UNL     1     -12.502   6.800  71.611  1.00  0.00    -0.398 C  
HETATM    2  C   UNL     1     -11.032   6.499  71.888  1.00  0.00    -0.250 C  
ENDROOT
BRANCH   2   3
HETATM    3  N   UNL     1     -10.211   6.320  70.680  1.00  0.00    -0.189 NA 
BRANCH   3   4
HETATM    4  C   UNL     1      -9.247   5.212  70.759  1.00  0.00    -0.145 C  
HETATM    5  C   UNL     1      -9.843   3.819  70.922  1.00  0.00    -0.192 C  
ENDBRANCH   3   4
BRANCH   3   6
HETATM    6  C   UNL     1     -11.079   6.283  69.482  1.00  0.00    -0.408 C  
BRANCH   6   7
HETATM    7  C   UNL     1     -10.742   7.372  68.456  1.00  0.00    -0.098 C  
BRANCH   7   8
HETATM    8  O   UNL     1      -9.782   8.293  68.991  1.00  0.00    -0.162 OA 
BRANCH   8   9
HETATM    9  C   UNL     1     -10.282   9.554  69.203  1.00  0.00    -0.201 A  
HETATM   10  C   UNL     1     -11.581   9.827  69.639  1.00  0.00    -0.032 A  
HETATM   11  C   UNL     1     -12.032  11.141  69.727  1.00  0.00    -0.428 A  
HETATM   12  C   UNL     1     -11.181  12.206  69.422  1.00  0.00    -0.248 A  
HETATM   13  C   UNL     1      -9.860  11.938  69.037  1.00  0.00     0.118 A  
HETATM   14  C   UNL     1      -9.413  10.614  68.934  1.00  0.00    -0.199 A  
BRANCH  12  15
HETATM   15  C   UNL     1     -11.714  13.589  69.500  1.00  0.00    -0.382 C  
HETATM   16 CL   UNL     1     -12.278  16.012  68.383  1.00  0.00     0.257 Cl 
HETATM   17  C   UNL     1     -11.785  14.342  68.373  1.00  0.00    -0.338 C  
BRANCH  15  18
HETATM   18  C   UNL     1     -12.091  14.164  70.818  1.00  0.00    -0.419 A  
HETATM   19  C   UNL     1     -13.198  13.668  71.522  1.00  0.00    -0.409 A  
HETATM   20  C   UNL     1     -11.354  15.224  71.364  1.00  0.00    -0.419 A  
HETATM   21  C   UNL     1     -11.712  15.771  72.600  1.00  0.00    -0.542 A  
HETATM   22  C   UNL     1     -13.554  14.217  72.757  1.00  0.00    -0.538 A  
HETATM   23  C   UNL     1     -12.810  15.266  73.295  1.00  0.00    -0.634 A  
ENDBRANCH  15  18
BRANCH  17  24
HETATM   24  C   UNL     1     -11.464  13.838  67.020  1.00  0.00    -0.368 A  
HETATM   25  C   UNL     1     -10.908  13.009  64.401  1.00  0.00    -0.409 A  
HETATM   26  C   UNL     1     -10.370  14.370  66.324  1.00  0.00    -0.300 A  
HETATM   27  C   UNL     1     -10.095  13.958  65.017  1.00  0.00    -0.319 A  
HETATM   28  C   UNL     1     -11.979  12.451  65.095  1.00  0.00    -0.454 A  
HETATM   29  C   UNL     1     -12.255  12.860  66.406  1.00  0.00    -0.301 A  
ENDBRANCH  17  24
ENDBRANCH  12  15
ENDBRANCH   8   9
ENDBRANCH   7   8
ENDBRANCH   6   7
ENDBRANCH   3   6
ENDBRANCH   2   3
TORSDOF 9
ENDMDL
MODEL       37
REMARK 921   NORMALIZED FREE ENERGY PREDICTED BY IDOCK:   -5.10 KCAL/MOL
REMARK 922        TOTAL FREE ENERGY PREDICTED BY IDOCK:   -9.93 KCAL/MOL
REMARK 923 INTER-LIGAND FREE ENERGY PREDICTED BY IDOCK:   -8.30 KCAL/MOL
REMARK 924 INTRA-LIGAND FREE ENERGY PREDICTED BY IDOCK:   -1.63 KCAL/MOL
REMARK 927      BINDING AFFINITY PREDICTED BY RF-SCORE:    0.00 PKD
ROOT
HETATM    1  C   UNL     1      -9.683   8.155  73.053  1.00  0.00    -0.327 C  
HETATM    2  C   UNL     1     -10.974   8.295  72.252  1.00  0.00    -0.348 C  
ENDROOT
BRANCH   2   3
HETATM    3  N   UNL     1     -11.419   7.056  71.597  1.00  0.00    -0.255 NA 
BRANCH   3   4
HETATM    4  C   UNL     1     -12.652   7.195  70.807  1.00  0.00    -0.133 C  
HETATM    5  C   UNL     1     -13.943   7.344  71.604  1.00  0.00    -0.523 C  
ENDBRANCH   3   4
BRANCH   3   6
HETATM    6  C   UNL     1     -10.292   6.444  70.857  1.00  0.00    -0.204 C  
BRANCH   6   7
HETATM    7  C   UNL     1     -10.254   6.839  69.376  1.00  0.00    -0.187 C  
BRANCH   7   8
HETATM    8  O   UNL     1      -9.166   7.737  69.119  1.00  0.00    -0.145 OA 
BRANCH   8   9
HETATM    9  C   UNL     1      -9.561   9.025  68.852  1.00  0.00    -0.156 A  
HETATM   10  C   UNL     1      -8.739  10.147  68.979  1.00  0.00    -0.161 A  
HETATM   11  C   UNL     1      -9.257  11.425  68.786  1.00  0.00    -0.108 A  
HETATM   12  C   UNL     1     -10.594  11.600  68.419  1.00  0.00    -0.235 A  
HETATM   13  C   UNL     1     -11.408  10.474  68.237  1.00  0.00    -0.332 A  
HETATM   14  C   UNL     1     -10.888   9.190  68.448  1.00  0.00    -0.098 A  
BRANCH  12  15
HETATM   15  C   UNL     1     -11.111  12.982  68.254  1.00  0.00    -0.293 C  
HETATM   16 CL   UNL     1     -11.759  15.135  66.711  1.00  0.00    -0.157 Cl 
HETATM   17  C   UNL     1     -11.278  13.487  67.006  1.00  0.00    -0.312 C  
BRANCH  15  18
HETATM   18  C   UNL     1     -11.367  13.825  69.451  1.00  0.00    -0.306 A  
HETATM   19  C   UNL     1     -12.254  13.396  70.449  1.00  0.00    -0.415 A  
HETATM   20  C   UNL     1     -10.737  15.070  69.586  1.00  0.00    -0.270 A  
HETATM   21  C   UNL     1     -10.982  15.868  70.709  1.00  0.00    -0.271 A  
HETATM   22  C   UNL     1     -12.497  14.196  71.569  1.00  0.00    -0.423 A  
HETATM   23  C   UNL     1     -11.860  15.429  71.698  1.00  0.00    -0.468 A  
ENDBRANCH  15  18
BRANCH  17  24
HETATM   24  C   UNL     1     -11.080  12.708  65.764  1.00  0.00    -0.332 A  
HETATM   25  C   UNL     1     -10.782  11.122  63.473  1.00  0.00    -0.340 A  
HETATM   26  C   UNL     1     -12.151  12.535  64.876  1.00  0.00    -0.499 A  
HETATM   27  C   UNL     1     -12.002  11.742  63.736  1.00  0.00    -0.468 A  
HETATM   28  C   UNL     1      -9.702  11.314  64.331  1.00  0.00    -0.293 A  
HETATM   29  C   UNL     1      -9.847  12.110  65.474  1.00  0.00    -0.240 A  
ENDBRANCH  17  24
ENDBRANCH  12  15
ENDBRANCH   8   9
ENDBRANCH   7   8
ENDBRANCH   6   7
ENDBRANCH   3   6
ENDBRANCH   2   3
TORSDOF 9
ENDMDL
MODEL       38
REMARK 921   NORMALIZED FREE ENERGY PREDICTED BY IDOCK:   -5.10 KCAL/MOL
REMARK 922        TOTAL FREE ENERGY PREDICTED BY IDOCK:   -9.92 KCAL/MOL
REMARK 923 INTER-LIGAND FREE ENERGY PREDICTED BY IDOCK:   -7.78 KCAL/MOL
REMARK 924 INTRA-LIGAND FREE ENERGY PREDICTED BY IDOCK:   -2.15 KCAL/MOL
REMARK 927      BINDING AFFINITY PREDICTED BY RF-SCORE:    0.00 PKD
ROOT
HETATM    1  C   UNL     1     -10.714  15.735  65.062  1.00  0.00    -0.443 C  
HETATM    2  C   UNL     1     -11.946  15.026  64.508  1.00  0.00    -0.371 C  
ENDROOT
BRANCH   2   3
HETATM    3  N   UNL     1     -12.547  14.048  65.426  1.00  0.00    -0.560 NA 
BRANCH   3   4
HETATM    4  C   UNL     1     -12.483  12.655  64.958  1.00  0.00    -0.487 C  
HETATM    5  C   UNL     1     -12.204  12.462  63.472  1.00  0.00    -0.661 C  
ENDBRANCH   3   4
BRANCH   3   6
HETATM    6  C   UNL     1     -12.021  14.250  66.795  1.00  0.00    -0.436 C  
BRANCH   6   7
HETATM    7  C   UNL     1     -11.776  12.939  67.550  1.00  0.00    -0.367 C  
BRANCH   7   8
HETATM    8  O   UNL     1     -10.371  12.715  67.734  1.00  0.00    -0.212 OA 
BRANCH   8   9
HETATM    9  C   UNL     1     -10.043  11.399  67.950  1.00  0.00    -0.183 A  
HETATM   10  C   UNL     1      -8.870  10.969  68.575  1.00  0.00    -0.159 A  
HETATM   11  C   UNL     1      -8.574   9.611  68.657  1.00  0.00    -0.120 A  
HETATM   12  C   UNL     1      -9.465   8.659  68.156  1.00  0.00    -0.152 A  
HETATM   13  C   UNL     1     -10.668   9.085  67.577  1.00  0.00    -0.239 A  
HETATM   14  C   UNL     1     -10.956  10.452  67.481  1.00  0.00    -0.358 A  
BRANCH  12  15
HETATM   15  C   UNL     1      -9.094   7.224  68.237  1.00  0.00    -0.134 C  
HETATM   16 CL   UNL     1      -8.971   4.847  69.568  1.00  0.00    -0.120 Cl 
HETATM   17  C   UNL     1      -9.464   6.499  69.323  1.00  0.00    -0.140 C  
BRANCH  15  18
HETATM   18  C   UNL     1      -8.257   6.614  67.171  1.00  0.00    -0.113 A  
HETATM   19  C   UNL     1      -8.853   5.991  66.065  1.00  0.00    -0.159 A  
HETATM   20  C   UNL     1      -6.859   6.637  67.270  1.00  0.00    -0.072 A  
HETATM   21  C   UNL     1      -6.069   6.057  66.271  1.00  0.00    -0.032 A  
HETATM   22  C   UNL     1      -8.061   5.412  65.069  1.00  0.00    -0.120 A  
HETATM   23  C   UNL     1      -6.672   5.447  65.173  1.00  0.00    -0.044 A  
ENDBRANCH  15  18
BRANCH  17  24
HETATM   24  C   UNL     1     -10.323   7.017  70.410  1.00  0.00    -0.219 A  
HETATM   25  C   UNL     1     -12.002   8.099  72.375  1.00  0.00    -0.431 A  
HETATM   26  C   UNL     1     -11.702   6.767  70.382  1.00  0.00    -0.418 A  
HETATM   27  C   UNL     1     -12.539   7.309  71.361  1.00  0.00    -0.423 A  
HETATM   28  C   UNL     1     -10.629   8.328  72.430  1.00  0.00    -0.408 A  
HETATM   29  C   UNL     1      -9.788   7.784  71.453  1.00  0.00    -0.195 A  
ENDBRANCH  17  24
ENDBRANCH  12  15
ENDBRANCH   8   9
ENDBRANCH   7   8
ENDBRANCH   6   7
ENDBRANCH   3   6
ENDBRANCH   2   3
TORSDOF 9
ENDMDL
MODEL       39
REMARK 921   NORMALIZED FREE ENERGY PREDICTED BY IDOCK:   -5.10 KCAL/MOL
REMARK 922        TOTAL FREE ENERGY PREDICTED BY IDOCK:   -9.92 KCAL/MOL
REMARK 923 INTER-LIGAND FREE ENERGY PREDICTED BY IDOCK:   -7.91 KCAL/MOL
REMARK 924 INTRA-LIGAND FREE ENERGY PREDICTED BY IDOCK:   -2.01 KCAL/MOL
REMARK 927      BINDING AFFINITY PREDICTED BY RF-SCORE:    0.00 PKD
ROOT
HETATM    1  C   UNL     1      -8.827   9.390  64.221  1.00  0.00    -0.220 C  
HETATM    2  C   UNL     1      -9.780  10.175  65.117  1.00  0.00    -0.304 C  
ENDROOT
BRANCH   2   3
HETATM    3  N   UNL     1     -10.146   9.487  66.365  1.00  0.00    -0.264 NA 
BRANCH   3   4
HETATM    4  C   UNL     1      -9.470   8.197  66.568  1.00  0.00    -0.221 C  
HETATM    5  C   UNL     1     -10.364   7.030  66.969  1.00  0.00    -0.360 C  
ENDBRANCH   3   4
BRANCH   3   6
HETATM    6  C   UNL     1     -10.027  10.419  67.508  1.00  0.00    -0.181 C  
BRANCH   6   7
HETATM    7  C   UNL     1     -11.382  10.847  68.085  1.00  0.00    -0.315 C  
BRANCH   7   8
HETATM    8  O   UNL     1     -11.912  11.964  67.359  1.00  0.00    -0.603 OA 
BRANCH   8   9
HETATM    9  C   UNL     1     -11.143  13.099  67.450  1.00  0.00    -0.275 A  
HETATM   10  C   UNL     1     -10.538  13.733  66.362  1.00  0.00    -0.284 A  
HETATM   11  C   UNL     1      -9.692  14.821  66.564  1.00  0.00    -0.295 A  
HETATM   12  C   UNL     1      -9.470  15.319  67.850  1.00  0.00    -0.197 A  
HETATM   13  C   UNL     1     -10.118  14.719  68.938  1.00  0.00    -0.237 A  
HETATM   14  C   UNL     1     -10.957  13.615  68.734  1.00  0.00    -0.292 A  
BRANCH  12  15
HETATM   15  C   UNL     1      -8.535  16.459  68.020  1.00  0.00    -0.183 C  
HETATM   16 CL   UNL     1      -6.165  17.518  68.854  1.00  0.00    -0.191 Cl 
HETATM   17  C   UNL     1      -7.287  16.234  68.503  1.00  0.00    -0.169 C  
BRANCH  15  18
HETATM   18  C   UNL     1      -8.997  17.844  67.736  1.00  0.00    -0.254 A  
HETATM   19  C   UNL     1      -9.783  18.538  68.667  1.00  0.00    -0.398 A  
HETATM   20  C   UNL     1      -8.668  18.464  66.524  1.00  0.00    -0.291 A  
HETATM   21  C   UNL     1      -9.108  19.763  66.252  1.00  0.00    -0.444 A  
HETATM   22  C   UNL     1     -10.222  19.836  68.393  1.00  0.00    -0.568 A  
HETATM   23  C   UNL     1      -9.883  20.447  67.186  1.00  0.00    -0.601 A  
ENDBRANCH  15  18
BRANCH  17  24
HETATM   24  C   UNL     1      -6.737  14.889  68.778  1.00  0.00    -0.092 A  
HETATM   25  C   UNL     1      -5.563  12.403  69.321  1.00  0.00    -0.075 A  
HETATM   26  C   UNL     1      -6.440  14.517  70.096  1.00  0.00    -0.156 A  
HETATM   27  C   UNL     1      -5.852  13.279  70.366  1.00  0.00    -0.161 A  
HETATM   28  C   UNL     1      -5.883  12.749  68.010  1.00  0.00    -0.097 A  
HETATM   29  C   UNL     1      -6.474  13.989  67.737  1.00  0.00    -0.181 A  
ENDBRANCH  17  24
ENDBRANCH  12  15
ENDBRANCH   8   9
ENDBRANCH   7   8
ENDBRANCH   6   7
ENDBRANCH   3   6
ENDBRANCH   2   3
TORSDOF 9
ENDMDL
MODEL       40
REMARK 921   NORMALIZED FREE ENERGY PREDICTED BY IDOCK:   -5.06 KCAL/MOL
REMARK 922        TOTAL FREE ENERGY PREDICTED BY IDOCK:   -9.86 KCAL/MOL
REMARK 923 INTER-LIGAND FREE ENERGY PREDICTED BY IDOCK:   -9.02 KCAL/MOL
REMARK 924 INTRA-LIGAND FREE ENERGY PREDICTED BY IDOCK:   -0.84 KCAL/MOL
REMARK 927      BINDING AFFINITY PREDICTED BY RF-SCORE:    0.00 PKD
ROOT
HETATM    1  C   UNL     1      -8.635   5.541  69.283  1.00  0.00    -0.104 C  
HETATM    2  C   UNL     1      -9.571   4.579  70.008  1.00  0.00    -0.197 C  
ENDROOT
BRANCH   2   3
HETATM    3  N   UNL     1     -10.723   5.225  70.655  1.00  0.00    -0.191 NA 
BRANCH   3   4
HETATM    4  C   UNL     1     -10.473   5.674  72.033  1.00  0.00    -0.219 C  
HETATM    5  C   UNL     1     -11.079   4.815  73.137  1.00  0.00    -0.388 C  
ENDBRANCH   3   4
BRANCH   3   6
HETATM    6  C   UNL     1     -11.278   6.273  69.769  1.00  0.00    -0.430 C  
BRANCH   6   7
HETATM    7  C   UNL     1     -11.474   7.621  70.472  1.00  0.00    -0.218 C  
BRANCH   7   8
HETATM    8  O   UNL     1     -10.376   8.502  70.196  1.00  0.00    -0.198 OA 
BRANCH   8   9
HETATM    9  C   UNL     1     -10.753   9.805  69.977  1.00  0.00    -0.283 A  
HETATM   10  C   UNL     1     -10.036  10.714  69.195  1.00  0.00    -0.234 A  
HETATM   11  C   UNL     1     -10.441  12.044  69.115  1.00  0.00    -0.005 A  
HETATM   12  C   UNL     1     -11.592  12.477  69.778  1.00  0.00    -0.291 A  
HETATM   13  C   UNL     1     -12.343  11.555  70.519  1.00  0.00    -0.432 A  
HETATM   14  C   UNL     1     -11.925  10.221  70.611  1.00  0.00    -0.436 A  
BRANCH  12  15
HETATM   15  C   UNL     1     -11.968  13.911  69.689  1.00  0.00    -0.399 C  
HETATM   16 CL   UNL     1     -12.114  16.276  68.339  1.00  0.00     0.268 Cl 
HETATM   17  C   UNL     1     -11.819  14.568  68.511  1.00  0.00    -0.320 C  
BRANCH  15  18
HETATM   18  C   UNL     1     -12.428  14.632  70.904  1.00  0.00    -0.406 A  
HETATM   19  C   UNL     1     -11.500  15.164  71.812  1.00  0.00    -0.452 A  
HETATM   20  C   UNL     1     -13.797  14.771  71.167  1.00  0.00    -0.388 A  
HETATM   21  C   UNL     1     -14.232  15.443  72.314  1.00  0.00    -0.639 A  
HETATM   22  C   UNL     1     -11.938  15.835  72.957  1.00  0.00    -0.596 A  
HETATM   23  C   UNL     1     -13.302  15.974  73.206  1.00  0.00    -0.625 A  
ENDBRANCH  15  18
BRANCH  17  24
HETATM   24  C   UNL     1     -11.402  13.920  67.249  1.00  0.00    -0.344 A  
HETATM   25  C   UNL     1     -10.622  12.563  64.924  1.00  0.00    -0.330 A  
HETATM   26  C   UNL     1     -12.351  13.249  66.466  1.00  0.00    -0.311 A  
HETATM   27  C   UNL     1     -11.961  12.571  65.308  1.00  0.00    -0.490 A  
HETATM   28  C   UNL     1      -9.675  13.253  65.677  1.00  0.00    -0.101 A  
HETATM   29  C   UNL     1     -10.063  13.936  66.836  1.00  0.00    -0.260 A  
ENDBRANCH  17  24
ENDBRANCH  12  15
ENDBRANCH   8   9
ENDBRANCH   7   8
ENDBRANCH   6   7
ENDBRANCH   3   6
ENDBRANCH   2   3
TORSDOF 9
ENDMDL
MODEL       41
REMARK 921   NORMALIZED FREE ENERGY PREDICTED BY IDOCK:   -5.06 KCAL/MOL
REMARK 922        TOTAL FREE ENERGY PREDICTED BY IDOCK:   -9.85 KCAL/MOL
REMARK 923 INTER-LIGAND FREE ENERGY PREDICTED BY IDOCK:   -8.96 KCAL/MOL
REMARK 924 INTRA-LIGAND FREE ENERGY PREDICTED BY IDOCK:   -0.89 KCAL/MOL
REMARK 927      BINDING AFFINITY PREDICTED BY RF-SCORE:    0.00 PKD
ROOT
HETATM    1  C   UNL     1      -6.656  18.226  65.628  1.00  0.00    -0.298 C  
HETATM    2  C   UNL     1      -7.417  17.451  66.700  1.00  0.00    -0.253 C  
ENDROOT
BRANCH   2   3
HETATM    3  N   UNL     1      -8.265  18.286  67.565  1.00  0.00    -0.236 NA 
BRANCH   3   4
HETATM    4  C   UNL     1      -8.175  19.729  67.294  1.00  0.00    -0.306 C  
HETATM    5  C   UNL     1      -9.491  20.497  67.324  1.00  0.00    -0.559 C  
ENDBRANCH   3   4
BRANCH   3   6
HETATM    6  C   UNL     1      -9.647  17.757  67.578  1.00  0.00    -0.268 C  
BRANCH   6   7
HETATM    7  C   UNL     1     -10.068  17.193  68.940  1.00  0.00    -0.322 C  
BRANCH   7   8
HETATM    8  O   UNL     1     -11.253  16.396  68.815  1.00  0.00    -0.337 OA 
BRANCH   8   9
HETATM    9  C   UNL     1     -11.011  15.098  68.436  1.00  0.00    -0.271 A  
HETATM   10  C   UNL     1      -9.831  14.401  68.711  1.00  0.00    -0.214 A  
HETATM   11  C   UNL     1      -9.635  13.122  68.198  1.00  0.00    -0.227 A  
HETATM   12  C   UNL     1     -10.629  12.500  67.440  1.00  0.00    -0.242 A  
HETATM   13  C   UNL     1     -11.836  13.175  67.208  1.00  0.00    -0.420 A  
HETATM   14  C   UNL     1     -12.025  14.468  67.712  1.00  0.00    -0.345 A  
BRANCH  12  15
HETATM   15  C   UNL     1     -10.363  11.148  66.887  1.00  0.00    -0.272 C  
HETATM   16 CL   UNL     1     -10.084   8.450  67.170  1.00  0.00    -0.304 Cl 
HETATM   17  C   UNL     1     -10.493  10.062  67.690  1.00  0.00    -0.246 C  
BRANCH  15  18
HETATM   18  C   UNL     1      -9.883  11.001  65.488  1.00  0.00    -0.292 A  
HETATM   19  C   UNL     1      -8.631  10.430  65.220  1.00  0.00    -0.184 A  
HETATM   20  C   UNL     1     -10.671  11.452  64.420  1.00  0.00    -0.405 A  
HETATM   21  C   UNL     1     -10.217  11.322  63.103  1.00  0.00    -0.367 A  
HETATM   22  C   UNL     1      -8.180  10.301  63.903  1.00  0.00    -0.152 A  
HETATM   23  C   UNL     1      -8.975  10.746  62.847  1.00  0.00    -0.284 A  
ENDBRANCH  15  18
BRANCH  17  24
HETATM   24  C   UNL     1     -10.996  10.114  69.079  1.00  0.00    -0.265 A  
HETATM   25  C   UNL     1     -12.006  10.080  71.694  1.00  0.00    -0.369 A  
HETATM   26  C   UNL     1     -10.352   9.373  70.080  1.00  0.00    -0.265 A  
HETATM   27  C   UNL     1     -10.858   9.355  71.382  1.00  0.00    -0.430 A  
HETATM   28  C   UNL     1     -12.636  10.845  70.715  1.00  0.00    -0.470 A  
HETATM   29  C   UNL     1     -12.130  10.868  69.410  1.00  0.00    -0.362 A  
ENDBRANCH  17  24
ENDBRANCH  12  15
ENDBRANCH   8   9
ENDBRANCH   7   8
ENDBRANCH   6   7
ENDBRANCH   3   6
ENDBRANCH   2   3
TORSDOF 9
ENDMDL
MODEL       42
REMARK 921   NORMALIZED FREE ENERGY PREDICTED BY IDOCK:   -5.05 KCAL/MOL
REMARK 922        TOTAL FREE ENERGY PREDICTED BY IDOCK:   -9.85 KCAL/MOL
REMARK 923 INTER-LIGAND FREE ENERGY PREDICTED BY IDOCK:   -8.38 KCAL/MOL
REMARK 924 INTRA-LIGAND FREE ENERGY PREDICTED BY IDOCK:   -1.47 KCAL/MOL
REMARK 927      BINDING AFFINITY PREDICTED BY RF-SCORE:    0.00 PKD
ROOT
HETATM    1  C   UNL     1     -10.627   4.921  74.013  1.00  0.00    -0.350 C  
HETATM    2  C   UNL     1     -11.640   5.249  72.920  1.00  0.00    -0.219 C  
ENDROOT
BRANCH   2   3
HETATM    3  N   UNL     1     -11.078   5.972  71.769  1.00  0.00    -0.268 NA 
BRANCH   3   4
HETATM    4  C   UNL     1     -10.475   5.108  70.743  1.00  0.00    -0.193 C  
HETATM    5  C   UNL     1     -10.547   5.621  69.310  1.00  0.00    -0.359 C  
ENDBRANCH   3   4
BRANCH   3   6
HETATM    6  C   UNL     1     -12.073   6.933  71.242  1.00  0.00    -0.373 C  
BRANCH   6   7
HETATM    7  C   UNL     1     -11.933   8.338  71.838  1.00  0.00    -0.330 C  
BRANCH   7   8
HETATM    8  O   UNL     1     -10.698   8.942  71.430  1.00  0.00    -0.259 OA 
BRANCH   8   9
HETATM    9  C   UNL     1     -10.848   9.929  70.486  1.00  0.00    -0.326 A  
HETATM   10  C   UNL     1     -12.069  10.515  70.143  1.00  0.00    -0.380 A  
HETATM   11  C   UNL     1     -12.138  11.436  69.101  1.00  0.00    -0.331 A  
HETATM   12  C   UNL     1     -10.984  11.819  68.414  1.00  0.00    -0.274 A  
HETATM   13  C   UNL     1      -9.750  11.273  68.792  1.00  0.00    -0.184 A  
HETATM   14  C   UNL     1      -9.685  10.335  69.830  1.00  0.00    -0.183 A  
BRANCH  12  15
HETATM   15  C   UNL     1     -11.111  12.780  67.290  1.00  0.00    -0.314 C  
HETATM   16 CL   UNL     1     -11.650  15.264  66.303  1.00  0.00    -0.089 Cl 
HETATM   17  C   UNL     1     -11.363  14.087  67.554  1.00  0.00    -0.321 C  
BRANCH  15  18
HETATM   18  C   UNL     1     -11.038  12.293  65.887  1.00  0.00    -0.360 A  
HETATM   19  C   UNL     1      -9.854  11.734  65.387  1.00  0.00    -0.261 A  
HETATM   20  C   UNL     1     -12.150  12.405  65.042  1.00  0.00    -0.468 A  
HETATM   21  C   UNL     1     -12.082  11.954  63.720  1.00  0.00    -0.547 A  
HETATM   22  C   UNL     1      -9.788  11.284  64.065  1.00  0.00    -0.334 A  
HETATM   23  C   UNL     1     -10.902  11.394  63.234  1.00  0.00    -0.292 A  
ENDBRANCH  15  18
BRANCH  17  24
HETATM   24  C   UNL     1     -11.416  14.661  68.916  1.00  0.00    -0.323 A  
HETATM   25  C   UNL     1     -11.583  15.866  71.441  1.00  0.00    -0.529 A  
HETATM   26  C   UNL     1     -12.634  14.693  69.609  1.00  0.00    -0.105 A  
HETATM   27  C   UNL     1     -12.717  15.296  70.866  1.00  0.00    -0.496 A  
HETATM   28  C   UNL     1     -10.360  15.811  70.776  1.00  0.00     0.330 A  
HETATM   29  C   UNL     1     -10.274  15.205  69.517  1.00  0.00    -0.241 A  
ENDBRANCH  17  24
ENDBRANCH  12  15
ENDBRANCH   8   9
ENDBRANCH   7   8
ENDBRANCH   6   7
ENDBRANCH   3   6
ENDBRANCH   2   3
TORSDOF 9
ENDMDL
MODEL       43
REMARK 921   NORMALIZED FREE ENERGY PREDICTED BY IDOCK:   -5.04 KCAL/MOL
REMARK 922        TOTAL FREE ENERGY PREDICTED BY IDOCK:   -9.83 KCAL/MOL
REMARK 923 INTER-LIGAND FREE ENERGY PREDICTED BY IDOCK:   -7.70 KCAL/MOL
REMARK 924 INTRA-LIGAND FREE ENERGY PREDICTED BY IDOCK:   -2.12 KCAL/MOL
REMARK 927      BINDING AFFINITY PREDICTED BY RF-SCORE:    0.00 PKD
ROOT
HETATM    1  C   UNL     1     -12.284  12.221  63.575  1.00  0.00    -0.669 C  
HETATM    2  C   UNL     1     -12.543  12.813  64.958  1.00  0.00    -0.468 C  
ENDROOT
BRANCH   2   3
HETATM    3  N   UNL     1     -11.328  13.215  65.683  1.00  0.00    -0.298 NA 
BRANCH   3   4
HETATM    4  C   UNL     1     -10.466  14.155  64.951  1.00  0.00    -0.438 C  
HETATM    5  C   UNL     1     -10.978  15.587  64.845  1.00  0.00    -0.452 C  
ENDBRANCH   3   4
BRANCH   3   6
HETATM    6  C   UNL     1     -11.680  13.656  67.051  1.00  0.00    -0.384 C  
BRANCH   6   7
HETATM    7  C   UNL     1     -11.323  12.627  68.130  1.00  0.00    -0.290 C  
BRANCH   7   8
HETATM    8  O   UNL     1      -9.980  12.155  67.956  1.00  0.00    -0.191 OA 
BRANCH   8   9
HETATM    9  C   UNL     1      -9.873  10.786  67.925  1.00  0.00    -0.167 A  
HETATM   10  C   UNL     1     -10.775   9.938  67.277  1.00  0.00    -0.304 A  
HETATM   11  C   UNL     1     -10.642   8.556  67.386  1.00  0.00    -0.304 A  
HETATM   12  C   UNL     1      -9.583   7.999  68.106  1.00  0.00    -0.165 A  
HETATM   13  C   UNL     1      -8.646   8.847  68.712  1.00  0.00    -0.136 A  
HETATM   14  C   UNL     1      -8.790  10.237  68.614  1.00  0.00    -0.137 A  
BRANCH  12  15
HETATM   15  C   UNL     1      -9.500   6.521  68.221  1.00  0.00    -0.118 C  
HETATM   16 CL   UNL     1      -9.720   4.207  69.646  1.00  0.00    -0.284 Cl 
HETATM   17  C   UNL     1      -9.895   5.918  69.370  1.00  0.00    -0.161 C  
BRANCH  15  18
HETATM   18  C   UNL     1      -8.913   5.724  67.112  1.00  0.00    -0.113 A  
HETATM   19  C   UNL     1      -7.522   5.613  66.973  1.00  0.00    -0.084 A  
HETATM   20  C   UNL     1      -9.745   5.091  66.180  1.00  0.00    -0.196 A  
HETATM   21  C   UNL     1      -9.194   4.347  65.131  1.00  0.00    -0.156 A  
HETATM   22  C   UNL     1      -6.974   4.869  65.924  1.00  0.00    -0.066 A  
HETATM   23  C   UNL     1      -7.811   4.236  65.006  1.00  0.00    -0.089 A  
ENDBRANCH  15  18
BRANCH  17  24
HETATM   24  C   UNL     1     -10.521   6.629  70.506  1.00  0.00    -0.240 A  
HETATM   25  C   UNL     1     -11.724   8.094  72.571  1.00  0.00    -0.457 A  
HETATM   26  C   UNL     1     -11.908   6.828  70.521  1.00  0.00    -0.418 A  
HETATM   27  C   UNL     1     -12.507   7.561  71.549  1.00  0.00    -0.375 A  
HETATM   28  C   UNL     1     -10.348   7.875  72.583  1.00  0.00    -0.372 A  
HETATM   29  C   UNL     1      -9.746   7.139  71.555  1.00  0.00    -0.169 A  
ENDBRANCH  17  24
ENDBRANCH  12  15
ENDBRANCH   8   9
ENDBRANCH   7   8
ENDBRANCH   6   7
ENDBRANCH   3   6
ENDBRANCH   2   3
TORSDOF 9
ENDMDL
MODEL       44
REMARK 921   NORMALIZED FREE ENERGY PREDICTED BY IDOCK:   -4.94 KCAL/MOL
REMARK 922        TOTAL FREE ENERGY PREDICTED BY IDOCK:   -9.68 KCAL/MOL
REMARK 923 INTER-LIGAND FREE ENERGY PREDICTED BY IDOCK:   -8.01 KCAL/MOL
REMARK 924 INTRA-LIGAND FREE ENERGY PREDICTED BY IDOCK:   -1.68 KCAL/MOL
REMARK 927      BINDING AFFINITY PREDICTED BY RF-SCORE:    0.00 PKD
ROOT
HETATM    1  C   UNL     1      -7.384   6.382  67.097  1.00  0.00    -0.083 C  
HETATM    2  C   UNL     1      -8.115   7.667  67.478  1.00  0.00    -0.120 C  
ENDROOT
BRANCH   2   3
HETATM    3  N   UNL     1      -9.581   7.555  67.474  1.00  0.00    -0.137 NA 
BRANCH   3   4
HETATM    4  C   UNL     1     -10.201   7.638  68.805  1.00  0.00    -0.199 C  
HETATM    5  C   UNL     1     -10.567   9.037  69.286  1.00  0.00    -0.226 C  
ENDBRANCH   3   4
BRANCH   3   6
HETATM    6  C   UNL     1     -10.155   8.490  66.480  1.00  0.00    -0.258 C  
BRANCH   6   7
HETATM    7  C   UNL     1      -9.100   9.363  65.790  1.00  0.00    -0.200 C  
BRANCH   7   8
HETATM    8  O   UNL     1      -9.690  10.570  65.288  1.00  0.00    -0.227 OA 
BRANCH   8   9
HETATM    9  C   UNL     1     -10.161  11.407  66.270  1.00  0.00    -0.224 A  
HETATM   10  C   UNL     1     -11.432  11.987  66.273  1.00  0.00    -0.408 A  
HETATM   11  C   UNL     1     -11.785  12.905  67.259  1.00  0.00    -0.431 A  
HETATM   12  C   UNL     1     -10.890  13.226  68.282  1.00  0.00    -0.276 A  
HETATM   13  C   UNL     1      -9.634  12.605  68.313  1.00  0.00    -0.208 A  
HETATM   14  C   UNL     1      -9.276  11.694  67.311  1.00  0.00    -0.170 A  
BRANCH  12  15
HETATM   15  C   UNL     1     -11.297  14.233  69.294  1.00  0.00    -0.322 C  
HETATM   16 CL   UNL     1     -11.038  16.663  70.503  1.00  0.00    -0.149 Cl 
HETATM   17  C   UNL     1     -10.718  15.460  69.285  1.00  0.00    -0.251 C  
BRANCH  15  18
HETATM   18  C   UNL     1     -12.273  13.865  70.353  1.00  0.00    -0.438 A  
HETATM   19  C   UNL     1     -13.172  14.817  70.856  1.00  0.00    -0.408 A  
HETATM   20  C   UNL     1     -12.293  12.565  70.875  1.00  0.00    -0.349 A  
HETATM   21  C   UNL     1     -13.206  12.219  71.877  1.00  0.00    -0.481 A  
HETATM   22  C   UNL     1     -14.082  14.469  71.858  1.00  0.00    -0.595 A  
HETATM   23  C   UNL     1     -14.099  13.171  72.365  1.00  0.00    -0.388 A  
ENDBRANCH  15  18
BRANCH  17  24
HETATM   24  C   UNL     1      -9.766  15.919  68.250  1.00  0.00    -0.209 A  
HETATM   25  C   UNL     1      -7.986  16.662  66.217  1.00  0.00    -0.340 A  
HETATM   26  C   UNL     1     -10.248  16.346  67.005  1.00  0.00    -0.282 A  
HETATM   27  C   UNL     1      -9.359  16.713  65.991  1.00  0.00    -0.270 A  
HETATM   28  C   UNL     1      -7.497  16.269  67.461  1.00  0.00    -0.172 A  
HETATM   29  C   UNL     1      -8.385  15.902  68.480  1.00  0.00    -0.182 A  
ENDBRANCH  17  24
ENDBRANCH  12  15
ENDBRANCH   8   9
ENDBRANCH   7   8
ENDBRANCH   6   7
ENDBRANCH   3   6
ENDBRANCH   2   3
TORSDOF 9
ENDMDL
MODEL       45
REMARK 921   NORMALIZED FREE ENERGY PREDICTED BY IDOCK:   -4.94 KCAL/MOL
REMARK 922        TOTAL FREE ENERGY PREDICTED BY IDOCK:   -9.68 KCAL/MOL
REMARK 923 INTER-LIGAND FREE ENERGY PREDICTED BY IDOCK:   -7.33 KCAL/MOL
REMARK 924 INTRA-LIGAND FREE ENERGY PREDICTED BY IDOCK:   -2.35 KCAL/MOL
REMARK 927      BINDING AFFINITY PREDICTED BY RF-SCORE:    0.00 PKD
ROOT
HETATM    1  C   UNL     1     -13.040  11.713  71.806  1.00  0.00    -0.487 C  
HETATM    2  C   UNL     1     -13.433  13.178  71.972  1.00  0.00    -0.507 C  
ENDROOT
BRANCH   2   3
HETATM    3  N   UNL     1     -13.078  14.034  70.830  1.00  0.00    -0.275 NA 
BRANCH   3   4
HETATM    4  C   UNL     1     -13.094  15.475  71.123  1.00  0.00    -0.507 C  
HETATM    5  C   UNL     1     -11.873  16.022  71.853  1.00  0.00    -0.619 C  
ENDBRANCH   3   4
BRANCH   3   6
HETATM    6  C   UNL     1     -11.821  13.556  70.212  1.00  0.00    -0.257 C  
BRANCH   6   7
HETATM    7  C   UNL     1     -11.926  13.363  68.695  1.00  0.00    -0.327 C  
BRANCH   7   8
HETATM    8  O   UNL     1     -10.645  13.049  68.133  1.00  0.00    -0.231 OA 
BRANCH   8   9
HETATM    9  C   UNL     1     -10.296  11.726  68.252  1.00  0.00    -0.206 A  
HETATM   10  C   UNL     1      -9.108  11.270  68.829  1.00  0.00    -0.122 A  
HETATM   11  C   UNL     1      -8.793   9.914  68.812  1.00  0.00    -0.136 A  
HETATM   12  C   UNL     1      -9.679   8.986  68.258  1.00  0.00    -0.169 A  
HETATM   13  C   UNL     1     -10.896   9.435  67.727  1.00  0.00    -0.223 A  
HETATM   14  C   UNL     1     -11.203  10.801  67.731  1.00  0.00    -0.385 A  
BRANCH  12  15
HETATM   15  C   UNL     1      -9.288   7.555  68.235  1.00  0.00    -0.141 C  
HETATM   16 CL   UNL     1      -9.051   5.110  69.419  1.00  0.00    -0.134 Cl 
HETATM   17  C   UNL     1      -9.577   6.766  69.300  1.00  0.00    -0.144 C  
BRANCH  15  18
HETATM   18  C   UNL     1      -8.516   7.017  67.083  1.00  0.00    -0.121 A  
HETATM   19  C   UNL     1      -7.140   7.260  66.971  1.00  0.00    -0.087 A  
HETATM   20  C   UNL     1      -9.162   6.276  66.084  1.00  0.00    -0.143 A  
HETATM   21  C   UNL     1      -8.439   5.775  64.996  1.00  0.00    -0.124 A  
HETATM   22  C   UNL     1      -6.420   6.759  65.882  1.00  0.00    -0.050 A  
HETATM   23  C   UNL     1      -7.071   6.017  64.898  1.00  0.00    -0.060 A  
ENDBRANCH  15  18
BRANCH  17  24
HETATM   24  C   UNL     1     -10.368   7.210  70.468  1.00  0.00    -0.215 A  
HETATM   25  C   UNL     1     -11.917   8.164  72.600  1.00  0.00    -0.353 A  
HETATM   26  C   UNL     1     -11.757   7.018  70.479  1.00  0.00    -0.359 A  
HETATM   27  C   UNL     1     -12.528   7.496  71.541  1.00  0.00    -0.375 A  
HETATM   28  C   UNL     1     -10.534   8.332  72.615  1.00  0.00    -0.373 A  
HETATM   29  C   UNL     1      -9.758   7.852  71.553  1.00  0.00    -0.201 A  
ENDBRANCH  17  24
ENDBRANCH  12  15
ENDBRANCH   8   9
ENDBRANCH   7   8
ENDBRANCH   6   7
ENDBRANCH   3   6
ENDBRANCH   2   3
TORSDOF 9
ENDMDL
MODEL       46
REMARK 921   NORMALIZED FREE ENERGY PREDICTED BY IDOCK:   -4.94 KCAL/MOL
REMARK 922        TOTAL FREE ENERGY PREDICTED BY IDOCK:   -9.67 KCAL/MOL
REMARK 923 INTER-LIGAND FREE ENERGY PREDICTED BY IDOCK:   -7.76 KCAL/MOL
REMARK 924 INTRA-LIGAND FREE ENERGY PREDICTED BY IDOCK:   -1.91 KCAL/MOL
REMARK 927      BINDING AFFINITY PREDICTED BY RF-SCORE:    0.00 PKD
ROOT
HETATM    1  C   UNL     1      -5.503  19.475  70.754  1.00  0.00    -0.271 C  
HETATM    2  C   UNL     1      -5.703  18.478  69.617  1.00  0.00    -0.240 C  
ENDROOT
BRANCH   2   3
HETATM    3  N   UNL     1      -7.088  18.381  69.131  1.00  0.00    -0.245 NA 
BRANCH   3   4
HETATM    4  C   UNL     1      -7.411  19.301  68.029  1.00  0.00    -0.277 C  
HETATM    5  C   UNL     1      -8.840  19.829  67.997  1.00  0.00    -0.360 C  
ENDBRANCH   3   4
BRANCH   3   6
HETATM    6  C   UNL     1      -7.429  16.967  68.857  1.00  0.00    -0.237 C  
BRANCH   6   7
HETATM    7  C   UNL     1      -7.165  16.549  67.406  1.00  0.00    -0.149 C  
BRANCH   7   8
HETATM    8  O   UNL     1      -8.364  16.055  66.794  1.00  0.00    -0.215 OA 
BRANCH   8   9
HETATM    9  C   UNL     1      -8.654  14.752  67.115  1.00  0.00    -0.226 A  
HETATM   10  C   UNL     1      -7.695  13.773  67.391  1.00  0.00    -0.158 A  
HETATM   11  C   UNL     1      -8.080  12.453  67.606  1.00  0.00    -0.168 A  
HETATM   12  C   UNL     1      -9.430  12.095  67.592  1.00  0.00    -0.187 A  
HETATM   13  C   UNL     1     -10.397  13.084  67.369  1.00  0.00    -0.234 A  
HETATM   14  C   UNL     1     -10.007  14.409  67.137  1.00  0.00    -0.253 A  
BRANCH  12  15
HETATM   15  C   UNL     1      -9.791  10.670  67.795  1.00  0.00    -0.187 C  
HETATM   16 CL   UNL     1     -10.439   8.198  66.845  1.00  0.00    -0.404 Cl 
HETATM   17  C   UNL     1      -9.900   9.849  66.720  1.00  0.00    -0.201 C  
BRANCH  15  18
HETATM   18  C   UNL     1     -10.107  10.173  69.160  1.00  0.00    -0.226 A  
HETATM   19  C   UNL     1     -11.356  10.432  69.742  1.00  0.00    -0.353 A  
HETATM   20  C   UNL     1      -9.149   9.457  69.890  1.00  0.00    -0.221 A  
HETATM   21  C   UNL     1      -9.441   8.995  71.178  1.00  0.00    -0.348 A  
HETATM   22  C   UNL     1     -11.645   9.970  71.030  1.00  0.00    -0.476 A  
HETATM   23  C   UNL     1     -10.688   9.252  71.744  1.00  0.00    -0.324 A  
ENDBRANCH  15  18
BRANCH  17  24
HETATM   24  C   UNL     1      -9.572  10.251  65.335  1.00  0.00    -0.310 A  
HETATM   25  C   UNL     1      -9.037  10.904  62.663  1.00  0.00    -0.364 A  
HETATM   26  C   UNL     1     -10.529  10.924  64.563  1.00  0.00    -0.393 A  
HETATM   27  C   UNL     1     -10.262  11.247  63.230  1.00  0.00    -0.417 A  
HETATM   28  C   UNL     1      -8.067  10.263  63.430  1.00  0.00    -0.154 A  
HETATM   29  C   UNL     1      -8.330   9.941  64.766  1.00  0.00    -0.163 A  
ENDBRANCH  17  24
ENDBRANCH  12  15
ENDBRANCH   8   9
ENDBRANCH   7   8
ENDBRANCH   6   7
ENDBRANCH   3   6
ENDBRANCH   2   3
TORSDOF 9
ENDMDL
MODEL       47
REMARK 921   NORMALIZED FREE ENERGY PREDICTED BY IDOCK:   -4.89 KCAL/MOL
REMARK 922        TOTAL FREE ENERGY PREDICTED BY IDOCK:   -9.61 KCAL/MOL
REMARK 923 INTER-LIGAND FREE ENERGY PREDICTED BY IDOCK:   -8.59 KCAL/MOL
REMARK 924 INTRA-LIGAND FREE ENERGY PREDICTED BY IDOCK:   -1.02 KCAL/MOL
REMARK 927      BINDING AFFINITY PREDICTED BY RF-SCORE:    0.00 PKD
ROOT
HETATM    1  C   UNL     1      -7.327  21.198  67.209  1.00  0.00    -0.217 C  
HETATM    2  C   UNL     1      -6.024  20.813  67.904  1.00  0.00    -0.294 C  
ENDROOT
BRANCH   2   3
HETATM    3  N   UNL     1      -6.177  19.803  68.962  1.00  0.00    -0.274 NA 
BRANCH   3   4
HETATM    4  C   UNL     1      -6.095  20.339  70.330  1.00  0.00    -0.327 C  
HETATM    5  C   UNL     1      -5.152  19.608  71.278  1.00  0.00    -0.309 C  
ENDBRANCH   3   4
BRANCH   3   6
HETATM    6  C   UNL     1      -7.382  18.982  68.706  1.00  0.00    -0.331 C  
BRANCH   6   7
HETATM    7  C   UNL     1      -7.118  17.794  67.774  1.00  0.00    -0.195 C  
BRANCH   7   8
HETATM    8  O   UNL     1      -8.261  17.533  66.948  1.00  0.00    -0.209 OA 
BRANCH   8   9
HETATM    9  C   UNL     1      -9.051  16.506  67.403  1.00  0.00    -0.204 A  
HETATM   10  C   UNL     1     -10.346  16.243  66.948  1.00  0.00    -0.299 A  
HETATM   11  C   UNL     1     -11.110  15.242  67.543  1.00  0.00    -0.324 A  
HETATM   12  C   UNL     1     -10.580  14.459  68.570  1.00  0.00    -0.256 A  
HETATM   13  C   UNL     1      -9.262  14.684  68.992  1.00  0.00    -0.108 A  
HETATM   14  C   UNL     1      -8.500  15.702  68.403  1.00  0.00    -0.164 A  
BRANCH  12  15
HETATM   15  C   UNL     1     -11.442  13.425  69.195  1.00  0.00    -0.351 C  
HETATM   16 CL   UNL     1     -12.515  10.919  69.271  1.00  0.00    -0.133 Cl 
HETATM   17  C   UNL     1     -11.449  12.166  68.687  1.00  0.00    -0.296 C  
BRANCH  15  18
HETATM   18  C   UNL     1     -12.345  13.792  70.316  1.00  0.00    -0.407 A  
HETATM   19  C   UNL     1     -12.661  12.858  71.313  1.00  0.00    -0.371 A  
HETATM   20  C   UNL     1     -12.908  15.074  70.379  1.00  0.00    -0.332 A  
HETATM   21  C   UNL     1     -13.765  15.420  71.429  1.00  0.00    -0.591 A  
HETATM   22  C   UNL     1     -13.518  13.207  72.362  1.00  0.00    -0.643 A  
HETATM   23  C   UNL     1     -14.067  14.486  72.419  1.00  0.00    -0.544 A  
ENDBRANCH  15  18
BRANCH  17  24
HETATM   24  C   UNL     1     -10.559  11.708  67.599  1.00  0.00    -0.237 A  
HETATM   25  C   UNL     1      -8.957  10.721  65.521  1.00  0.00    -0.210 A  
HETATM   26  C   UNL     1     -10.991  11.789  66.268  1.00  0.00    -0.346 A  
HETATM   27  C   UNL     1     -10.193  11.294  65.233  1.00  0.00    -0.328 A  
HETATM   28  C   UNL     1      -8.503  10.663  66.837  1.00  0.00    -0.127 A  
HETATM   29  C   UNL     1      -9.299  11.161  67.876  1.00  0.00    -0.161 A  
ENDBRANCH  17  24
ENDBRANCH  12  15
ENDBRANCH   8   9
ENDBRANCH   7   8
ENDBRANCH   6   7
ENDBRANCH   3   6
ENDBRANCH   2   3
TORSDOF 9
ENDMDL
MODEL       48
REMARK 921   NORMALIZED FREE ENERGY PREDICTED BY IDOCK:   -4.89 KCAL/MOL
REMARK 922        TOTAL FREE ENERGY PREDICTED BY IDOCK:   -9.60 KCAL/MOL
REMARK 923 INTER-LIGAND FREE ENERGY PREDICTED BY IDOCK:   -7.88 KCAL/MOL
REMARK 924 INTRA-LIGAND FREE ENERGY PREDICTED BY IDOCK:   -1.73 KCAL/MOL
REMARK 927      BINDING AFFINITY PREDICTED BY RF-SCORE:    0.00 PKD
ROOT
HETATM    1  C   UNL     1     -12.733  11.712  71.586  1.00  0.00    -0.375 C  
HETATM    2  C   UNL     1     -13.410  12.933  72.201  1.00  0.00    -0.515 C  
ENDROOT
BRANCH   2   3
HETATM    3  N   UNL     1     -13.422  14.121  71.335  1.00  0.00    -0.338 NA 
BRANCH   3   4
HETATM    4  C   UNL     1     -13.994  15.324  71.959  1.00  0.00    -0.543 C  
HETATM    5  C   UNL     1     -13.381  15.741  73.291  1.00  0.00    -0.649 C  
ENDBRANCH   3   4
BRANCH   3   6
HETATM    6  C   UNL     1     -12.081  14.326  70.742  1.00  0.00    -0.348 C  
BRANCH   6   7
HETATM    7  C   UNL     1     -12.127  14.713  69.259  1.00  0.00    -0.272 C  
BRANCH   7   8
HETATM    8  O   UNL     1     -10.867  14.451  68.627  1.00  0.00    -0.235 OA 
BRANCH   8   9
HETATM    9  C   UNL     1     -10.653  13.123  68.347  1.00  0.00    -0.251 A  
HETATM   10  C   UNL     1     -11.663  12.207  68.042  1.00  0.00    -0.409 A  
HETATM   11  C   UNL     1     -11.361  10.858  67.872  1.00  0.00    -0.380 A  
HETATM   12  C   UNL     1     -10.041  10.410  67.962  1.00  0.00    -0.189 A  
HETATM   13  C   UNL     1      -9.019  11.335  68.214  1.00  0.00    -0.172 A  
HETATM   14  C   UNL     1      -9.327  12.689  68.399  1.00  0.00    -0.148 A  
BRANCH  12  15
HETATM   15  C   UNL     1      -9.770   8.959  67.805  1.00  0.00    -0.196 C  
HETATM   16 CL   UNL     1      -9.059   6.797  66.302  1.00  0.00    -0.172 Cl 
HETATM   17  C   UNL     1      -9.291   8.493  66.624  1.00  0.00    -0.189 C  
BRANCH  15  18
HETATM   18  C   UNL     1     -10.098   8.021  68.910  1.00  0.00    -0.209 A  
HETATM   19  C   UNL     1     -11.001   6.967  68.707  1.00  0.00    -0.210 A  
HETATM   20  C   UNL     1      -9.522   8.191  70.176  1.00  0.00    -0.167 A  
HETATM   21  C   UNL     1      -9.836   7.314  71.220  1.00  0.00    -0.183 A  
HETATM   22  C   UNL     1     -11.313   6.092  69.752  1.00  0.00    -0.452 A  
HETATM   23  C   UNL     1     -10.729   6.266  71.005  1.00  0.00    -0.313 A  
ENDBRANCH  15  18
BRANCH  17  24
HETATM   24  C   UNL     1      -8.906   9.358  65.488  1.00  0.00    -0.220 A  
HETATM   25  C   UNL     1      -8.225  10.893  63.244  1.00  0.00     0.097 A  
HETATM   26  C   UNL     1      -9.899  10.018  64.751  1.00  0.00    -0.325 A  
HETATM   27  C   UNL     1      -9.558  10.780  63.631  1.00  0.00    -0.347 A  
HETATM   28  C   UNL     1      -7.227  10.267  63.988  1.00  0.00    -0.057 A  
HETATM   29  C   UNL     1      -7.564   9.505  65.112  1.00  0.00    -0.112 A  
ENDBRANCH  17  24
ENDBRANCH  12  15
ENDBRANCH   8   9
ENDBRANCH   7   8
ENDBRANCH   6   7
ENDBRANCH   3   6
ENDBRANCH   2   3
TORSDOF 9
ENDMDL
MODEL       49
REMARK 921   NORMALIZED FREE ENERGY PREDICTED BY IDOCK:   -4.88 KCAL/MOL
REMARK 922        TOTAL FREE ENERGY PREDICTED BY IDOCK:   -9.58 KCAL/MOL
REMARK 923 INTER-LIGAND FREE ENERGY PREDICTED BY IDOCK:   -6.94 KCAL/MOL
REMARK 924 INTRA-LIGAND FREE ENERGY PREDICTED BY IDOCK:   -2.64 KCAL/MOL
REMARK 927      BINDING AFFINITY PREDICTED BY RF-SCORE:    0.00 PKD
ROOT
HETATM    1  C   UNL     1     -11.356  15.556  68.237  1.00  0.00    -0.360 C  
HETATM    2  C   UNL     1     -10.908  14.587  69.327  1.00  0.00    -0.252 C  
ENDROOT
BRANCH   2   3
HETATM    3  N   UNL     1     -11.280  13.185  69.082  1.00  0.00    -0.263 NA 
BRANCH   3   4
HETATM    4  C   UNL     1     -12.049  12.562  70.170  1.00  0.00    -0.292 C  
HETATM    5  C   UNL     1     -11.817  11.071  70.384  1.00  0.00    -0.460 C  
ENDBRANCH   3   4
BRANCH   3   6
HETATM    6  C   UNL     1     -11.907  13.055  67.747  1.00  0.00    -0.347 C  
BRANCH   6   7
HETATM    7  C   UNL     1     -11.227  12.006  66.859  1.00  0.00    -0.320 C  
BRANCH   7   8
HETATM    8  O   UNL     1      -9.979  11.589  67.430  1.00  0.00    -0.188 OA 
BRANCH   8   9
HETATM    9  C   UNL     1      -9.860  10.228  67.568  1.00  0.00    -0.173 A  
HETATM   10  C   UNL     1     -10.736   9.297  67.004  1.00  0.00    -0.199 A  
HETATM   11  C   UNL     1     -10.595   7.940  67.283  1.00  0.00    -0.365 A  
HETATM   12  C   UNL     1      -9.553   7.487  68.095  1.00  0.00    -0.155 A  
HETATM   13  C   UNL     1      -8.640   8.413  68.618  1.00  0.00    -0.132 A  
HETATM   14  C   UNL     1      -8.793   9.779  68.349  1.00  0.00    -0.120 A  
BRANCH  12  15
HETATM   15  C   UNL     1      -9.460   6.035  68.391  1.00  0.00    -0.124 C  
HETATM   16 CL   UNL     1      -9.684   3.910  70.085  1.00  0.00    -0.269 Cl 
HETATM   17  C   UNL     1      -9.868   5.573  69.599  1.00  0.00    -0.193 C  
BRANCH  15  18
HETATM   18  C   UNL     1      -8.850   5.114  67.396  1.00  0.00    -0.105 A  
HETATM   19  C   UNL     1      -9.659   4.349  66.543  1.00  0.00    -0.209 A  
HETATM   20  C   UNL     1      -7.457   4.986  67.312  1.00  0.00    -0.083 A  
HETATM   21  C   UNL     1      -6.882   4.114  66.382  1.00  0.00    -0.055 A  
HETATM   22  C   UNL     1      -9.081   3.478  65.615  1.00  0.00    -0.149 A  
HETATM   23  C   UNL     1      -7.694   3.364  65.534  1.00  0.00    -0.081 A  
ENDBRANCH  15  18
BRANCH  17  24
HETATM   24  C   UNL     1     -10.516   6.412  70.631  1.00  0.00    -0.269 A  
HETATM   25  C   UNL     1     -11.749   8.111  72.487  1.00  0.00    -0.457 A  
HETATM   26  C   UNL     1     -11.890   6.676  70.548  1.00  0.00    -0.430 A  
HETATM   27  C   UNL     1     -12.503   7.525  71.473  1.00  0.00    -0.375 A  
HETATM   28  C   UNL     1     -10.390   7.831  72.597  1.00  0.00    -0.352 A  
HETATM   29  C   UNL     1      -9.772   6.978  71.674  1.00  0.00    -0.164 A  
ENDBRANCH  17  24
ENDBRANCH  12  15
ENDBRANCH   8   9
ENDBRANCH   7   8
ENDBRANCH   6   7
ENDBRANCH   3   6
ENDBRANCH   2   3
TORSDOF 9
ENDMDL
MODEL       50
REMARK 921   NORMALIZED FREE ENERGY PREDICTED BY IDOCK:   -4.87 KCAL/MOL
REMARK 922        TOTAL FREE ENERGY PREDICTED BY IDOCK:   -9.56 KCAL/MOL
REMARK 923 INTER-LIGAND FREE ENERGY PREDICTED BY IDOCK:   -7.97 KCAL/MOL
REMARK 924 INTRA-LIGAND FREE ENERGY PREDICTED BY IDOCK:   -1.60 KCAL/MOL
REMARK 927      BINDING AFFINITY PREDICTED BY RF-SCORE:    0.00 PKD
ROOT
HETATM    1  C   UNL     1     -10.671  19.710  67.033  1.00  0.00    -0.575 C  
HETATM    2  C   UNL     1      -9.815  18.590  66.449  1.00  0.00    -0.361 C  
ENDROOT
BRANCH   2   3
HETATM    3  N   UNL     1      -8.750  18.111  67.344  1.00  0.00    -0.243 NA 
BRANCH   3   4
HETATM    4  C   UNL     1      -7.578  18.997  67.423  1.00  0.00    -0.230 C  
HETATM    5  C   UNL     1      -7.232  19.525  68.810  1.00  0.00    -0.391 C  
ENDBRANCH   3   4
BRANCH   3   6
HETATM    6  C   UNL     1      -9.322  17.746  68.659  1.00  0.00    -0.275 C  
BRANCH   6   7
HETATM    7  C   UNL     1      -9.270  16.241  68.946  1.00  0.00    -0.249 C  
BRANCH   7   8
HETATM    8  O   UNL     1      -8.320  15.594  68.088  1.00  0.00    -0.143 OA 
BRANCH   8   9
HETATM    9  C   UNL     1      -8.657  14.303  67.762  1.00  0.00    -0.177 A  
HETATM   10  C   UNL     1      -7.944  13.172  68.168  1.00  0.00    -0.154 A  
HETATM   11  C   UNL     1      -8.302  11.910  67.702  1.00  0.00    -0.152 A  
HETATM   12  C   UNL     1      -9.404  11.751  66.858  1.00  0.00    -0.197 A  
HETATM   13  C   UNL     1     -10.154  12.877  66.492  1.00  0.00    -0.263 A  
HETATM   14  C   UNL     1      -9.782  14.148  66.949  1.00  0.00    -0.272 A  
BRANCH  12  15
HETATM   15  C   UNL     1      -9.730  10.391  66.361  1.00  0.00    -0.250 C  
HETATM   16 CL   UNL     1     -10.610   7.839  66.749  1.00  0.00    -0.355 Cl 
HETATM   17  C   UNL     1     -10.304   9.493  67.201  1.00  0.00    -0.253 C  
BRANCH  15  18
HETATM   18  C   UNL     1      -9.355   9.999  64.977  1.00  0.00    -0.314 A  
HETATM   19  C   UNL     1      -9.982  10.593  63.873  1.00  0.00    -0.390 A  
HETATM   20  C   UNL     1      -8.382   9.014  64.761  1.00  0.00    -0.181 A  
HETATM   21  C   UNL     1      -8.033   8.638  63.459  1.00  0.00    -0.160 A  
HETATM   22  C   UNL     1      -9.632  10.215  62.573  1.00  0.00    -0.178 A  
HETATM   23  C   UNL     1      -8.657   9.240  62.369  1.00  0.00    -0.225 A  
ENDBRANCH  15  18
BRANCH  17  24
HETATM   24  C   UNL     1     -10.740   9.810  68.578  1.00  0.00    -0.252 A  
HETATM   25  C   UNL     1     -11.634  10.280  71.193  1.00  0.00    -0.385 A  
HETATM   26  C   UNL     1     -10.129   9.167  69.664  1.00  0.00    -0.206 A  
HETATM   27  C   UNL     1     -10.577   9.400  70.967  1.00  0.00    -0.400 A  
HETATM   28  C   UNL     1     -12.227  10.948  70.124  1.00  0.00    -0.423 A  
HETATM   29  C   UNL     1     -11.779  10.719  68.818  1.00  0.00    -0.315 A  
ENDBRANCH  17  24
ENDBRANCH  12  15
ENDBRANCH   8   9
ENDBRANCH   7   8
ENDBRANCH   6   7
ENDBRANCH   3   6
ENDBRANCH   2   3
TORSDOF 9
ENDMDL
MODEL       51
REMARK 921   NORMALIZED FREE ENERGY PREDICTED BY IDOCK:   -4.85 KCAL/MOL
REMARK 922        TOTAL FREE ENERGY PREDICTED BY IDOCK:   -9.54 KCAL/MOL
REMARK 923 INTER-LIGAND FREE ENERGY PREDICTED BY IDOCK:   -6.66 KCAL/MOL
REMARK 924 INTRA-LIGAND FREE ENERGY PREDICTED BY IDOCK:   -2.88 KCAL/MOL
REMARK 927      BINDING AFFINITY PREDICTED BY RF-SCORE:    0.00 PKD
ROOT
HETATM    1  C   UNL     1     -13.554  15.345  71.495  1.00  0.00    -0.604 C  
HETATM    2  C   UNL     1     -12.158  14.732  71.438  1.00  0.00    -0.344 C  
ENDROOT
BRANCH   2   3
HETATM    3  N   UNL     1     -12.054  13.535  70.590  1.00  0.00    -0.338 NA 
BRANCH   3   4
HETATM    4  C   UNL     1     -12.859  12.393  71.049  1.00  0.00    -0.155 C  
HETATM    5  C   UNL     1     -12.209  11.021  70.916  1.00  0.00    -0.471 C  
ENDBRANCH   3   4
BRANCH   3   6
HETATM    6  C   UNL     1     -12.275  13.901  69.173  1.00  0.00    -0.267 C  
BRANCH   6   7
HETATM    7  C   UNL     1     -10.991  14.316  68.446  1.00  0.00    -0.253 C  
BRANCH   7   8
HETATM    8  O   UNL     1     -10.747  13.464  67.319  1.00  0.00    -0.257 OA 
BRANCH   8   9
HETATM    9  C   UNL     1     -10.430  12.171  67.660  1.00  0.00    -0.206 A  
HETATM   10  C   UNL     1     -11.179  11.051  67.291  1.00  0.00    -0.330 A  
HETATM   11  C   UNL     1     -10.838   9.788  67.770  1.00  0.00    -0.306 A  
HETATM   12  C   UNL     1      -9.719   9.618  68.589  1.00  0.00    -0.162 A  
HETATM   13  C   UNL     1      -8.935  10.732  68.916  1.00  0.00    -0.158 A  
HETATM   14  C   UNL     1      -9.289  12.004  68.446  1.00  0.00    -0.175 A  
BRANCH  12  15
HETATM   15  C   UNL     1      -9.412   8.259  69.101  1.00  0.00    -0.155 C  
HETATM   16 CL   UNL     1      -8.335   5.771  68.812  1.00  0.00    -0.104 Cl 
HETATM   17  C   UNL     1      -8.647   7.422  68.356  1.00  0.00    -0.124 C  
BRANCH  15  18
HETATM   18  C   UNL     1     -10.007   7.799  70.383  1.00  0.00    -0.188 A  
HETATM   19  C   UNL     1     -11.280   7.211  70.409  1.00  0.00    -0.320 A  
HETATM   20  C   UNL     1      -9.308   7.967  71.586  1.00  0.00    -0.189 A  
HETATM   21  C   UNL     1      -9.869   7.542  72.795  1.00  0.00    -0.261 A  
HETATM   22  C   UNL     1     -11.838   6.788  71.618  1.00  0.00    -0.370 A  
HETATM   23  C   UNL     1     -11.131   6.952  72.808  1.00  0.00    -0.304 A  
ENDBRANCH  15  18
BRANCH  17  24
HETATM   24  C   UNL     1      -7.989   7.810  67.089  1.00  0.00    -0.117 A  
HETATM   25  C   UNL     1      -6.772   8.684  64.721  1.00  0.00    -0.069 A  
HETATM   26  C   UNL     1      -6.712   8.387  67.118  1.00  0.00    -0.063 A  
HETATM   27  C   UNL     1      -6.107   8.825  65.937  1.00  0.00    -0.052 A  
HETATM   28  C   UNL     1      -8.028   8.084  64.676  1.00  0.00    -0.151 A  
HETATM   29  C   UNL     1      -8.635   7.641  65.857  1.00  0.00    -0.164 A  
ENDBRANCH  17  24
ENDBRANCH  12  15
ENDBRANCH   8   9
ENDBRANCH   7   8
ENDBRANCH   6   7
ENDBRANCH   3   6
ENDBRANCH   2   3
TORSDOF 9
ENDMDL
MODEL       52
REMARK 921   NORMALIZED FREE ENERGY PREDICTED BY IDOCK:   -4.83 KCAL/MOL
REMARK 922        TOTAL FREE ENERGY PREDICTED BY IDOCK:   -9.52 KCAL/MOL
REMARK 923 INTER-LIGAND FREE ENERGY PREDICTED BY IDOCK:   -8.45 KCAL/MOL
REMARK 924 INTRA-LIGAND FREE ENERGY PREDICTED BY IDOCK:   -1.06 KCAL/MOL
REMARK 927      BINDING AFFINITY PREDICTED BY RF-SCORE:    0.00 PKD
ROOT
HETATM    1  C   UNL     1      -6.298  16.512  69.601  1.00  0.00    -0.216 C  
HETATM    2  C   UNL     1      -5.872  17.974  69.706  1.00  0.00    -0.240 C  
ENDROOT
BRANCH   2   3
HETATM    3  N   UNL     1      -6.776  18.919  69.034  1.00  0.00    -0.288 NA 
BRANCH   3   4
HETATM    4  C   UNL     1      -6.131  20.161  68.583  1.00  0.00    -0.286 C  
HETATM    5  C   UNL     1      -5.313  20.908  69.629  1.00  0.00    -0.410 C  
ENDBRANCH   3   4
BRANCH   3   6
HETATM    6  C   UNL     1      -7.546  18.219  67.981  1.00  0.00    -0.250 C  
BRANCH   6   7
HETATM    7  C   UNL     1      -8.657  19.080  67.369  1.00  0.00    -0.278 C  
BRANCH   7   8
HETATM    8  O   UNL     1      -9.838  19.036  68.181  1.00  0.00    -0.327 OA 
BRANCH   8   9
HETATM    9  C   UNL     1     -10.256  17.763  68.484  1.00  0.00    -0.382 A  
HETATM   10  C   UNL     1     -10.055  17.137  69.717  1.00  0.00     0.234 A  
HETATM   11  C   UNL     1     -10.422  15.806  69.898  1.00  0.00    -0.324 A  
HETATM   12  C   UNL     1     -11.035  15.092  68.865  1.00  0.00    -0.256 A  
HETATM   13  C   UNL     1     -11.287  15.733  67.645  1.00  0.00    -0.194 A  
HETATM   14  C   UNL     1     -10.902  17.067  67.460  1.00  0.00    -0.203 A  
BRANCH  12  15
HETATM   15  C   UNL     1     -11.381  13.666  69.093  1.00  0.00    -0.335 C  
HETATM   16 CL   UNL     1     -12.378  11.655  70.640  1.00  0.00    -0.452 Cl 
HETATM   17  C   UNL     1     -12.039  13.312  70.225  1.00  0.00    -0.335 C  
BRANCH  15  18
HETATM   18  C   UNL     1     -10.937  12.632  68.121  1.00  0.00    -0.265 A  
HETATM   19  C   UNL     1      -9.669  12.044  68.236  1.00  0.00    -0.205 A  
HETATM   20  C   UNL     1     -11.775  12.248  67.066  1.00  0.00    -0.399 A  
HETATM   21  C   UNL     1     -11.356  11.281  66.147  1.00  0.00    -0.035 A  
HETATM   22  C   UNL     1      -9.253  11.078  67.315  1.00  0.00    -0.156 A  
HETATM   23  C   UNL     1     -10.097  10.697  66.274  1.00  0.00    -0.291 A  
ENDBRANCH  15  18
BRANCH  17  24
HETATM   24  C   UNL     1     -12.546  14.277  71.224  1.00  0.00    -0.436 A  
HETATM   25  C   UNL     1     -13.526  15.994  73.211  1.00  0.00    -0.570 A  
HETATM   26  C   UNL     1     -11.741  14.634  72.315  1.00  0.00    -0.062 A  
HETATM   27  C   UNL     1     -12.231  15.488  73.306  1.00  0.00    -0.606 A  
HETATM   28  C   UNL     1     -14.323  15.671  72.116  1.00  0.00    -0.497 A  
HETATM   29  C   UNL     1     -13.834  14.817  71.120  1.00  0.00    -0.388 A  
ENDBRANCH  17  24
ENDBRANCH  12  15
ENDBRANCH   8   9
ENDBRANCH   7   8
ENDBRANCH   6   7
ENDBRANCH   3   6
ENDBRANCH   2   3
TORSDOF 9
ENDMDL
MODEL       53
REMARK 921   NORMALIZED FREE ENERGY PREDICTED BY IDOCK:   -4.83 KCAL/MOL
REMARK 922        TOTAL FREE ENERGY PREDICTED BY IDOCK:   -9.51 KCAL/MOL
REMARK 923 INTER-LIGAND FREE ENERGY PREDICTED BY IDOCK:   -7.75 KCAL/MOL
REMARK 924 INTRA-LIGAND FREE ENERGY PREDICTED BY IDOCK:   -1.76 KCAL/MOL
REMARK 927      BINDING AFFINITY PREDICTED BY RF-SCORE:    0.00 PKD
ROOT
HETATM    1  C   UNL     1     -12.337  12.449  63.544  1.00  0.00    -0.648 C  
HETATM    2  C   UNL     1     -10.894  12.771  63.921  1.00  0.00    -0.411 C  
ENDROOT
BRANCH   2   3
HETATM    3  N   UNL     1     -10.710  13.189  65.319  1.00  0.00    -0.295 NA 
BRANCH   3   4
HETATM    4  C   UNL     1     -10.245  14.574  65.483  1.00  0.00    -0.370 C  
HETATM    5  C   UNL     1     -11.102  15.650  64.826  1.00  0.00    -0.426 C  
ENDBRANCH   3   4
BRANCH   3   6
HETATM    6  C   UNL     1     -11.919  12.859  66.107  1.00  0.00    -0.429 C  
BRANCH   6   7
HETATM    7  C   UNL     1     -11.601  12.272  67.487  1.00  0.00    -0.353 C  
BRANCH   7   8
HETATM    8  O   UNL     1     -10.295  11.680  67.498  1.00  0.00    -0.192 OA 
BRANCH   8   9
HETATM    9  C   UNL     1     -10.188  10.588  68.325  1.00  0.00    -0.163 A  
HETATM   10  C   UNL     1      -9.619  10.616  69.601  1.00  0.00     0.024 A  
HETATM   11  C   UNL     1      -9.461   9.438  70.326  1.00  0.00    -0.294 A  
HETATM   12  C   UNL     1      -9.906   8.220  69.808  1.00  0.00    -0.187 A  
HETATM   13  C   UNL     1     -10.526   8.197  68.551  1.00  0.00    -0.199 A  
HETATM   14  C   UNL     1     -10.670   9.381  67.816  1.00  0.00    -0.290 A  
BRANCH  12  15
HETATM   15  C   UNL     1      -9.689   6.985  70.602  1.00  0.00    -0.174 C  
HETATM   16 CL   UNL     1     -10.372   5.268  72.607  1.00  0.00    -0.235 Cl 
HETATM   17  C   UNL     1     -10.600   6.626  71.541  1.00  0.00    -0.222 C  
BRANCH  15  18
HETATM   18  C   UNL     1      -8.441   6.198  70.420  1.00  0.00    -0.133 A  
HETATM   19  C   UNL     1      -8.378   5.173  69.464  1.00  0.00    -0.093 A  
HETATM   20  C   UNL     1      -7.318   6.458  71.216  1.00  0.00    -0.080 A  
HETATM   21  C   UNL     1      -6.146   5.713  71.051  1.00  0.00    -0.033 A  
HETATM   22  C   UNL     1      -7.205   4.430  69.302  1.00  0.00    -0.051 A  
HETATM   23  C   UNL     1      -6.091   4.702  70.094  1.00  0.00    -0.021 A  
ENDBRANCH  15  18
BRANCH  17  24
HETATM   24  C   UNL     1     -11.881   7.332  71.764  1.00  0.00    -0.330 A  
HETATM   25  C   UNL     1     -14.312   8.698  72.042  1.00  0.00    -0.512 A  
HETATM   26  C   UNL     1     -13.082   6.736  71.355  1.00  0.00    -0.214 A  
HETATM   27  C   UNL     1     -14.293   7.419  71.491  1.00  0.00    -0.594 A  
HETATM   28  C   UNL     1     -13.128   9.288  72.481  1.00  0.00    -0.416 A  
HETATM   29  C   UNL     1     -11.914   8.605  72.348  1.00  0.00    -0.410 A  
ENDBRANCH  17  24
ENDBRANCH  12  15
ENDBRANCH   8   9
ENDBRANCH   7   8
ENDBRANCH   6   7
ENDBRANCH   3   6
ENDBRANCH   2   3
TORSDOF 9
ENDMDL
MODEL       54
REMARK 921   NORMALIZED FREE ENERGY PREDICTED BY IDOCK:   -4.81 KCAL/MOL
REMARK 922        TOTAL FREE ENERGY PREDICTED BY IDOCK:   -9.47 KCAL/MOL
REMARK 923 INTER-LIGAND FREE ENERGY PREDICTED BY IDOCK:   -7.48 KCAL/MOL
REMARK 924 INTRA-LIGAND FREE ENERGY PREDICTED BY IDOCK:   -1.99 KCAL/MOL
REMARK 927      BINDING AFFINITY PREDICTED BY RF-SCORE:    0.00 PKD
ROOT
HETATM    1  C   UNL     1     -14.044   8.438  71.932  1.00  0.00    -0.516 C  
HETATM    2  C   UNL     1     -12.955   7.443  71.542  1.00  0.00    -0.375 C  
ENDROOT
BRANCH   2   3
HETATM    3  N   UNL     1     -11.718   8.062  71.043  1.00  0.00    -0.286 NA 
BRANCH   3   4
HETATM    4  C   UNL     1     -10.865   8.645  72.090  1.00  0.00    -0.354 C  
HETATM    5  C   UNL     1     -10.614   7.770  73.312  1.00  0.00    -0.350 C  
ENDBRANCH   3   4
BRANCH   3   6
HETATM    6  C   UNL     1     -11.013   7.125  70.140  1.00  0.00    -0.267 C  
BRANCH   6   7
HETATM    7  C   UNL     1      -9.687   7.679  69.607  1.00  0.00    -0.171 C  
BRANCH   7   8
HETATM    8  O   UNL     1      -9.838   8.149  68.261  1.00  0.00    -0.161 OA 
BRANCH   8   9
HETATM    9  C   UNL     1      -9.568   9.487  68.108  1.00  0.00    -0.137 A  
HETATM   10  C   UNL     1     -10.145  10.503  68.875  1.00  0.00    -0.215 A  
HETATM   11  C   UNL     1      -9.890  11.839  68.579  1.00  0.00    -0.192 A  
HETATM   12  C   UNL     1      -9.021  12.183  67.541  1.00  0.00    -0.177 A  
HETATM   13  C   UNL     1      -8.399  11.166  66.804  1.00  0.00    -0.152 A  
HETATM   14  C   UNL     1      -8.669   9.822  67.093  1.00  0.00    -0.137 A  
BRANCH  12  15
HETATM   15  C   UNL     1      -8.803  13.620  67.242  1.00  0.00    -0.227 C  
HETATM   16 CL   UNL     1      -9.183  15.837  65.701  1.00  0.00    -0.248 Cl 
HETATM   17  C   UNL     1      -9.465  14.195  66.206  1.00  0.00    -0.241 C  
BRANCH  15  18
HETATM   18  C   UNL     1      -7.805  14.396  68.025  1.00  0.00    -0.141 A  
HETATM   19  C   UNL     1      -8.212  15.463  68.839  1.00  0.00    -0.192 A  
HETATM   20  C   UNL     1      -6.442  14.082  67.942  1.00  0.00    -0.170 A  
HETATM   21  C   UNL     1      -5.501  14.815  68.673  1.00  0.00    -0.094 A  
HETATM   22  C   UNL     1      -7.269  16.195  69.567  1.00  0.00    -0.136 A  
HETATM   23  C   UNL     1      -5.917  15.869  69.484  1.00  0.00    -0.145 A  
ENDBRANCH  15  18
BRANCH  17  24
HETATM   24  C   UNL     1     -10.497  13.507  65.400  1.00  0.00    -0.322 A  
HETATM   25  C   UNL     1     -12.449  12.317  63.780  1.00  0.00    -0.619 A  
HETATM   26  C   UNL     1     -10.142  12.912  64.181  1.00  0.00    -0.212 A  
HETATM   27  C   UNL     1     -11.117  12.322  63.373  1.00  0.00    -0.487 A  
HETATM   28  C   UNL     1     -12.808  12.876  65.003  1.00  0.00    -0.348 A  
HETATM   29  C   UNL     1     -11.833  13.467  65.817  1.00  0.00    -0.412 A  
ENDBRANCH  17  24
ENDBRANCH  12  15
ENDBRANCH   8   9
ENDBRANCH   7   8
ENDBRANCH   6   7
ENDBRANCH   3   6
ENDBRANCH   2   3
TORSDOF 9
ENDMDL
MODEL       55
REMARK 921   NORMALIZED FREE ENERGY PREDICTED BY IDOCK:   -4.80 KCAL/MOL
REMARK 922        TOTAL FREE ENERGY PREDICTED BY IDOCK:   -9.46 KCAL/MOL
REMARK 923 INTER-LIGAND FREE ENERGY PREDICTED BY IDOCK:   -6.85 KCAL/MOL
REMARK 924 INTRA-LIGAND FREE ENERGY PREDICTED BY IDOCK:   -2.61 KCAL/MOL
REMARK 927      BINDING AFFINITY PREDICTED BY RF-SCORE:    0.00 PKD
ROOT
HETATM    1  C   UNL     1      -8.215   7.956  68.260  1.00  0.00    -0.124 C  
HETATM    2  C   UNL     1      -8.602   9.124  69.161  1.00  0.00    -0.133 C  
ENDROOT
BRANCH   2   3
HETATM    3  N   UNL     1      -8.172  10.441  68.665  1.00  0.00    -0.114 NA 
BRANCH   3   4
HETATM    4  C   UNL     1      -9.252  11.435  68.565  1.00  0.00    -0.174 C  
HETATM    5  C   UNL     1      -9.816  11.670  67.169  1.00  0.00    -0.205 C  
ENDBRANCH   3   4
BRANCH   3   6
HETATM    6  C   UNL     1      -6.991  10.905  69.427  1.00  0.00    -0.125 C  
BRANCH   6   7
HETATM    7  C   UNL     1      -5.938  11.595  68.551  1.00  0.00    -0.049 C  
BRANCH   7   8
HETATM    8  O   UNL     1      -5.533  12.842  69.131  1.00  0.00    -0.068 OA 
BRANCH   8   9
HETATM    9  C   UNL     1      -6.334  13.902  68.781  1.00  0.00    -0.091 A  
HETATM   10  C   UNL     1      -6.851  14.113  67.500  1.00  0.00    -0.151 A  
HETATM   11  C   UNL     1      -7.569  15.272  67.214  1.00  0.00    -0.244 A  
HETATM   12  C   UNL     1      -7.819  16.216  68.212  1.00  0.00    -0.153 A  
HETATM   13  C   UNL     1      -7.348  15.981  69.511  1.00  0.00    -0.146 A  
HETATM   14  C   UNL     1      -6.613  14.823  69.792  1.00  0.00    -0.169 A  
BRANCH  12  15
HETATM   15  C   UNL     1      -8.562  17.451  67.853  1.00  0.00    -0.232 C  
HETATM   16 CL   UNL     1     -10.880  18.809  67.388  1.00  0.00    -0.481 Cl 
HETATM   17  C   UNL     1      -9.918  17.453  67.906  1.00  0.00    -0.301 C  
BRANCH  15  18
HETATM   18  C   UNL     1      -7.822  18.645  67.366  1.00  0.00    -0.242 A  
HETATM   19  C   UNL     1      -7.640  18.858  65.992  1.00  0.00    -0.259 A  
HETATM   20  C   UNL     1      -7.281  19.561  68.277  1.00  0.00    -0.338 A  
HETATM   21  C   UNL     1      -6.578  20.681  67.821  1.00  0.00    -0.368 A  
HETATM   22  C   UNL     1      -6.936  19.978  65.539  1.00  0.00    -0.337 A  
HETATM   23  C   UNL     1      -6.409  20.888  66.454  1.00  0.00    -0.319 A  
ENDBRANCH  15  18
BRANCH  17  24
HETATM   24  C   UNL     1     -10.728  16.324  68.411  1.00  0.00    -0.311 A  
HETATM   25  C   UNL     1     -12.140  14.121  69.416  1.00  0.00    -0.372 A  
HETATM   26  C   UNL     1     -10.969  16.202  69.786  1.00  0.00    -0.349 A  
HETATM   27  C   UNL     1     -11.671  15.103  70.287  1.00  0.00    -0.338 A  
HETATM   28  C   UNL     1     -11.934  14.248  68.045  1.00  0.00    -0.353 A  
HETATM   29  C   UNL     1     -11.233  15.350  67.540  1.00  0.00    -0.302 A  
ENDBRANCH  17  24
ENDBRANCH  12  15
ENDBRANCH   8   9
ENDBRANCH   7   8
ENDBRANCH   6   7
ENDBRANCH   3   6
ENDBRANCH   2   3
TORSDOF 9
ENDMDL
MODEL       56
REMARK 921   NORMALIZED FREE ENERGY PREDICTED BY IDOCK:   -4.80 KCAL/MOL
REMARK 922        TOTAL FREE ENERGY PREDICTED BY IDOCK:   -9.46 KCAL/MOL
REMARK 923 INTER-LIGAND FREE ENERGY PREDICTED BY IDOCK:   -7.18 KCAL/MOL
REMARK 924 INTRA-LIGAND FREE ENERGY PREDICTED BY IDOCK:   -2.28 KCAL/MOL
REMARK 927      BINDING AFFINITY PREDICTED BY RF-SCORE:    0.00 PKD
ROOT
HETATM    1  C   UNL     1     -12.121  14.670  64.379  1.00  0.00    -0.481 C  
HETATM    2  C   UNL     1     -12.048  13.256  63.810  1.00  0.00    -0.482 C  
ENDROOT
BRANCH   2   3
HETATM    3  N   UNL     1     -11.006  12.412  64.415  1.00  0.00    -0.312 NA 
BRANCH   3   4
HETATM    4  C   UNL     1     -10.040  11.857  63.455  1.00  0.00    -0.438 C  
HETATM    5  C   UNL     1      -9.567  10.434  63.728  1.00  0.00    -0.366 C  
ENDBRANCH   3   4
BRANCH   3   6
HETATM    6  C   UNL     1     -10.385  13.118  65.558  1.00  0.00    -0.290 C  
BRANCH   6   7
HETATM    7  C   UNL     1     -10.659  12.443  66.908  1.00  0.00    -0.229 C  
BRANCH   7   8
HETATM    8  O   UNL     1      -9.465  11.842  67.426  1.00  0.00    -0.170 OA 
BRANCH   8   9
HETATM    9  C   UNL     1      -9.516  10.471  67.486  1.00  0.00    -0.149 A  
HETATM   10  C   UNL     1     -10.632   9.705  67.135  1.00  0.00    -0.298 A  
HETATM   11  C   UNL     1     -10.626   8.326  67.327  1.00  0.00    -0.335 A  
HETATM   12  C   UNL     1      -9.493   7.684  67.831  1.00  0.00    -0.156 A  
HETATM   13  C   UNL     1      -8.353   8.442  68.133  1.00  0.00    -0.128 A  
HETATM   14  C   UNL     1      -8.367   9.831  67.954  1.00  0.00    -0.114 A  
BRANCH  12  15
HETATM   15  C   UNL     1      -9.543   6.216  68.049  1.00  0.00    -0.115 C  
HETATM   16 CL   UNL     1      -9.889   4.036  69.649  1.00  0.00    -0.242 Cl 
HETATM   17  C   UNL     1      -9.918   5.733  69.260  1.00  0.00    -0.182 C  
BRANCH  15  18
HETATM   18  C   UNL     1      -9.108   5.292  66.968  1.00  0.00    -0.112 A  
HETATM   19  C   UNL     1     -10.008   4.887  65.971  1.00  0.00    -0.243 A  
HETATM   20  C   UNL     1      -7.797   4.800  66.944  1.00  0.00    -0.099 A  
HETATM   21  C   UNL     1      -7.388   3.925  65.932  1.00  0.00    -0.073 A  
HETATM   22  C   UNL     1      -9.597   4.012  64.961  1.00  0.00    -0.180 A  
HETATM   23  C   UNL     1      -8.288   3.534  64.943  1.00  0.00    -0.097 A  
ENDBRANCH  15  18
BRANCH  17  24
HETATM   24  C   UNL     1     -10.397   6.577  70.375  1.00  0.00    -0.237 A  
HETATM   25  C   UNL     1     -11.286   8.063  72.579  1.00  0.00    -0.469 A  
HETATM   26  C   UNL     1      -9.483   7.064  71.320  1.00  0.00    -0.164 A  
HETATM   27  C   UNL     1      -9.927   7.802  72.419  1.00  0.00    -0.272 A  
HETATM   28  C   UNL     1     -12.201   7.611  71.630  1.00  0.00    -0.346 A  
HETATM   29  C   UNL     1     -11.758   6.873  70.526  1.00  0.00    -0.401 A  
ENDBRANCH  17  24
ENDBRANCH  12  15
ENDBRANCH   8   9
ENDBRANCH   7   8
ENDBRANCH   6   7
ENDBRANCH   3   6
ENDBRANCH   2   3
TORSDOF 9
ENDMDL
MODEL       57
REMARK 921   NORMALIZED FREE ENERGY PREDICTED BY IDOCK:   -4.79 KCAL/MOL
REMARK 922        TOTAL FREE ENERGY PREDICTED BY IDOCK:   -9.45 KCAL/MOL
REMARK 923 INTER-LIGAND FREE ENERGY PREDICTED BY IDOCK:   -7.59 KCAL/MOL
REMARK 924 INTRA-LIGAND FREE ENERGY PREDICTED BY IDOCK:   -1.86 KCAL/MOL
REMARK 927      BINDING AFFINITY PREDICTED BY RF-SCORE:    0.00 PKD
ROOT
HETATM    1  C   UNL     1     -13.761   7.547  71.462  1.00  0.00    -0.460 C  
HETATM    2  C   UNL     1     -12.752   8.368  72.259  1.00  0.00    -0.329 C  
ENDROOT
BRANCH   2   3
HETATM    3  N   UNL     1     -11.532   7.635  72.632  1.00  0.00    -0.354 NA 
BRANCH   3   4
HETATM    4  C   UNL     1     -11.459   6.266  72.099  1.00  0.00    -0.307 C  
HETATM    5  C   UNL     1     -11.204   5.164  73.120  1.00  0.00    -0.398 C  
ENDBRANCH   3   4
BRANCH   3   6
HETATM    6  C   UNL     1     -10.339   8.462  72.344  1.00  0.00    -0.329 C  
BRANCH   6   7
HETATM    7  C   UNL     1     -10.465   9.278  71.053  1.00  0.00    -0.314 C  
BRANCH   7   8
HETATM    8  O   UNL     1      -9.170   9.647  70.558  1.00  0.00    -0.249 OA 
BRANCH   8   9
HETATM    9  C   UNL     1      -9.158   9.968  69.222  1.00  0.00    -0.200 A  
HETATM   10  C   UNL     1      -8.297  10.903  68.642  1.00  0.00    -0.148 A  
HETATM   11  C   UNL     1      -8.428  11.239  67.297  1.00  0.00    -0.144 A  
HETATM   12  C   UNL     1      -9.391  10.616  66.500  1.00  0.00    -0.192 A  
HETATM   13  C   UNL     1     -10.221   9.639  67.066  1.00  0.00    -0.308 A  
HETATM   14  C   UNL     1     -10.098   9.314  68.423  1.00  0.00    -0.215 A  
BRANCH  12  15
HETATM   15  C   UNL     1      -9.515  11.028  65.079  1.00  0.00    -0.269 C  
HETATM   16 CL   UNL     1      -8.689  10.969  62.481  1.00  0.00    -0.324 Cl 
HETATM   17  C   UNL     1      -8.706  10.464  64.147  1.00  0.00    -0.197 C  
BRANCH  15  18
HETATM   18  C   UNL     1     -10.465  12.108  64.701  1.00  0.00    -0.336 A  
HETATM   19  C   UNL     1     -10.288  13.413  65.181  1.00  0.00    -0.349 A  
HETATM   20  C   UNL     1     -11.561  11.827  63.875  1.00  0.00    -0.469 A  
HETATM   21  C   UNL     1     -12.460  12.839  63.525  1.00  0.00    -0.474 A  
HETATM   22  C   UNL     1     -11.188  14.423  64.830  1.00  0.00    -0.391 A  
HETATM   23  C   UNL     1     -12.271  14.135  64.001  1.00  0.00    -0.369 A  
ENDBRANCH  15  18
BRANCH  17  24
HETATM   24  C   UNL     1      -7.760   9.363  64.430  1.00  0.00    -0.119 A  
HETATM   25  C   UNL     1      -6.029   7.262  65.099  1.00  0.00    -0.037 A  
HETATM   26  C   UNL     1      -8.216   8.037  64.424  1.00  0.00    -0.085 A  
HETATM   27  C   UNL     1      -7.353   6.991  64.760  1.00  0.00    -0.085 A  
HETATM   28  C   UNL     1      -5.557   8.572  65.079  1.00  0.00    -0.047 A  
HETATM   29  C   UNL     1      -6.418   9.623  64.740  1.00  0.00    -0.090 A  
ENDBRANCH  17  24
ENDBRANCH  12  15
ENDBRANCH   8   9
ENDBRANCH   7   8
ENDBRANCH   6   7
ENDBRANCH   3   6
ENDBRANCH   2   3
TORSDOF 9
ENDMDL
MODEL       58
REMARK 921   NORMALIZED FREE ENERGY PREDICTED BY IDOCK:   -4.77 KCAL/MOL
REMARK 922        TOTAL FREE ENERGY PREDICTED BY IDOCK:   -9.42 KCAL/MOL
REMARK 923 INTER-LIGAND FREE ENERGY PREDICTED BY IDOCK:   -7.38 KCAL/MOL
REMARK 924 INTRA-LIGAND FREE ENERGY PREDICTED BY IDOCK:   -2.04 KCAL/MOL
REMARK 927      BINDING AFFINITY PREDICTED BY RF-SCORE:    0.00 PKD
ROOT
HETATM    1  C   UNL     1     -11.675  13.807  68.885  1.00  0.00    -0.374 C  
HETATM    2  C   UNL     1     -12.131  13.866  67.430  1.00  0.00    -0.345 C  
ENDROOT
BRANCH   2   3
HETATM    3  N   UNL     1     -12.133  12.566  66.742  1.00  0.00    -0.546 NA 
BRANCH   3   4
HETATM    4  C   UNL     1     -12.228  12.654  65.277  1.00  0.00    -0.475 C  
HETATM    5  C   UNL     1     -12.137  14.055  64.684  1.00  0.00    -0.462 C  
ENDBRANCH   3   4
BRANCH   3   6
HETATM    6  C   UNL     1     -11.008  11.736  67.227  1.00  0.00    -0.267 C  
BRANCH   6   7
HETATM    7  C   UNL     1     -10.524  10.710  66.196  1.00  0.00    -0.194 C  
BRANCH   7   8
HETATM    8  O   UNL     1      -9.253  10.167  66.578  1.00  0.00    -0.149 OA 
BRANCH   8   9
HETATM    9  C   UNL     1      -9.330   8.915  67.138  1.00  0.00    -0.145 A  
HETATM   10  C   UNL     1     -10.452   8.084  67.065  1.00  0.00    -0.410 A  
HETATM   11  C   UNL     1     -10.475   6.873  67.751  1.00  0.00    -0.279 A  
HETATM   12  C   UNL     1      -9.365   6.451  68.486  1.00  0.00    -0.122 A  
HETATM   13  C   UNL     1      -8.218   7.257  68.517  1.00  0.00    -0.125 A  
HETATM   14  C   UNL     1      -8.203   8.482  67.838  1.00  0.00    -0.119 A  
BRANCH  12  15
HETATM   15  C   UNL     1      -9.447   5.168  69.227  1.00  0.00    -0.196 C  
HETATM   16 CL   UNL     1     -10.034   3.716  71.459  1.00  0.00    -0.223 Cl 
HETATM   17  C   UNL     1     -10.004   5.145  70.463  1.00  0.00    -0.234 C  
BRANCH  15  18
HETATM   18  C   UNL     1      -8.849   3.937  68.644  1.00  0.00    -0.150 A  
HETATM   19  C   UNL     1      -7.586   3.492  69.059  1.00  0.00    -0.052 A  
HETATM   20  C   UNL     1      -9.536   3.218  67.656  1.00  0.00    -0.214 A  
HETATM   21  C   UNL     1      -8.972   2.064  67.101  1.00  0.00    -0.156 A  
HETATM   22  C   UNL     1      -7.025   2.339  68.503  1.00  0.00    -0.040 A  
HETATM   23  C   UNL     1      -7.720   1.627  67.526  1.00  0.00    -0.059 A  
ENDBRANCH  15  18
BRANCH  17  24
HETATM   24  C   UNL     1     -10.650   6.312  71.101  1.00  0.00    -0.289 A  
HETATM   25  C   UNL     1     -11.886   8.586  72.178  1.00  0.00    -0.448 A  
HETATM   26  C   UNL     1     -12.031   6.506  70.957  1.00  0.00    -0.358 A  
HETATM   27  C   UNL     1     -12.645   7.641  71.491  1.00  0.00    -0.369 A  
HETATM   28  C   UNL     1     -10.518   8.388  72.355  1.00  0.00    -0.402 A  
HETATM   29  C   UNL     1      -9.900   7.250  71.823  1.00  0.00    -0.175 A  
ENDBRANCH  17  24
ENDBRANCH  12  15
ENDBRANCH   8   9
ENDBRANCH   7   8
ENDBRANCH   6   7
ENDBRANCH   3   6
ENDBRANCH   2   3
TORSDOF 9
ENDMDL
MODEL       59
REMARK 921   NORMALIZED FREE ENERGY PREDICTED BY IDOCK:   -4.75 KCAL/MOL
REMARK 922        TOTAL FREE ENERGY PREDICTED BY IDOCK:   -9.39 KCAL/MOL
REMARK 923 INTER-LIGAND FREE ENERGY PREDICTED BY IDOCK:   -6.68 KCAL/MOL
REMARK 924 INTRA-LIGAND FREE ENERGY PREDICTED BY IDOCK:   -2.71 KCAL/MOL
REMARK 927      BINDING AFFINITY PREDICTED BY RF-SCORE:    0.00 PKD
ROOT
HETATM    1  C   UNL     1      -9.615   4.730  69.695  1.00  0.00    -0.253 C  
HETATM    2  C   UNL     1      -9.193   3.520  68.866  1.00  0.00    -0.162 C  
ENDROOT
BRANCH   2   3
HETATM    3  N   UNL     1      -8.010   3.747  68.021  1.00  0.00    -0.076 NA 
BRANCH   3   4
HETATM    4  C   UNL     1      -6.836   2.940  68.390  1.00  0.00    -0.048 C  
HETATM    5  C   UNL     1      -6.675   1.617  67.650  1.00  0.00    -0.032 C  
ENDBRANCH   3   4
BRANCH   3   6
HETATM    6  C   UNL     1      -8.385   3.652  66.593  1.00  0.00    -0.104 C  
BRANCH   6   7
HETATM    7  C   UNL     1      -8.705   5.011  65.959  1.00  0.00    -0.127 C  
BRANCH   7   8
HETATM    8  O   UNL     1      -7.896   6.044  66.538  1.00  0.00    -0.101 OA 
BRANCH   8   9
HETATM    9  C   UNL     1      -8.620   7.052  67.125  1.00  0.00    -0.121 A  
HETATM   10  C   UNL     1      -9.980   7.282  66.901  1.00  0.00    -0.302 A  
HETATM   11  C   UNL     1     -10.607   8.392  67.461  1.00  0.00    -0.285 A  
HETATM   12  C   UNL     1      -9.898   9.266  68.289  1.00  0.00    -0.179 A  
HETATM   13  C   UNL     1      -8.547   9.007  68.559  1.00  0.00    -0.129 A  
HETATM   14  C   UNL     1      -7.915   7.899  67.982  1.00  0.00    -0.128 A  
BRANCH  12  15
HETATM   15  C   UNL     1     -10.599  10.453  68.839  1.00  0.00    -0.241 C  
HETATM   16 CL   UNL     1     -12.163  11.662  70.717  1.00  0.00    -0.470 Cl 
HETATM   17  C   UNL     1     -11.212  10.366  70.046  1.00  0.00    -0.316 C  
BRANCH  15  18
HETATM   18  C   UNL     1     -10.692  11.698  68.032  1.00  0.00    -0.246 A  
HETATM   19  C   UNL     1     -11.747  11.885  67.127  1.00  0.00    -0.311 A  
HETATM   20  C   UNL     1      -9.712  12.692  68.152  1.00  0.00    -0.219 A  
HETATM   21  C   UNL     1      -9.793  13.861  67.388  1.00  0.00    -0.237 A  
HETATM   22  C   UNL     1     -11.826  13.054  66.365  1.00  0.00    -0.465 A  
HETATM   23  C   UNL     1     -10.849  14.040  66.498  1.00  0.00    -0.300 A  
ENDBRANCH  15  18
BRANCH  17  24
HETATM   24  C   UNL     1     -11.141   9.180  70.927  1.00  0.00    -0.356 A  
HETATM   25  C   UNL     1     -10.904   6.877  72.506  1.00  0.00    -0.277 A  
HETATM   26  C   UNL     1     -10.033   9.006  71.768  1.00  0.00    -0.359 A  
HETATM   27  C   UNL     1      -9.915   7.857  72.553  1.00  0.00    -0.312 A  
HETATM   28  C   UNL     1     -12.025   7.054  71.698  1.00  0.00    -0.365 A  
HETATM   29  C   UNL     1     -12.148   8.206  70.912  1.00  0.00    -0.158 A  
ENDBRANCH  17  24
ENDBRANCH  12  15
ENDBRANCH   8   9
ENDBRANCH   7   8
ENDBRANCH   6   7
ENDBRANCH   3   6
ENDBRANCH   2   3
TORSDOF 9
ENDMDL
MODEL       60
REMARK 921   NORMALIZED FREE ENERGY PREDICTED BY IDOCK:   -4.74 KCAL/MOL
REMARK 922        TOTAL FREE ENERGY PREDICTED BY IDOCK:   -9.36 KCAL/MOL
REMARK 923 INTER-LIGAND FREE ENERGY PREDICTED BY IDOCK:   -7.38 KCAL/MOL
REMARK 924 INTRA-LIGAND FREE ENERGY PREDICTED BY IDOCK:   -1.99 KCAL/MOL
REMARK 927      BINDING AFFINITY PREDICTED BY RF-SCORE:    0.00 PKD
ROOT
HETATM    1  C   UNL     1     -12.384  12.244  63.344  1.00  0.00    -0.624 C  
HETATM    2  C   UNL     1     -12.231  12.475  64.845  1.00  0.00    -0.470 C  
ENDROOT
BRANCH   2   3
HETATM    3  N   UNL     1     -11.140  13.392  65.210  1.00  0.00    -0.287 NA 
BRANCH   3   4
HETATM    4  C   UNL     1     -11.564  14.784  65.426  1.00  0.00    -0.316 C  
HETATM    5  C   UNL     1     -10.580  15.859  64.980  1.00  0.00    -0.372 C  
ENDBRANCH   3   4
BRANCH   3   6
HETATM    6  C   UNL     1     -10.351  12.819  66.323  1.00  0.00    -0.258 C  
BRANCH   6   7
HETATM    7  C   UNL     1     -10.630  11.331  66.561  1.00  0.00    -0.266 C  
BRANCH   7   8
HETATM    8  O   UNL     1      -9.454  10.548  66.313  1.00  0.00    -0.168 OA 
BRANCH   8   9
HETATM    9  C   UNL     1      -9.422   9.361  67.004  1.00  0.00    -0.155 A  
HETATM   10  C   UNL     1      -8.360   8.944  67.810  1.00  0.00    -0.110 A  
HETATM   11  C   UNL     1      -8.372   7.678  68.390  1.00  0.00    -0.125 A  
HETATM   12  C   UNL     1      -9.464   6.825  68.210  1.00  0.00    -0.125 A  
HETATM   13  C   UNL     1     -10.555   7.262  67.447  1.00  0.00    -0.370 A  
HETATM   14  C   UNL     1     -10.534   8.530  66.851  1.00  0.00    -0.345 A  
BRANCH  12  15
HETATM   15  C   UNL     1      -9.420   5.473  68.821  1.00  0.00    -0.163 C  
HETATM   16 CL   UNL     1      -9.814   3.770  70.913  1.00  0.00    -0.240 Cl 
HETATM   17  C   UNL     1      -9.930   5.286  70.064  1.00  0.00    -0.245 C  
BRANCH  15  18
HETATM   18  C   UNL     1      -8.750   4.358  68.103  1.00  0.00    -0.115 A  
HETATM   19  C   UNL     1      -7.394   4.078  68.327  1.00  0.00    -0.059 A  
HETATM   20  C   UNL     1      -9.463   3.584  67.177  1.00  0.00    -0.219 A  
HETATM   21  C   UNL     1      -8.832   2.539  66.494  1.00  0.00    -0.136 A  
HETATM   22  C   UNL     1      -6.766   3.033  67.643  1.00  0.00    -0.044 A  
HETATM   23  C   UNL     1      -7.486   2.264  66.730  1.00  0.00    -0.065 A  
ENDBRANCH  15  18
BRANCH  17  24
HETATM   24  C   UNL     1     -10.643   6.329  70.832  1.00  0.00    -0.293 A  
HETATM   25  C   UNL     1     -11.979   8.223  72.408  1.00  0.00    -0.447 A  
HETATM   26  C   UNL     1      -9.927   7.154  71.712  1.00  0.00    -0.186 A  
HETATM   27  C   UNL     1     -10.595   8.096  72.499  1.00  0.00    -0.411 A  
HETATM   28  C   UNL     1     -12.696   7.431  71.514  1.00  0.00    -0.409 A  
HETATM   29  C   UNL     1     -12.030   6.488  70.723  1.00  0.00    -0.351 A  
ENDBRANCH  17  24
ENDBRANCH  12  15
ENDBRANCH   8   9
ENDBRANCH   7   8
ENDBRANCH   6   7
ENDBRANCH   3   6
ENDBRANCH   2   3
TORSDOF 9
ENDMDL
MODEL       61
REMARK 921   NORMALIZED FREE ENERGY PREDICTED BY IDOCK:   -4.73 KCAL/MOL
REMARK 922        TOTAL FREE ENERGY PREDICTED BY IDOCK:   -9.35 KCAL/MOL
REMARK 923 INTER-LIGAND FREE ENERGY PREDICTED BY IDOCK:   -7.38 KCAL/MOL
REMARK 924 INTRA-LIGAND FREE ENERGY PREDICTED BY IDOCK:   -1.97 KCAL/MOL
REMARK 927      BINDING AFFINITY PREDICTED BY RF-SCORE:    0.00 PKD
ROOT
HETATM    1  C   UNL     1     -10.719   4.332  65.264  1.00  0.00    -0.118 C  
HETATM    2  C   UNL     1      -9.383   3.859  65.830  1.00  0.00    -0.162 C  
ENDROOT
BRANCH   2   3
HETATM    3  N   UNL     1      -8.909   4.629  66.990  1.00  0.00    -0.110 NA 
BRANCH   3   4
HETATM    4  C   UNL     1      -8.924   3.887  68.260  1.00  0.00    -0.121 C  
HETATM    5  C   UNL     1      -9.590   4.588  69.437  1.00  0.00    -0.264 C  
ENDBRANCH   3   4
BRANCH   3   6
HETATM    6  C   UNL     1      -7.610   5.266  66.677  1.00  0.00    -0.088 C  
BRANCH   6   7
HETATM    7  C   UNL     1      -7.744   6.725  66.226  1.00  0.00    -0.098 C  
BRANCH   7   8
HETATM    8  O   UNL     1      -7.282   7.617  67.250  1.00  0.00    -0.085 OA 
BRANCH   8   9
HETATM    9  C   UNL     1      -8.291   8.273  67.910  1.00  0.00    -0.128 A  
HETATM   10  C   UNL     1      -9.651   8.124  67.624  1.00  0.00    -0.186 A  
HETATM   11  C   UNL     1     -10.597   8.909  68.277  1.00  0.00    -0.203 A  
HETATM   12  C   UNL     1     -10.206   9.824  69.258  1.00  0.00    -0.216 A  
HETATM   13  C   UNL     1      -8.848   9.937  69.586  1.00  0.00    -0.224 A  
HETATM   14  C   UNL     1      -7.896   9.158  68.916  1.00  0.00    -0.094 A  
BRANCH  12  15
HETATM   15  C   UNL     1     -11.246  10.662  69.906  1.00  0.00    -0.378 C  
HETATM   16 CL   UNL     1     -13.280  11.013  71.688  1.00  0.00    -0.502 Cl 
HETATM   17  C   UNL     1     -11.958  10.157  70.945  1.00  0.00    -0.365 C  
BRANCH  15  18
HETATM   18  C   UNL     1     -11.553  12.012  69.364  1.00  0.00    -0.393 A  
HETATM   19  C   UNL     1     -11.803  13.087  70.229  1.00  0.00    -0.294 A  
HETATM   20  C   UNL     1     -11.615  12.221  67.980  1.00  0.00    -0.408 A  
HETATM   21  C   UNL     1     -11.911  13.488  67.468  1.00  0.00    -0.385 A  
HETATM   22  C   UNL     1     -12.099  14.353  69.715  1.00  0.00    -0.386 A  
HETATM   23  C   UNL     1     -12.151  14.552  68.337  1.00  0.00    -0.249 A  
ENDBRANCH  15  18
BRANCH  17  24
HETATM   24  C   UNL     1     -11.696   8.841  71.566  1.00  0.00    -0.377 A  
HETATM   25  C   UNL     1     -11.080   6.333  72.657  1.00  0.00    -0.298 A  
HETATM   26  C   UNL     1     -10.648   8.705  72.487  1.00  0.00    -0.212 A  
HETATM   27  C   UNL     1     -10.340   7.454  73.028  1.00  0.00    -0.356 A  
HETATM   28  C   UNL     1     -12.143   6.462  71.766  1.00  0.00    -0.351 A  
HETATM   29  C   UNL     1     -12.456   7.715  71.224  1.00  0.00    -0.324 A  
ENDBRANCH  17  24
ENDBRANCH  12  15
ENDBRANCH   8   9
ENDBRANCH   7   8
ENDBRANCH   6   7
ENDBRANCH   3   6
ENDBRANCH   2   3
TORSDOF 9
ENDMDL
MODEL       62
REMARK 921   NORMALIZED FREE ENERGY PREDICTED BY IDOCK:   -4.72 KCAL/MOL
REMARK 922        TOTAL FREE ENERGY PREDICTED BY IDOCK:   -9.35 KCAL/MOL
REMARK 923 INTER-LIGAND FREE ENERGY PREDICTED BY IDOCK:   -7.25 KCAL/MOL
REMARK 924 INTRA-LIGAND FREE ENERGY PREDICTED BY IDOCK:   -2.10 KCAL/MOL
REMARK 927      BINDING AFFINITY PREDICTED BY RF-SCORE:    0.00 PKD
ROOT
HETATM    1  C   UNL     1     -11.108  16.113  64.953  1.00  0.00    -0.336 C  
HETATM    2  C   UNL     1     -11.294  14.632  64.637  1.00  0.00    -0.369 C  
ENDROOT
BRANCH   2   3
HETATM    3  N   UNL     1     -11.055  13.734  65.778  1.00  0.00    -0.288 NA 
BRANCH   3   4
HETATM    4  C   UNL     1     -11.364  14.322  67.090  1.00  0.00    -0.337 C  
HETATM    5  C   UNL     1     -11.928  13.366  68.135  1.00  0.00    -0.356 C  
ENDBRANCH   3   4
BRANCH   3   6
HETATM    6  C   UNL     1     -11.701  12.425  65.533  1.00  0.00    -0.407 C  
BRANCH   6   7
HETATM    7  C   UNL     1     -10.775  11.409  64.854  1.00  0.00    -0.286 C  
BRANCH   7   8
HETATM    8  O   UNL     1      -9.581  11.216  65.625  1.00  0.00    -0.206 OA 
BRANCH   8   9
HETATM    9  C   UNL     1      -9.757  10.417  66.728  1.00  0.00    -0.181 A  
HETATM   10  C   UNL     1     -10.316   9.136  66.696  1.00  0.00    -0.289 A  
HETATM   11  C   UNL     1     -10.549   8.441  67.879  1.00  0.00    -0.218 A  
HETATM   12  C   UNL     1     -10.188   8.993  69.110  1.00  0.00    -0.213 A  
HETATM   13  C   UNL     1      -9.578  10.254  69.142  1.00  0.00    -0.229 A  
HETATM   14  C   UNL     1      -9.358  10.959  67.952  1.00  0.00    -0.159 A  
BRANCH  12  15
HETATM   15  C   UNL     1     -10.484   8.229  70.348  1.00  0.00    -0.223 C  
HETATM   16 CL   UNL     1      -9.892   6.292  72.174  1.00  0.00    -0.168 Cl 
HETATM   17  C   UNL     1      -9.583   7.323  70.805  1.00  0.00    -0.171 C  
BRANCH  15  18
HETATM   18  C   UNL     1     -11.794   8.403  71.030  1.00  0.00    -0.278 A  
HETATM   19  C   UNL     1     -12.111   9.611  71.668  1.00  0.00    -0.481 A  
HETATM   20  C   UNL     1     -12.719   7.352  71.061  1.00  0.00    -0.247 A  
HETATM   21  C   UNL     1     -13.949   7.511  71.709  1.00  0.00    -0.473 A  
HETATM   22  C   UNL     1     -13.340   9.767  72.315  1.00  0.00    -0.472 A  
HETATM   23  C   UNL     1     -14.257   8.718  72.333  1.00  0.00    -0.464 A  
ENDBRANCH  15  18
BRANCH  17  24
HETATM   24  C   UNL     1      -8.246   7.113  70.208  1.00  0.00    -0.131 A  
HETATM   25  C   UNL     1      -5.708   6.583  69.145  1.00  0.00    -0.017 A  
HETATM   26  C   UNL     1      -8.095   6.213  69.144  1.00  0.00    -0.109 A  
HETATM   27  C   UNL     1      -6.829   5.948  68.616  1.00  0.00    -0.066 A  
HETATM   28  C   UNL     1      -5.850   7.503  70.182  1.00  0.00    -0.024 A  
HETATM   29  C   UNL     1      -7.117   7.773  70.711  1.00  0.00    -0.053 A  
ENDBRANCH  17  24
ENDBRANCH  12  15
ENDBRANCH   8   9
ENDBRANCH   7   8
ENDBRANCH   6   7
ENDBRANCH   3   6
ENDBRANCH   2   3
TORSDOF 9
ENDMDL
MODEL       63
REMARK 921   NORMALIZED FREE ENERGY PREDICTED BY IDOCK:   -4.72 KCAL/MOL
REMARK 922        TOTAL FREE ENERGY PREDICTED BY IDOCK:   -9.34 KCAL/MOL
REMARK 923 INTER-LIGAND FREE ENERGY PREDICTED BY IDOCK:   -7.41 KCAL/MOL
REMARK 924 INTRA-LIGAND FREE ENERGY PREDICTED BY IDOCK:   -1.93 KCAL/MOL
REMARK 927      BINDING AFFINITY PREDICTED BY RF-SCORE:    0.00 PKD
ROOT
HETATM    1  C   UNL     1     -11.868  11.708  69.084  1.00  0.00    -0.390 C  
HETATM    2  C   UNL     1     -11.814  11.706  70.608  1.00  0.00    -0.138 C  
ENDROOT
BRANCH   2   3
HETATM    3  N   UNL     1     -13.074  12.092  71.261  1.00  0.00    -0.216 NA 
BRANCH   3   4
HETATM    4  C   UNL     1     -13.617  11.081  72.181  1.00  0.00     0.021 C  
HETATM    5  C   UNL     1     -13.240   9.635  71.883  1.00  0.00    -0.538 C  
ENDBRANCH   3   4
BRANCH   3   6
HETATM    6  C   UNL     1     -12.942  13.442  71.854  1.00  0.00    -0.326 C  
BRANCH   6   7
HETATM    7  C   UNL     1     -14.078  14.392  71.458  1.00  0.00    -0.373 C  
BRANCH   7   8
HETATM    8  O   UNL     1     -13.554  15.628  70.955  1.00  0.00    -0.568 OA 
BRANCH   8   9
HETATM    9  C   UNL     1     -12.347  15.497  70.313  1.00  0.00    -0.396 A  
HETATM   10  C   UNL     1     -11.103  15.567  70.946  1.00  0.00    -0.387 A  
HETATM   11  C   UNL     1      -9.930  15.526  70.197  1.00  0.00    -0.081 A  
HETATM   12  C   UNL     1      -9.978  15.372  68.809  1.00  0.00    -0.208 A  
HETATM   13  C   UNL     1     -11.223  15.248  68.177  1.00  0.00    -0.328 A  
HETATM   14  C   UNL     1     -12.402  15.305  68.931  1.00  0.00    -0.007 A  
BRANCH  12  15
HETATM   15  C   UNL     1      -8.703  15.365  68.049  1.00  0.00    -0.160 C  
HETATM   16 CL   UNL     1      -6.917  16.523  66.345  1.00  0.00    -0.101 Cl 
HETATM   17  C   UNL     1      -8.328  16.475  67.364  1.00  0.00    -0.170 C  
BRANCH  15  18
HETATM   18  C   UNL     1      -7.890  14.123  67.979  1.00  0.00    -0.146 A  
HETATM   19  C   UNL     1      -8.394  12.974  67.351  1.00  0.00    -0.194 A  
HETATM   20  C   UNL     1      -6.614  14.080  68.558  1.00  0.00    -0.097 A  
HETATM   21  C   UNL     1      -5.850  12.909  68.499  1.00  0.00    -0.063 A  
HETATM   22  C   UNL     1      -7.629  11.806  67.295  1.00  0.00    -0.150 A  
HETATM   23  C   UNL     1      -6.358  11.776  67.867  1.00  0.00    -0.057 A  
ENDBRANCH  15  18
BRANCH  17  24
HETATM   24  C   UNL     1      -9.059  17.760  67.407  1.00  0.00    -0.244 A  
HETATM   25  C   UNL     1     -10.535  20.136  67.587  1.00  0.00    -0.408 A  
HETATM   26  C   UNL     1      -8.921  18.599  68.521  1.00  0.00    -0.364 A  
HETATM   27  C   UNL     1      -9.659  19.782  68.611  1.00  0.00    -0.410 A  
HETATM   28  C   UNL     1     -10.656  19.325  66.461  1.00  0.00    -0.538 A  
HETATM   29  C   UNL     1      -9.915  18.141  66.366  1.00  0.00    -0.376 A  
ENDBRANCH  17  24
ENDBRANCH  12  15
ENDBRANCH   8   9
ENDBRANCH   7   8
ENDBRANCH   6   7
ENDBRANCH   3   6
ENDBRANCH   2   3
TORSDOF 9
ENDMDL
MODEL       64
REMARK 921   NORMALIZED FREE ENERGY PREDICTED BY IDOCK:   -4.71 KCAL/MOL
REMARK 922        TOTAL FREE ENERGY PREDICTED BY IDOCK:   -9.33 KCAL/MOL
REMARK 923 INTER-LIGAND FREE ENERGY PREDICTED BY IDOCK:   -8.09 KCAL/MOL
REMARK 924 INTRA-LIGAND FREE ENERGY PREDICTED BY IDOCK:   -1.24 KCAL/MOL
REMARK 927      BINDING AFFINITY PREDICTED BY RF-SCORE:    0.00 PKD
ROOT
HETATM    1  C   UNL     1      -9.906   4.726  68.984  1.00  0.00    -0.239 C  
HETATM    2  C   UNL     1     -10.553   5.842  69.798  1.00  0.00    -0.303 C  
ENDROOT
BRANCH   2   3
HETATM    3  N   UNL     1     -10.688   5.547  71.232  1.00  0.00    -0.242 NA 
BRANCH   3   4
HETATM    4  C   UNL     1      -9.780   4.500  71.726  1.00  0.00    -0.171 C  
HETATM    5  C   UNL     1     -10.369   3.529  72.742  1.00  0.00    -0.239 C  
ENDBRANCH   3   4
BRANCH   3   6
HETATM    6  C   UNL     1     -10.643   6.804  72.012  1.00  0.00    -0.213 C  
BRANCH   6   7
HETATM    7  C   UNL     1     -11.709   7.820  71.587  1.00  0.00    -0.280 C  
BRANCH   7   8
HETATM    8  O   UNL     1     -11.280   9.157  71.877  1.00  0.00    -0.364 OA 
BRANCH   8   9
HETATM    9  C   UNL     1     -11.262   9.984  70.780  1.00  0.00    -0.352 A  
HETATM   10  C   UNL     1     -10.124  10.258  70.016  1.00  0.00    -0.167 A  
HETATM   11  C   UNL     1     -10.179  11.190  68.983  1.00  0.00    -0.194 A  
HETATM   12  C   UNL     1     -11.380  11.830  68.668  1.00  0.00    -0.327 A  
HETATM   13  C   UNL     1     -12.535  11.517  69.397  1.00  0.00    -0.003 A  
HETATM   14  C   UNL     1     -12.474  10.591  70.446  1.00  0.00    -0.392 A  
BRANCH  12  15
HETATM   15  C   UNL     1     -11.385  12.839  67.579  1.00  0.00    -0.361 C  
HETATM   16 CL   UNL     1     -11.747  15.381  66.661  1.00  0.00     0.051 Cl 
HETATM   17  C   UNL     1     -11.600  14.145  67.879  1.00  0.00    -0.338 C  
BRANCH  15  18
HETATM   18  C   UNL     1     -11.233  12.404  66.165  1.00  0.00    -0.364 A  
HETATM   19  C   UNL     1     -12.238  12.670  65.225  1.00  0.00    -0.532 A  
HETATM   20  C   UNL     1     -10.089  11.702  65.761  1.00  0.00    -0.278 A  
HETATM   21  C   UNL     1      -9.947  11.285  64.434  1.00  0.00    -0.338 A  
HETATM   22  C   UNL     1     -12.094  12.252  63.899  1.00  0.00    -0.598 A  
HETATM   23  C   UNL     1     -10.949  11.561  63.506  1.00  0.00    -0.453 A  
ENDBRANCH  15  18
BRANCH  17  24
HETATM   24  C   UNL     1     -11.726  14.667  69.257  1.00  0.00    -0.348 A  
HETATM   25  C   UNL     1     -11.920  15.527  71.917  1.00  0.00    -0.506 A  
HETATM   26  C   UNL     1     -10.573  14.992  69.984  1.00  0.00    -0.178 A  
HETATM   27  C   UNL     1     -10.670  15.418  71.311  1.00  0.00     0.063 A  
HETATM   28  C   UNL     1     -13.074  15.237  71.194  1.00  0.00    -0.546 A  
HETATM   29  C   UNL     1     -12.980  14.812  69.863  1.00  0.00     0.122 A  
ENDBRANCH  17  24
ENDBRANCH  12  15
ENDBRANCH   8   9
ENDBRANCH   7   8
ENDBRANCH   6   7
ENDBRANCH   3   6
ENDBRANCH   2   3
TORSDOF 9
ENDMDL
MODEL       65
REMARK 921   NORMALIZED FREE ENERGY PREDICTED BY IDOCK:   -4.70 KCAL/MOL
REMARK 922        TOTAL FREE ENERGY PREDICTED BY IDOCK:   -9.31 KCAL/MOL
REMARK 923 INTER-LIGAND FREE ENERGY PREDICTED BY IDOCK:   -6.74 KCAL/MOL
REMARK 924 INTRA-LIGAND FREE ENERGY PREDICTED BY IDOCK:   -2.57 KCAL/MOL
REMARK 927      BINDING AFFINITY PREDICTED BY RF-SCORE:    0.00 PKD
ROOT
HETATM    1  C   UNL     1     -10.767   9.752  70.440  1.00  0.00    -0.368 C  
HETATM    2  C   UNL     1     -10.587   8.894  71.689  1.00  0.00    -0.352 C  
ENDROOT
BRANCH   2   3
HETATM    3  N   UNL     1     -11.805   8.194  72.125  1.00  0.00    -0.336 NA 
BRANCH   3   4
HETATM    4  C   UNL     1     -12.995   9.052  72.230  1.00  0.00    -0.424 C  
HETATM    5  C   UNL     1     -14.336   8.368  71.991  1.00  0.00    -0.555 C  
ENDBRANCH   3   4
BRANCH   3   6
HETATM    6  C   UNL     1     -12.007   6.977  71.306  1.00  0.00    -0.346 C  
BRANCH   6   7
HETATM    7  C   UNL     1     -10.750   6.107  71.193  1.00  0.00    -0.256 C  
BRANCH   7   8
HETATM    8  O   UNL     1     -10.711   5.433  69.928  1.00  0.00    -0.316 OA 
BRANCH   8   9
HETATM    9  C   UNL     1     -10.189   6.193  68.910  1.00  0.00    -0.188 A  
HETATM   10  C   UNL     1      -8.930   6.798  68.941  1.00  0.00    -0.131 A  
HETATM   11  C   UNL     1      -8.527   7.636  67.905  1.00  0.00    -0.123 A  
HETATM   12  C   UNL     1      -9.356   7.850  66.801  1.00  0.00    -0.232 A  
HETATM   13  C   UNL     1     -10.598   7.202  66.742  1.00  0.00    -0.291 A  
HETATM   14  C   UNL     1     -11.007   6.372  67.793  1.00  0.00    -0.425 A  
BRANCH  12  15
HETATM   15  C   UNL     1      -8.898   8.776  65.735  1.00  0.00    -0.233 C  
HETATM   16 CL   UNL     1      -7.303   9.392  63.612  1.00  0.00    -0.104 Cl 
HETATM   17  C   UNL     1      -7.992   8.346  64.822  1.00  0.00    -0.138 C  
BRANCH  15  18
HETATM   18  C   UNL     1      -9.374  10.185  65.724  1.00  0.00    -0.239 A  
HETATM   19  C   UNL     1      -8.838  11.126  66.615  1.00  0.00    -0.168 A  
HETATM   20  C   UNL     1     -10.379  10.583  64.833  1.00  0.00    -0.307 A  
HETATM   21  C   UNL     1     -10.833  11.906  64.825  1.00  0.00    -0.359 A  
HETATM   22  C   UNL     1      -9.294  12.447  66.605  1.00  0.00    -0.227 A  
HETATM   23  C   UNL     1     -10.290  12.835  65.710  1.00  0.00    -0.297 A  
ENDBRANCH  15  18
BRANCH  17  24
HETATM   24  C   UNL     1      -7.494   6.956  64.740  1.00  0.00    -0.096 A  
HETATM   25  C   UNL     1      -6.653   4.283  64.685  1.00  0.00    -0.043 A  
HETATM   26  C   UNL     1      -8.245   5.989  64.057  1.00  0.00    -0.043 A  
HETATM   27  C   UNL     1      -7.826   4.656  64.032  1.00  0.00    -0.087 A  
HETATM   28  C   UNL     1      -5.883   5.241  65.341  1.00  0.00    -0.021 A  
HETATM   29  C   UNL     1      -6.299   6.578  65.365  1.00  0.00    -0.038 A  
ENDBRANCH  17  24
ENDBRANCH  12  15
ENDBRANCH   8   9
ENDBRANCH   7   8
ENDBRANCH   6   7
ENDBRANCH   3   6
ENDBRANCH   2   3
TORSDOF 9
ENDMDL
MODEL       66
REMARK 921   NORMALIZED FREE ENERGY PREDICTED BY IDOCK:   -4.70 KCAL/MOL
REMARK 922        TOTAL FREE ENERGY PREDICTED BY IDOCK:   -9.31 KCAL/MOL
REMARK 923 INTER-LIGAND FREE ENERGY PREDICTED BY IDOCK:   -7.41 KCAL/MOL
REMARK 924 INTRA-LIGAND FREE ENERGY PREDICTED BY IDOCK:   -1.90 KCAL/MOL
REMARK 927      BINDING AFFINITY PREDICTED BY RF-SCORE:    0.00 PKD
ROOT
HETATM    1  C   UNL     1     -11.633  14.638  68.983  1.00  0.00    -0.328 C  
HETATM    2  C   UNL     1     -11.892  13.252  69.565  1.00  0.00    -0.327 C  
ENDROOT
BRANCH   2   3
HETATM    3  N   UNL     1     -12.164  13.241  71.010  1.00  0.00    -0.289 NA 
BRANCH   3   4
HETATM    4  C   UNL     1     -12.655  14.520  71.546  1.00  0.00    -0.348 C  
HETATM    5  C   UNL     1     -13.905  14.445  72.414  1.00  0.00    -0.595 C  
ENDBRANCH   3   4
BRANCH   3   6
HETATM    6  C   UNL     1     -13.009  12.076  71.356  1.00  0.00    -0.262 C  
BRANCH   6   7
HETATM    7  C   UNL     1     -12.322  10.731  71.094  1.00  0.00    -0.393 C  
BRANCH   7   8
HETATM    8  O   UNL     1     -12.448   9.866  72.231  1.00  0.00    -0.255 OA 
BRANCH   8   9
HETATM    9  C   UNL     1     -11.762   8.683  72.107  1.00  0.00    -0.371 A  
HETATM   10  C   UNL     1     -10.402   8.525  72.389  1.00  0.00    -0.372 A  
HETATM   11  C   UNL     1      -9.768   7.312  72.135  1.00  0.00    -0.177 A  
HETATM   12  C   UNL     1     -10.489   6.224  71.638  1.00  0.00    -0.258 A  
HETATM   13  C   UNL     1     -11.865   6.363  71.406  1.00  0.00    -0.340 A  
HETATM   14  C   UNL     1     -12.497   7.589  71.647  1.00  0.00    -0.371 A  
BRANCH  12  15
HETATM   15  C   UNL     1      -9.766   4.960  71.353  1.00  0.00    -0.237 C  
HETATM   16 CL   UNL     1      -8.653   3.166  69.627  1.00  0.00    -0.102 Cl 
HETATM   17  C   UNL     1      -9.394   4.675  70.080  1.00  0.00    -0.145 C  
BRANCH  15  18
HETATM   18  C   UNL     1      -9.525   3.982  72.447  1.00  0.00    -0.182 A  
HETATM   19  C   UNL     1     -10.395   2.900  72.641  1.00  0.00    -0.215 A  
HETATM   20  C   UNL     1      -8.433   4.144  73.311  1.00  0.00    -0.089 A  
HETATM   21  C   UNL     1      -8.208   3.229  74.345  1.00  0.00    -0.069 A  
HETATM   22  C   UNL     1     -10.169   1.988  73.676  1.00  0.00    -0.172 A  
HETATM   23  C   UNL     1      -9.076   2.154  74.525  1.00  0.00    -0.088 A  
ENDBRANCH  15  18
BRANCH  17  24
HETATM   24  C   UNL     1      -9.563   5.604  68.941  1.00  0.00    -0.168 A  
HETATM   25  C   UNL     1      -9.905   7.472  66.880  1.00  0.00    -0.295 A  
HETATM   26  C   UNL     1      -8.537   6.504  68.620  1.00  0.00    -0.124 A  
HETATM   27  C   UNL     1      -8.710   7.436  67.595  1.00  0.00    -0.125 A  
HETATM   28  C   UNL     1     -10.919   6.562  67.169  1.00  0.00    -0.480 A  
HETATM   29  C   UNL     1     -10.749   5.625  68.195  1.00  0.00    -0.231 A  
ENDBRANCH  17  24
ENDBRANCH  12  15
ENDBRANCH   8   9
ENDBRANCH   7   8
ENDBRANCH   6   7
ENDBRANCH   3   6
ENDBRANCH   2   3
TORSDOF 9
ENDMDL
MODEL       67
REMARK 921   NORMALIZED FREE ENERGY PREDICTED BY IDOCK:   -4.65 KCAL/MOL
REMARK 922        TOTAL FREE ENERGY PREDICTED BY IDOCK:   -9.24 KCAL/MOL
REMARK 923 INTER-LIGAND FREE ENERGY PREDICTED BY IDOCK:   -6.76 KCAL/MOL
REMARK 924 INTRA-LIGAND FREE ENERGY PREDICTED BY IDOCK:   -2.48 KCAL/MOL
REMARK 927      BINDING AFFINITY PREDICTED BY RF-SCORE:    0.00 PKD
ROOT
HETATM    1  C   UNL     1     -10.963  16.950  67.456  1.00  0.00    -0.120 C  
HETATM    2  C   UNL     1      -9.973  17.061  66.301  1.00  0.00    -0.310 C  
ENDROOT
BRANCH   2   3
HETATM    3  N   UNL     1      -9.152  18.282  66.321  1.00  0.00    -0.459 NA 
BRANCH   3   4
HETATM    4  C   UNL     1      -9.899  19.521  66.058  1.00  0.00    -0.350 C  
HETATM    5  C   UNL     1      -9.777  20.612  67.115  1.00  0.00    -0.530 C  
ENDBRANCH   3   4
BRANCH   3   6
HETATM    6  C   UNL     1      -8.333  18.319  67.553  1.00  0.00    -0.245 C  
BRANCH   6   7
HETATM    7  C   UNL     1      -7.022  17.533  67.433  1.00  0.00    -0.164 C  
BRANCH   7   8
HETATM    8  O   UNL     1      -6.859  16.645  68.547  1.00  0.00    -0.145 OA 
BRANCH   8   9
HETATM    9  C   UNL     1      -7.496  15.438  68.391  1.00  0.00    -0.115 A  
HETATM   10  C   UNL     1      -8.652  15.060  69.080  1.00  0.00    -0.205 A  
HETATM   11  C   UNL     1      -9.169  13.776  68.933  1.00  0.00     0.122 A  
HETATM   12  C   UNL     1      -8.567  12.863  68.064  1.00  0.00    -0.186 A  
HETATM   13  C   UNL     1      -7.440  13.257  67.331  1.00  0.00    -0.134 A  
HETATM   14  C   UNL     1      -6.912  14.544  67.492  1.00  0.00    -0.188 A  
BRANCH  12  15
HETATM   15  C   UNL     1      -9.135  11.495  67.963  1.00  0.00    -0.174 C  
HETATM   16 CL   UNL     1     -11.016   9.736  67.068  1.00  0.00    -0.165 Cl 
HETATM   17  C   UNL     1     -10.205  11.274  67.158  1.00  0.00    -0.201 C  
BRANCH  15  18
HETATM   18  C   UNL     1      -8.580  10.399  68.801  1.00  0.00    -0.141 A  
HETATM   19  C   UNL     1      -9.290   9.922  69.912  1.00  0.00    -0.250 A  
HETATM   20  C   UNL     1      -7.330   9.844  68.500  1.00  0.00    -0.078 A  
HETATM   21  C   UNL     1      -6.803   8.818  69.291  1.00  0.00    -0.050 A  
HETATM   22  C   UNL     1      -8.761   8.897  70.701  1.00  0.00    -0.230 A  
HETATM   23  C   UNL     1      -7.519   8.346  70.389  1.00  0.00    -0.067 A  
ENDBRANCH  15  18
BRANCH  17  24
HETATM   24  C   UNL     1     -10.795  12.296  66.267  1.00  0.00    -0.313 A  
HETATM   25  C   UNL     1     -12.025  14.141  64.552  1.00  0.00    -0.476 A  
HETATM   26  C   UNL     1     -11.921  13.017  66.688  1.00  0.00    -0.453 A  
HETATM   27  C   UNL     1     -12.535  13.934  65.832  1.00  0.00    -0.519 A  
HETATM   28  C   UNL     1     -10.888  13.453  64.134  1.00  0.00    -0.313 A  
HETATM   29  C   UNL     1     -10.269  12.536  64.991  1.00  0.00    -0.301 A  
ENDBRANCH  17  24
ENDBRANCH  12  15
ENDBRANCH   8   9
ENDBRANCH   7   8
ENDBRANCH   6   7
ENDBRANCH   3   6
ENDBRANCH   2   3
TORSDOF 9
ENDMDL
MODEL       68
REMARK 921   NORMALIZED FREE ENERGY PREDICTED BY IDOCK:   -4.64 KCAL/MOL
REMARK 922        TOTAL FREE ENERGY PREDICTED BY IDOCK:   -9.22 KCAL/MOL
REMARK 923 INTER-LIGAND FREE ENERGY PREDICTED BY IDOCK:   -7.98 KCAL/MOL
REMARK 924 INTRA-LIGAND FREE ENERGY PREDICTED BY IDOCK:   -1.24 KCAL/MOL
REMARK 927      BINDING AFFINITY PREDICTED BY RF-SCORE:    0.00 PKD
ROOT
HETATM    1  C   UNL     1     -10.771  19.584  67.112  1.00  0.00    -0.599 C  
HETATM    2  C   UNL     1     -10.269  18.574  66.085  1.00  0.00    -0.398 C  
ENDROOT
BRANCH   2   3
HETATM    3  N   UNL     1      -9.606  17.396  66.665  1.00  0.00    -0.263 NA 
BRANCH   3   4
HETATM    4  C   UNL     1      -8.149  17.361  66.469  1.00  0.00    -0.277 C  
HETATM    5  C   UNL     1      -7.420  16.172  67.084  1.00  0.00    -0.248 C  
ENDBRANCH   3   4
BRANCH   3   6
HETATM    6  C   UNL     1     -10.031  17.220  68.072  1.00  0.00    -0.304 C  
BRANCH   6   7
HETATM    7  C   UNL     1     -10.963  16.020  68.278  1.00  0.00    -0.335 C  
BRANCH   7   8
HETATM    8  O   UNL     1     -10.859  15.103  67.180  1.00  0.00    -0.307 OA 
BRANCH   8   9
HETATM    9  C   UNL     1     -10.821  13.784  67.560  1.00  0.00    -0.265 A  
HETATM   10  C   UNL     1     -11.774  12.829  67.197  1.00  0.00    -0.443 A  
HETATM   11  C   UNL     1     -11.709  11.538  67.716  1.00  0.00    -0.299 A  
HETATM   12  C   UNL     1     -10.669  11.168  68.571  1.00  0.00    -0.235 A  
HETATM   13  C   UNL     1      -9.681  12.108  68.894  1.00  0.00     0.102 A  
HETATM   14  C   UNL     1      -9.757  13.411  68.383  1.00  0.00    -0.201 A  
BRANCH  12  15
HETATM   15  C   UNL     1     -10.657   9.791  69.124  1.00  0.00    -0.237 C  
HETATM   16 CL   UNL     1      -9.994   7.150  68.979  1.00  0.00    -0.170 Cl 
HETATM   17  C   UNL     1      -9.966   8.818  68.479  1.00  0.00    -0.182 C  
BRANCH  15  18
HETATM   18  C   UNL     1     -11.463   9.472  70.332  1.00  0.00    -0.297 A  
HETATM   19  C   UNL     1     -11.206   8.310  71.074  1.00  0.00    -0.291 A  
HETATM   20  C   UNL     1     -12.504  10.320  70.732  1.00  0.00    -0.439 A  
HETATM   21  C   UNL     1     -13.268  10.018  71.864  1.00  0.00    -0.557 A  
HETATM   22  C   UNL     1     -11.971   8.010  72.205  1.00  0.00    -0.399 A  
HETATM   23  C   UNL     1     -12.999   8.865  72.598  1.00  0.00    -0.334 A  
ENDBRANCH  15  18
BRANCH  17  24
HETATM   24  C   UNL     1      -9.113   9.055  67.294  1.00  0.00    -0.151 A  
HETATM   25  C   UNL     1      -7.507   9.649  65.076  1.00  0.00    -0.116 A  
HETATM   26  C   UNL     1      -7.775   9.435  67.467  1.00  0.00    -0.091 A  
HETATM   27  C   UNL     1      -6.976   9.733  66.361  1.00  0.00    -0.093 A  
HETATM   28  C   UNL     1      -8.826   9.243  64.890  1.00  0.00    -0.233 A  
HETATM   29  C   UNL     1      -9.629   8.940  65.997  1.00  0.00    -0.320 A  
ENDBRANCH  17  24
ENDBRANCH  12  15
ENDBRANCH   8   9
ENDBRANCH   7   8
ENDBRANCH   6   7
ENDBRANCH   3   6
ENDBRANCH   2   3
TORSDOF 9
ENDMDL
MODEL       69
REMARK 921   NORMALIZED FREE ENERGY PREDICTED BY IDOCK:   -4.64 KCAL/MOL
REMARK 922        TOTAL FREE ENERGY PREDICTED BY IDOCK:   -9.21 KCAL/MOL
REMARK 923 INTER-LIGAND FREE ENERGY PREDICTED BY IDOCK:   -7.07 KCAL/MOL
REMARK 924 INTRA-LIGAND FREE ENERGY PREDICTED BY IDOCK:   -2.14 KCAL/MOL
REMARK 927      BINDING AFFINITY PREDICTED BY RF-SCORE:    0.00 PKD
ROOT
HETATM    1  C   UNL     1     -11.551  11.908  63.870  1.00  0.00    -0.515 C  
HETATM    2  C   UNL     1     -12.057  12.746  65.041  1.00  0.00    -0.441 C  
ENDROOT
BRANCH   2   3
HETATM    3  N   UNL     1     -11.000  13.229  65.942  1.00  0.00    -0.274 NA 
BRANCH   3   4
HETATM    4  C   UNL     1     -10.549  14.602  65.669  1.00  0.00    -0.332 C  
HETATM    5  C   UNL     1     -10.738  15.605  66.801  1.00  0.00    -0.300 C  
ENDBRANCH   3   4
BRANCH   3   6
HETATM    6  C   UNL     1     -11.388  12.988  67.350  1.00  0.00    -0.305 C  
BRANCH   6   7
HETATM    7  C   UNL     1     -10.339  12.200  68.142  1.00  0.00    -0.207 C  
BRANCH   7   8
HETATM    8  O   UNL     1      -9.455  11.500  67.255  1.00  0.00    -0.167 OA 
BRANCH   8   9
HETATM    9  C   UNL     1      -9.475  10.136  67.416  1.00  0.00    -0.153 A  
HETATM   10  C   UNL     1     -10.511   9.304  66.981  1.00  0.00    -0.303 A  
HETATM   11  C   UNL     1     -10.493   7.944  67.280  1.00  0.00    -0.390 A  
HETATM   12  C   UNL     1      -9.420   7.385  67.978  1.00  0.00    -0.146 A  
HETATM   13  C   UNL     1      -8.354   8.207  68.368  1.00  0.00    -0.126 A  
HETATM   14  C   UNL     1      -8.382   9.577  68.080  1.00  0.00    -0.118 A  
BRANCH  12  15
HETATM   15  C   UNL     1      -9.458   5.936  68.301  1.00  0.00    -0.123 C  
HETATM   16 CL   UNL     1      -9.849   3.873  70.040  1.00  0.00    -0.234 Cl 
HETATM   17  C   UNL     1      -9.885   5.536  69.525  1.00  0.00    -0.189 C  
BRANCH  15  18
HETATM   18  C   UNL     1      -8.956   4.944  67.314  1.00  0.00    -0.113 A  
HETATM   19  C   UNL     1      -9.800   4.449  66.309  1.00  0.00    -0.244 A  
HETATM   20  C   UNL     1      -7.637   4.478  67.389  1.00  0.00    -0.082 A  
HETATM   21  C   UNL     1      -7.165   3.539  66.466  1.00  0.00    -0.067 A  
HETATM   22  C   UNL     1      -9.325   3.510  65.388  1.00  0.00    -0.158 A  
HETATM   23  C   UNL     1      -8.009   3.059  65.467  1.00  0.00    -0.086 A  
ENDBRANCH  15  18
BRANCH  17  24
HETATM   24  C   UNL     1     -10.432   6.451  70.551  1.00  0.00    -0.270 A  
HETATM   25  C   UNL     1     -11.456   8.075  72.592  1.00  0.00    -0.465 A  
HETATM   26  C   UNL     1      -9.579   6.997  71.519  1.00  0.00    -0.159 A  
HETATM   27  C   UNL     1     -10.090   7.804  72.538  1.00  0.00    -0.301 A  
HETATM   28  C   UNL     1     -12.308   7.564  71.617  1.00  0.00    -0.362 A  
HETATM   29  C   UNL     1     -11.799   6.756  70.593  1.00  0.00    -0.442 A  
ENDBRANCH  17  24
ENDBRANCH  12  15
ENDBRANCH   8   9
ENDBRANCH   7   8
ENDBRANCH   6   7
ENDBRANCH   3   6
ENDBRANCH   2   3
TORSDOF 9
ENDMDL
MODEL       70
REMARK 921   NORMALIZED FREE ENERGY PREDICTED BY IDOCK:   -4.62 KCAL/MOL
REMARK 922        TOTAL FREE ENERGY PREDICTED BY IDOCK:   -9.19 KCAL/MOL
REMARK 923 INTER-LIGAND FREE ENERGY PREDICTED BY IDOCK:   -7.85 KCAL/MOL
REMARK 924 INTRA-LIGAND FREE ENERGY PREDICTED BY IDOCK:   -1.34 KCAL/MOL
REMARK 927      BINDING AFFINITY PREDICTED BY RF-SCORE:    0.00 PKD
ROOT
HETATM    1  C   UNL     1      -8.280   8.613  64.523  1.00  0.00    -0.166 C  
HETATM    2  C   UNL     1      -8.018   7.248  65.151  1.00  0.00    -0.128 C  
ENDROOT
BRANCH   2   3
HETATM    3  N   UNL     1      -9.059   6.802  66.091  1.00  0.00    -0.140 NA 
BRANCH   3   4
HETATM    4  C   UNL     1      -9.039   5.361  66.381  1.00  0.00    -0.141 C  
HETATM    5  C   UNL     1      -8.620   4.970  67.794  1.00  0.00    -0.103 C  
ENDBRANCH   3   4
BRANCH   3   6
HETATM    6  C   UNL     1      -9.053   7.663  67.295  1.00  0.00    -0.127 C  
BRANCH   6   7
HETATM    7  C   UNL     1     -10.424   8.271  67.612  1.00  0.00    -0.235 C  
BRANCH   7   8
HETATM    8  O   UNL     1     -10.520   8.611  69.002  1.00  0.00    -0.216 OA 
BRANCH   8   9
HETATM    9  C   UNL     1     -10.856   9.923  69.230  1.00  0.00    -0.227 A  
HETATM   10  C   UNL     1     -11.992  10.338  69.929  1.00  0.00    -0.222 A  
HETATM   11  C   UNL     1     -12.306  11.691  70.022  1.00  0.00    -0.261 A  
HETATM   12  C   UNL     1     -11.468  12.655  69.455  1.00  0.00    -0.294 A  
HETATM   13  C   UNL     1     -10.299  12.245  68.799  1.00  0.00    -0.156 A  
HETATM   14  C   UNL     1      -9.994  10.882  68.694  1.00  0.00    -0.196 A  
BRANCH  12  15
HETATM   15  C   UNL     1     -11.859  14.083  69.552  1.00  0.00    -0.378 C  
HETATM   16 CL   UNL     1     -12.115  16.580  68.486  1.00  0.00     0.451 Cl 
HETATM   17  C   UNL     1     -11.797  14.868  68.447  1.00  0.00    -0.278 C  
BRANCH  15  18
HETATM   18  C   UNL     1     -12.237  14.660  70.869  1.00  0.00    -0.391 A  
HETATM   19  C   UNL     1     -11.251  15.053  71.785  1.00  0.00    -0.188 A  
HETATM   20  C   UNL     1     -13.587  14.799  71.218  1.00  0.00    -0.480 A  
HETATM   21  C   UNL     1     -13.945  15.334  72.459  1.00  0.00    -0.609 A  
HETATM   22  C   UNL     1     -11.611  15.588  73.025  1.00  0.00    -0.372 A  
HETATM   23  C   UNL     1     -12.957  15.729  73.359  1.00  0.00    -0.696 A  
ENDBRANCH  15  18
BRANCH  17  24
HETATM   24  C   UNL     1     -11.465  14.370  67.095  1.00  0.00    -0.379 A  
HETATM   25  C   UNL     1     -10.860  13.560  64.481  1.00  0.00    -0.422 A  
HETATM   26  C   UNL     1     -10.234  14.704  66.515  1.00  0.00    -0.282 A  
HETATM   27  C   UNL     1      -9.934  14.302  65.211  1.00  0.00    -0.313 A  
HETATM   28  C   UNL     1     -12.074  13.195  65.058  1.00  0.00    -0.458 A  
HETATM   29  C   UNL     1     -12.376  13.594  66.366  1.00  0.00    -0.441 A  
ENDBRANCH  17  24
ENDBRANCH  12  15
ENDBRANCH   8   9
ENDBRANCH   7   8
ENDBRANCH   6   7
ENDBRANCH   3   6
ENDBRANCH   2   3
TORSDOF 9
ENDMDL
MODEL       71
REMARK 921   NORMALIZED FREE ENERGY PREDICTED BY IDOCK:   -4.60 KCAL/MOL
REMARK 922        TOTAL FREE ENERGY PREDICTED BY IDOCK:   -9.16 KCAL/MOL
REMARK 923 INTER-LIGAND FREE ENERGY PREDICTED BY IDOCK:   -7.10 KCAL/MOL
REMARK 924 INTRA-LIGAND FREE ENERGY PREDICTED BY IDOCK:   -2.05 KCAL/MOL
REMARK 927      BINDING AFFINITY PREDICTED BY RF-SCORE:    0.00 PKD
ROOT
HETATM    1  C   UNL     1      -8.028   6.063  63.700  1.00  0.00    -0.108 C  
HETATM    2  C   UNL     1      -8.447   4.597  63.653  1.00  0.00    -0.125 C  
ENDROOT
BRANCH   2   3
HETATM    3  N   UNL     1      -9.670   4.291  64.411  1.00  0.00    -0.148 NA 
BRANCH   3   4
HETATM    4  C   UNL     1     -10.697   3.569  63.644  1.00  0.00    -0.260 C  
HETATM    5  C   UNL     1     -10.452   2.080  63.436  1.00  0.00    -0.162 C  
ENDBRANCH   3   4
BRANCH   3   6
HETATM    6  C   UNL     1      -9.318   3.653  65.700  1.00  0.00    -0.162 C  
BRANCH   6   7
HETATM    7  C   UNL     1      -9.618   4.538  66.916  1.00  0.00    -0.190 C  
BRANCH   7   8
HETATM    8  O   UNL     1      -8.554   5.473  67.139  1.00  0.00    -0.111 OA 
BRANCH   8   9
HETATM    9  C   UNL     1      -8.984   6.750  67.401  1.00  0.00    -0.115 A  
HETATM   10  C   UNL     1      -8.150   7.801  67.793  1.00  0.00    -0.125 A  
HETATM   11  C   UNL     1      -8.691   9.037  68.137  1.00  0.00    -0.130 A  
HETATM   12  C   UNL     1     -10.067   9.257  68.056  1.00  0.00    -0.234 A  
HETATM   13  C   UNL     1     -10.901   8.222  67.612  1.00  0.00    -0.083 A  
HETATM   14  C   UNL     1     -10.357   6.975  67.280  1.00  0.00    -0.331 A  
BRANCH  12  15
HETATM   15  C   UNL     1     -10.602  10.581  68.463  1.00  0.00    -0.234 C  
HETATM   16 CL   UNL     1     -11.929  12.201  70.209  1.00  0.00    -0.424 Cl 
HETATM   17  C   UNL     1     -11.165  10.725  69.689  1.00  0.00    -0.291 C  
BRANCH  15  18
HETATM   18  C   UNL     1     -10.588  11.713  67.500  1.00  0.00    -0.245 A  
HETATM   19  C   UNL     1     -11.641  11.890  66.591  1.00  0.00    -0.337 A  
HETATM   20  C   UNL     1      -9.509  12.607  67.476  1.00  0.00    -0.186 A  
HETATM   21  C   UNL     1      -9.490  13.669  66.566  1.00  0.00    -0.270 A  
HETATM   22  C   UNL     1     -11.619  12.952  65.682  1.00  0.00    -0.401 A  
HETATM   23  C   UNL     1     -10.545  13.840  65.672  1.00  0.00    -0.302 A  
ENDBRANCH  15  18
BRANCH  17  24
HETATM   24  C   UNL     1     -11.190   9.663  70.718  1.00  0.00    -0.403 A  
HETATM   25  C   UNL     1     -11.182   7.559  72.569  1.00  0.00    -0.381 A  
HETATM   26  C   UNL     1      -9.992   9.246  71.314  1.00  0.00    -0.341 A  
HETATM   27  C   UNL     1      -9.988   8.195  72.234  1.00  0.00    -0.332 A  
HETATM   28  C   UNL     1     -12.382   7.986  72.007  1.00  0.00    -0.366 A  
HETATM   29  C   UNL     1     -12.390   9.041  71.086  1.00  0.00    -0.306 A  
ENDBRANCH  17  24
ENDBRANCH  12  15
ENDBRANCH   8   9
ENDBRANCH   7   8
ENDBRANCH   6   7
ENDBRANCH   3   6
ENDBRANCH   2   3
TORSDOF 9
ENDMDL
MODEL       72
REMARK 921   NORMALIZED FREE ENERGY PREDICTED BY IDOCK:   -4.58 KCAL/MOL
REMARK 922        TOTAL FREE ENERGY PREDICTED BY IDOCK:   -9.13 KCAL/MOL
REMARK 923 INTER-LIGAND FREE ENERGY PREDICTED BY IDOCK:   -6.21 KCAL/MOL
REMARK 924 INTRA-LIGAND FREE ENERGY PREDICTED BY IDOCK:   -2.92 KCAL/MOL
REMARK 927      BINDING AFFINITY PREDICTED BY RF-SCORE:    0.00 PKD
ROOT
HETATM    1  C   UNL     1      -9.195   9.201  70.417  1.00  0.00    -0.271 C  
HETATM    2  C   UNL     1      -9.654   8.866  71.833  1.00  0.00    -0.256 C  
ENDROOT
BRANCH   2   3
HETATM    3  N   UNL     1     -11.087   9.090  72.076  1.00  0.00    -0.355 NA 
BRANCH   3   4
HETATM    4  C   UNL     1     -11.810   9.687  70.942  1.00  0.00    -0.323 C  
HETATM    5  C   UNL     1     -12.911  10.678  71.298  1.00  0.00    -0.535 C  
ENDBRANCH   3   4
BRANCH   3   6
HETATM    6  C   UNL     1     -11.708   7.855  72.606  1.00  0.00    -0.341 C  
BRANCH   6   7
HETATM    7  C   UNL     1     -12.234   6.922  71.510  1.00  0.00    -0.371 C  
BRANCH   7   8
HETATM    8  O   UNL     1     -11.304   5.860  71.258  1.00  0.00    -0.261 OA 
BRANCH   8   9
HETATM    9  C   UNL     1     -10.787   5.867  69.986  1.00  0.00    -0.351 A  
HETATM   10  C   UNL     1     -11.402   6.470  68.885  1.00  0.00    -0.267 A  
HETATM   11  C   UNL     1     -10.852   6.337  67.613  1.00  0.00    -0.433 A  
HETATM   12  C   UNL     1      -9.658   5.638  67.424  1.00  0.00    -0.123 A  
HETATM   13  C   UNL     1      -9.010   5.079  68.534  1.00  0.00    -0.125 A  
HETATM   14  C   UNL     1      -9.573   5.200  69.811  1.00  0.00    -0.242 A  
BRANCH  12  15
HETATM   15  C   UNL     1      -9.125   5.495  66.046  1.00  0.00    -0.162 C  
HETATM   16 CL   UNL     1      -7.932   6.513  63.816  1.00  0.00    -0.106 Cl 
HETATM   17  C   UNL     1      -8.481   6.540  65.468  1.00  0.00    -0.136 C  
BRANCH  15  18
HETATM   18  C   UNL     1      -9.370   4.243  65.284  1.00  0.00    -0.165 A  
HETATM   19  C   UNL     1      -8.449   3.186  65.333  1.00  0.00    -0.102 A  
HETATM   20  C   UNL     1     -10.517   4.112  64.490  1.00  0.00    -0.178 A  
HETATM   21  C   UNL     1     -10.746   2.937  63.766  1.00  0.00    -0.147 A  
HETATM   22  C   UNL     1      -8.680   2.014  64.608  1.00  0.00    -0.103 A  
HETATM   23  C   UNL     1      -9.828   1.890  63.828  1.00  0.00    -0.130 A  
ENDBRANCH  15  18
BRANCH  17  24
HETATM   24  C   UNL     1      -8.165   7.806  66.165  1.00  0.00    -0.123 A  
HETATM   25  C   UNL     1      -7.519  10.258  67.358  1.00  0.00    -0.094 A  
HETATM   26  C   UNL     1      -8.981   8.929  65.967  1.00  0.00    -0.235 A  
HETATM   27  C   UNL     1      -8.656  10.151  66.560  1.00  0.00    -0.132 A  
HETATM   28  C   UNL     1      -6.719   9.141  67.587  1.00  0.00    -0.069 A  
HETATM   29  C   UNL     1      -7.043   7.914  66.996  1.00  0.00    -0.078 A  
ENDBRANCH  17  24
ENDBRANCH  12  15
ENDBRANCH   8   9
ENDBRANCH   7   8
ENDBRANCH   6   7
ENDBRANCH   3   6
ENDBRANCH   2   3
TORSDOF 9
ENDMDL
MODEL       73
REMARK 921   NORMALIZED FREE ENERGY PREDICTED BY IDOCK:   -4.54 KCAL/MOL
REMARK 922        TOTAL FREE ENERGY PREDICTED BY IDOCK:   -9.06 KCAL/MOL
REMARK 923 INTER-LIGAND FREE ENERGY PREDICTED BY IDOCK:   -5.85 KCAL/MOL
REMARK 924 INTRA-LIGAND FREE ENERGY PREDICTED BY IDOCK:   -3.21 KCAL/MOL
REMARK 927      BINDING AFFINITY PREDICTED BY RF-SCORE:    0.00 PKD
ROOT
HETATM    1  C   UNL     1      -9.331   9.849  63.963  1.00  0.00    -0.280 C  
HETATM    2  C   UNL     1      -8.196  10.419  64.809  1.00  0.00    -0.141 C  
ENDROOT
BRANCH   2   3
HETATM    3  N   UNL     1      -6.850  10.133  64.291  1.00  0.00    -0.124 NA 
BRANCH   3   4
HETATM    4  C   UNL     1      -5.756  10.530  65.190  1.00  0.00    -0.137 C  
HETATM    5  C   UNL     1      -6.173  11.162  66.513  1.00  0.00    -0.139 C  
ENDBRANCH   3   4
BRANCH   3   6
HETATM    6  C   UNL     1      -6.775   8.729  63.829  1.00  0.00    -0.088 C  
BRANCH   6   7
HETATM    7  C   UNL     1      -6.358   7.750  64.932  1.00  0.00    -0.044 C  
BRANCH   7   8
HETATM    8  O   UNL     1      -7.410   6.813  65.203  1.00  0.00    -0.076 OA 
BRANCH   8   9
HETATM    9  C   UNL     1      -8.195   7.156  66.277  1.00  0.00    -0.124 A  
HETATM   10  C   UNL     1      -9.580   6.977  66.333  1.00  0.00    -0.159 A  
HETATM   11  C   UNL     1     -10.306   7.450  67.423  1.00  0.00    -0.340 A  
HETATM   12  C   UNL     1      -9.657   8.069  68.494  1.00  0.00    -0.159 A  
HETATM   13  C   UNL     1      -8.262   8.201  68.465  1.00  0.00    -0.125 A  
HETATM   14  C   UNL     1      -7.535   7.739  67.360  1.00  0.00    -0.093 A  
BRANCH  12  15
HETATM   15  C   UNL     1     -10.475   8.585  69.620  1.00  0.00    -0.221 C  
HETATM   16 CL   UNL     1     -11.717  10.612  70.954  1.00  0.00    -0.417 Cl 
HETATM   17  C   UNL     1     -10.864   9.885  69.622  1.00  0.00    -0.253 C  
BRANCH  15  18
HETATM   18  C   UNL     1     -10.794   7.698  70.770  1.00  0.00    -0.246 A  
HETATM   19  C   UNL     1     -11.972   6.937  70.778  1.00  0.00    -0.424 A  
HETATM   20  C   UNL     1      -9.929   7.629  71.870  1.00  0.00    -0.217 A  
HETATM   21  C   UNL     1     -10.231   6.801  72.956  1.00  0.00    -0.235 A  
HETATM   22  C   UNL     1     -12.271   6.111  71.865  1.00  0.00    -0.156 A  
HETATM   23  C   UNL     1     -11.400   6.043  72.951  1.00  0.00    -0.233 A  
ENDBRANCH  15  18
BRANCH  17  24
HETATM   24  C   UNL     1     -10.619  10.824  68.506  1.00  0.00    -0.223 A  
HETATM   25  C   UNL     1     -10.202  12.712  66.477  1.00  0.00    -0.255 A  
HETATM   26  C   UNL     1      -9.508  11.677  68.547  1.00  0.00    -0.175 A  
HETATM   27  C   UNL     1      -9.303  12.620  67.537  1.00  0.00    -0.188 A  
HETATM   28  C   UNL     1     -11.292  11.847  66.409  1.00  0.00    -0.400 A  
HETATM   29  C   UNL     1     -11.500  10.900  67.419  1.00  0.00    -0.175 A  
ENDBRANCH  17  24
ENDBRANCH  12  15
ENDBRANCH   8   9
ENDBRANCH   7   8
ENDBRANCH   6   7
ENDBRANCH   3   6
ENDBRANCH   2   3
TORSDOF 9
ENDMDL
MODEL       74
REMARK 921   NORMALIZED FREE ENERGY PREDICTED BY IDOCK:   -4.53 KCAL/MOL
REMARK 922        TOTAL FREE ENERGY PREDICTED BY IDOCK:   -9.05 KCAL/MOL
REMARK 923 INTER-LIGAND FREE ENERGY PREDICTED BY IDOCK:   -7.99 KCAL/MOL
REMARK 924 INTRA-LIGAND FREE ENERGY PREDICTED BY IDOCK:   -1.06 KCAL/MOL
REMARK 927      BINDING AFFINITY PREDICTED BY RF-SCORE:    0.00 PKD
ROOT
HETATM    1  C   UNL     1     -12.441  15.790  70.316  1.00  0.00    -0.291 C  
HETATM    2  C   UNL     1     -11.809  14.556  70.954  1.00  0.00    -0.302 C  
ENDROOT
BRANCH   2   3
HETATM    3  N   UNL     1     -12.041  14.435  72.401  1.00  0.00    -0.095 NA 
BRANCH   3   4
HETATM    4  C   UNL     1     -11.902  15.695  73.147  1.00  0.00    -0.428 C  
HETATM    5  C   UNL     1     -12.527  15.722  74.537  1.00  0.00    -0.755 C  
ENDBRANCH   3   4
BRANCH   3   6
HETATM    6  C   UNL     1     -13.314  13.721  72.650  1.00  0.00    -0.514 C  
BRANCH   6   7
HETATM    7  C   UNL     1     -13.611  12.633  71.612  1.00  0.00     0.061 C  
BRANCH   7   8
HETATM    8  O   UNL     1     -12.852  11.448  71.887  1.00  0.00    -0.396 OA 
BRANCH   8   9
HETATM    9  C   UNL     1     -12.171  10.960  70.799  1.00  0.00    -0.383 A  
HETATM   10  C   UNL     1     -12.436  11.320  69.475  1.00  0.00    -0.127 A  
HETATM   11  C   UNL     1     -11.763  10.695  68.428  1.00  0.00    -0.168 A  
HETATM   12  C   UNL     1     -10.784   9.733  68.688  1.00  0.00    -0.247 A  
HETATM   13  C   UNL     1     -10.478   9.409  70.017  1.00  0.00    -0.266 A  
HETATM   14  C   UNL     1     -11.168  10.028  71.067  1.00  0.00    -0.387 A  
BRANCH  12  15
HETATM   15  C   UNL     1     -10.114   9.071  67.540  1.00  0.00    -0.285 C  
HETATM   16 CL   UNL     1      -9.053   9.112  65.029  1.00  0.00    -0.246 Cl 
HETATM   17  C   UNL     1      -9.732   9.813  66.471  1.00  0.00    -0.209 C  
BRANCH  15  18
HETATM   18  C   UNL     1      -9.939   7.594  67.537  1.00  0.00    -0.233 A  
HETATM   19  C   UNL     1      -8.787   7.012  68.084  1.00  0.00    -0.129 A  
HETATM   20  C   UNL     1     -10.917   6.768  66.967  1.00  0.00    -0.439 A  
HETATM   21  C   UNL     1     -10.751   5.379  66.956  1.00  0.00    -0.233 A  
HETATM   22  C   UNL     1      -8.623   5.623  68.071  1.00  0.00    -0.101 A  
HETATM   23  C   UNL     1      -9.605   4.810  67.509  1.00  0.00    -0.190 A  
ENDBRANCH  15  18
BRANCH  17  24
HETATM   24  C   UNL     1      -9.837  11.287  66.407  1.00  0.00    -0.243 A  
HETATM   25  C   UNL     1     -10.076  14.080  66.427  1.00  0.00    -0.299 A  
HETATM   26  C   UNL     1      -8.851  12.080  67.009  1.00  0.00    -0.197 A  
HETATM   27  C   UNL     1      -8.972  13.472  67.021  1.00  0.00    -0.237 A  
HETATM   28  C   UNL     1     -11.047  13.303  65.799  1.00  0.00    -0.296 A  
HETATM   29  C   UNL     1     -10.927  11.908  65.783  1.00  0.00    -0.359 A  
ENDBRANCH  17  24
ENDBRANCH  12  15
ENDBRANCH   8   9
ENDBRANCH   7   8
ENDBRANCH   6   7
ENDBRANCH   3   6
ENDBRANCH   2   3
TORSDOF 9
ENDMDL
MODEL       75
REMARK 921   NORMALIZED FREE ENERGY PREDICTED BY IDOCK:   -4.46 KCAL/MOL
REMARK 922        TOTAL FREE ENERGY PREDICTED BY IDOCK:   -8.94 KCAL/MOL
REMARK 923 INTER-LIGAND FREE ENERGY PREDICTED BY IDOCK:   -7.56 KCAL/MOL
REMARK 924 INTRA-LIGAND FREE ENERGY PREDICTED BY IDOCK:   -1.38 KCAL/MOL
REMARK 927      BINDING AFFINITY PREDICTED BY RF-SCORE:    0.00 PKD
ROOT
HETATM    1  C   UNL     1     -10.985   7.098  67.142  1.00  0.00    -0.342 C  
HETATM    2  C   UNL     1      -9.609   6.928  66.505  1.00  0.00    -0.143 C  
ENDROOT
BRANCH   2   3
HETATM    3  N   UNL     1      -8.693   8.058  66.728  1.00  0.00    -0.128 NA 
BRANCH   3   4
HETATM    4  C   UNL     1      -7.878   7.947  67.947  1.00  0.00    -0.127 C  
HETATM    5  C   UNL     1      -8.327   8.795  69.131  1.00  0.00    -0.125 C  
ENDBRANCH   3   4
BRANCH   3   6
HETATM    6  C   UNL     1      -7.913   8.324  65.500  1.00  0.00    -0.120 C  
BRANCH   6   7
HETATM    7  C   UNL     1      -8.231   9.681  64.862  1.00  0.00    -0.143 C  
BRANCH   7   8
HETATM    8  O   UNL     1      -7.559  10.739  65.558  1.00  0.00    -0.112 OA 
BRANCH   8   9
HETATM    9  C   UNL     1      -8.373  11.450  66.405  1.00  0.00    -0.140 A  
HETATM   10  C   UNL     1      -7.938  12.088  67.570  1.00  0.00    -0.159 A  
HETATM   11  C   UNL     1      -8.855  12.698  68.422  1.00  0.00    -0.119 A  
HETATM   12  C   UNL     1     -10.215  12.720  68.103  1.00  0.00    -0.241 A  
HETATM   13  C   UNL     1     -10.648  12.129  66.908  1.00  0.00    -0.257 A  
HETATM   14  C   UNL     1      -9.725  11.502  66.061  1.00  0.00    -0.253 A  
BRANCH  12  15
HETATM   15  C   UNL     1     -11.159  13.355  69.056  1.00  0.00    -0.293 C  
HETATM   16 CL   UNL     1     -12.290  15.550  70.214  1.00  0.00    -0.430 Cl 
HETATM   17  C   UNL     1     -11.303  14.705  69.054  1.00  0.00    -0.277 C  
BRANCH  15  18
HETATM   18  C   UNL     1     -11.879  12.520  70.053  1.00  0.00    -0.363 A  
HETATM   19  C   UNL     1     -11.939  11.126  69.905  1.00  0.00    -0.439 A  
HETATM   20  C   UNL     1     -12.523  13.119  71.144  1.00  0.00    -0.378 A  
HETATM   21  C   UNL     1     -13.207  12.335  72.079  1.00  0.00    -0.508 A  
HETATM   22  C   UNL     1     -12.624  10.346  70.841  1.00  0.00    -0.478 A  
HETATM   23  C   UNL     1     -13.255  10.951  71.926  1.00  0.00    -0.508 A  
ENDBRANCH  15  18
BRANCH  17  24
HETATM   24  C   UNL     1     -10.653  15.605  68.077  1.00  0.00    -0.271 A  
HETATM   25  C   UNL     1      -9.354  17.194  66.169  1.00  0.00    -0.222 A  
HETATM   26  C   UNL     1     -11.086  15.610  66.744  1.00  0.00    -0.169 A  
HETATM   27  C   UNL     1     -10.436  16.400  65.793  1.00  0.00    -0.369 A  
HETATM   28  C   UNL     1      -8.936  17.221  67.497  1.00  0.00    -0.222 A  
HETATM   29  C   UNL     1      -9.587  16.432  68.453  1.00  0.00    -0.219 A  
ENDBRANCH  17  24
ENDBRANCH  12  15
ENDBRANCH   8   9
ENDBRANCH   7   8
ENDBRANCH   6   7
ENDBRANCH   3   6
ENDBRANCH   2   3
TORSDOF 9
ENDMDL
MODEL       76
REMARK 921   NORMALIZED FREE ENERGY PREDICTED BY IDOCK:   -4.41 KCAL/MOL
REMARK 922        TOTAL FREE ENERGY PREDICTED BY IDOCK:   -8.87 KCAL/MOL
REMARK 923 INTER-LIGAND FREE ENERGY PREDICTED BY IDOCK:   -6.83 KCAL/MOL
REMARK 924 INTRA-LIGAND FREE ENERGY PREDICTED BY IDOCK:   -2.04 KCAL/MOL
REMARK 927      BINDING AFFINITY PREDICTED BY RF-SCORE:    0.00 PKD
ROOT
HETATM    1  C   UNL     1     -14.076   8.037  71.452  1.00  0.00    -0.413 C  
HETATM    2  C   UNL     1     -12.685   7.645  71.942  1.00  0.00    -0.293 C  
ENDROOT
BRANCH   2   3
HETATM    3  N   UNL     1     -11.612   8.552  71.507  1.00  0.00    -0.275 NA 
BRANCH   3   4
HETATM    4  C   UNL     1     -11.936   9.981  71.629  1.00  0.00    -0.286 C  
HETATM    5  C   UNL     1     -11.791  10.810  70.359  1.00  0.00    -0.450 C  
ENDBRANCH   3   4
BRANCH   3   6
HETATM    6  C   UNL     1     -10.334   8.165  72.148  1.00  0.00    -0.274 C  
BRANCH   6   7
HETATM    7  C   UNL     1      -9.164   8.079  71.162  1.00  0.00    -0.149 C  
BRANCH   7   8
HETATM    8  O   UNL     1      -9.558   7.395  69.964  1.00  0.00    -0.168 OA 
BRANCH   8   9
HETATM    9  C   UNL     1      -9.513   8.179  68.838  1.00  0.00    -0.151 A  
HETATM   10  C   UNL     1      -8.905   9.435  68.773  1.00  0.00    -0.132 A  
HETATM   11  C   UNL     1      -8.999  10.203  67.615  1.00  0.00    -0.134 A  
HETATM   12  C   UNL     1      -9.665   9.712  66.489  1.00  0.00    -0.272 A  
HETATM   13  C   UNL     1     -10.229   8.429  66.533  1.00  0.00    -0.277 A  
HETATM   14  C   UNL     1     -10.147   7.665  67.704  1.00  0.00    -0.249 A  
BRANCH  12  15
HETATM   15  C   UNL     1      -9.767  10.577  65.288  1.00  0.00    -0.328 C  
HETATM   16 CL   UNL     1      -8.853  11.451  62.872  1.00  0.00    -0.186 Cl 
HETATM   17  C   UNL     1      -8.892  10.407  64.265  1.00  0.00    -0.208 C  
BRANCH  15  18
HETATM   18  C   UNL     1     -10.773  11.672  65.247  1.00  0.00    -0.346 A  
HETATM   19  C   UNL     1     -11.769  11.689  64.260  1.00  0.00    -0.262 A  
HETATM   20  C   UNL     1     -10.724  12.711  66.186  1.00  0.00    -0.293 A  
HETATM   21  C   UNL     1     -11.665  13.745  66.145  1.00  0.00    -0.392 A  
HETATM   22  C   UNL     1     -12.707  12.724  64.222  1.00  0.00    -0.338 A  
HETATM   23  C   UNL     1     -12.654  13.749  65.165  1.00  0.00    -0.471 A  
ENDBRANCH  15  18
BRANCH  17  24
HETATM   24  C   UNL     1      -7.886   9.324  64.209  1.00  0.00    -0.125 A  
HETATM   25  C   UNL     1      -5.902   7.354  64.009  1.00  0.00    -0.041 A  
HETATM   26  C   UNL     1      -6.658   9.483  64.867  1.00  0.00    -0.086 A  
HETATM   27  C   UNL     1      -5.669   8.501  64.765  1.00  0.00    -0.048 A  
HETATM   28  C   UNL     1      -7.130   7.172  63.377  1.00  0.00    -0.066 A  
HETATM   29  C   UNL     1      -8.124   8.152  63.480  1.00  0.00    -0.113 A  
ENDBRANCH  17  24
ENDBRANCH  12  15
ENDBRANCH   8   9
ENDBRANCH   7   8
ENDBRANCH   6   7
ENDBRANCH   3   6
ENDBRANCH   2   3
TORSDOF 9
ENDMDL
MODEL       77
REMARK 921   NORMALIZED FREE ENERGY PREDICTED BY IDOCK:   -4.40 KCAL/MOL
REMARK 922        TOTAL FREE ENERGY PREDICTED BY IDOCK:   -8.86 KCAL/MOL
REMARK 923 INTER-LIGAND FREE ENERGY PREDICTED BY IDOCK:   -7.23 KCAL/MOL
REMARK 924 INTRA-LIGAND FREE ENERGY PREDICTED BY IDOCK:   -1.63 KCAL/MOL
REMARK 927      BINDING AFFINITY PREDICTED BY RF-SCORE:    0.00 PKD
ROOT
HETATM    1  C   UNL     1      -7.536   7.456  70.622  1.00  0.00    -0.078 C  
HETATM    2  C   UNL     1      -8.384   6.359  71.258  1.00  0.00    -0.123 C  
ENDROOT
BRANCH   2   3
HETATM    3  N   UNL     1      -9.774   6.313  70.780  1.00  0.00    -0.179 NA 
BRANCH   3   4
HETATM    4  C   UNL     1     -10.214   4.988  70.316  1.00  0.00    -0.258 C  
HETATM    5  C   UNL     1      -9.504   3.792  70.938  1.00  0.00    -0.236 C  
ENDBRANCH   3   4
BRANCH   3   6
HETATM    6  C   UNL     1     -10.672   6.932  71.781  1.00  0.00    -0.221 C  
BRANCH   6   7
HETATM    7  C   UNL     1     -11.771   7.799  71.154  1.00  0.00    -0.284 C  
BRANCH   7   8
HETATM    8  O   UNL     1     -11.591   9.178  71.506  1.00  0.00    -0.314 OA 
BRANCH   8   9
HETATM    9  C   UNL     1     -11.329   9.994  70.432  1.00  0.00    -0.320 A  
HETATM   10  C   UNL     1     -12.302  10.703  69.722  1.00  0.00    -0.263 A  
HETATM   11  C   UNL     1     -11.954  11.424  68.583  1.00  0.00    -0.317 A  
HETATM   12  C   UNL     1     -10.625  11.484  68.159  1.00  0.00    -0.226 A  
HETATM   13  C   UNL     1      -9.639  10.819  68.900  1.00  0.00    -0.204 A  
HETATM   14  C   UNL     1      -9.993  10.081  70.037  1.00  0.00    -0.273 A  
BRANCH  12  15
HETATM   15  C   UNL     1     -10.306  12.240  66.921  1.00  0.00    -0.236 C  
HETATM   16 CL   UNL     1     -10.168  14.556  65.490  1.00  0.00    -0.369 Cl 
HETATM   17  C   UNL     1     -10.401  13.593  66.922  1.00  0.00    -0.262 C  
BRANCH  15  18
HETATM   18  C   UNL     1      -9.963  11.506  65.674  1.00  0.00    -0.275 A  
HETATM   19  C   UNL     1      -8.778  10.761  65.588  1.00  0.00    -0.198 A  
HETATM   20  C   UNL     1     -10.813  11.568  64.562  1.00  0.00    -0.390 A  
HETATM   21  C   UNL     1     -10.488  10.885  63.385  1.00  0.00    -0.220 A  
HETATM   22  C   UNL     1      -8.456  10.080  64.411  1.00  0.00    -0.178 A  
HETATM   23  C   UNL     1      -9.312  10.142  63.312  1.00  0.00    -0.332 A  
ENDBRANCH  15  18
BRANCH  17  24
HETATM   24  C   UNL     1     -10.701  14.401  68.123  1.00  0.00    -0.239 A  
HETATM   25  C   UNL     1     -11.257  15.810  70.481  1.00  0.00    -0.392 A  
HETATM   26  C   UNL     1      -9.671  14.726  69.016  1.00  0.00    -0.190 A  
HETATM   27  C   UNL     1      -9.949  15.426  70.193  1.00  0.00    -0.082 A  
HETATM   28  C   UNL     1     -12.284  15.520  69.586  1.00  0.00    -0.297 A  
HETATM   29  C   UNL     1     -12.008  14.821  68.405  1.00  0.00    -0.270 A  
ENDBRANCH  17  24
ENDBRANCH  12  15
ENDBRANCH   8   9
ENDBRANCH   7   8
ENDBRANCH   6   7
ENDBRANCH   3   6
ENDBRANCH   2   3
TORSDOF 9
ENDMDL
MODEL       78
REMARK 921   NORMALIZED FREE ENERGY PREDICTED BY IDOCK:   -4.39 KCAL/MOL
REMARK 922        TOTAL FREE ENERGY PREDICTED BY IDOCK:   -8.84 KCAL/MOL
REMARK 923 INTER-LIGAND FREE ENERGY PREDICTED BY IDOCK:   -7.56 KCAL/MOL
REMARK 924 INTRA-LIGAND FREE ENERGY PREDICTED BY IDOCK:   -1.28 KCAL/MOL
REMARK 927      BINDING AFFINITY PREDICTED BY RF-SCORE:    0.00 PKD
ROOT
HETATM    1  C   UNL     1     -13.131   7.760  71.634  1.00  0.00    -0.378 C  
HETATM    2  C   UNL     1     -11.777   7.856  72.332  1.00  0.00    -0.367 C  
ENDROOT
BRANCH   2   3
HETATM    3  N   UNL     1     -10.788   6.867  71.876  1.00  0.00    -0.226 NA 
BRANCH   3   4
HETATM    4  C   UNL     1     -10.317   5.951  72.926  1.00  0.00    -0.200 C  
HETATM    5  C   UNL     1      -9.208   6.480  73.827  1.00  0.00    -0.160 C  
ENDBRANCH   3   4
BRANCH   3   6
HETATM    6  C   UNL     1     -11.278   6.188  70.656  1.00  0.00    -0.319 C  
BRANCH   6   7
HETATM    7  C   UNL     1     -10.517   6.595  69.389  1.00  0.00    -0.219 C  
BRANCH   7   8
HETATM    8  O   UNL     1      -9.533   7.595  69.687  1.00  0.00    -0.157 OA 
BRANCH   8   9
HETATM    9  C   UNL     1      -9.916   8.868  69.345  1.00  0.00    -0.192 A  
HETATM   10  C   UNL     1     -11.140   9.195  68.756  1.00  0.00     0.100 A  
HETATM   11  C   UNL     1     -11.399  10.501  68.350  1.00  0.00    -0.328 A  
HETATM   12  C   UNL     1     -10.458  11.511  68.565  1.00  0.00    -0.228 A  
HETATM   13  C   UNL     1      -9.251  11.198  69.205  1.00  0.00     0.038 A  
HETATM   14  C   UNL     1      -8.986   9.879  69.598  1.00  0.00    -0.232 A  
BRANCH  12  15
HETATM   15  C   UNL     1     -10.764  12.883  68.087  1.00  0.00    -0.258 C  
HETATM   16 CL   UNL     1     -10.811  14.795  66.143  1.00  0.00    -0.314 Cl 
HETATM   17  C   UNL     1     -10.598  13.186  66.775  1.00  0.00    -0.263 C  
BRANCH  15  18
HETATM   18  C   UNL     1     -11.173  13.931  69.059  1.00  0.00    -0.312 A  
HETATM   19  C   UNL     1     -12.335  13.775  69.829  1.00  0.00    -0.311 A  
HETATM   20  C   UNL     1     -10.410  15.098  69.202  1.00  0.00    -0.249 A  
HETATM   21  C   UNL     1     -10.797  16.089  70.111  1.00  0.00    -0.349 A  
HETATM   22  C   UNL     1     -12.719  14.767  70.736  1.00  0.00    -0.422 A  
HETATM   23  C   UNL     1     -11.950  15.921  70.876  1.00  0.00    -0.432 A  
ENDBRANCH  15  18
BRANCH  17  24
HETATM   24  C   UNL     1     -10.228  12.198  65.738  1.00  0.00    -0.282 A  
HETATM   25  C   UNL     1      -9.427  10.420  63.725  1.00  0.00    -0.353 A  
HETATM   26  C   UNL     1      -9.038  11.469  65.867  1.00  0.00    -0.186 A  
HETATM   27  C   UNL     1      -8.638  10.585  64.861  1.00  0.00    -0.179 A  
HETATM   28  C   UNL     1     -10.627  11.116  63.601  1.00  0.00    -0.414 A  
HETATM   29  C   UNL     1     -11.032  12.000  64.608  1.00  0.00    -0.367 A  
ENDBRANCH  17  24
ENDBRANCH  12  15
ENDBRANCH   8   9
ENDBRANCH   7   8
ENDBRANCH   6   7
ENDBRANCH   3   6
ENDBRANCH   2   3
TORSDOF 9
ENDMDL
MODEL       79
REMARK 921   NORMALIZED FREE ENERGY PREDICTED BY IDOCK:   -4.39 KCAL/MOL
REMARK 922        TOTAL FREE ENERGY PREDICTED BY IDOCK:   -8.84 KCAL/MOL
REMARK 923 INTER-LIGAND FREE ENERGY PREDICTED BY IDOCK:   -8.89 KCAL/MOL
REMARK 924 INTRA-LIGAND FREE ENERGY PREDICTED BY IDOCK:    0.05 KCAL/MOL
REMARK 927      BINDING AFFINITY PREDICTED BY RF-SCORE:    0.00 PKD
ROOT
HETATM    1  C   UNL     1      -7.321   8.506  68.912  1.00  0.00    -0.086 C  
HETATM    2  C   UNL     1      -8.767   8.850  68.567  1.00  0.00    -0.134 C  
ENDROOT
BRANCH   2   3
HETATM    3  N   UNL     1      -9.442   7.854  67.721  1.00  0.00    -0.143 NA 
BRANCH   3   4
HETATM    4  C   UNL     1     -10.098   6.769  68.466  1.00  0.00    -0.162 C  
HETATM    5  C   UNL     1     -10.832   7.179  69.737  1.00  0.00    -0.261 C  
ENDBRANCH   3   4
BRANCH   3   6
HETATM    6  C   UNL     1     -10.321   8.535  66.744  1.00  0.00    -0.276 C  
BRANCH   6   7
HETATM    7  C   UNL     1      -9.564   9.480  65.804  1.00  0.00    -0.270 C  
BRANCH   7   8
HETATM    8  O   UNL     1     -10.443  10.485  65.280  1.00  0.00    -0.262 OA 
BRANCH   8   9
HETATM    9  C   UNL     1     -10.524  11.612  66.061  1.00  0.00    -0.251 A  
HETATM   10  C   UNL     1      -9.470  12.122  66.825  1.00  0.00    -0.213 A  
HETATM   11  C   UNL     1      -9.675  13.212  67.667  1.00  0.00    -0.213 A  
HETATM   12  C   UNL     1     -10.923  13.837  67.728  1.00  0.00    -0.272 A  
HETATM   13  C   UNL     1     -11.967  13.362  66.922  1.00  0.00    -0.437 A  
HETATM   14  C   UNL     1     -11.763  12.256  66.088  1.00  0.00    -0.440 A  
BRANCH  12  15
HETATM   15  C   UNL     1     -11.104  14.976  68.663  1.00  0.00    -0.272 C  
HETATM   16 CL   UNL     1     -12.085  16.061  70.963  1.00  0.00    -0.422 Cl 
HETATM   17  C   UNL     1     -11.716  14.769  69.856  1.00  0.00    -0.306 C  
BRANCH  15  18
HETATM   18  C   UNL     1     -10.686  16.343  68.254  1.00  0.00    -0.337 A  
HETATM   19  C   UNL     1     -10.654  16.704  66.899  1.00  0.00    -0.229 A  
HETATM   20  C   UNL     1     -10.299  17.281  69.220  1.00  0.00    -0.237 A  
HETATM   21  C   UNL     1      -9.898  18.566  68.837  1.00  0.00    -0.377 A  
HETATM   22  C   UNL     1     -10.252  17.988  66.520  1.00  0.00    -0.383 A  
HETATM   23  C   UNL     1      -9.877  18.916  67.489  1.00  0.00    -0.377 A  
ENDBRANCH  15  18
BRANCH  17  24
HETATM   24  C   UNL     1     -12.131  13.440  70.354  1.00  0.00    -0.405 A  
HETATM   25  C   UNL     1     -12.835  10.944  71.417  1.00  0.00    -0.554 A  
HETATM   26  C   UNL     1     -13.060  13.350  71.400  1.00  0.00    -0.373 A  
HETATM   27  C   UNL     1     -13.408  12.105  71.931  1.00  0.00    -0.421 A  
HETATM   28  C   UNL     1     -11.936  11.020  70.356  1.00  0.00    -0.459 A  
HETATM   29  C   UNL     1     -11.587  12.265  69.820  1.00  0.00    -0.314 A  
ENDBRANCH  17  24
ENDBRANCH  12  15
ENDBRANCH   8   9
ENDBRANCH   7   8
ENDBRANCH   6   7
ENDBRANCH   3   6
ENDBRANCH   2   3
TORSDOF 9
ENDMDL
MODEL       80
REMARK 921   NORMALIZED FREE ENERGY PREDICTED BY IDOCK:   -4.39 KCAL/MOL
REMARK 922        TOTAL FREE ENERGY PREDICTED BY IDOCK:   -8.83 KCAL/MOL
REMARK 923 INTER-LIGAND FREE ENERGY PREDICTED BY IDOCK:   -8.34 KCAL/MOL
REMARK 924 INTRA-LIGAND FREE ENERGY PREDICTED BY IDOCK:   -0.49 KCAL/MOL
REMARK 927      BINDING AFFINITY PREDICTED BY RF-SCORE:    0.00 PKD
ROOT
HETATM    1  C   UNL     1      -6.705   9.434  66.790  1.00  0.00    -0.072 C  
HETATM    2  C   UNL     1      -6.635   9.997  65.374  1.00  0.00    -0.110 C  
ENDROOT
BRANCH   2   3
HETATM    3  N   UNL     1      -7.934  10.086  64.691  1.00  0.00    -0.141 NA 
BRANCH   3   4
HETATM    4  C   UNL     1      -7.851  10.085  63.222  1.00  0.00    -0.150 C  
HETATM    5  C   UNL     1      -8.812  11.020  62.497  1.00  0.00    -0.358 C  
ENDBRANCH   3   4
BRANCH   3   6
HETATM    6  C   UNL     1      -8.866   9.078  65.245  1.00  0.00    -0.193 C  
BRANCH   6   7
HETATM    7  C   UNL     1     -10.084   9.697  65.940  1.00  0.00    -0.234 C  
BRANCH   7   8
HETATM    8  O   UNL     1     -10.499  10.893  65.266  1.00  0.00    -0.271 OA 
BRANCH   8   9
HETATM    9  C   UNL     1     -10.496  12.009  66.067  1.00  0.00    -0.249 A  
HETATM   10  C   UNL     1      -9.392  12.452  66.801  1.00  0.00    -0.220 A  
HETATM   11  C   UNL     1      -9.512  13.536  67.666  1.00  0.00    -0.222 A  
HETATM   12  C   UNL     1     -10.723  14.223  67.780  1.00  0.00    -0.253 A  
HETATM   13  C   UNL     1     -11.817  13.815  67.004  1.00  0.00    -0.445 A  
HETATM   14  C   UNL     1     -11.698  12.714  66.146  1.00  0.00    -0.461 A  
BRANCH  12  15
HETATM   15  C   UNL     1     -10.814  15.353  68.738  1.00  0.00    -0.252 C  
HETATM   16 CL   UNL     1     -11.703  16.465  71.063  1.00  0.00    -0.297 Cl 
HETATM   17  C   UNL     1     -11.438  15.171  69.929  1.00  0.00    -0.288 C  
BRANCH  15  18
HETATM   18  C   UNL     1     -10.292  16.692  68.355  1.00  0.00    -0.299 A  
HETATM   19  C   UNL     1      -8.989  17.076  68.703  1.00  0.00    -0.267 A  
HETATM   20  C   UNL     1     -11.106  17.594  67.657  1.00  0.00     0.054 A  
HETATM   21  C   UNL     1     -10.620  18.857  67.302  1.00  0.00    -0.529 A  
HETATM   22  C   UNL     1      -8.506  18.338  68.347  1.00  0.00    -0.319 A  
HETATM   23  C   UNL     1      -9.321  19.225  67.647  1.00  0.00    -0.371 A  
ENDBRANCH  15  18
BRANCH  17  24
HETATM   24  C   UNL     1     -11.953  13.868  70.402  1.00  0.00    -0.393 A  
HETATM   25  C   UNL     1     -12.854  11.419  71.424  1.00  0.00    -0.502 A  
HETATM   26  C   UNL     1     -12.954  13.833  71.383  1.00  0.00    -0.433 A  
HETATM   27  C   UNL     1     -13.401  12.611  71.893  1.00  0.00    -0.485 A  
HETATM   28  C   UNL     1     -11.882  11.441  70.427  1.00  0.00    -0.428 A  
HETATM   29  C   UNL     1     -11.434  12.663  69.911  1.00  0.00    -0.153 A  
ENDBRANCH  17  24
ENDBRANCH  12  15
ENDBRANCH   8   9
ENDBRANCH   7   8
ENDBRANCH   6   7
ENDBRANCH   3   6
ENDBRANCH   2   3
TORSDOF 9
ENDMDL
MODEL       81
REMARK 921   NORMALIZED FREE ENERGY PREDICTED BY IDOCK:   -4.39 KCAL/MOL
REMARK 922        TOTAL FREE ENERGY PREDICTED BY IDOCK:   -8.83 KCAL/MOL
REMARK 923 INTER-LIGAND FREE ENERGY PREDICTED BY IDOCK:   -6.86 KCAL/MOL
REMARK 924 INTRA-LIGAND FREE ENERGY PREDICTED BY IDOCK:   -1.97 KCAL/MOL
REMARK 927      BINDING AFFINITY PREDICTED BY RF-SCORE:    0.00 PKD
ROOT
HETATM    1  C   UNL     1     -10.601  15.688  70.117  1.00  0.00    -0.348 C  
HETATM    2  C   UNL     1     -11.579  15.829  71.280  1.00  0.00    -0.441 C  
ENDROOT
BRANCH   2   3
HETATM    3  N   UNL     1     -12.121  14.555  71.774  1.00  0.00    -0.320 NA 
BRANCH   3   4
HETATM    4  C   UNL     1     -12.992  14.681  72.952  1.00  0.00    -0.497 C  
HETATM    5  C   UNL     1     -12.460  15.547  74.088  1.00  0.00    -0.805 C  
ENDBRANCH   3   4
BRANCH   3   6
HETATM    6  C   UNL     1     -12.722  13.794  70.656  1.00  0.00    -0.260 C  
BRANCH   6   7
HETATM    7  C   UNL     1     -12.263  12.333  70.600  1.00  0.00    -0.287 C  
BRANCH   7   8
HETATM    8  O   UNL     1     -11.343  12.131  69.519  1.00  0.00    -0.257 OA 
BRANCH   8   9
HETATM    9  C   UNL     1     -10.788  10.875  69.490  1.00  0.00    -0.238 A  
HETATM   10  C   UNL     1      -9.501  10.590  69.027  1.00  0.00    -0.211 A  
HETATM   11  C   UNL     1      -9.062   9.271  68.939  1.00  0.00    -0.139 A  
HETATM   12  C   UNL     1      -9.883   8.220  69.354  1.00  0.00    -0.185 A  
HETATM   13  C   UNL     1     -11.154   8.507  69.870  1.00  0.00    -0.114 A  
HETATM   14  C   UNL     1     -11.600   9.833  69.942  1.00  0.00    -0.132 A  
BRANCH  12  15
HETATM   15  C   UNL     1      -9.385   6.829  69.214  1.00  0.00    -0.144 C  
HETATM   16 CL   UNL     1      -8.126   4.618  70.195  1.00  0.00    -0.067 Cl 
HETATM   17  C   UNL     1      -8.848   6.200  70.290  1.00  0.00    -0.149 C  
BRANCH  15  18
HETATM   18  C   UNL     1      -9.405   6.166  67.883  1.00  0.00    -0.113 A  
HETATM   19  C   UNL     1      -8.266   6.174  67.065  1.00  0.00    -0.106 A  
HETATM   20  C   UNL     1     -10.572   5.541  67.423  1.00  0.00    -0.274 A  
HETATM   21  C   UNL     1     -10.596   4.923  66.168  1.00  0.00    -0.322 A  
HETATM   22  C   UNL     1      -8.293   5.556  65.811  1.00  0.00    -0.129 A  
HETATM   23  C   UNL     1      -9.456   4.931  65.366  1.00  0.00    -0.134 A  
ENDBRANCH  15  18
BRANCH  17  24
HETATM   24  C   UNL     1      -8.820   6.772  71.653  1.00  0.00    -0.129 A  
HETATM   25  C   UNL     1      -8.866   7.955  74.194  1.00  0.00    -0.203 A  
HETATM   26  C   UNL     1      -9.892   6.539  72.526  1.00  0.00    -0.176 A  
HETATM   27  C   UNL     1      -9.915   7.131  73.791  1.00  0.00    -0.373 A  
HETATM   28  C   UNL     1      -7.780   8.168  73.347  1.00  0.00    -0.212 A  
HETATM   29  C   UNL     1      -7.753   7.574  72.080  1.00  0.00    -0.094 A  
ENDBRANCH  17  24
ENDBRANCH  12  15
ENDBRANCH   8   9
ENDBRANCH   7   8
ENDBRANCH   6   7
ENDBRANCH   3   6
ENDBRANCH   2   3
TORSDOF 9
ENDMDL
MODEL       82
REMARK 921   NORMALIZED FREE ENERGY PREDICTED BY IDOCK:   -4.37 KCAL/MOL
REMARK 922        TOTAL FREE ENERGY PREDICTED BY IDOCK:   -8.81 KCAL/MOL
REMARK 923 INTER-LIGAND FREE ENERGY PREDICTED BY IDOCK:   -6.79 KCAL/MOL
REMARK 924 INTRA-LIGAND FREE ENERGY PREDICTED BY IDOCK:   -2.01 KCAL/MOL
REMARK 927      BINDING AFFINITY PREDICTED BY RF-SCORE:    0.00 PKD
ROOT
HETATM    1  C   UNL     1     -13.761   8.861  72.404  1.00  0.00    -0.512 C  
HETATM    2  C   UNL     1     -12.500   9.343  71.693  1.00  0.00    -0.378 C  
ENDROOT
BRANCH   2   3
HETATM    3  N   UNL     1     -11.370   8.404  71.760  1.00  0.00    -0.280 NA 
BRANCH   3   4
HETATM    4  C   UNL     1     -11.446   7.439  72.867  1.00  0.00    -0.221 C  
HETATM    5  C   UNL     1     -11.599   5.976  72.469  1.00  0.00    -0.315 C  
ENDBRANCH   3   4
BRANCH   3   6
HETATM    6  C   UNL     1     -11.148   7.786  70.433  1.00  0.00    -0.251 C  
BRANCH   6   7
HETATM    7  C   UNL     1      -9.686   7.844  69.975  1.00  0.00    -0.179 C  
BRANCH   7   8
HETATM    8  O   UNL     1      -9.078   9.080  70.372  1.00  0.00    -0.173 OA 
BRANCH   8   9
HETATM    9  C   UNL     1      -9.272  10.105  69.479  1.00  0.00    -0.204 A  
HETATM   10  C   UNL     1     -10.255  11.090  69.607  1.00  0.00     0.070 A  
HETATM   11  C   UNL     1     -10.443  12.031  68.598  1.00  0.00    -0.238 A  
HETATM   12  C   UNL     1      -9.626  12.030  67.465  1.00  0.00    -0.177 A  
HETATM   13  C   UNL     1      -8.603  11.077  67.359  1.00  0.00    -0.132 A  
HETATM   14  C   UNL     1      -8.426  10.122  68.368  1.00  0.00    -0.118 A  
BRANCH  12  15
HETATM   15  C   UNL     1      -9.883  13.032  66.401  1.00  0.00    -0.270 C  
HETATM   16 CL   UNL     1      -9.626  15.532  65.343  1.00  0.00    -0.253 Cl 
HETATM   17  C   UNL     1      -9.290  14.251  66.473  1.00  0.00    -0.271 C  
BRANCH  15  18
HETATM   18  C   UNL     1     -10.845  12.724  65.310  1.00  0.00    -0.319 A  
HETATM   19  C   UNL     1     -12.209  13.016  65.458  1.00  0.00    -0.521 A  
HETATM   20  C   UNL     1     -10.402  12.117  64.127  1.00  0.00    -0.382 A  
HETATM   21  C   UNL     1     -11.307  11.819  63.103  1.00  0.00    -0.198 A  
HETATM   22  C   UNL     1     -13.111  12.716  64.433  1.00  0.00    -0.071 A  
HETATM   23  C   UNL     1     -12.658  12.120  63.258  1.00  0.00    -0.492 A  
ENDBRANCH  15  18
BRANCH  17  24
HETATM   24  C   UNL     1      -8.297  14.628  67.501  1.00  0.00    -0.203 A  
HETATM   25  C   UNL     1      -6.419  15.480  69.400  1.00  0.00    -0.151 A  
HETATM   26  C   UNL     1      -8.704  15.363  68.623  1.00  0.00    -0.191 A  
HETATM   27  C   UNL     1      -7.767  15.789  69.568  1.00  0.00    -0.166 A  
HETATM   28  C   UNL     1      -6.007  14.723  68.305  1.00  0.00    -0.122 A  
HETATM   29  C   UNL     1      -6.944  14.292  67.359  1.00  0.00    -0.077 A  
ENDBRANCH  17  24
ENDBRANCH  12  15
ENDBRANCH   8   9
ENDBRANCH   7   8
ENDBRANCH   6   7
ENDBRANCH   3   6
ENDBRANCH   2   3
TORSDOF 9
ENDMDL
MODEL       83
REMARK 921   NORMALIZED FREE ENERGY PREDICTED BY IDOCK:   -4.36 KCAL/MOL
REMARK 922        TOTAL FREE ENERGY PREDICTED BY IDOCK:   -8.80 KCAL/MOL
REMARK 923 INTER-LIGAND FREE ENERGY PREDICTED BY IDOCK:   -8.17 KCAL/MOL
REMARK 924 INTRA-LIGAND FREE ENERGY PREDICTED BY IDOCK:   -0.63 KCAL/MOL
REMARK 927      BINDING AFFINITY PREDICTED BY RF-SCORE:    0.00 PKD
ROOT
HETATM    1  C   UNL     1      -9.422  10.334  63.552  1.00  0.00    -0.345 C  
HETATM    2  C   UNL     1      -8.559   9.358  62.759  1.00  0.00    -0.221 C  
ENDROOT
BRANCH   2   3
HETATM    3  N   UNL     1      -7.584   8.613  63.571  1.00  0.00    -0.117 NA 
BRANCH   3   4
HETATM    4  C   UNL     1      -6.287   9.287  63.733  1.00  0.00    -0.091 C  
HETATM    5  C   UNL     1      -5.762  10.030  62.510  1.00  0.00    -0.102 C  
ENDBRANCH   3   4
BRANCH   3   6
HETATM    6  C   UNL     1      -8.207   8.187  64.843  1.00  0.00    -0.147 C  
BRANCH   6   7
HETATM    7  C   UNL     1      -7.371   8.545  66.077  1.00  0.00    -0.081 C  
BRANCH   7   8
HETATM    8  O   UNL     1      -7.678   9.870  66.531  1.00  0.00    -0.104 OA 
BRANCH   8   9
HETATM    9  C   UNL     1      -8.680   9.917  67.469  1.00  0.00    -0.121 A  
HETATM   10  C   UNL     1     -10.036  10.071  67.170  1.00  0.00    -0.265 A  
HETATM   11  C   UNL     1     -10.970  10.211  68.194  1.00  0.00    -0.313 A  
HETATM   12  C   UNL     1     -10.572  10.156  69.531  1.00  0.00    -0.269 A  
HETATM   13  C   UNL     1      -9.219   9.947  69.835  1.00  0.00    -0.245 A  
HETATM   14  C   UNL     1      -8.279   9.822  68.803  1.00  0.00    -0.108 A  
BRANCH  12  15
HETATM   15  C   UNL     1     -11.597  10.341  70.588  1.00  0.00    -0.435 C  
HETATM   16 CL   UNL     1     -13.329   9.360  72.452  1.00  0.00    -0.523 Cl 
HETATM   17  C   UNL     1     -12.043   9.264  71.283  1.00  0.00    -0.337 C  
BRANCH  15  18
HETATM   18  C   UNL     1     -12.184  11.687  70.823  1.00  0.00    -0.443 A  
HETATM   19  C   UNL     1     -11.836  12.769  70.002  1.00  0.00    -0.352 A  
HETATM   20  C   UNL     1     -13.077  11.893  71.883  1.00  0.00    -0.474 A  
HETATM   21  C   UNL     1     -13.624  13.160  72.110  1.00  0.00    -0.637 A  
HETATM   22  C   UNL     1     -12.384  14.035  70.232  1.00  0.00    -0.425 A  
HETATM   23  C   UNL     1     -13.278  14.227  71.284  1.00  0.00    -0.412 A  
ENDBRANCH  15  18
BRANCH  17  24
HETATM   24  C   UNL     1     -11.491   7.899  71.137  1.00  0.00    -0.297 A  
HETATM   25  C   UNL     1     -10.314   5.374  70.831  1.00  0.00    -0.312 A  
HETATM   26  C   UNL     1     -10.674   7.369  72.145  1.00  0.00    -0.262 A  
HETATM   27  C   UNL     1     -10.086   6.112  71.991  1.00  0.00    -0.206 A  
HETATM   28  C   UNL     1     -11.149   5.877  69.837  1.00  0.00    -0.417 A  
HETATM   29  C   UNL     1     -11.742   7.136  69.989  1.00  0.00    -0.105 A  
ENDBRANCH  17  24
ENDBRANCH  12  15
ENDBRANCH   8   9
ENDBRANCH   7   8
ENDBRANCH   6   7
ENDBRANCH   3   6
ENDBRANCH   2   3
TORSDOF 9
ENDMDL
MODEL       84
REMARK 921   NORMALIZED FREE ENERGY PREDICTED BY IDOCK:   -4.36 KCAL/MOL
REMARK 922        TOTAL FREE ENERGY PREDICTED BY IDOCK:   -8.79 KCAL/MOL
REMARK 923 INTER-LIGAND FREE ENERGY PREDICTED BY IDOCK:   -7.83 KCAL/MOL
REMARK 924 INTRA-LIGAND FREE ENERGY PREDICTED BY IDOCK:   -0.96 KCAL/MOL
REMARK 927      BINDING AFFINITY PREDICTED BY RF-SCORE:    0.00 PKD
ROOT
HETATM    1  C   UNL     1      -6.950  20.292  65.444  1.00  0.00    -0.297 C  
HETATM    2  C   UNL     1      -7.440  20.642  66.846  1.00  0.00    -0.258 C  
ENDROOT
BRANCH   2   3
HETATM    3  N   UNL     1      -8.233  19.586  67.494  1.00  0.00    -0.285 NA 
BRANCH   3   4
HETATM    4  C   UNL     1      -9.062  20.051  68.616  1.00  0.00    -0.003 C  
HETATM    5  C   UNL     1     -10.569  19.920  68.433  1.00  0.00    -0.236 C  
ENDBRANCH   3   4
BRANCH   3   6
HETATM    6  C   UNL     1      -8.975  18.815  66.471  1.00  0.00    -0.319 C  
BRANCH   6   7
HETATM    7  C   UNL     1      -8.783  17.299  66.598  1.00  0.00    -0.257 C  
BRANCH   7   8
HETATM    8  O   UNL     1      -9.826  16.596  65.909  1.00  0.00    -0.415 OA 
BRANCH   8   9
HETATM    9  C   UNL     1     -10.105  15.360  66.438  1.00  0.00    -0.279 A  
HETATM   10  C   UNL     1     -11.250  14.615  66.146  1.00  0.00    -0.341 A  
HETATM   11  C   UNL     1     -11.498  13.417  66.811  1.00  0.00    -0.376 A  
HETATM   12  C   UNL     1     -10.586  12.921  67.745  1.00  0.00    -0.231 A  
HETATM   13  C   UNL     1      -9.409  13.639  68.001  1.00  0.00    -0.208 A  
HETATM   14  C   UNL     1      -9.170  14.852  67.342  1.00  0.00    -0.198 A  
BRANCH  12  15
HETATM   15  C   UNL     1     -10.906  11.656  68.452  1.00  0.00    -0.257 C  
HETATM   16 CL   UNL     1     -10.903   8.935  68.625  1.00  0.00    -0.104 Cl 
HETATM   17  C   UNL     1     -10.474  10.477  67.938  1.00  0.00    -0.210 C  
BRANCH  15  18
HETATM   18  C   UNL     1     -11.761  11.683  69.668  1.00  0.00    -0.418 A  
HETATM   19  C   UNL     1     -11.980  12.883  70.359  1.00  0.00    -0.329 A  
HETATM   20  C   UNL     1     -12.342  10.502  70.149  1.00  0.00    -0.339 A  
HETATM   21  C   UNL     1     -13.141  10.524  71.298  1.00  0.00    -0.478 A  
HETATM   22  C   UNL     1     -12.778  12.902  71.506  1.00  0.00    -0.339 A  
HETATM   23  C   UNL     1     -13.358  11.724  71.972  1.00  0.00    -0.417 A  
ENDBRANCH  15  18
BRANCH  17  24
HETATM   24  C   UNL     1      -9.593  10.362  66.756  1.00  0.00    -0.209 A  
HETATM   25  C   UNL     1      -7.888  10.286  64.533  1.00  0.00    -0.116 A  
HETATM   26  C   UNL     1      -8.202  10.319  66.928  1.00  0.00    -0.123 A  
HETATM   27  C   UNL     1      -7.353  10.284  65.819  1.00  0.00    -0.140 A  
HETATM   28  C   UNL     1      -9.269  10.297  64.350  1.00  0.00    -0.296 A  
HETATM   29  C   UNL     1     -10.123  10.330  65.460  1.00  0.00    -0.351 A  
ENDBRANCH  17  24
ENDBRANCH  12  15
ENDBRANCH   8   9
ENDBRANCH   7   8
ENDBRANCH   6   7
ENDBRANCH   3   6
ENDBRANCH   2   3
TORSDOF 9
ENDMDL
MODEL       85
REMARK 921   NORMALIZED FREE ENERGY PREDICTED BY IDOCK:   -4.36 KCAL/MOL
REMARK 922        TOTAL FREE ENERGY PREDICTED BY IDOCK:   -8.79 KCAL/MOL
REMARK 923 INTER-LIGAND FREE ENERGY PREDICTED BY IDOCK:   -6.95 KCAL/MOL
REMARK 924 INTRA-LIGAND FREE ENERGY PREDICTED BY IDOCK:   -1.84 KCAL/MOL
REMARK 927      BINDING AFFINITY PREDICTED BY RF-SCORE:    0.00 PKD
ROOT
HETATM    1  C   UNL     1     -11.041   6.241  70.743  1.00  0.00    -0.377 C  
HETATM    2  C   UNL     1      -9.579   6.055  70.348  1.00  0.00    -0.164 C  
ENDROOT
BRANCH   2   3
HETATM    3  N   UNL     1      -8.776   7.286  70.395  1.00  0.00    -0.145 NA 
BRANCH   3   4
HETATM    4  C   UNL     1      -7.326   7.071  70.282  1.00  0.00    -0.084 C  
HETATM    5  C   UNL     1      -6.470   7.695  71.379  1.00  0.00    -0.038 C  
ENDBRANCH   3   4
BRANCH   3   6
HETATM    6  C   UNL     1      -9.317   8.277  69.437  1.00  0.00    -0.155 C  
BRANCH   6   7
HETATM    7  C   UNL     1      -9.039   9.728  69.845  1.00  0.00    -0.229 C  
BRANCH   7   8
HETATM    8  O   UNL     1      -8.157  10.359  68.906  1.00  0.00    -0.111 OA 
BRANCH   8   9
HETATM    9  C   UNL     1      -8.618  11.565  68.438  1.00  0.00    -0.159 A  
HETATM   10  C   UNL     1      -9.929  12.024  68.588  1.00  0.00    -0.151 A  
HETATM   11  C   UNL     1     -10.331  13.215  67.990  1.00  0.00    -0.240 A  
HETATM   12  C   UNL     1      -9.420  13.989  67.268  1.00  0.00    -0.231 A  
HETATM   13  C   UNL     1      -8.090  13.560  67.161  1.00  0.00    -0.097 A  
HETATM   14  C   UNL     1      -7.692  12.353  67.751  1.00  0.00    -0.139 A  
BRANCH  12  15
HETATM   15  C   UNL     1      -9.900  15.236  66.621  1.00  0.00    -0.263 C  
HETATM   16 CL   UNL     1     -11.126  16.564  64.579  1.00  0.00    -0.251 Cl 
HETATM   17  C   UNL     1     -10.625  15.158  65.477  1.00  0.00    -0.366 C  
BRANCH  15  18
HETATM   18  C   UNL     1      -9.519  16.558  67.186  1.00  0.00    -0.246 A  
HETATM   19  C   UNL     1      -8.309  17.166  66.820  1.00  0.00    -0.266 A  
HETATM   20  C   UNL     1     -10.356  17.201  68.106  1.00  0.00    -0.350 A  
HETATM   21  C   UNL     1      -9.995  18.441  68.644  1.00  0.00    -0.415 A  
HETATM   22  C   UNL     1      -7.951  18.405  67.360  1.00  0.00    -0.241 A  
HETATM   23  C   UNL     1      -8.795  19.041  68.269  1.00  0.00    -0.370 A  
ENDBRANCH  15  18
BRANCH  17  24
HETATM   24  C   UNL     1     -11.077  13.888  64.869  1.00  0.00    -0.370 A  
HETATM   25  C   UNL     1     -11.942  11.424  63.851  1.00  0.00     0.053 A  
HETATM   26  C   UNL     1     -12.425  13.515  64.960  1.00  0.00    -0.462 A  
HETATM   27  C   UNL     1     -12.855  12.286  64.454  1.00  0.00    -0.294 A  
HETATM   28  C   UNL     1     -10.606  11.798  63.726  1.00  0.00    -0.470 A  
HETATM   29  C   UNL     1     -10.173  13.030  64.229  1.00  0.00    -0.316 A  
ENDBRANCH  17  24
ENDBRANCH  12  15
ENDBRANCH   8   9
ENDBRANCH   7   8
ENDBRANCH   6   7
ENDBRANCH   3   6
ENDBRANCH   2   3
TORSDOF 9
ENDMDL
MODEL       86
REMARK 921   NORMALIZED FREE ENERGY PREDICTED BY IDOCK:   -4.31 KCAL/MOL
REMARK 922        TOTAL FREE ENERGY PREDICTED BY IDOCK:   -8.72 KCAL/MOL
REMARK 923 INTER-LIGAND FREE ENERGY PREDICTED BY IDOCK:   -6.63 KCAL/MOL
REMARK 924 INTRA-LIGAND FREE ENERGY PREDICTED BY IDOCK:   -2.09 KCAL/MOL
REMARK 927      BINDING AFFINITY PREDICTED BY RF-SCORE:    0.00 PKD
ROOT
HETATM    1  C   UNL     1     -11.692  13.246  68.833  1.00  0.00    -0.369 C  
HETATM    2  C   UNL     1     -11.654  14.476  67.931  1.00  0.00    -0.344 C  
ENDROOT
BRANCH   2   3
HETATM    3  N   UNL     1     -11.888  14.193  66.507  1.00  0.00    -0.401 NA 
BRANCH   3   4
HETATM    4  C   UNL     1     -11.027  14.951  65.587  1.00  0.00    -0.344 C  
HETATM    5  C   UNL     1      -9.783  15.582  66.201  1.00  0.00    -0.348 C  
ENDBRANCH   3   4
BRANCH   3   6
HETATM    6  C   UNL     1     -11.881  12.731  66.276  1.00  0.00    -0.423 C  
BRANCH   6   7
HETATM    7  C   UNL     1     -11.036  12.312  65.067  1.00  0.00    -0.302 C  
BRANCH   7   8
HETATM    8  O   UNL     1      -9.691  12.016  65.466  1.00  0.00    -0.238 OA 
BRANCH   8   9
HETATM    9  C   UNL     1      -9.599  11.024  66.412  1.00  0.00    -0.198 A  
HETATM   10  C   UNL     1      -8.936  11.156  67.635  1.00  0.00    -0.140 A  
HETATM   11  C   UNL     1      -8.807  10.061  68.486  1.00  0.00    -0.120 A  
HETATM   12  C   UNL     1      -9.374   8.830  68.151  1.00  0.00    -0.148 A  
HETATM   13  C   UNL     1     -10.087   8.709  66.950  1.00  0.00    -0.355 A  
HETATM   14  C   UNL     1     -10.202   9.807  66.087  1.00  0.00    -0.278 A  
BRANCH  12  15
HETATM   15  C   UNL     1      -9.185   7.683  69.074  1.00  0.00    -0.140 C  
HETATM   16 CL   UNL     1      -8.075   5.278  69.720  1.00  0.00    -0.086 Cl 
HETATM   17  C   UNL     1      -8.280   6.721  68.766  1.00  0.00    -0.121 C  
BRANCH  15  18
HETATM   18  C   UNL     1     -10.040   7.558  70.284  1.00  0.00    -0.194 A  
HETATM   19  C   UNL     1     -11.224   6.806  70.246  1.00  0.00    -0.385 A  
HETATM   20  C   UNL     1      -9.682   8.207  71.473  1.00  0.00    -0.230 A  
HETATM   21  C   UNL     1     -10.489   8.097  72.610  1.00  0.00    -0.401 A  
HETATM   22  C   UNL     1     -12.028   6.698  71.384  1.00  0.00    -0.405 A  
HETATM   23  C   UNL     1     -11.659   7.342  72.564  1.00  0.00    -0.319 A  
ENDBRANCH  15  18
BRANCH  17  24
HETATM   24  C   UNL     1      -7.367   6.784  67.604  1.00  0.00    -0.096 A  
HETATM   25  C   UNL     1      -5.691   7.038  65.373  1.00  0.00    -0.032 A  
HETATM   26  C   UNL     1      -6.229   7.601  67.660  1.00  0.00    -0.049 A  
HETATM   27  C   UNL     1      -5.396   7.729  66.546  1.00  0.00    -0.025 A  
HETATM   28  C   UNL     1      -6.801   6.199  65.317  1.00  0.00    -0.048 A  
HETATM   29  C   UNL     1      -7.637   6.067  66.432  1.00  0.00    -0.094 A  
ENDBRANCH  17  24
ENDBRANCH  12  15
ENDBRANCH   8   9
ENDBRANCH   7   8
ENDBRANCH   6   7
ENDBRANCH   3   6
ENDBRANCH   2   3
TORSDOF 9
ENDMDL
MODEL       87
REMARK 921   NORMALIZED FREE ENERGY PREDICTED BY IDOCK:   -4.30 KCAL/MOL
REMARK 922        TOTAL FREE ENERGY PREDICTED BY IDOCK:   -8.70 KCAL/MOL
REMARK 923 INTER-LIGAND FREE ENERGY PREDICTED BY IDOCK:   -6.42 KCAL/MOL
REMARK 924 INTRA-LIGAND FREE ENERGY PREDICTED BY IDOCK:   -2.28 KCAL/MOL
REMARK 927      BINDING AFFINITY PREDICTED BY RF-SCORE:    0.00 PKD
ROOT
HETATM    1  C   UNL     1      -8.343  13.557  67.772  1.00  0.00    -0.181 C  
HETATM    2  C   UNL     1      -9.723  13.037  68.161  1.00  0.00    -0.228 C  
ENDROOT
BRANCH   2   3
HETATM    3  N   UNL     1     -10.725  13.115  67.087  1.00  0.00    -0.254 NA 
BRANCH   3   4
HETATM    4  C   UNL     1     -11.752  14.148  67.287  1.00  0.00    -0.392 C  
HETATM    5  C   UNL     1     -11.989  14.585  68.727  1.00  0.00    -0.315 C  
ENDBRANCH   3   4
BRANCH   3   6
HETATM    6  C   UNL     1     -10.050  13.179  65.771  1.00  0.00    -0.285 C  
BRANCH   6   7
HETATM    7  C   UNL     1     -10.051  11.841  65.023  1.00  0.00    -0.263 C  
BRANCH   7   8
HETATM    8  O   UNL     1      -8.876  11.083  65.338  1.00  0.00    -0.192 OA 
BRANCH   8   9
HETATM    9  C   UNL     1      -9.116   9.997  66.144  1.00  0.00    -0.156 A  
HETATM   10  C   UNL     1     -10.336   9.319  66.215  1.00  0.00    -0.192 A  
HETATM   11  C   UNL     1     -10.517   8.292  67.138  1.00  0.00    -0.386 A  
HETATM   12  C   UNL     1      -9.471   7.897  67.975  1.00  0.00    -0.159 A  
HETATM   13  C   UNL     1      -8.229   8.538  67.868  1.00  0.00    -0.119 A  
HETATM   14  C   UNL     1      -8.054   9.582  66.950  1.00  0.00    -0.109 A  
BRANCH  12  15
HETATM   15  C   UNL     1      -9.720   6.819  68.964  1.00  0.00    -0.145 C  
HETATM   16 CL   UNL     1      -9.818   4.189  69.677  1.00  0.00    -0.269 Cl 
HETATM   17  C   UNL     1      -9.445   5.532  68.633  1.00  0.00    -0.129 C  
BRANCH  15  18
HETATM   18  C   UNL     1     -10.338   7.146  70.276  1.00  0.00    -0.214 A  
HETATM   19  C   UNL     1     -11.676   6.817  70.536  1.00  0.00    -0.430 A  
HETATM   20  C   UNL     1      -9.593   7.807  71.263  1.00  0.00    -0.178 A  
HETATM   21  C   UNL     1     -10.175   8.123  72.495  1.00  0.00    -0.383 A  
HETATM   22  C   UNL     1     -12.255   7.134  71.768  1.00  0.00    -0.379 A  
HETATM   23  C   UNL     1     -11.504   7.785  72.745  1.00  0.00    -0.415 A  
ENDBRANCH  15  18
BRANCH  17  24
HETATM   24  C   UNL     1      -8.800   5.123  67.367  1.00  0.00    -0.105 A  
HETATM   25  C   UNL     1      -7.623   4.211  64.992  1.00  0.00    -0.077 A  
HETATM   26  C   UNL     1      -9.590   4.847  66.242  1.00  0.00    -0.180 A  
HETATM   27  C   UNL     1      -9.003   4.390  65.060  1.00  0.00    -0.145 A  
HETATM   28  C   UNL     1      -6.824   4.512  66.093  1.00  0.00    -0.058 A  
HETATM   29  C   UNL     1      -7.410   4.973  67.279  1.00  0.00    -0.082 A  
ENDBRANCH  17  24
ENDBRANCH  12  15
ENDBRANCH   8   9
ENDBRANCH   7   8
ENDBRANCH   6   7
ENDBRANCH   3   6
ENDBRANCH   2   3
TORSDOF 9
ENDMDL
MODEL       88
REMARK 921   NORMALIZED FREE ENERGY PREDICTED BY IDOCK:   -4.30 KCAL/MOL
REMARK 922        TOTAL FREE ENERGY PREDICTED BY IDOCK:   -8.70 KCAL/MOL
REMARK 923 INTER-LIGAND FREE ENERGY PREDICTED BY IDOCK:   -6.84 KCAL/MOL
REMARK 924 INTRA-LIGAND FREE ENERGY PREDICTED BY IDOCK:   -1.86 KCAL/MOL
REMARK 927      BINDING AFFINITY PREDICTED BY RF-SCORE:    0.00 PKD
ROOT
HETATM    1  C   UNL     1     -10.901  16.187  70.017  1.00  0.00    -0.349 C  
HETATM    2  C   UNL     1     -11.702  16.048  71.308  1.00  0.00    -0.461 C  
ENDROOT
BRANCH   2   3
HETATM    3  N   UNL     1     -12.089  14.668  71.637  1.00  0.00    -0.345 NA 
BRANCH   3   4
HETATM    4  C   UNL     1     -12.923  14.541  72.842  1.00  0.00    -0.488 C  
HETATM    5  C   UNL     1     -12.397  15.233  74.094  1.00  0.00    -0.762 C  
ENDBRANCH   3   4
BRANCH   3   6
HETATM    6  C   UNL     1     -12.652  14.003  70.440  1.00  0.00    -0.308 C  
BRANCH   6   7
HETATM    7  C   UNL     1     -11.948  12.687  70.091  1.00  0.00    -0.299 C  
BRANCH   7   8
HETATM    8  O   UNL     1     -11.084  12.858  68.959  1.00  0.00    -0.251 OA 
BRANCH   8   9
HETATM    9  C   UNL     1     -10.435  11.709  68.578  1.00  0.00    -0.217 A  
HETATM   10  C   UNL     1      -9.074  11.465  68.780  1.00  0.00    -0.096 A  
HETATM   11  C   UNL     1      -8.482  10.314  68.267  1.00  0.00    -0.121 A  
HETATM   12  C   UNL     1      -9.248   9.367  67.583  1.00  0.00    -0.142 A  
HETATM   13  C   UNL     1     -10.624   9.582  67.426  1.00  0.00    -0.337 A  
HETATM   14  C   UNL     1     -11.214  10.749  67.929  1.00  0.00    -0.386 A  
BRANCH  12  15
HETATM   15  C   UNL     1      -8.569   8.170  67.027  1.00  0.00    -0.124 C  
HETATM   16 CL   UNL     1      -7.749   5.575  67.203  1.00  0.00    -0.099 Cl 
HETATM   17  C   UNL     1      -8.616   6.998  67.710  1.00  0.00    -0.122 C  
BRANCH  15  18
HETATM   18  C   UNL     1      -7.779   8.282  65.772  1.00  0.00    -0.091 A  
HETATM   19  C   UNL     1      -6.419   8.619  65.813  1.00  0.00    -0.056 A  
HETATM   20  C   UNL     1      -8.393   8.072  64.530  1.00  0.00    -0.048 A  
HETATM   21  C   UNL     1      -7.655   8.184  63.348  1.00  0.00    -0.132 A  
HETATM   22  C   UNL     1      -5.683   8.731  64.630  1.00  0.00    -0.063 A  
HETATM   23  C   UNL     1      -6.301   8.512  63.400  1.00  0.00    -0.085 A  
ENDBRANCH  15  18
BRANCH  17  24
HETATM   24  C   UNL     1      -9.404   6.791  68.944  1.00  0.00    -0.129 A  
HETATM   25  C   UNL     1     -10.826   6.270  71.302  1.00  0.00    -0.317 A  
HETATM   26  C   UNL     1      -8.791   6.954  70.194  1.00  0.00    -0.145 A  
HETATM   27  C   UNL     1      -9.500   6.692  71.369  1.00  0.00    -0.161 A  
HETATM   28  C   UNL     1     -11.455   6.134  70.066  1.00  0.00    -0.369 A  
HETATM   29  C   UNL     1     -10.747   6.399  68.887  1.00  0.00    -0.339 A  
ENDBRANCH  17  24
ENDBRANCH  12  15
ENDBRANCH   8   9
ENDBRANCH   7   8
ENDBRANCH   6   7
ENDBRANCH   3   6
ENDBRANCH   2   3
TORSDOF 9
ENDMDL
MODEL       89
REMARK 921   NORMALIZED FREE ENERGY PREDICTED BY IDOCK:   -4.26 KCAL/MOL
REMARK 922        TOTAL FREE ENERGY PREDICTED BY IDOCK:   -8.65 KCAL/MOL
REMARK 923 INTER-LIGAND FREE ENERGY PREDICTED BY IDOCK:   -6.54 KCAL/MOL
REMARK 924 INTRA-LIGAND FREE ENERGY PREDICTED BY IDOCK:   -2.11 KCAL/MOL
REMARK 927      BINDING AFFINITY PREDICTED BY RF-SCORE:    0.00 PKD
ROOT
HETATM    1  C   UNL     1      -8.971   8.903  65.356  1.00  0.00    -0.232 C  
HETATM    2  C   UNL     1      -8.435  10.278  64.968  1.00  0.00    -0.172 C  
ENDROOT
BRANCH   2   3
HETATM    3  N   UNL     1      -7.380  10.791  65.855  1.00  0.00    -0.129 NA 
BRANCH   3   4
HETATM    4  C   UNL     1      -7.876  11.411  67.093  1.00  0.00    -0.156 C  
HETATM    5  C   UNL     1      -8.349  12.854  66.975  1.00  0.00    -0.112 C  
ENDBRANCH   3   4
BRANCH   3   6
HETATM    6  C   UNL     1      -6.350   9.750  66.070  1.00  0.00    -0.076 C  
BRANCH   6   7
HETATM    7  C   UNL     1      -5.628   9.880  67.415  1.00  0.00    -0.042 C  
BRANCH   7   8
HETATM    8  O   UNL     1      -5.786   8.686  68.194  1.00  0.00    -0.041 OA 
BRANCH   8   9
HETATM    9  C   UNL     1      -6.939   8.660  68.941  1.00  0.00    -0.062 A  
HETATM   10  C   UNL     1      -7.199   9.506  70.022  1.00  0.00    -0.101 A  
HETATM   11  C   UNL     1      -8.352   9.337  70.784  1.00  0.00    -0.230 A  
HETATM   12  C   UNL     1      -9.284   8.350  70.454  1.00  0.00    -0.161 A  
HETATM   13  C   UNL     1      -9.051   7.535  69.338  1.00  0.00    -0.142 A  
HETATM   14  C   UNL     1      -7.883   7.697  68.582  1.00  0.00    -0.121 A  
BRANCH  12  15
HETATM   15  C   UNL     1     -10.483   8.186  71.314  1.00  0.00    -0.254 C  
HETATM   16 CL   UNL     1     -12.889   9.043  72.267  1.00  0.00    -0.467 Cl 
HETATM   17  C   UNL     1     -11.500   9.079  71.218  1.00  0.00    -0.320 C  
BRANCH  15  18
HETATM   18  C   UNL     1     -10.526   7.097  72.324  1.00  0.00    -0.236 A  
HETATM   19  C   UNL     1     -11.180   5.889  72.043  1.00  0.00    -0.330 A  
HETATM   20  C   UNL     1      -9.929   7.273  73.580  1.00  0.00    -0.366 A  
HETATM   21  C   UNL     1      -9.975   6.252  74.534  1.00  0.00    -0.356 A  
HETATM   22  C   UNL     1     -11.225   4.870  72.999  1.00  0.00    -0.367 A  
HETATM   23  C   UNL     1     -10.621   5.053  74.242  1.00  0.00    -0.310 A  
ENDBRANCH  15  18
BRANCH  17  24
HETATM   24  C   UNL     1     -11.553  10.169  70.220  1.00  0.00    -0.379 A  
HETATM   25  C   UNL     1     -11.800  12.232  68.339  1.00  0.00    -0.358 A  
HETATM   26  C   UNL     1     -11.854  11.474  70.632  1.00  0.00    -0.279 A  
HETATM   27  C   UNL     1     -11.979  12.502  69.694  1.00  0.00    -0.339 A  
HETATM   28  C   UNL     1     -11.470  10.945  67.920  1.00  0.00    -0.344 A  
HETATM   29  C   UNL     1     -11.341   9.914  68.858  1.00  0.00    -0.060 A  
ENDBRANCH  17  24
ENDBRANCH  12  15
ENDBRANCH   8   9
ENDBRANCH   7   8
ENDBRANCH   6   7
ENDBRANCH   3   6
ENDBRANCH   2   3
TORSDOF 9
ENDMDL
MODEL       90
REMARK 921   NORMALIZED FREE ENERGY PREDICTED BY IDOCK:   -4.26 KCAL/MOL
REMARK 922        TOTAL FREE ENERGY PREDICTED BY IDOCK:   -8.64 KCAL/MOL
REMARK 923 INTER-LIGAND FREE ENERGY PREDICTED BY IDOCK:   -6.74 KCAL/MOL
REMARK 924 INTRA-LIGAND FREE ENERGY PREDICTED BY IDOCK:   -1.90 KCAL/MOL
REMARK 927      BINDING AFFINITY PREDICTED BY RF-SCORE:    0.00 PKD
ROOT
HETATM    1  C   UNL     1     -10.933  15.946  66.991  1.00  0.00    -0.189 C  
HETATM    2  C   UNL     1      -9.796  16.867  66.557  1.00  0.00    -0.296 C  
ENDROOT
BRANCH   2   3
HETATM    3  N   UNL     1      -9.168  17.615  67.657  1.00  0.00    -0.243 NA 
BRANCH   3   4
HETATM    4  C   UNL     1     -10.024  18.651  68.254  1.00  0.00    -0.384 C  
HETATM    5  C   UNL     1     -10.686  19.616  67.277  1.00  0.00    -0.583 C  
ENDBRANCH   3   4
BRANCH   3   6
HETATM    6  C   UNL     1      -8.584  16.673  68.638  1.00  0.00    -0.253 C  
BRANCH   6   7
HETATM    7  C   UNL     1      -7.515  15.755  68.035  1.00  0.00    -0.127 C  
BRANCH   7   8
HETATM    8  O   UNL     1      -7.333  14.586  68.845  1.00  0.00    -0.116 OA 
BRANCH   8   9
HETATM    9  C   UNL     1      -7.750  13.424  68.243  1.00  0.00    -0.141 A  
HETATM   10  C   UNL     1      -8.587  13.369  67.125  1.00  0.00    -0.201 A  
HETATM   11  C   UNL     1      -9.040  12.143  66.645  1.00  0.00    -0.206 A  
HETATM   12  C   UNL     1      -8.632  10.950  67.247  1.00  0.00    -0.128 A  
HETATM   13  C   UNL     1      -7.749  10.999  68.335  1.00  0.00    -0.119 A  
HETATM   14  C   UNL     1      -7.307  12.235  68.825  1.00  0.00    -0.083 A  
BRANCH  12  15
HETATM   15  C   UNL     1      -9.165   9.668  66.722  1.00  0.00    -0.181 C  
HETATM   16 CL   UNL     1     -10.710   7.434  66.956  1.00  0.00    -0.426 Cl 
HETATM   17  C   UNL     1     -10.114   9.001  67.426  1.00  0.00    -0.230 C  
BRANCH  15  18
HETATM   18  C   UNL     1      -8.601   9.088  65.474  1.00  0.00    -0.190 A  
HETATM   19  C   UNL     1      -7.584   8.125  65.532  1.00  0.00    -0.087 A  
HETATM   20  C   UNL     1      -9.069   9.513  64.223  1.00  0.00    -0.220 A  
HETATM   21  C   UNL     1      -8.535   8.974  63.048  1.00  0.00    -0.190 A  
HETATM   22  C   UNL     1      -7.052   7.588  64.356  1.00  0.00    -0.069 A  
HETATM   23  C   UNL     1      -7.529   8.012  63.117  1.00  0.00    -0.118 A  
ENDBRANCH  15  18
BRANCH  17  24
HETATM   24  C   UNL     1     -10.751   9.522  68.654  1.00  0.00    -0.218 A  
HETATM   25  C   UNL     1     -11.865  10.621  70.980  1.00  0.00    -0.396 A  
HETATM   26  C   UNL     1     -11.587  10.645  68.580  1.00  0.00    -0.279 A  
HETATM   27  C   UNL     1     -12.140  11.193  69.740  1.00  0.00    -0.414 A  
HETATM   28  C   UNL     1     -11.061   9.486  71.062  1.00  0.00    -0.433 A  
HETATM   29  C   UNL     1     -10.508   8.932  69.901  1.00  0.00    -0.223 A  
ENDBRANCH  17  24
ENDBRANCH  12  15
ENDBRANCH   8   9
ENDBRANCH   7   8
ENDBRANCH   6   7
ENDBRANCH   3   6
ENDBRANCH   2   3
TORSDOF 9
ENDMDL
MODEL       91
REMARK 921   NORMALIZED FREE ENERGY PREDICTED BY IDOCK:   -4.26 KCAL/MOL
REMARK 922        TOTAL FREE ENERGY PREDICTED BY IDOCK:   -8.64 KCAL/MOL
REMARK 923 INTER-LIGAND FREE ENERGY PREDICTED BY IDOCK:   -7.57 KCAL/MOL
REMARK 924 INTRA-LIGAND FREE ENERGY PREDICTED BY IDOCK:   -1.07 KCAL/MOL
REMARK 927      BINDING AFFINITY PREDICTED BY RF-SCORE:    0.00 PKD
ROOT
HETATM    1  C   UNL     1      -7.084   4.220  68.628  1.00  0.00    -0.052 C  
HETATM    2  C   UNL     1      -8.516   4.589  69.003  1.00  0.00    -0.079 C  
ENDROOT
BRANCH   2   3
HETATM    3  N   UNL     1      -8.753   6.033  69.147  1.00  0.00    -0.119 NA 
BRANCH   3   4
HETATM    4  C   UNL     1      -9.614   6.614  68.106  1.00  0.00    -0.120 C  
HETATM    5  C   UNL     1     -10.529   5.640  67.374  1.00  0.00    -0.306 C  
ENDBRANCH   3   4
BRANCH   3   6
HETATM    6  C   UNL     1      -9.185   6.339  70.529  1.00  0.00    -0.158 C  
BRANCH   6   7
HETATM    7  C   UNL     1      -8.794   7.748  70.989  1.00  0.00    -0.141 C  
BRANCH   7   8
HETATM    8  O   UNL     1      -9.958   8.508  71.342  1.00  0.00    -0.195 OA 
BRANCH   8   9
HETATM    9  C   UNL     1     -10.270   9.495  70.440  1.00  0.00    -0.279 A  
HETATM   10  C   UNL     1     -11.570   9.919  70.151  1.00  0.00    -0.281 A  
HETATM   11  C   UNL     1     -11.796  10.856  69.145  1.00  0.00    -0.389 A  
HETATM   12  C   UNL     1     -10.726  11.417  68.443  1.00  0.00    -0.237 A  
HETATM   13  C   UNL     1      -9.418  11.034  68.769  1.00  0.00    -0.190 A  
HETATM   14  C   UNL     1      -9.194  10.079  69.770  1.00  0.00    -0.227 A  
BRANCH  12  15
HETATM   15  C   UNL     1     -11.017  12.388  67.359  1.00  0.00    -0.296 C  
HETATM   16 CL   UNL     1     -11.880  14.822  66.483  1.00  0.00    -0.296 Cl 
HETATM   17  C   UNL     1     -11.398  13.651  67.679  1.00  0.00    -0.300 C  
BRANCH  15  18
HETATM   18  C   UNL     1     -10.965  11.951  65.939  1.00  0.00    -0.354 A  
HETATM   19  C   UNL     1     -12.010  12.263  65.058  1.00  0.00    -0.413 A  
HETATM   20  C   UNL     1      -9.877  11.202  65.470  1.00  0.00    -0.281 A  
HETATM   21  C   UNL     1      -9.830  10.783  64.137  1.00  0.00    -0.384 A  
HETATM   22  C   UNL     1     -11.961  11.842  63.726  1.00  0.00    -0.547 A  
HETATM   23  C   UNL     1     -10.870  11.105  63.267  1.00  0.00    -0.115 A  
ENDBRANCH  15  18
BRANCH  17  24
HETATM   24  C   UNL     1     -11.443  14.177  69.060  1.00  0.00    -0.322 A  
HETATM   25  C   UNL     1     -11.633  15.268  71.635  1.00  0.00    -0.473 A  
HETATM   26  C   UNL     1     -12.516  13.840  69.897  1.00  0.00    -0.259 A  
HETATM   27  C   UNL     1     -12.611  14.386  71.179  1.00  0.00    -0.422 A  
HETATM   28  C   UNL     1     -10.546  15.585  70.823  1.00  0.00    -0.091 A  
HETATM   29  C   UNL     1     -10.447  15.037  69.539  1.00  0.00    -0.245 A  
ENDBRANCH  17  24
ENDBRANCH  12  15
ENDBRANCH   8   9
ENDBRANCH   7   8
ENDBRANCH   6   7
ENDBRANCH   3   6
ENDBRANCH   2   3
TORSDOF 9
ENDMDL
MODEL       92
REMARK 921   NORMALIZED FREE ENERGY PREDICTED BY IDOCK:   -4.25 KCAL/MOL
REMARK 922        TOTAL FREE ENERGY PREDICTED BY IDOCK:   -8.62 KCAL/MOL
REMARK 923 INTER-LIGAND FREE ENERGY PREDICTED BY IDOCK:   -6.32 KCAL/MOL
REMARK 924 INTRA-LIGAND FREE ENERGY PREDICTED BY IDOCK:   -2.30 KCAL/MOL
REMARK 927      BINDING AFFINITY PREDICTED BY RF-SCORE:    0.00 PKD
ROOT
HETATM    1  C   UNL     1      -9.312   4.394  66.639  1.00  0.00    -0.169 C  
HETATM    2  C   UNL     1      -8.008   4.465  65.850  1.00  0.00    -0.099 C  
ENDROOT
BRANCH   2   3
HETATM    3  N   UNL     1      -7.189   5.653  66.136  1.00  0.00    -0.075 NA 
BRANCH   3   4
HETATM    4  C   UNL     1      -6.071   5.413  67.061  1.00  0.00    -0.030 C  
HETATM    5  C   UNL     1      -5.763   6.536  68.044  1.00  0.00    -0.012 C  
ENDBRANCH   3   4
BRANCH   3   6
HETATM    6  C   UNL     1      -6.797   6.312  64.870  1.00  0.00    -0.050 C  
BRANCH   6   7
HETATM    7  C   UNL     1      -7.824   7.337  64.377  1.00  0.00    -0.126 C  
BRANCH   7   8
HETATM    8  O   UNL     1      -7.599   8.616  64.986  1.00  0.00    -0.091 OA 
BRANCH   8   9
HETATM    9  C   UNL     1      -8.393   8.856  66.080  1.00  0.00    -0.122 A  
HETATM   10  C   UNL     1      -9.714   8.419  66.210  1.00  0.00    -0.278 A  
HETATM   11  C   UNL     1     -10.476   8.799  67.312  1.00  0.00    -0.353 A  
HETATM   12  C   UNL     1      -9.918   9.584  68.324  1.00  0.00    -0.184 A  
HETATM   13  C   UNL     1      -8.576   9.978  68.224  1.00  0.00    -0.115 A  
HETATM   14  C   UNL     1      -7.817   9.608  67.106  1.00  0.00    -0.091 A  
BRANCH  12  15
HETATM   15  C   UNL     1     -10.776   9.990  69.465  1.00  0.00    -0.269 C  
HETATM   16 CL   UNL     1     -12.217  11.850  70.843  1.00  0.00    -0.422 Cl 
HETATM   17  C   UNL     1     -11.303  11.240  69.492  1.00  0.00    -0.294 C  
BRANCH  15  18
HETATM   18  C   UNL     1     -10.986   9.056  70.602  1.00  0.00    -0.308 A  
HETATM   19  C   UNL     1     -10.015   8.924  71.605  1.00  0.00    -0.397 A  
HETATM   20  C   UNL     1     -12.152   8.282  70.674  1.00  0.00     0.039 A  
HETATM   21  C   UNL     1     -12.348   7.397  71.740  1.00  0.00    -0.365 A  
HETATM   22  C   UNL     1     -10.214   8.038  72.669  1.00  0.00    -0.385 A  
HETATM   23  C   UNL     1     -11.380   7.278  72.735  1.00  0.00    -0.318 A  
ENDBRANCH  15  18
BRANCH  17  24
HETATM   24  C   UNL     1     -11.172  12.217  68.390  1.00  0.00    -0.311 A  
HETATM   25  C   UNL     1     -11.016  14.158  66.374  1.00  0.00    -0.311 A  
HETATM   26  C   UNL     1     -10.405  13.376  68.577  1.00  0.00    -0.240 A  
HETATM   27  C   UNL     1     -10.330  14.344  67.572  1.00  0.00    -0.251 A  
HETATM   28  C   UNL     1     -11.755  12.996  66.165  1.00  0.00    -0.445 A  
HETATM   29  C   UNL     1     -11.830  12.023  67.169  1.00  0.00    -0.251 A  
ENDBRANCH  17  24
ENDBRANCH  12  15
ENDBRANCH   8   9
ENDBRANCH   7   8
ENDBRANCH   6   7
ENDBRANCH   3   6
ENDBRANCH   2   3
TORSDOF 9
ENDMDL
MODEL       93
REMARK 921   NORMALIZED FREE ENERGY PREDICTED BY IDOCK:   -4.24 KCAL/MOL
REMARK 922        TOTAL FREE ENERGY PREDICTED BY IDOCK:   -8.61 KCAL/MOL
REMARK 923 INTER-LIGAND FREE ENERGY PREDICTED BY IDOCK:   -6.58 KCAL/MOL
REMARK 924 INTRA-LIGAND FREE ENERGY PREDICTED BY IDOCK:   -2.04 KCAL/MOL
REMARK 927      BINDING AFFINITY PREDICTED BY RF-SCORE:    0.00 PKD
ROOT
HETATM    1  C   UNL     1     -12.138  12.108  63.638  1.00  0.00    -0.648 C  
HETATM    2  C   UNL     1     -12.492  13.140  64.704  1.00  0.00    -0.373 C  
ENDROOT
BRANCH   2   3
HETATM    3  N   UNL     1     -11.377  13.506  65.590  1.00  0.00    -0.297 NA 
BRANCH   3   4
HETATM    4  C   UNL     1     -10.474  14.529  65.041  1.00  0.00    -0.429 C  
HETATM    5  C   UNL     1     -11.094  15.896  64.780  1.00  0.00    -0.397 C  
ENDBRANCH   3   4
BRANCH   3   6
HETATM    6  C   UNL     1     -11.888  13.814  66.945  1.00  0.00    -0.413 C  
BRANCH   6   7
HETATM    7  C   UNL     1     -11.346  12.872  68.026  1.00  0.00    -0.292 C  
BRANCH   7   8
HETATM    8  O   UNL     1     -10.134  12.242  67.589  1.00  0.00    -0.196 OA 
BRANCH   8   9
HETATM    9  C   UNL     1      -9.916  11.009  68.153  1.00  0.00    -0.177 A  
HETATM   10  C   UNL     1      -8.852  10.708  69.008  1.00  0.00    -0.154 A  
HETATM   11  C   UNL     1      -8.653   9.402  69.450  1.00  0.00    -0.148 A  
HETATM   12  C   UNL     1      -9.538   8.386  69.082  1.00  0.00    -0.164 A  
HETATM   13  C   UNL     1     -10.637   8.695  68.269  1.00  0.00    -0.181 A  
HETATM   14  C   UNL     1     -10.826  10.006  67.813  1.00  0.00    -0.337 A  
BRANCH  12  15
HETATM   15  C   UNL     1      -9.269   7.003  69.551  1.00  0.00    -0.149 C  
HETATM   16 CL   UNL     1      -8.323   4.476  69.162  1.00  0.00    -0.082 Cl 
HETATM   17  C   UNL     1      -8.580   6.149  68.754  1.00  0.00    -0.120 C  
BRANCH  15  18
HETATM   18  C   UNL     1      -9.822   6.543  70.852  1.00  0.00    -0.201 A  
HETATM   19  C   UNL     1      -8.976   6.319  71.948  1.00  0.00    -0.139 A  
HETATM   20  C   UNL     1     -11.197   6.307  70.992  1.00  0.00    -0.372 A  
HETATM   21  C   UNL     1     -11.718   5.867  72.213  1.00  0.00    -0.309 A  
HETATM   22  C   UNL     1      -9.500   5.878  73.167  1.00  0.00    -0.143 A  
HETATM   23  C   UNL     1     -10.869   5.655  73.297  1.00  0.00    -0.321 A  
ENDBRANCH  15  18
BRANCH  17  24
HETATM   24  C   UNL     1      -7.967   6.534  67.464  1.00  0.00    -0.114 A  
HETATM   25  C   UNL     1      -6.831   7.404  65.054  1.00  0.00    -0.050 A  
HETATM   26  C   UNL     1      -6.687   7.106  67.447  1.00  0.00    -0.068 A  
HETATM   27  C   UNL     1      -6.123   7.541  66.245  1.00  0.00    -0.041 A  
HETATM   28  C   UNL     1      -8.091   6.809  65.054  1.00  0.00    -0.126 A  
HETATM   29  C   UNL     1      -8.658   6.369  66.256  1.00  0.00    -0.140 A  
ENDBRANCH  17  24
ENDBRANCH  12  15
ENDBRANCH   8   9
ENDBRANCH   7   8
ENDBRANCH   6   7
ENDBRANCH   3   6
ENDBRANCH   2   3
TORSDOF 9
ENDMDL
MODEL       94
REMARK 921   NORMALIZED FREE ENERGY PREDICTED BY IDOCK:   -4.24 KCAL/MOL
REMARK 922        TOTAL FREE ENERGY PREDICTED BY IDOCK:   -8.61 KCAL/MOL
REMARK 923 INTER-LIGAND FREE ENERGY PREDICTED BY IDOCK:   -6.55 KCAL/MOL
REMARK 924 INTRA-LIGAND FREE ENERGY PREDICTED BY IDOCK:   -2.06 KCAL/MOL
REMARK 927      BINDING AFFINITY PREDICTED BY RF-SCORE:    0.00 PKD
ROOT
HETATM    1  C   UNL     1     -13.372   7.301  71.298  1.00  0.00    -0.338 C  
HETATM    2  C   UNL     1     -12.530   8.127  72.267  1.00  0.00    -0.301 C  
ENDROOT
BRANCH   2   3
HETATM    3  N   UNL     1     -11.326   7.440  72.761  1.00  0.00    -0.323 NA 
BRANCH   3   4
HETATM    4  C   UNL     1     -11.124   6.093  72.207  1.00  0.00    -0.277 C  
HETATM    5  C   UNL     1     -11.141   4.947  73.212  1.00  0.00    -0.410 C  
ENDBRANCH   3   4
BRANCH   3   6
HETATM    6  C   UNL     1     -10.150   8.330  72.633  1.00  0.00    -0.295 C  
BRANCH   6   7
HETATM    7  C   UNL     1     -10.209   9.240  71.401  1.00  0.00    -0.301 C  
BRANCH   7   8
HETATM    8  O   UNL     1      -8.890   9.629  70.994  1.00  0.00    -0.195 OA 
BRANCH   8   9
HETATM    9  C   UNL     1      -8.752   9.780  69.636  1.00  0.00    -0.199 A  
HETATM   10  C   UNL     1      -7.713  10.484  69.020  1.00  0.00    -0.125 A  
HETATM   11  C   UNL     1      -7.711  10.671  67.641  1.00  0.00    -0.097 A  
HETATM   12  C   UNL     1      -8.722  10.122  66.848  1.00  0.00    -0.135 A  
HETATM   13  C   UNL     1      -9.736   9.369  67.456  1.00  0.00    -0.198 A  
HETATM   14  C   UNL     1      -9.744   9.195  68.847  1.00  0.00    -0.165 A  
BRANCH  12  15
HETATM   15  C   UNL     1      -8.696  10.373  65.386  1.00  0.00    -0.193 C  
HETATM   16 CL   UNL     1      -9.558  11.691  63.160  1.00  0.00    -0.386 Cl 
HETATM   17  C   UNL     1      -9.426  11.394  64.871  1.00  0.00    -0.171 C  
BRANCH  15  18
HETATM   18  C   UNL     1      -7.937   9.460  64.491  1.00  0.00    -0.126 A  
HETATM   19  C   UNL     1      -6.653   9.804  64.043  1.00  0.00    -0.120 A  
HETATM   20  C   UNL     1      -8.506   8.251  64.068  1.00  0.00     0.042 A  
HETATM   21  C   UNL     1      -7.796   7.394  63.220  1.00  0.00    -0.122 A  
HETATM   22  C   UNL     1      -5.947   8.946  63.196  1.00  0.00    -0.089 A  
HETATM   23  C   UNL     1      -6.519   7.742  62.787  1.00  0.00    -0.076 A  
ENDBRANCH  15  18
BRANCH  17  24
HETATM   24  C   UNL     1     -10.179  12.368  65.690  1.00  0.00    -0.285 A  
HETATM   25  C   UNL     1     -11.673  14.261  67.119  1.00  0.00    -0.430 A  
HETATM   26  C   UNL     1     -11.538  12.148  65.955  1.00  0.00    -0.425 A  
HETATM   27  C   UNL     1     -12.282  13.093  66.665  1.00  0.00    -0.331 A  
HETATM   28  C   UNL     1     -10.316  14.475  66.888  1.00  0.00    -0.264 A  
HETATM   29  C   UNL     1      -9.567  13.529  66.179  1.00  0.00    -0.219 A  
ENDBRANCH  17  24
ENDBRANCH  12  15
ENDBRANCH   8   9
ENDBRANCH   7   8
ENDBRANCH   6   7
ENDBRANCH   3   6
ENDBRANCH   2   3
TORSDOF 9
ENDMDL
MODEL       95
REMARK 921   NORMALIZED FREE ENERGY PREDICTED BY IDOCK:   -4.24 KCAL/MOL
REMARK 922        TOTAL FREE ENERGY PREDICTED BY IDOCK:   -8.60 KCAL/MOL
REMARK 923 INTER-LIGAND FREE ENERGY PREDICTED BY IDOCK:   -6.97 KCAL/MOL
REMARK 924 INTRA-LIGAND FREE ENERGY PREDICTED BY IDOCK:   -1.64 KCAL/MOL
REMARK 927      BINDING AFFINITY PREDICTED BY RF-SCORE:    0.00 PKD
ROOT
HETATM    1  C   UNL     1     -12.049  12.664  63.522  1.00  0.00    -0.648 C  
HETATM    2  C   UNL     1     -10.597  12.354  63.872  1.00  0.00    -0.437 C  
ENDROOT
BRANCH   2   3
HETATM    3  N   UNL     1     -10.169  10.989  63.530  1.00  0.00    -0.359 NA 
BRANCH   3   4
HETATM    4  C   UNL     1      -9.292  10.905  62.352  1.00  0.00    -0.211 C  
HETATM    5  C   UNL     1      -7.881  10.385  62.605  1.00  0.00    -0.163 C  
ENDBRANCH   3   4
BRANCH   3   6
HETATM    6  C   UNL     1      -9.634  10.312  64.732  1.00  0.00    -0.307 C  
BRANCH   6   7
HETATM    7  C   UNL     1     -10.633  10.263  65.895  1.00  0.00    -0.013 C  
BRANCH   7   8
HETATM    8  O   UNL     1      -9.959  10.426  67.150  1.00  0.00    -0.181 OA 
BRANCH   8   9
HETATM    9  C   UNL     1     -10.137  11.664  67.719  1.00  0.00    -0.187 A  
HETATM   10  C   UNL     1      -9.162  12.345  68.452  1.00  0.00    -0.145 A  
HETATM   11  C   UNL     1      -9.467  13.550  69.079  1.00  0.00     0.292 A  
HETATM   12  C   UNL     1     -10.738  14.116  68.948  1.00  0.00    -0.270 A  
HETATM   13  C   UNL     1     -11.702  13.462  68.168  1.00  0.00    -0.397 A  
HETATM   14  C   UNL     1     -11.397  12.242  67.552  1.00  0.00    -0.388 A  
BRANCH  12  15
HETATM   15  C   UNL     1     -11.028  15.386  69.659  1.00  0.00    -0.288 C  
HETATM   16 CL   UNL     1     -10.543  18.022  70.162  1.00  0.00     1.008 Cl 
HETATM   17  C   UNL     1     -10.363  16.515  69.307  1.00  0.00    -0.318 C  
BRANCH  15  18
HETATM   18  C   UNL     1     -11.983  15.395  70.799  1.00  0.00    -0.402 A  
HETATM   19  C   UNL     1     -13.336  15.090  70.597  1.00  0.00    -0.279 A  
HETATM   20  C   UNL     1     -11.542  15.729  72.087  1.00  0.00    -0.534 A  
HETATM   21  C   UNL     1     -12.440  15.746  73.159  1.00  0.00    -0.599 A  
HETATM   22  C   UNL     1     -14.232  15.107  71.671  1.00  0.00    -0.664 A  
HETATM   23  C   UNL     1     -13.782  15.434  72.949  1.00  0.00    -0.567 A  
ENDBRANCH  15  18
BRANCH  17  24
HETATM   24  C   UNL     1      -9.425  16.602  68.167  1.00  0.00    -0.228 A  
HETATM   25  C   UNL     1      -7.664  16.622  65.987  1.00  0.00     0.055 A  
HETATM   26  C   UNL     1      -9.916  16.512  66.857  1.00  0.00    -0.273 A  
HETATM   27  C   UNL     1      -9.037  16.520  65.771  1.00  0.00    -0.040 A  
HETATM   28  C   UNL     1      -7.168  16.744  67.283  1.00  0.00    -0.204 A  
HETATM   29  C   UNL     1      -8.046  16.739  68.373  1.00  0.00    -0.219 A  
ENDBRANCH  17  24
ENDBRANCH  12  15
ENDBRANCH   8   9
ENDBRANCH   7   8
ENDBRANCH   6   7
ENDBRANCH   3   6
ENDBRANCH   2   3
TORSDOF 9
ENDMDL
MODEL       96
REMARK 921   NORMALIZED FREE ENERGY PREDICTED BY IDOCK:   -4.22 KCAL/MOL
REMARK 922        TOTAL FREE ENERGY PREDICTED BY IDOCK:   -8.58 KCAL/MOL
REMARK 923 INTER-LIGAND FREE ENERGY PREDICTED BY IDOCK:   -6.22 KCAL/MOL
REMARK 924 INTRA-LIGAND FREE ENERGY PREDICTED BY IDOCK:   -2.36 KCAL/MOL
REMARK 927      BINDING AFFINITY PREDICTED BY RF-SCORE:    0.00 PKD
ROOT
HETATM    1  C   UNL     1      -5.373   9.377  64.953  1.00  0.00    -0.046 C  
HETATM    2  C   UNL     1      -5.901   7.965  64.719  1.00  0.00    -0.045 C  
ENDROOT
BRANCH   2   3
HETATM    3  N   UNL     1      -7.368   7.860  64.703  1.00  0.00    -0.079 NA 
BRANCH   3   4
HETATM    4  C   UNL     1      -7.905   6.720  65.461  1.00  0.00    -0.112 C  
HETATM    5  C   UNL     1      -7.140   6.336  66.722  1.00  0.00    -0.073 C  
ENDBRANCH   3   4
BRANCH   3   6
HETATM    6  C   UNL     1      -7.971   9.164  65.063  1.00  0.00    -0.120 C  
BRANCH   6   7
HETATM    7  C   UNL     1      -9.439   9.056  65.488  1.00  0.00    -0.150 C  
BRANCH   7   8
HETATM    8  O   UNL     1      -9.650   9.699  66.753  1.00  0.00    -0.156 OA 
BRANCH   8   9
HETATM    9  C   UNL     1      -9.818   8.825  67.798  1.00  0.00    -0.174 A  
HETATM   10  C   UNL     1      -9.208   8.960  69.048  1.00  0.00    -0.140 A  
HETATM   11  C   UNL     1      -9.356   7.968  70.014  1.00  0.00    -0.156 A  
HETATM   12  C   UNL     1     -10.150   6.847  69.764  1.00  0.00    -0.196 A  
HETATM   13  C   UNL     1     -10.808   6.734  68.531  1.00  0.00    -0.280 A  
HETATM   14  C   UNL     1     -10.645   7.726  67.555  1.00  0.00    -0.319 A  
BRANCH  12  15
HETATM   15  C   UNL     1     -10.254   5.800  70.811  1.00  0.00    -0.279 C  
HETATM   16 CL   UNL     1     -11.268   4.837  73.152  1.00  0.00    -0.382 Cl 
HETATM   17  C   UNL     1     -11.157   5.946  71.814  1.00  0.00    -0.265 C  
BRANCH  15  18
HETATM   18  C   UNL     1      -9.319   4.644  70.798  1.00  0.00    -0.215 A  
HETATM   19  C   UNL     1      -8.238   4.590  71.690  1.00  0.00    -0.102 A  
HETATM   20  C   UNL     1      -9.498   3.602  69.878  1.00  0.00    -0.262 A  
HETATM   21  C   UNL     1      -8.615   2.517  69.859  1.00  0.00    -0.108 A  
HETATM   22  C   UNL     1      -7.358   3.505  71.668  1.00  0.00    -0.047 A  
HETATM   23  C   UNL     1      -7.548   2.470  70.754  1.00  0.00    -0.036 A  
ENDBRANCH  15  18
BRANCH  17  24
HETATM   24  C   UNL     1     -12.144   7.044  71.885  1.00  0.00    -0.358 A  
HETATM   25  C   UNL     1     -14.025   9.103  72.164  1.00  0.00    -0.466 A  
HETATM   26  C   UNL     1     -11.766   8.284  72.417  1.00  0.00    -0.463 A  
HETATM   27  C   UNL     1     -12.705   9.309  72.558  1.00  0.00    -0.310 A  
HETATM   28  C   UNL     1     -14.405   7.885  71.605  1.00  0.00    -0.595 A  
HETATM   29  C   UNL     1     -13.466   6.857  71.459  1.00  0.00    -0.290 A  
ENDBRANCH  17  24
ENDBRANCH  12  15
ENDBRANCH   8   9
ENDBRANCH   7   8
ENDBRANCH   6   7
ENDBRANCH   3   6
ENDBRANCH   2   3
TORSDOF 9
ENDMDL
MODEL       97
REMARK 921   NORMALIZED FREE ENERGY PREDICTED BY IDOCK:   -4.22 KCAL/MOL
REMARK 922        TOTAL FREE ENERGY PREDICTED BY IDOCK:   -8.57 KCAL/MOL
REMARK 923 INTER-LIGAND FREE ENERGY PREDICTED BY IDOCK:   -6.55 KCAL/MOL
REMARK 924 INTRA-LIGAND FREE ENERGY PREDICTED BY IDOCK:   -2.02 KCAL/MOL
REMARK 927      BINDING AFFINITY PREDICTED BY RF-SCORE:    0.00 PKD
ROOT
HETATM    1  C   UNL     1      -9.912  11.549  67.421  1.00  0.00    -0.209 C  
HETATM    2  C   UNL     1      -9.499  11.522  65.952  1.00  0.00    -0.230 C  
ENDROOT
BRANCH   2   3
HETATM    3  N   UNL     1      -9.497  10.181  65.348  1.00  0.00    -0.217 NA 
BRANCH   3   4
HETATM    4  C   UNL     1      -9.597  10.175  63.880  1.00  0.00    -0.239 C  
HETATM    5  C   UNL     1     -10.506  11.234  63.268  1.00  0.00    -0.370 C  
ENDBRANCH   3   4
BRANCH   3   6
HETATM    6  C   UNL     1      -8.365   9.389  65.880  1.00  0.00    -0.120 C  
BRANCH   6   7
HETATM    7  C   UNL     1      -8.421   7.909  65.485  1.00  0.00    -0.139 C  
BRANCH   7   8
HETATM    8  O   UNL     1      -7.799   7.093  66.486  1.00  0.00    -0.101 OA 
BRANCH   8   9
HETATM    9  C   UNL     1      -8.523   6.991  67.648  1.00  0.00    -0.123 A  
HETATM   10  C   UNL     1      -8.114   7.505  68.882  1.00  0.00    -0.127 A  
HETATM   11  C   UNL     1      -8.868   7.264  70.028  1.00  0.00    -0.141 A  
HETATM   12  C   UNL     1     -10.063   6.544  69.954  1.00  0.00    -0.202 A  
HETATM   13  C   UNL     1     -10.503   6.075  68.709  1.00  0.00    -0.307 A  
HETATM   14  C   UNL     1      -9.736   6.305  67.560  1.00  0.00    -0.129 A  
BRANCH  12  15
HETATM   15  C   UNL     1     -10.816   6.286  71.207  1.00  0.00    -0.317 C  
HETATM   16 CL   UNL     1     -11.394   4.757  73.389  1.00  0.00    -0.419 Cl 
HETATM   17  C   UNL     1     -10.491   5.214  71.972  1.00  0.00    -0.215 C  
BRANCH  15  18
HETATM   18  C   UNL     1     -11.968   7.153  71.570  1.00  0.00    -0.361 A  
HETATM   19  C   UNL     1     -11.773   8.320  72.321  1.00  0.00    -0.453 A  
HETATM   20  C   UNL     1     -13.268   6.800  71.182  1.00  0.00    -0.040 A  
HETATM   21  C   UNL     1     -14.354   7.611  71.529  1.00  0.00    -0.589 A  
HETATM   22  C   UNL     1     -12.860   9.128  72.667  1.00  0.00    -0.293 A  
HETATM   23  C   UNL     1     -14.147   8.773  72.269  1.00  0.00    -0.511 A  
ENDBRANCH  15  18
BRANCH  17  24
HETATM   24  C   UNL     1      -9.342   4.323  71.703  1.00  0.00    -0.199 A  
HETATM   25  C   UNL     1      -7.230   2.531  71.273  1.00  0.00    -0.033 A  
HETATM   26  C   UNL     1      -9.484   3.261  70.799  1.00  0.00    -0.237 A  
HETATM   27  C   UNL     1      -8.431   2.367  70.588  1.00  0.00    -0.088 A  
HETATM   28  C   UNL     1      -7.067   3.601  72.150  1.00  0.00    -0.046 A  
HETATM   29  C   UNL     1      -8.118   4.501  72.362  1.00  0.00    -0.098 A  
ENDBRANCH  17  24
ENDBRANCH  12  15
ENDBRANCH   8   9
ENDBRANCH   7   8
ENDBRANCH   6   7
ENDBRANCH   3   6
ENDBRANCH   2   3
TORSDOF 9
ENDMDL
MODEL       98
REMARK 921   NORMALIZED FREE ENERGY PREDICTED BY IDOCK:   -4.17 KCAL/MOL
REMARK 922        TOTAL FREE ENERGY PREDICTED BY IDOCK:   -8.51 KCAL/MOL
REMARK 923 INTER-LIGAND FREE ENERGY PREDICTED BY IDOCK:   -5.51 KCAL/MOL
REMARK 924 INTRA-LIGAND FREE ENERGY PREDICTED BY IDOCK:   -3.00 KCAL/MOL
REMARK 927      BINDING AFFINITY PREDICTED BY RF-SCORE:    0.00 PKD
ROOT
HETATM    1  C   UNL     1      -5.354   9.157  66.009  1.00  0.00    -0.040 C  
HETATM    2  C   UNL     1      -5.717   8.477  64.693  1.00  0.00    -0.059 C  
ENDROOT
BRANCH   2   3
HETATM    3  N   UNL     1      -7.006   8.901  64.126  1.00  0.00    -0.089 NA 
BRANCH   3   4
HETATM    4  C   UNL     1      -8.021   7.838  64.063  1.00  0.00    -0.104 C  
HETATM    5  C   UNL     1      -7.759   6.611  64.929  1.00  0.00    -0.109 C  
ENDBRANCH   3   4
BRANCH   3   6
HETATM    6  C   UNL     1      -7.467  10.140  64.791  1.00  0.00    -0.136 C  
BRANCH   6   7
HETATM    7  C   UNL     1      -8.985  10.187  64.998  1.00  0.00    -0.195 C  
BRANCH   7   8
HETATM    8  O   UNL     1      -9.303  10.386  66.383  1.00  0.00    -0.158 OA 
BRANCH   8   9
HETATM    9  C   UNL     1      -9.318   9.228  67.120  1.00  0.00    -0.132 A  
HETATM   10  C   UNL     1      -8.345   8.876  68.059  1.00  0.00    -0.121 A  
HETATM   11  C   UNL     1      -8.389   7.632  68.684  1.00  0.00    -0.129 A  
HETATM   12  C   UNL     1      -9.428   6.738  68.415  1.00  0.00    -0.126 A  
HETATM   13  C   UNL     1     -10.435   7.111  67.515  1.00  0.00    -0.331 A  
HETATM   14  C   UNL     1     -10.380   8.356  66.875  1.00  0.00    -0.378 A  
BRANCH  12  15
HETATM   15  C   UNL     1      -9.417   5.412  69.082  1.00  0.00    -0.177 C  
HETATM   16 CL   UNL     1      -9.907   3.796  71.223  1.00  0.00    -0.244 Cl 
HETATM   17  C   UNL     1      -9.979   5.277  70.309  1.00  0.00    -0.240 C  
BRANCH  15  18
HETATM   18  C   UNL     1      -8.724   4.265  68.437  1.00  0.00    -0.118 A  
HETATM   19  C   UNL     1      -7.360   4.036  68.666  1.00  0.00    -0.055 A  
HETATM   20  C   UNL     1      -9.425   3.410  67.576  1.00  0.00    -0.227 A  
HETATM   21  C   UNL     1      -8.773   2.335  66.962  1.00  0.00    -0.138 A  
HETATM   22  C   UNL     1      -6.711   2.961  68.052  1.00  0.00    -0.037 A  
HETATM   23  C   UNL     1      -7.419   2.112  67.202  1.00  0.00    -0.060 A  
ENDBRANCH  15  18
BRANCH  17  24
HETATM   24  C   UNL     1     -10.716   6.354  71.005  1.00  0.00    -0.301 A  
HETATM   25  C   UNL     1     -12.119   8.309  72.442  1.00  0.00    -0.430 A  
HETATM   26  C   UNL     1     -10.065   7.124  71.978  1.00  0.00    -0.194 A  
HETATM   27  C   UNL     1     -10.765   8.097  72.695  1.00  0.00    -0.421 A  
HETATM   28  C   UNL     1     -12.768   7.571  71.456  1.00  0.00    -0.391 A  
HETATM   29  C   UNL     1     -12.069   6.597  70.733  1.00  0.00    -0.364 A  
ENDBRANCH  17  24
ENDBRANCH  12  15
ENDBRANCH   8   9
ENDBRANCH   7   8
ENDBRANCH   6   7
ENDBRANCH   3   6
ENDBRANCH   2   3
TORSDOF 9
ENDMDL
MODEL       99
REMARK 921   NORMALIZED FREE ENERGY PREDICTED BY IDOCK:   -4.16 KCAL/MOL
REMARK 922        TOTAL FREE ENERGY PREDICTED BY IDOCK:   -8.48 KCAL/MOL
REMARK 923 INTER-LIGAND FREE ENERGY PREDICTED BY IDOCK:   -6.77 KCAL/MOL
REMARK 924 INTRA-LIGAND FREE ENERGY PREDICTED BY IDOCK:   -1.71 KCAL/MOL
REMARK 927      BINDING AFFINITY PREDICTED BY RF-SCORE:    0.00 PKD
ROOT
HETATM    1  C   UNL     1     -11.552  13.992  68.262  1.00  0.00    -0.364 C  
HETATM    2  C   UNL     1     -12.111  14.077  66.845  1.00  0.00    -0.430 C  
ENDROOT
BRANCH   2   3
HETATM    3  N   UNL     1     -12.261  12.778  66.172  1.00  0.00    -0.556 NA 
BRANCH   3   4
HETATM    4  C   UNL     1     -12.102  12.828  64.711  1.00  0.00    -0.432 C  
HETATM    5  C   UNL     1     -12.145  14.216  64.081  1.00  0.00    -0.437 C  
ENDBRANCH   3   4
BRANCH   3   6
HETATM    6  C   UNL     1     -11.413  11.764  66.839  1.00  0.00    -0.293 C  
BRANCH   6   7
HETATM    7  C   UNL     1     -10.617  10.899  65.855  1.00  0.00    -0.178 C  
BRANCH   7   8
HETATM    8  O   UNL     1      -9.344  10.540  66.410  1.00  0.00    -0.162 OA 
BRANCH   8   9
HETATM    9  C   UNL     1      -9.381   9.417  67.201  1.00  0.00    -0.139 A  
HETATM   10  C   UNL     1      -8.375   9.049  68.098  1.00  0.00    -0.121 A  
HETATM   11  C   UNL     1      -8.452   7.838  68.782  1.00  0.00    -0.129 A  
HETATM   12  C   UNL     1      -9.555   6.997  68.615  1.00  0.00    -0.138 A  
HETATM   13  C   UNL     1     -10.591   7.389  67.757  1.00  0.00    -0.278 A  
HETATM   14  C   UNL     1     -10.504   8.600  67.057  1.00  0.00    -0.354 A  
BRANCH  12  15
HETATM   15  C   UNL     1      -9.579   5.703  69.341  1.00  0.00    -0.187 C  
HETATM   16 CL   UNL     1      -9.476   2.979  69.397  1.00  0.00    -0.218 Cl 
HETATM   17  C   UNL     1      -9.346   4.552  68.661  1.00  0.00    -0.141 C  
BRANCH  15  18
HETATM   18  C   UNL     1      -9.935   5.670  70.784  1.00  0.00    -0.254 A  
HETATM   19  C   UNL     1     -11.244   5.951  71.202  1.00  0.00    -0.281 A  
HETATM   20  C   UNL     1      -8.959   5.376  71.746  1.00  0.00    -0.146 A  
HETATM   21  C   UNL     1      -9.290   5.352  73.105  1.00  0.00    -0.143 A  
HETATM   22  C   UNL     1     -11.571   5.927  72.561  1.00  0.00    -0.327 A  
HETATM   23  C   UNL     1     -10.595   5.626  73.509  1.00  0.00    -0.300 A  
ENDBRANCH  15  18
BRANCH  17  24
HETATM   24  C   UNL     1      -8.953   4.497  67.237  1.00  0.00    -0.125 A  
HETATM   25  C   UNL     1      -8.209   4.246  64.546  1.00  0.00    -0.101 A  
HETATM   26  C   UNL     1      -9.900   4.136  66.269  1.00  0.00    -0.208 A  
HETATM   27  C   UNL     1      -9.528   4.008  64.928  1.00  0.00    -0.171 A  
HETATM   28  C   UNL     1      -7.267   4.636  65.495  1.00  0.00    -0.071 A  
HETATM   29  C   UNL     1      -7.637   4.767  66.839  1.00  0.00    -0.087 A  
ENDBRANCH  17  24
ENDBRANCH  12  15
ENDBRANCH   8   9
ENDBRANCH   7   8
ENDBRANCH   6   7
ENDBRANCH   3   6
ENDBRANCH   2   3
TORSDOF 9
ENDMDL
MODEL      100
REMARK 921   NORMALIZED FREE ENERGY PREDICTED BY IDOCK:   -4.14 KCAL/MOL
REMARK 922        TOTAL FREE ENERGY PREDICTED BY IDOCK:   -8.45 KCAL/MOL
REMARK 923 INTER-LIGAND FREE ENERGY PREDICTED BY IDOCK:   -7.52 KCAL/MOL
REMARK 924 INTRA-LIGAND FREE ENERGY PREDICTED BY IDOCK:   -0.93 KCAL/MOL
REMARK 927      BINDING AFFINITY PREDICTED BY RF-SCORE:    0.00 PKD
ROOT
HETATM    1  C   UNL     1     -13.993   9.000  72.224  1.00  0.00    -0.522 C  
HETATM    2  C   UNL     1     -13.603   9.957  71.101  1.00  0.00    -0.157 C  
ENDROOT
BRANCH   2   3
HETATM    3  N   UNL     1     -12.289  10.595  71.277  1.00  0.00    -0.379 NA 
BRANCH   3   4
HETATM    4  C   UNL     1     -11.150   9.767  70.852  1.00  0.00    -0.357 C  
HETATM    5  C   UNL     1     -10.702   9.939  69.405  1.00  0.00    -0.255 C  
ENDBRANCH   3   4
BRANCH   3   6
HETATM    6  C   UNL     1     -12.304  11.952  70.686  1.00  0.00    -0.313 C  
BRANCH   6   7
HETATM    7  C   UNL     1     -13.243  12.919  71.416  1.00  0.00    -0.176 C  
BRANCH   7   8
HETATM    8  O   UNL     1     -13.275  14.191  70.754  1.00  0.00    -0.290 OA 
BRANCH   8   9
HETATM    9  C   UNL     1     -12.164  14.446  69.988  1.00  0.00    -0.351 A  
HETATM   10  C   UNL     1     -12.019  14.059  68.653  1.00  0.00    -0.389 A  
HETATM   11  C   UNL     1     -10.815  14.270  67.986  1.00  0.00    -0.247 A  
HETATM   12  C   UNL     1      -9.751  14.909  68.628  1.00  0.00    -0.226 A  
HETATM   13  C   UNL     1      -9.912  15.347  69.949  1.00  0.00    -0.229 A  
HETATM   14  C   UNL     1     -11.119  15.119  70.623  1.00  0.00    -0.298 A  
BRANCH  12  15
HETATM   15  C   UNL     1      -8.476  15.084  67.888  1.00  0.00    -0.149 C  
HETATM   16 CL   UNL     1      -6.768  16.565  66.364  1.00  0.00     0.016 Cl 
HETATM   17  C   UNL     1      -8.176  16.294  67.351  1.00  0.00    -0.160 C  
BRANCH  15  18
HETATM   18  C   UNL     1      -7.577  13.919  67.675  1.00  0.00    -0.188 A  
HETATM   19  C   UNL     1      -6.229  13.978  68.057  1.00  0.00    -0.145 A  
HETATM   20  C   UNL     1      -8.065  12.753  67.070  1.00  0.00    -0.072 A  
HETATM   21  C   UNL     1      -7.219  11.658  66.861  1.00  0.00    -0.125 A  
HETATM   22  C   UNL     1      -5.387  12.883  67.846  1.00  0.00    -0.110 A  
HETATM   23  C   UNL     1      -5.883  11.725  67.251  1.00  0.00    -0.119 A  
ENDBRANCH  15  18
BRANCH  17  24
HETATM   24  C   UNL     1      -8.995  17.510  67.545  1.00  0.00    -0.230 A  
HETATM   25  C   UNL     1     -10.474  19.877  67.799  1.00  0.00    -0.511 A  
HETATM   26  C   UNL     1     -10.024  17.805  66.640  1.00  0.00    -0.338 A  
HETATM   27  C   UNL     1     -10.759  18.986  66.766  1.00  0.00    -0.450 A  
HETATM   28  C   UNL     1      -9.474  19.579  68.722  1.00  0.00    -0.447 A  
HETATM   29  C   UNL     1      -8.738  18.395  68.600  1.00  0.00    -0.306 A  
ENDBRANCH  17  24
ENDBRANCH  12  15
ENDBRANCH   8   9
ENDBRANCH   7   8
ENDBRANCH   6   7
ENDBRANCH   3   6
ENDBRANCH   2   3
TORSDOF 9
ENDMDL
MODEL      101
REMARK 921   NORMALIZED FREE ENERGY PREDICTED BY IDOCK:   -4.13 KCAL/MOL
REMARK 922        TOTAL FREE ENERGY PREDICTED BY IDOCK:   -8.44 KCAL/MOL
REMARK 923 INTER-LIGAND FREE ENERGY PREDICTED BY IDOCK:   -6.58 KCAL/MOL
REMARK 924 INTRA-LIGAND FREE ENERGY PREDICTED BY IDOCK:   -1.86 KCAL/MOL
REMARK 927      BINDING AFFINITY PREDICTED BY RF-SCORE:    0.00 PKD
ROOT
HETATM    1  C   UNL     1     -12.166  13.444  63.734  1.00  0.00    -0.482 C  
HETATM    2  C   UNL     1     -12.535  13.489  65.213  1.00  0.00    -0.482 C  
ENDROOT
BRANCH   2   3
HETATM    3  N   UNL     1     -11.466  13.990  66.091  1.00  0.00    -0.335 NA 
BRANCH   3   4
HETATM    4  C   UNL     1     -11.863  14.160  67.497  1.00  0.00    -0.401 C  
HETATM    5  C   UNL     1     -11.336  15.408  68.194  1.00  0.00    -0.353 C  
ENDBRANCH   3   4
BRANCH   3   6
HETATM    6  C   UNL     1     -10.239  13.185  65.901  1.00  0.00    -0.291 C  
BRANCH   6   7
HETATM    7  C   UNL     1     -10.116  12.025  66.895  1.00  0.00    -0.205 C  
BRANCH   7   8
HETATM    8  O   UNL     1      -9.222  11.021  66.395  1.00  0.00    -0.166 OA 
BRANCH   8   9
HETATM    9  C   UNL     1      -9.314   9.819  67.054  1.00  0.00    -0.147 A  
HETATM   10  C   UNL     1     -10.443   8.995  67.042  1.00  0.00    -0.316 A  
HETATM   11  C   UNL     1     -10.481   7.844  67.824  1.00  0.00    -0.278 A  
HETATM   12  C   UNL     1      -9.378   7.473  68.597  1.00  0.00    -0.143 A  
HETATM   13  C   UNL     1      -8.224   8.269  68.569  1.00  0.00    -0.131 A  
HETATM   14  C   UNL     1      -8.194   9.435  67.794  1.00  0.00    -0.114 A  
BRANCH  12  15
HETATM   15  C   UNL     1      -9.475   6.255  69.439  1.00  0.00    -0.148 C  
HETATM   16 CL   UNL     1      -9.580   3.547  69.742  1.00  0.00    -0.243 Cl 
HETATM   17  C   UNL     1      -9.357   5.033  68.861  1.00  0.00    -0.127 C  
BRANCH  15  18
HETATM   18  C   UNL     1      -9.778   6.379  70.889  1.00  0.00    -0.193 A  
HETATM   19  C   UNL     1     -11.095   6.584  71.327  1.00  0.00    -0.321 A  
HETATM   20  C   UNL     1      -8.746   6.313  71.835  1.00  0.00    -0.136 A  
HETATM   21  C   UNL     1      -9.029   6.437  73.199  1.00  0.00    -0.133 A  
HETATM   22  C   UNL     1     -11.374   6.708  72.692  1.00  0.00    -0.262 A  
HETATM   23  C   UNL     1     -10.341   6.633  73.625  1.00  0.00    -0.343 A  
ENDBRANCH  15  18
BRANCH  17  24
HETATM   24  C   UNL     1      -9.022   4.820  67.436  1.00  0.00    -0.115 A  
HETATM   25  C   UNL     1      -8.392   4.272  64.761  1.00  0.00    -0.106 A  
HETATM   26  C   UNL     1     -10.013   4.376  66.550  1.00  0.00    -0.245 A  
HETATM   27  C   UNL     1      -9.697   4.100  65.217  1.00  0.00    -0.200 A  
HETATM   28  C   UNL     1      -7.406   4.743  65.626  1.00  0.00    -0.077 A  
HETATM   29  C   UNL     1      -7.720   5.023  66.961  1.00  0.00    -0.092 A  
ENDBRANCH  17  24
ENDBRANCH  12  15
ENDBRANCH   8   9
ENDBRANCH   7   8
ENDBRANCH   6   7
ENDBRANCH   3   6
ENDBRANCH   2   3
TORSDOF 9
ENDMDL
MODEL      102
REMARK 921   NORMALIZED FREE ENERGY PREDICTED BY IDOCK:   -4.13 KCAL/MOL
REMARK 922        TOTAL FREE ENERGY PREDICTED BY IDOCK:   -8.44 KCAL/MOL
REMARK 923 INTER-LIGAND FREE ENERGY PREDICTED BY IDOCK:   -6.08 KCAL/MOL
REMARK 924 INTRA-LIGAND FREE ENERGY PREDICTED BY IDOCK:   -2.36 KCAL/MOL
REMARK 927      BINDING AFFINITY PREDICTED BY RF-SCORE:    0.00 PKD
ROOT
HETATM    1  C   UNL     1      -9.225   8.384  72.463  1.00  0.00    -0.338 C  
HETATM    2  C   UNL     1     -10.336   7.545  73.088  1.00  0.00    -0.347 C  
ENDROOT
BRANCH   2   3
HETATM    3  N   UNL     1     -11.691   7.898  72.637  1.00  0.00    -0.367 NA 
BRANCH   3   4
HETATM    4  C   UNL     1     -11.759   9.113  71.810  1.00  0.00    -0.386 C  
HETATM    5  C   UNL     1     -13.062   9.899  71.884  1.00  0.00    -0.559 C  
ENDBRANCH   3   4
BRANCH   3   6
HETATM    6  C   UNL     1     -12.344   6.716  72.031  1.00  0.00    -0.272 C  
BRANCH   6   7
HETATM    7  C   UNL     1     -12.152   6.631  70.512  1.00  0.00    -0.240 C  
BRANCH   7   8
HETATM    8  O   UNL     1     -11.042   5.782  70.188  1.00  0.00    -0.334 OA 
BRANCH   8   9
HETATM    9  C   UNL     1     -10.421   6.109  69.008  1.00  0.00    -0.248 A  
HETATM   10  C   UNL     1     -11.072   6.223  67.776  1.00  0.00    -0.361 A  
HETATM   11  C   UNL     1     -10.341   6.458  66.614  1.00  0.00    -0.223 A  
HETATM   12  C   UNL     1      -8.956   6.626  66.668  1.00  0.00    -0.150 A  
HETATM   13  C   UNL     1      -8.307   6.566  67.909  1.00  0.00    -0.115 A  
HETATM   14  C   UNL     1      -9.041   6.314  69.074  1.00  0.00    -0.129 A  
BRANCH  12  15
HETATM   15  C   UNL     1      -8.215   6.843  65.400  1.00  0.00    -0.134 C  
HETATM   16 CL   UNL     1      -7.336   8.446  63.377  1.00  0.00    -0.100 Cl 
HETATM   17  C   UNL     1      -8.077   8.103  64.915  1.00  0.00    -0.153 C  
BRANCH  15  18
HETATM   18  C   UNL     1      -7.700   5.678  64.634  1.00  0.00    -0.099 A  
HETATM   19  C   UNL     1      -6.392   5.215  64.834  1.00  0.00    -0.034 A  
HETATM   20  C   UNL     1      -8.513   5.040  63.687  1.00  0.00    -0.127 A  
HETATM   21  C   UNL     1      -8.028   3.948  62.960  1.00  0.00    -0.075 A  
HETATM   22  C   UNL     1      -5.909   4.124  64.106  1.00  0.00    -0.014 A  
HETATM   23  C   UNL     1      -6.728   3.491  63.172  1.00  0.00    -0.031 A  
ENDBRANCH  15  18
BRANCH  17  24
HETATM   24  C   UNL     1      -8.528   9.318  65.628  1.00  0.00    -0.149 A  
HETATM   25  C   UNL     1      -9.404  11.538  67.097  1.00  0.00    -0.177 A  
HETATM   26  C   UNL     1      -7.693   9.911  66.584  1.00  0.00    -0.106 A  
HETATM   27  C   UNL     1      -8.131  11.016  67.318  1.00  0.00    -0.126 A  
HETATM   28  C   UNL     1     -10.230  10.976  66.127  1.00  0.00    -0.298 A  
HETATM   29  C   UNL     1      -9.793   9.870  65.388  1.00  0.00    -0.384 A  
ENDBRANCH  17  24
ENDBRANCH  12  15
ENDBRANCH   8   9
ENDBRANCH   7   8
ENDBRANCH   6   7
ENDBRANCH   3   6
ENDBRANCH   2   3
TORSDOF 9
ENDMDL
MODEL      103
REMARK 921   NORMALIZED FREE ENERGY PREDICTED BY IDOCK:   -4.11 KCAL/MOL
REMARK 922        TOTAL FREE ENERGY PREDICTED BY IDOCK:   -8.42 KCAL/MOL
REMARK 923 INTER-LIGAND FREE ENERGY PREDICTED BY IDOCK:   -6.46 KCAL/MOL
REMARK 924 INTRA-LIGAND FREE ENERGY PREDICTED BY IDOCK:   -1.96 KCAL/MOL
REMARK 927      BINDING AFFINITY PREDICTED BY RF-SCORE:    0.00 PKD
ROOT
HETATM    1  C   UNL     1      -9.432   5.090  73.459  1.00  0.00    -0.137 C  
HETATM    2  C   UNL     1      -8.623   5.112  72.166  1.00  0.00    -0.126 C  
ENDROOT
BRANCH   2   3
HETATM    3  N   UNL     1      -9.224   5.910  71.087  1.00  0.00    -0.149 NA 
BRANCH   3   4
HETATM    4  C   UNL     1     -10.094   5.147  70.179  1.00  0.00    -0.272 C  
HETATM    5  C   UNL     1      -9.481   3.897  69.559  1.00  0.00    -0.259 C  
ENDBRANCH   3   4
BRANCH   3   6
HETATM    6  C   UNL     1      -9.854   7.126  71.649  1.00  0.00    -0.162 C  
BRANCH   6   7
HETATM    7  C   UNL     1      -9.085   8.411  71.325  1.00  0.00    -0.178 C  
BRANCH   7   8
HETATM    8  O   UNL     1      -8.530   8.352  70.004  1.00  0.00    -0.120 OA 
BRANCH   8   9
HETATM    9  C   UNL     1      -8.788   9.466  69.244  1.00  0.00    -0.150 A  
HETATM   10  C   UNL     1      -9.744  10.435  69.561  1.00  0.00    -0.196 A  
HETATM   11  C   UNL     1     -10.008  11.478  68.676  1.00  0.00    -0.207 A  
HETATM   12  C   UNL     1      -9.292  11.594  67.482  1.00  0.00    -0.168 A  
HETATM   13  C   UNL     1      -8.295  10.654  67.187  1.00  0.00    -0.125 A  
HETATM   14  C   UNL     1      -8.042   9.597  68.071  1.00  0.00    -0.105 A  
BRANCH  12  15
HETATM   15  C   UNL     1      -9.629  12.704  66.555  1.00  0.00    -0.248 C  
HETATM   16 CL   UNL     1      -9.522  15.323  65.806  1.00  0.00    -0.357 Cl 
HETATM   17  C   UNL     1      -9.092  13.932  66.761  1.00  0.00    -0.223 C  
BRANCH  15  18
HETATM   18  C   UNL     1     -10.609  12.482  65.460  1.00  0.00    -0.304 A  
HETATM   19  C   UNL     1     -11.961  12.812  65.634  1.00  0.00    -0.503 A  
HETATM   20  C   UNL     1     -10.196  11.920  64.245  1.00  0.00    -0.346 A  
HETATM   21  C   UNL     1     -11.118  11.703  63.215  1.00  0.00    -0.333 A  
HETATM   22  C   UNL     1     -12.880  12.594  64.604  1.00  0.00    -0.361 A  
HETATM   23  C   UNL     1     -12.457  12.042  63.397  1.00  0.00    -0.625 A  
ENDBRANCH  15  18
BRANCH  17  24
HETATM   24  C   UNL     1      -8.085  14.231  67.803  1.00  0.00    -0.176 A  
HETATM   25  C   UNL     1      -6.177  14.936  69.731  1.00  0.00    -0.144 A  
HETATM   26  C   UNL     1      -8.463  14.943  68.950  1.00  0.00    -0.174 A  
HETATM   27  C   UNL     1      -7.511  15.296  69.909  1.00  0.00    -0.038 A  
HETATM   28  C   UNL     1      -5.795  14.202  68.610  1.00  0.00    -0.086 A  
HETATM   29  C   UNL     1      -6.748  13.844  67.649  1.00  0.00    -0.189 A  
ENDBRANCH  17  24
ENDBRANCH  12  15
ENDBRANCH   8   9
ENDBRANCH   7   8
ENDBRANCH   6   7
ENDBRANCH   3   6
ENDBRANCH   2   3
TORSDOF 9
ENDMDL
MODEL      104
REMARK 921   NORMALIZED FREE ENERGY PREDICTED BY IDOCK:   -4.09 KCAL/MOL
REMARK 922        TOTAL FREE ENERGY PREDICTED BY IDOCK:   -8.38 KCAL/MOL
REMARK 923 INTER-LIGAND FREE ENERGY PREDICTED BY IDOCK:   -6.51 KCAL/MOL
REMARK 924 INTRA-LIGAND FREE ENERGY PREDICTED BY IDOCK:   -1.87 KCAL/MOL
REMARK 927      BINDING AFFINITY PREDICTED BY RF-SCORE:    0.00 PKD
ROOT
HETATM    1  C   UNL     1      -5.625  11.344  69.668  1.00  0.00    -0.064 C  
HETATM    2  C   UNL     1      -5.182   9.936  69.281  1.00  0.00    -0.035 C  
ENDROOT
BRANCH   2   3
HETATM    3  N   UNL     1      -6.207   8.901  69.481  1.00  0.00    -0.042 NA 
BRANCH   3   4
HETATM    4  C   UNL     1      -5.730   7.699  70.181  1.00  0.00    -0.023 C  
HETATM    5  C   UNL     1      -6.189   6.364  69.607  1.00  0.00    -0.033 C  
ENDBRANCH   3   4
BRANCH   3   6
HETATM    6  C   UNL     1      -7.423   9.503  70.072  1.00  0.00    -0.126 C  
BRANCH   6   7
HETATM    7  C   UNL     1      -8.665   9.357  69.185  1.00  0.00    -0.142 C  
BRANCH   7   8
HETATM    8  O   UNL     1      -9.709  10.237  69.624  1.00  0.00    -0.228 OA 
BRANCH   8   9
HETATM    9  C   UNL     1      -9.821  11.382  68.875  1.00  0.00    -0.112 A  
HETATM   10  C   UNL     1      -8.834  11.860  68.009  1.00  0.00    -0.177 A  
HETATM   11  C   UNL     1      -8.994  13.086  67.368  1.00  0.00    -0.204 A  
HETATM   12  C   UNL     1     -10.161  13.833  67.547  1.00  0.00    -0.241 A  
HETATM   13  C   UNL     1     -11.176  13.331  68.372  1.00  0.00    -0.314 A  
HETATM   14  C   UNL     1     -11.006  12.105  69.029  1.00  0.00    -0.255 A  
BRANCH  12  15
HETATM   15  C   UNL     1     -10.274  15.148  66.868  1.00  0.00    -0.259 C  
HETATM   16 CL   UNL     1     -10.812  16.682  64.679  1.00  0.00    -0.147 Cl 
HETATM   17  C   UNL     1     -10.757  15.206  65.601  1.00  0.00    -0.363 C  
BRANCH  15  18
HETATM   18  C   UNL     1      -9.788  16.377  67.549  1.00  0.00    -0.239 A  
HETATM   19  C   UNL     1     -10.696  17.319  68.055  1.00  0.00    -0.367 A  
HETATM   20  C   UNL     1      -8.414  16.618  67.675  1.00  0.00    -0.200 A  
HETATM   21  C   UNL     1      -7.954  17.778  68.309  1.00  0.00    -0.282 A  
HETATM   22  C   UNL     1     -10.234  18.477  68.687  1.00  0.00    -0.363 A  
HETATM   23  C   UNL     1      -8.865  18.703  68.814  1.00  0.00    -0.287 A  
ENDBRANCH  15  18
BRANCH  17  24
HETATM   24  C   UNL     1     -11.292  14.040  64.866  1.00  0.00    -0.354 A  
HETATM   25  C   UNL     1     -12.290  11.907  63.347  1.00  0.00    -0.577 A  
HETATM   26  C   UNL     1     -10.423  13.228  64.125  1.00  0.00    -0.281 A  
HETATM   27  C   UNL     1     -10.921  12.166  63.366  1.00  0.00    -0.480 A  
HETATM   28  C   UNL     1     -13.160  12.688  64.104  1.00  0.00    -0.002 A  
HETATM   29  C   UNL     1     -12.663  13.751  64.867  1.00  0.00    -0.314 A  
ENDBRANCH  17  24
ENDBRANCH  12  15
ENDBRANCH   8   9
ENDBRANCH   7   8
ENDBRANCH   6   7
ENDBRANCH   3   6
ENDBRANCH   2   3
TORSDOF 9
ENDMDL
MODEL      105
REMARK 921   NORMALIZED FREE ENERGY PREDICTED BY IDOCK:   -4.08 KCAL/MOL
REMARK 922        TOTAL FREE ENERGY PREDICTED BY IDOCK:   -8.37 KCAL/MOL
REMARK 923 INTER-LIGAND FREE ENERGY PREDICTED BY IDOCK:   -6.48 KCAL/MOL
REMARK 924 INTRA-LIGAND FREE ENERGY PREDICTED BY IDOCK:   -1.89 KCAL/MOL
REMARK 927      BINDING AFFINITY PREDICTED BY RF-SCORE:    0.00 PKD
ROOT
HETATM    1  C   UNL     1      -8.039  18.954  68.211  1.00  0.00    -0.353 C  
HETATM    2  C   UNL     1      -8.061  17.606  67.497  1.00  0.00    -0.211 C  
ENDROOT
BRANCH   2   3
HETATM    3  N   UNL     1      -9.367  16.929  67.517  1.00  0.00    -0.230 NA 
BRANCH   3   4
HETATM    4  C   UNL     1     -10.359  17.550  68.408  1.00  0.00    -0.378 C  
HETATM    5  C   UNL     1     -10.907  16.664  69.520  1.00  0.00    -0.285 C  
ENDBRANCH   3   4
BRANCH   3   6
HETATM    6  C   UNL     1      -9.846  16.716  66.133  1.00  0.00    -0.318 C  
BRANCH   6   7
HETATM    7  C   UNL     1      -9.764  15.252  65.683  1.00  0.00    -0.325 C  
BRANCH   7   8
HETATM    8  O   UNL     1     -10.563  14.416  66.530  1.00  0.00    -0.289 OA 
BRANCH   8   9
HETATM    9  C   UNL     1     -10.229  13.085  66.469  1.00  0.00    -0.268 A  
HETATM   10  C   UNL     1     -11.098  12.070  66.059  1.00  0.00    -0.364 A  
HETATM   11  C   UNL     1     -10.703  10.736  66.128  1.00  0.00    -0.187 A  
HETATM   12  C   UNL     1      -9.421  10.397  66.566  1.00  0.00    -0.204 A  
HETATM   13  C   UNL     1      -8.529  11.416  66.927  1.00  0.00    -0.157 A  
HETATM   14  C   UNL     1      -8.934  12.756  66.872  1.00  0.00    -0.213 A  
BRANCH  12  15
HETATM   15  C   UNL     1      -9.054   8.961  66.653  1.00  0.00    -0.192 C  
HETATM   16 CL   UNL     1      -7.980   6.689  65.595  1.00  0.00    -0.108 Cl 
HETATM   17  C   UNL     1      -8.349   8.390  65.644  1.00  0.00    -0.154 C  
BRANCH  15  18
HETATM   18  C   UNL     1      -9.528   8.144  67.801  1.00  0.00    -0.164 A  
HETATM   19  C   UNL     1      -8.822   8.140  69.012  1.00  0.00    -0.144 A  
HETATM   20  C   UNL     1     -10.677   7.352  67.678  1.00  0.00    -0.278 A  
HETATM   21  C   UNL     1     -11.121   6.577  68.754  1.00  0.00    -0.357 A  
HETATM   22  C   UNL     1      -9.267   7.363  70.086  1.00  0.00    -0.151 A  
HETATM   23  C   UNL     1     -10.416   6.585  69.956  1.00  0.00    -0.257 A  
ENDBRANCH  15  18
BRANCH  17  24
HETATM   24  C   UNL     1      -7.811   9.135  64.485  1.00  0.00    -0.120 A  
HETATM   25  C   UNL     1      -6.771  10.663  62.378  1.00  0.00    -0.130 A  
HETATM   26  C   UNL     1      -6.432   9.371  64.392  1.00  0.00    -0.089 A  
HETATM   27  C   UNL     1      -5.915  10.135  63.342  1.00  0.00    -0.143 A  
HETATM   28  C   UNL     1      -8.139  10.409  62.444  1.00  0.00    -0.197 A  
HETATM   29  C   UNL     1      -8.660   9.642  63.493  1.00  0.00    -0.215 A  
ENDBRANCH  17  24
ENDBRANCH  12  15
ENDBRANCH   8   9
ENDBRANCH   7   8
ENDBRANCH   6   7
ENDBRANCH   3   6
ENDBRANCH   2   3
TORSDOF 9
ENDMDL
MODEL      106
REMARK 921   NORMALIZED FREE ENERGY PREDICTED BY IDOCK:   -4.08 KCAL/MOL
REMARK 922        TOTAL FREE ENERGY PREDICTED BY IDOCK:   -8.36 KCAL/MOL
REMARK 923 INTER-LIGAND FREE ENERGY PREDICTED BY IDOCK:   -6.46 KCAL/MOL
REMARK 924 INTRA-LIGAND FREE ENERGY PREDICTED BY IDOCK:   -1.90 KCAL/MOL
REMARK 927      BINDING AFFINITY PREDICTED BY RF-SCORE:    0.00 PKD
ROOT
HETATM    1  C   UNL     1     -12.705   7.152  71.908  1.00  0.00    -0.312 C  
HETATM    2  C   UNL     1     -11.209   7.164  72.207  1.00  0.00    -0.261 C  
ENDROOT
BRANCH   2   3
HETATM    3  N   UNL     1     -10.520   5.900  71.909  1.00  0.00    -0.213 NA 
BRANCH   3   4
HETATM    4  C   UNL     1     -10.740   4.838  72.902  1.00  0.00    -0.232 C  
HETATM    5  C   UNL     1     -10.389   5.187  74.343  1.00  0.00    -0.313 C  
ENDBRANCH   3   4
BRANCH   3   6
HETATM    6  C   UNL     1     -10.798   5.491  70.514  1.00  0.00    -0.196 C  
BRANCH   6   7
HETATM    7  C   UNL     1      -9.625   5.750  69.561  1.00  0.00    -0.141 C  
BRANCH   7   8
HETATM    8  O   UNL     1     -10.087   5.873  68.209  1.00  0.00    -0.143 OA 
BRANCH   8   9
HETATM    9  C   UNL     1     -10.037   7.155  67.720  1.00  0.00    -0.172 A  
HETATM   10  C   UNL     1      -9.520   7.506  66.470  1.00  0.00    -0.237 A  
HETATM   11  C   UNL     1      -9.416   8.845  66.102  1.00  0.00    -0.318 A  
HETATM   12  C   UNL     1      -9.866   9.853  66.957  1.00  0.00    -0.241 A  
HETATM   13  C   UNL     1     -10.436   9.502  68.189  1.00  0.00    -0.268 A  
HETATM   14  C   UNL     1     -10.525   8.155  68.564  1.00  0.00    -0.199 A  
BRANCH  12  15
HETATM   15  C   UNL     1      -9.707  11.267  66.537  1.00  0.00    -0.230 C  
HETATM   16 CL   UNL     1      -8.440  13.679  66.652  1.00  0.00     0.022 Cl 
HETATM   17  C   UNL     1      -8.646  11.983  66.988  1.00  0.00    -0.185 C  
BRANCH  15  18
HETATM   18  C   UNL     1     -10.747  11.910  65.691  1.00  0.00    -0.325 A  
HETATM   19  C   UNL     1     -10.760  11.712  64.303  1.00  0.00    -0.398 A  
HETATM   20  C   UNL     1     -11.717  12.738  66.272  1.00  0.00    -0.460 A  
HETATM   21  C   UNL     1     -12.692  13.350  65.477  1.00  0.00    -0.469 A  
HETATM   22  C   UNL     1     -11.736  12.325  63.511  1.00  0.00    -0.584 A  
HETATM   23  C   UNL     1     -12.701  13.141  64.099  1.00  0.00    -0.158 A  
ENDBRANCH  15  18
BRANCH  17  24
HETATM   24  C   UNL     1      -7.550  11.414  67.802  1.00  0.00    -0.105 A  
HETATM   25  C   UNL     1      -5.431  10.473  69.376  1.00  0.00    -0.037 A  
HETATM   26  C   UNL     1      -7.628  11.462  69.201  1.00  0.00    -0.038 A  
HETATM   27  C   UNL     1      -6.570  10.995  69.984  1.00  0.00    -0.134 A  
HETATM   28  C   UNL     1      -5.356  10.391  67.987  1.00  0.00    -0.033 A  
HETATM   29  C   UNL     1      -6.416  10.856  67.199  1.00  0.00    -0.078 A  
ENDBRANCH  17  24
ENDBRANCH  12  15
ENDBRANCH   8   9
ENDBRANCH   7   8
ENDBRANCH   6   7
ENDBRANCH   3   6
ENDBRANCH   2   3
TORSDOF 9
ENDMDL
MODEL      107
REMARK 921   NORMALIZED FREE ENERGY PREDICTED BY IDOCK:   -4.08 KCAL/MOL
REMARK 922        TOTAL FREE ENERGY PREDICTED BY IDOCK:   -8.36 KCAL/MOL
REMARK 923 INTER-LIGAND FREE ENERGY PREDICTED BY IDOCK:   -7.36 KCAL/MOL
REMARK 924 INTRA-LIGAND FREE ENERGY PREDICTED BY IDOCK:   -1.00 KCAL/MOL
REMARK 927      BINDING AFFINITY PREDICTED BY RF-SCORE:    0.00 PKD
ROOT
HETATM    1  C   UNL     1      -8.086   7.496  63.421  1.00  0.00    -0.024 C  
HETATM    2  C   UNL     1      -6.713   7.951  62.937  1.00  0.00    -0.084 C  
ENDROOT
BRANCH   2   3
HETATM    3  N   UNL     1      -5.890   8.601  63.968  1.00  0.00    -0.069 NA 
BRANCH   3   4
HETATM    4  C   UNL     1      -5.270   9.865  63.543  1.00  0.00    -0.088 C  
HETATM    5  C   UNL     1      -5.922  10.565  62.357  1.00  0.00    -0.140 C  
ENDBRANCH   3   4
BRANCH   3   6
HETATM    6  C   UNL     1      -6.650   8.696  65.234  1.00  0.00    -0.064 C  
BRANCH   6   7
HETATM    7  C   UNL     1      -6.946  10.139  65.658  1.00  0.00    -0.125 C  
BRANCH   7   8
HETATM    8  O   UNL     1      -8.301  10.491  65.349  1.00  0.00    -0.162 OA 
BRANCH   8   9
HETATM    9  C   UNL     1      -9.047  10.839  66.449  1.00  0.00    -0.171 A  
HETATM   10  C   UNL     1      -8.509  11.241  67.674  1.00  0.00    -0.124 A  
HETATM   11  C   UNL     1      -9.343  11.476  68.765  1.00  0.00    -0.088 A  
HETATM   12  C   UNL     1     -10.728  11.356  68.638  1.00  0.00    -0.241 A  
HETATM   13  C   UNL     1     -11.275  11.006  67.396  1.00  0.00    -0.355 A  
HETATM   14  C   UNL     1     -10.433  10.755  66.304  1.00  0.00    -0.287 A  
BRANCH  12  15
HETATM   15  C   UNL     1     -11.575  11.585  69.836  1.00  0.00    -0.387 C  
HETATM   16 CL   UNL     1     -12.815  13.232  71.620  1.00  0.00    -0.422 Cl 
HETATM   17  C   UNL     1     -11.931  12.851  70.169  1.00  0.00    -0.301 C  
BRANCH  15  18
HETATM   18  C   UNL     1     -11.961  10.439  70.701  1.00  0.00    -0.448 A  
HETATM   19  C   UNL     1     -11.036   9.428  71.000  1.00  0.00    -0.409 A  
HETATM   20  C   UNL     1     -13.262  10.346  71.212  1.00  0.00    -0.431 A  
HETATM   21  C   UNL     1     -13.629   9.264  72.020  1.00  0.00    -0.519 A  
HETATM   22  C   UNL     1     -11.405   8.349  71.807  1.00  0.00    -0.366 A  
HETATM   23  C   UNL     1     -12.700   8.269  72.316  1.00  0.00    -0.338 A  
ENDBRANCH  15  18
BRANCH  17  24
HETATM   24  C   UNL     1     -11.620  14.042  69.348  1.00  0.00    -0.349 A  
HETATM   25  C   UNL     1     -10.928  16.218  67.724  1.00  0.00    -0.281 A  
HETATM   26  C   UNL     1     -12.032  14.088  68.009  1.00  0.00    -0.386 A  
HETATM   27  C   UNL     1     -11.684  15.172  67.200  1.00  0.00    -0.141 A  
HETATM   28  C   UNL     1     -10.540  16.198  69.062  1.00  0.00    -0.273 A  
HETATM   29  C   UNL     1     -10.889  15.114  69.876  1.00  0.00    -0.287 A  
ENDBRANCH  17  24
ENDBRANCH  12  15
ENDBRANCH   8   9
ENDBRANCH   7   8
ENDBRANCH   6   7
ENDBRANCH   3   6
ENDBRANCH   2   3
TORSDOF 9
ENDMDL
MODEL      108
REMARK 921   NORMALIZED FREE ENERGY PREDICTED BY IDOCK:   -4.06 KCAL/MOL
REMARK 922        TOTAL FREE ENERGY PREDICTED BY IDOCK:   -8.33 KCAL/MOL
REMARK 923 INTER-LIGAND FREE ENERGY PREDICTED BY IDOCK:   -7.95 KCAL/MOL
REMARK 924 INTRA-LIGAND FREE ENERGY PREDICTED BY IDOCK:   -0.38 KCAL/MOL
REMARK 927      BINDING AFFINITY PREDICTED BY RF-SCORE:    0.00 PKD
ROOT
HETATM    1  C   UNL     1      -6.470  20.971  67.188  1.00  0.00    -0.411 C  
HETATM    2  C   UNL     1      -7.221  19.806  66.550  1.00  0.00    -0.241 C  
ENDROOT
BRANCH   2   3
HETATM    3  N   UNL     1      -8.492  19.469  67.209  1.00  0.00    -0.290 NA 
BRANCH   3   4
HETATM    4  C   UNL     1      -9.688  19.980  66.521  1.00  0.00    -0.443 C  
HETATM    5  C   UNL     1     -11.029  19.555  67.107  1.00  0.00    -0.459 C  
ENDBRANCH   3   4
BRANCH   3   6
HETATM    6  C   UNL     1      -8.538  18.020  67.507  1.00  0.00    -0.244 C  
BRANCH   6   7
HETATM    7  C   UNL     1      -8.725  17.151  66.258  1.00  0.00    -0.233 C  
BRANCH   7   8
HETATM    8  O   UNL     1      -7.937  15.956  66.350  1.00  0.00    -0.244 OA 
BRANCH   8   9
HETATM    9  C   UNL     1      -8.568  14.925  67.003  1.00  0.00    -0.238 A  
HETATM   10  C   UNL     1      -8.116  14.351  68.194  1.00  0.00    -0.137 A  
HETATM   11  C   UNL     1      -8.765  13.241  68.729  1.00  0.00     0.143 A  
HETATM   12  C   UNL     1      -9.899  12.713  68.108  1.00  0.00    -0.226 A  
HETATM   13  C   UNL     1     -10.386  13.321  66.943  1.00  0.00    -0.255 A  
HETATM   14  C   UNL     1      -9.723  14.427  66.398  1.00  0.00    -0.320 A  
BRANCH  12  15
HETATM   15  C   UNL     1     -10.540  11.511  68.697  1.00  0.00    -0.236 C  
HETATM   16 CL   UNL     1     -12.210  10.314  70.489  1.00  0.00    -0.384 Cl 
HETATM   17  C   UNL     1     -11.492  11.661  69.652  1.00  0.00    -0.288 C  
BRANCH  15  18
HETATM   18  C   UNL     1     -10.079  10.155  68.296  1.00  0.00    -0.179 A  
HETATM   19  C   UNL     1     -10.557   9.559  67.120  1.00  0.00    -0.295 A  
HETATM   20  C   UNL     1      -9.175   9.449  69.101  1.00  0.00    -0.155 A  
HETATM   21  C   UNL     1      -8.746   8.170  68.729  1.00  0.00    -0.138 A  
HETATM   22  C   UNL     1     -10.127   8.281  66.751  1.00  0.00    -0.373 A  
HETATM   23  C   UNL     1      -9.222   7.590  67.555  1.00  0.00    -0.140 A  
ENDBRANCH  15  18
BRANCH  17  24
HETATM   24  C   UNL     1     -12.031  12.969  70.084  1.00  0.00    -0.374 A  
HETATM   25  C   UNL     1     -13.188  15.393  70.884  1.00  0.00    -0.512 A  
HETATM   26  C   UNL     1     -12.596  13.099  71.360  1.00  0.00    -0.352 A  
HETATM   27  C   UNL     1     -13.175  14.307  71.757  1.00  0.00    -0.444 A  
HETATM   28  C   UNL     1     -12.602  15.284  69.625  1.00  0.00    -0.087 A  
HETATM   29  C   UNL     1     -12.018  14.076  69.226  1.00  0.00    -0.396 A  
ENDBRANCH  17  24
ENDBRANCH  12  15
ENDBRANCH   8   9
ENDBRANCH   7   8
ENDBRANCH   6   7
ENDBRANCH   3   6
ENDBRANCH   2   3
TORSDOF 9
ENDMDL
MODEL      109
REMARK 921   NORMALIZED FREE ENERGY PREDICTED BY IDOCK:   -4.03 KCAL/MOL
REMARK 922        TOTAL FREE ENERGY PREDICTED BY IDOCK:   -8.29 KCAL/MOL
REMARK 923 INTER-LIGAND FREE ENERGY PREDICTED BY IDOCK:   -6.92 KCAL/MOL
REMARK 924 INTRA-LIGAND FREE ENERGY PREDICTED BY IDOCK:   -1.37 KCAL/MOL
REMARK 927      BINDING AFFINITY PREDICTED BY RF-SCORE:    0.00 PKD
ROOT
HETATM    1  C   UNL     1      -6.135   4.887  68.073  1.00  0.00    -0.031 C  
HETATM    2  C   UNL     1      -6.433   5.523  66.719  1.00  0.00    -0.047 C  
ENDROOT
BRANCH   2   3
HETATM    3  N   UNL     1      -7.828   5.380  66.275  1.00  0.00    -0.099 NA 
BRANCH   3   4
HETATM    4  C   UNL     1      -8.622   4.426  67.065  1.00  0.00    -0.104 C  
HETATM    5  C   UNL     1      -9.597   3.557  66.280  1.00  0.00    -0.109 C  
ENDBRANCH   3   4
BRANCH   3   6
HETATM    6  C   UNL     1      -8.452   6.715  66.133  1.00  0.00    -0.135 C  
BRANCH   6   7
HETATM    7  C   UNL     1      -7.844   7.770  67.064  1.00  0.00    -0.112 C  
BRANCH   7   8
HETATM    8  O   UNL     1      -8.632   7.913  68.253  1.00  0.00    -0.124 OA 
BRANCH   8   9
HETATM    9  C   UNL     1      -9.333   9.092  68.316  1.00  0.00    -0.135 A  
HETATM   10  C   UNL     1     -10.719   9.197  68.171  1.00  0.00    -0.186 A  
HETATM   11  C   UNL     1     -11.330  10.448  68.146  1.00  0.00    -0.284 A  
HETATM   12  C   UNL     1     -10.574  11.612  68.309  1.00  0.00    -0.232 A  
HETATM   13  C   UNL     1      -9.191  11.507  68.509  1.00  0.00    -0.167 A  
HETATM   14  C   UNL     1      -8.576  10.248  68.517  1.00  0.00    -0.126 A  
BRANCH  12  15
HETATM   15  C   UNL     1     -11.264  12.924  68.244  1.00  0.00    -0.304 C  
HETATM   16 CL   UNL     1     -12.280  15.037  66.853  1.00  0.00     0.097 Cl 
HETATM   17  C   UNL     1     -11.584  13.452  67.036  1.00  0.00    -0.356 C  
BRANCH  15  18
HETATM   18  C   UNL     1     -11.528  13.684  69.495  1.00  0.00    -0.324 A  
HETATM   19  C   UNL     1     -12.388  13.167  70.475  1.00  0.00    -0.380 A  
HETATM   20  C   UNL     1     -10.934  14.937  69.699  1.00  0.00    -0.294 A  
HETATM   21  C   UNL     1     -11.187  15.657  70.871  1.00  0.00    -0.407 A  
HETATM   22  C   UNL     1     -12.639  13.889  71.646  1.00  0.00    -0.387 A  
HETATM   23  C   UNL     1     -12.037  15.131  71.842  1.00  0.00    -0.448 A  
ENDBRANCH  15  18
BRANCH  17  24
HETATM   24  C   UNL     1     -11.389  12.750  65.749  1.00  0.00    -0.357 A  
HETATM   25  C   UNL     1     -10.969  11.546  63.253  1.00  0.00    -0.308 A  
HETATM   26  C   UNL     1     -10.094  12.415  65.331  1.00  0.00    -0.289 A  
HETATM   27  C   UNL     1      -9.885  11.817  64.085  1.00  0.00    -0.248 A  
HETATM   28  C   UNL     1     -12.263  11.847  63.671  1.00  0.00    -0.586 A  
HETATM   29  C   UNL     1     -12.476  12.443  64.920  1.00  0.00    -0.439 A  
ENDBRANCH  17  24
ENDBRANCH  12  15
ENDBRANCH   8   9
ENDBRANCH   7   8
ENDBRANCH   6   7
ENDBRANCH   3   6
ENDBRANCH   2   3
TORSDOF 9
ENDMDL
MODEL      110
REMARK 921   NORMALIZED FREE ENERGY PREDICTED BY IDOCK:   -4.03 KCAL/MOL
REMARK 922        TOTAL FREE ENERGY PREDICTED BY IDOCK:   -8.28 KCAL/MOL
REMARK 923 INTER-LIGAND FREE ENERGY PREDICTED BY IDOCK:   -6.61 KCAL/MOL
REMARK 924 INTRA-LIGAND FREE ENERGY PREDICTED BY IDOCK:   -1.67 KCAL/MOL
REMARK 927      BINDING AFFINITY PREDICTED BY RF-SCORE:    0.00 PKD
ROOT
HETATM    1  C   UNL     1      -9.241   9.313  65.045  1.00  0.00    -0.242 C  
HETATM    2  C   UNL     1      -8.135  10.357  64.920  1.00  0.00    -0.130 C  
ENDROOT
BRANCH   2   3
HETATM    3  N   UNL     1      -7.148  10.330  66.010  1.00  0.00    -0.121 NA 
BRANCH   3   4
HETATM    4  C   UNL     1      -7.558  11.058  67.220  1.00  0.00    -0.111 C  
HETATM    5  C   UNL     1      -8.577  12.174  67.016  1.00  0.00    -0.191 C  
ENDBRANCH   3   4
BRANCH   3   6
HETATM    6  C   UNL     1      -6.712   8.938  66.261  1.00  0.00    -0.074 C  
BRANCH   6   7
HETATM    7  C   UNL     1      -6.087   8.739  67.646  1.00  0.00    -0.048 C  
BRANCH   7   8
HETATM    8  O   UNL     1      -6.777   7.712  68.371  1.00  0.00    -0.057 OA 
BRANCH   8   9
HETATM    9  C   UNL     1      -7.920   8.147  68.997  1.00  0.00    -0.113 A  
HETATM   10  C   UNL     1      -9.217   7.887  68.545  1.00  0.00    -0.138 A  
HETATM   11  C   UNL     1     -10.313   8.457  69.187  1.00  0.00    -0.229 A  
HETATM   12  C   UNL     1     -10.135   9.260  70.316  1.00  0.00    -0.262 A  
HETATM   13  C   UNL     1      -8.840   9.478  70.804  1.00  0.00    -0.130 A  
HETATM   14  C   UNL     1      -7.737   8.917  70.147  1.00  0.00    -0.084 A  
BRANCH  12  15
HETATM   15  C   UNL     1     -11.330   9.871  70.950  1.00  0.00    -0.446 C  
HETATM   16 CL   UNL     1     -13.536   9.735  72.547  1.00  0.00    -0.350 Cl 
HETATM   17  C   UNL     1     -12.053   9.152  71.845  1.00  0.00    -0.378 C  
BRANCH  15  18
HETATM   18  C   UNL     1     -11.770  11.232  70.543  1.00  0.00    -0.345 A  
HETATM   19  C   UNL     1     -11.470  11.725  69.265  1.00  0.00    -0.369 A  
HETATM   20  C   UNL     1     -12.473  12.046  71.441  1.00  0.00    -0.240 A  
HETATM   21  C   UNL     1     -12.881  13.329  71.062  1.00  0.00    -0.311 A  
HETATM   22  C   UNL     1     -11.879  13.008  68.889  1.00  0.00    -0.358 A  
HETATM   23  C   UNL     1     -12.584  13.807  69.787  1.00  0.00    -0.083 A  
ENDBRANCH  15  18
BRANCH  17  24
HETATM   24  C   UNL     1     -11.668   7.809  72.331  1.00  0.00    -0.394 A  
HETATM   25  C   UNL     1     -11.064   5.261  73.330  1.00  0.00    -0.362 A  
HETATM   26  C   UNL     1     -12.331   6.676  71.837  1.00  0.00    -0.364 A  
HETATM   27  C   UNL     1     -12.030   5.407  72.338  1.00  0.00     0.052 A  
HETATM   28  C   UNL     1     -10.377   6.376  73.805  1.00  0.00    -0.326 A  
HETATM   29  C   UNL     1     -10.674   7.649  73.304  1.00  0.00    -0.409 A  
ENDBRANCH  17  24
ENDBRANCH  12  15
ENDBRANCH   8   9
ENDBRANCH   7   8
ENDBRANCH   6   7
ENDBRANCH   3   6
ENDBRANCH   2   3
TORSDOF 9
ENDMDL
MODEL      111
REMARK 921   NORMALIZED FREE ENERGY PREDICTED BY IDOCK:   -4.02 KCAL/MOL
REMARK 922        TOTAL FREE ENERGY PREDICTED BY IDOCK:   -8.28 KCAL/MOL
REMARK 923 INTER-LIGAND FREE ENERGY PREDICTED BY IDOCK:   -5.59 KCAL/MOL
REMARK 924 INTRA-LIGAND FREE ENERGY PREDICTED BY IDOCK:   -2.69 KCAL/MOL
REMARK 927      BINDING AFFINITY PREDICTED BY RF-SCORE:    0.00 PKD
ROOT
HETATM    1  C   UNL     1     -10.058   3.037  72.790  1.00  0.00    -0.226 C  
HETATM    2  C   UNL     1      -9.570   4.275  73.537  1.00  0.00    -0.112 C  
ENDROOT
BRANCH   2   3
HETATM    3  N   UNL     1      -8.107   4.378  73.651  1.00  0.00    -0.093 NA 
BRANCH   3   4
HETATM    4  C   UNL     1      -7.376   4.032  72.423  1.00  0.00    -0.059 C  
HETATM    5  C   UNL     1      -7.128   5.176  71.448  1.00  0.00    -0.061 C  
ENDBRANCH   3   4
BRANCH   3   6
HETATM    6  C   UNL     1      -7.738   5.691  74.226  1.00  0.00    -0.095 C  
BRANCH   6   7
HETATM    7  C   UNL     1      -8.943   6.605  74.473  1.00  0.00    -0.188 C  
BRANCH   7   8
HETATM    8  O   UNL     1      -8.603   7.974  74.211  1.00  0.00    -0.247 OA 
BRANCH   8   9
HETATM    9  C   UNL     1      -9.002   8.417  72.973  1.00  0.00    -0.172 A  
HETATM   10  C   UNL     1     -10.332   8.510  72.557  1.00  0.00    -0.315 A  
HETATM   11  C   UNL     1     -10.636   8.872  71.247  1.00  0.00    -0.351 A  
HETATM   12  C   UNL     1      -9.619   9.189  70.344  1.00  0.00    -0.268 A  
HETATM   13  C   UNL     1      -8.285   9.149  70.774  1.00  0.00    -0.226 A  
HETATM   14  C   UNL     1      -7.981   8.769  72.087  1.00  0.00    -0.012 A  
BRANCH  12  15
HETATM   15  C   UNL     1      -9.988   9.539  68.950  1.00  0.00    -0.187 C  
HETATM   16 CL   UNL     1     -10.270   8.914  66.311  1.00  0.00    -0.304 Cl 
HETATM   17  C   UNL     1      -9.974   8.577  67.993  1.00  0.00    -0.183 C  
BRANCH  15  18
HETATM   18  C   UNL     1     -10.292  10.951  68.597  1.00  0.00    -0.206 A  
HETATM   19  C   UNL     1     -11.613  11.422  68.616  1.00  0.00    -0.384 A  
HETATM   20  C   UNL     1      -9.262  11.824  68.222  1.00  0.00    -0.188 A  
HETATM   21  C   UNL     1      -9.547  13.150  67.882  1.00  0.00    -0.218 A  
HETATM   22  C   UNL     1     -11.895  12.748  68.276  1.00  0.00    -0.357 A  
HETATM   23  C   UNL     1     -10.862  13.610  67.912  1.00  0.00    -0.264 A  
ENDBRANCH  15  18
BRANCH  17  24
HETATM   24  C   UNL     1      -9.716   7.146  68.263  1.00  0.00    -0.148 A  
HETATM   25  C   UNL     1      -9.244   4.408  68.631  1.00  0.00    -0.189 A  
HETATM   26  C   UNL     1      -8.480   6.585  67.914  1.00  0.00    -0.118 A  
HETATM   27  C   UNL     1      -8.247   5.220  68.095  1.00  0.00    -0.098 A  
HETATM   28  C   UNL     1     -10.465   4.960  69.011  1.00  0.00     0.032 A  
HETATM   29  C   UNL     1     -10.701   6.329  68.833  1.00  0.00    -0.357 A  
ENDBRANCH  17  24
ENDBRANCH  12  15
ENDBRANCH   8   9
ENDBRANCH   7   8
ENDBRANCH   6   7
ENDBRANCH   3   6
ENDBRANCH   2   3
TORSDOF 9
ENDMDL
MODEL      112
REMARK 921   NORMALIZED FREE ENERGY PREDICTED BY IDOCK:   -4.01 KCAL/MOL
REMARK 922        TOTAL FREE ENERGY PREDICTED BY IDOCK:   -8.26 KCAL/MOL
REMARK 923 INTER-LIGAND FREE ENERGY PREDICTED BY IDOCK:   -7.19 KCAL/MOL
REMARK 924 INTRA-LIGAND FREE ENERGY PREDICTED BY IDOCK:   -1.07 KCAL/MOL
REMARK 927      BINDING AFFINITY PREDICTED BY RF-SCORE:    0.00 PKD
ROOT
HETATM    1  C   UNL     1      -7.780   5.239  70.656  1.00  0.00    -0.084 C  
HETATM    2  C   UNL     1      -8.319   3.817  70.780  1.00  0.00    -0.069 C  
ENDROOT
BRANCH   2   3
HETATM    3  N   UNL     1      -9.349   3.646  71.816  1.00  0.00    -0.120 NA 
BRANCH   3   4
HETATM    4  C   UNL     1      -8.834   3.193  73.117  1.00  0.00    -0.080 C  
HETATM    5  C   UNL     1      -8.116   1.848  73.120  1.00  0.00    -0.046 C  
ENDBRANCH   3   4
BRANCH   3   6
HETATM    6  C   UNL     1     -10.196   4.857  71.890  1.00  0.00    -0.201 C  
BRANCH   6   7
HETATM    7  C   UNL     1     -10.793   5.096  73.281  1.00  0.00    -0.295 C  
BRANCH   7   8
HETATM    8  O   UNL     1     -10.535   6.436  73.721  1.00  0.00    -0.273 OA 
BRANCH   8   9
HETATM    9  C   UNL     1     -10.769   7.389  72.760  1.00  0.00    -0.314 A  
HETATM   10  C   UNL     1     -11.999   7.591  72.129  1.00  0.00    -0.323 A  
HETATM   11  C   UNL     1     -12.114   8.513  71.092  1.00  0.00    -0.283 A  
HETATM   12  C   UNL     1     -11.015   9.280  70.698  1.00  0.00    -0.336 A  
HETATM   13  C   UNL     1      -9.794   9.119  71.366  1.00  0.00    -0.354 A  
HETATM   14  C   UNL     1      -9.676   8.179  72.398  1.00  0.00    -0.338 A  
BRANCH  12  15
HETATM   15  C   UNL     1     -11.177  10.228  69.567  1.00  0.00    -0.314 C  
HETATM   16 CL   UNL     1     -10.799  10.949  66.965  1.00  0.00    -0.323 Cl 
HETATM   17  C   UNL     1     -10.766   9.864  68.327  1.00  0.00    -0.234 C  
BRANCH  15  18
HETATM   18  C   UNL     1     -11.713  11.592  69.817  1.00  0.00    -0.425 A  
HETATM   19  C   UNL     1     -11.501  12.622  68.888  1.00  0.00    -0.354 A  
HETATM   20  C   UNL     1     -12.420  11.869  70.994  1.00  0.00    -0.390 A  
HETATM   21  C   UNL     1     -12.919  13.154  71.234  1.00  0.00    -0.339 A  
HETATM   22  C   UNL     1     -12.000  13.905  69.131  1.00  0.00    -0.404 A  
HETATM   23  C   UNL     1     -12.709  14.168  70.302  1.00  0.00    -0.287 A  
ENDBRANCH  15  18
BRANCH  17  24
HETATM   24  C   UNL     1     -10.255   8.519  67.986  1.00  0.00    -0.264 A  
HETATM   25  C   UNL     1      -9.319   5.927  67.476  1.00  0.00    -0.110 A  
HETATM   26  C   UNL     1     -11.157   7.464  67.786  1.00  0.00     0.028 A  
HETATM   27  C   UNL     1     -10.689   6.172  67.534  1.00  0.00    -0.393 A  
HETATM   28  C   UNL     1      -8.414   6.973  67.642  1.00  0.00    -0.123 A  
HETATM   29  C   UNL     1      -8.880   8.269  67.891  1.00  0.00    -0.138 A  
ENDBRANCH  17  24
ENDBRANCH  12  15
ENDBRANCH   8   9
ENDBRANCH   7   8
ENDBRANCH   6   7
ENDBRANCH   3   6
ENDBRANCH   2   3
TORSDOF 9
ENDMDL
MODEL      113
REMARK 921   NORMALIZED FREE ENERGY PREDICTED BY IDOCK:   -4.00 KCAL/MOL
REMARK 922        TOTAL FREE ENERGY PREDICTED BY IDOCK:   -8.24 KCAL/MOL
REMARK 923 INTER-LIGAND FREE ENERGY PREDICTED BY IDOCK:   -7.21 KCAL/MOL
REMARK 924 INTRA-LIGAND FREE ENERGY PREDICTED BY IDOCK:   -1.03 KCAL/MOL
REMARK 927      BINDING AFFINITY PREDICTED BY RF-SCORE:    0.00 PKD
ROOT
HETATM    1  C   UNL     1      -6.333  15.660  67.562  1.00  0.00    -0.181 C  
HETATM    2  C   UNL     1      -5.353  16.714  67.055  1.00  0.00    -0.088 C  
ENDROOT
BRANCH   2   3
HETATM    3  N   UNL     1      -5.985  17.962  66.600  1.00  0.00    -0.146 NA 
BRANCH   3   4
HETATM    4  C   UNL     1      -5.262  18.651  65.521  1.00  0.00    -0.159 C  
HETATM    5  C   UNL     1      -5.271  20.174  65.577  1.00  0.00    -0.185 C  
ENDBRANCH   3   4
BRANCH   3   6
HETATM    6  C   UNL     1      -7.418  17.726  66.313  1.00  0.00    -0.293 C  
BRANCH   6   7
HETATM    7  C   UNL     1      -8.159  18.985  65.849  1.00  0.00    -0.029 C  
BRANCH   7   8
HETATM    8  O   UNL     1      -9.003  19.491  66.893  1.00  0.00    -0.299 OA 
BRANCH   8   9
HETATM    9  C   UNL     1      -9.633  18.510  67.620  1.00  0.00    -0.286 A  
HETATM   10  C   UNL     1      -9.212  18.064  68.875  1.00  0.00    -0.147 A  
HETATM   11  C   UNL     1      -9.854  16.993  69.492  1.00  0.00     0.084 A  
HETATM   12  C   UNL     1     -10.953  16.379  68.886  1.00  0.00    -0.332 A  
HETATM   13  C   UNL     1     -11.411  16.859  67.651  1.00  0.00     0.213 A  
HETATM   14  C   UNL     1     -10.754  17.927  67.026  1.00  0.00    -0.219 A  
BRANCH  12  15
HETATM   15  C   UNL     1     -11.586  15.221  69.565  1.00  0.00    -0.339 C  
HETATM   16 CL   UNL     1     -12.525  12.661  69.573  1.00  0.00     0.043 Cl 
HETATM   17  C   UNL     1     -11.690  14.037  68.909  1.00  0.00    -0.340 C  
BRANCH  15  18
HETATM   18  C   UNL     1     -12.169  15.387  70.922  1.00  0.00    -0.425 A  
HETATM   19  C   UNL     1     -11.346  15.381  72.058  1.00  0.00    -0.466 A  
HETATM   20  C   UNL     1     -13.553  15.532  71.084  1.00  0.00    -0.459 A  
HETATM   21  C   UNL     1     -14.105  15.681  72.361  1.00  0.00    -0.575 A  
HETATM   22  C   UNL     1     -11.899  15.530  73.333  1.00  0.00    -0.478 A  
HETATM   23  C   UNL     1     -13.277  15.681  73.482  1.00  0.00    -0.561 A  
ENDBRANCH  15  18
BRANCH  17  24
HETATM   24  C   UNL     1     -11.109  13.777  67.575  1.00  0.00    -0.295 A  
HETATM   25  C   UNL     1     -10.057  13.145  65.055  1.00  0.00    -0.240 A  
HETATM   26  C   UNL     1     -11.952  13.666  66.460  1.00  0.00    -0.465 A  
HETATM   27  C   UNL     1     -11.427  13.348  65.205  1.00  0.00    -0.318 A  
HETATM   28  C   UNL     1      -9.206  13.283  66.149  1.00  0.00     0.004 A  
HETATM   29  C   UNL     1      -9.729  13.603  67.408  1.00  0.00    -0.228 A  
ENDBRANCH  17  24
ENDBRANCH  12  15
ENDBRANCH   8   9
ENDBRANCH   7   8
ENDBRANCH   6   7
ENDBRANCH   3   6
ENDBRANCH   2   3
TORSDOF 9
ENDMDL
MODEL      114
REMARK 921   NORMALIZED FREE ENERGY PREDICTED BY IDOCK:   -3.99 KCAL/MOL
REMARK 922        TOTAL FREE ENERGY PREDICTED BY IDOCK:   -8.23 KCAL/MOL
REMARK 923 INTER-LIGAND FREE ENERGY PREDICTED BY IDOCK:   -6.24 KCAL/MOL
REMARK 924 INTRA-LIGAND FREE ENERGY PREDICTED BY IDOCK:   -1.99 KCAL/MOL
REMARK 927      BINDING AFFINITY PREDICTED BY RF-SCORE:    0.00 PKD
ROOT
HETATM    1  C   UNL     1     -10.822  16.026  66.957  1.00  0.00    -0.227 C  
HETATM    2  C   UNL     1      -9.779  16.901  66.267  1.00  0.00    -0.280 C  
ENDROOT
BRANCH   2   3
HETATM    3  N   UNL     1      -9.001  17.751  67.180  1.00  0.00    -0.242 NA 
BRANCH   3   4
HETATM    4  C   UNL     1      -9.804  18.720  67.942  1.00  0.00    -0.341 C  
HETATM    5  C   UNL     1     -10.615  19.712  67.117  1.00  0.00    -0.611 C  
ENDBRANCH   3   4
BRANCH   3   6
HETATM    6  C   UNL     1      -8.112  16.913  68.015  1.00  0.00    -0.194 C  
BRANCH   6   7
HETATM    7  C   UNL     1      -7.143  16.053  67.195  1.00  0.00    -0.213 C  
BRANCH   7   8
HETATM    8  O   UNL     1      -6.429  15.144  68.043  1.00  0.00    -0.117 OA 
BRANCH   8   9
HETATM    9  C   UNL     1      -6.887  13.851  67.980  1.00  0.00    -0.144 A  
HETATM   10  C   UNL     1      -6.239  12.814  67.304  1.00  0.00    -0.053 A  
HETATM   11  C   UNL     1      -6.833  11.558  67.208  1.00  0.00    -0.118 A  
HETATM   12  C   UNL     1      -8.061  11.304  67.822  1.00  0.00    -0.119 A  
HETATM   13  C   UNL     1      -8.688  12.327  68.547  1.00  0.00    -0.071 A  
HETATM   14  C   UNL     1      -8.097  13.594  68.629  1.00  0.00    -0.071 A  
BRANCH  12  15
HETATM   15  C   UNL     1      -8.671   9.960  67.667  1.00  0.00    -0.121 C  
HETATM   16 CL   UNL     1     -10.655   8.309  66.788  1.00  0.00    -0.332 Cl 
HETATM   17  C   UNL     1      -9.799   9.819  66.926  1.00  0.00    -0.201 C  
BRANCH  15  18
HETATM   18  C   UNL     1      -8.089   8.796  68.387  1.00  0.00    -0.117 A  
HETATM   19  C   UNL     1      -8.464   8.515  69.709  1.00  0.00    -0.129 A  
HETATM   20  C   UNL     1      -7.143   7.977  67.756  1.00  0.00    -0.086 A  
HETATM   21  C   UNL     1      -6.589   6.886  68.434  1.00  0.00    -0.062 A  
HETATM   22  C   UNL     1      -7.908   7.424  70.383  1.00  0.00    -0.098 A  
HETATM   23  C   UNL     1      -6.974   6.611  69.745  1.00  0.00    -0.066 A  
ENDBRANCH  15  18
BRANCH  17  24
HETATM   24  C   UNL     1     -10.422  10.914  66.151  1.00  0.00    -0.290 A  
HETATM   25  C   UNL     1     -11.480  13.069  64.705  1.00  0.00    -0.363 A  
HETATM   26  C   UNL     1      -9.984  11.177  64.846  1.00  0.00    -0.331 A  
HETATM   27  C   UNL     1     -10.511  12.253  64.127  1.00  0.00    -0.402 A  
HETATM   28  C   UNL     1     -11.945  12.798  65.990  1.00  0.00    -0.491 A  
HETATM   29  C   UNL     1     -11.421  11.720  66.712  1.00  0.00    -0.352 A  
ENDBRANCH  17  24
ENDBRANCH  12  15
ENDBRANCH   8   9
ENDBRANCH   7   8
ENDBRANCH   6   7
ENDBRANCH   3   6
ENDBRANCH   2   3
TORSDOF 9
ENDMDL
MODEL      115
REMARK 921   NORMALIZED FREE ENERGY PREDICTED BY IDOCK:   -3.99 KCAL/MOL
REMARK 922        TOTAL FREE ENERGY PREDICTED BY IDOCK:   -8.23 KCAL/MOL
REMARK 923 INTER-LIGAND FREE ENERGY PREDICTED BY IDOCK:   -6.95 KCAL/MOL
REMARK 924 INTRA-LIGAND FREE ENERGY PREDICTED BY IDOCK:   -1.27 KCAL/MOL
REMARK 927      BINDING AFFINITY PREDICTED BY RF-SCORE:    0.00 PKD
ROOT
HETATM    1  C   UNL     1      -5.921   2.683  66.328  1.00  0.00    -0.023 C  
HETATM    2  C   UNL     1      -6.039   3.647  65.151  1.00  0.00    -0.023 C  
ENDROOT
BRANCH   2   3
HETATM    3  N   UNL     1      -7.331   4.345  65.065  1.00  0.00    -0.071 NA 
BRANCH   3   4
HETATM    4  C   UNL     1      -7.429   5.307  63.958  1.00  0.00    -0.059 C  
HETATM    5  C   UNL     1      -7.831   6.727  64.339  1.00  0.00    -0.113 C  
ENDBRANCH   3   4
BRANCH   3   6
HETATM    6  C   UNL     1      -8.438   3.364  65.115  1.00  0.00    -0.099 C  
BRANCH   6   7
HETATM    7  C   UNL     1      -9.525   3.729  66.133  1.00  0.00    -0.175 C  
BRANCH   7   8
HETATM    8  O   UNL     1      -8.951   4.369  67.281  1.00  0.00    -0.112 OA 
BRANCH   8   9
HETATM    9  C   UNL     1      -9.380   5.660  67.469  1.00  0.00    -0.109 A  
HETATM   10  C   UNL     1     -10.700   6.087  67.298  1.00  0.00    -0.400 A  
HETATM   11  C   UNL     1     -11.022   7.437  67.411  1.00  0.00    -0.214 A  
HETATM   12  C   UNL     1     -10.042   8.376  67.739  1.00  0.00    -0.263 A  
HETATM   13  C   UNL     1      -8.728   7.943  67.964  1.00  0.00    -0.125 A  
HETATM   14  C   UNL     1      -8.403   6.587  67.834  1.00  0.00    -0.115 A  
BRANCH  12  15
HETATM   15  C   UNL     1     -10.425   9.808  67.818  1.00  0.00    -0.297 C  
HETATM   16 CL   UNL     1     -11.407  11.959  69.174  1.00  0.00    -0.312 Cl 
HETATM   17  C   UNL     1     -10.822  10.328  69.006  1.00  0.00    -0.230 C  
BRANCH  15  18
HETATM   18  C   UNL     1     -10.447  10.637  66.584  1.00  0.00    -0.296 A  
HETATM   19  C   UNL     1     -10.033  10.101  65.356  1.00  0.00    -0.377 A  
HETATM   20  C   UNL     1     -10.864  11.974  66.639  1.00  0.00    -0.311 A  
HETATM   21  C   UNL     1     -10.878  12.758  65.481  1.00  0.00    -0.301 A  
HETATM   22  C   UNL     1     -10.048  10.887  64.201  1.00  0.00    -0.416 A  
HETATM   23  C   UNL     1     -10.471  12.213  64.265  1.00  0.00    -0.373 A  
ENDBRANCH  15  18
BRANCH  17  24
HETATM   24  C   UNL     1     -10.797   9.585  70.284  1.00  0.00    -0.319 A  
HETATM   25  C   UNL     1     -10.698   8.060  72.634  1.00  0.00    -0.426 A  
HETATM   26  C   UNL     1      -9.573   9.342  70.923  1.00  0.00    -0.339 A  
HETATM   27  C   UNL     1      -9.524   8.579  72.092  1.00  0.00    -0.375 A  
HETATM   28  C   UNL     1     -11.924   8.321  72.026  1.00  0.00    -0.405 A  
HETATM   29  C   UNL     1     -11.976   9.087  70.855  1.00  0.00    -0.274 A  
ENDBRANCH  17  24
ENDBRANCH  12  15
ENDBRANCH   8   9
ENDBRANCH   7   8
ENDBRANCH   6   7
ENDBRANCH   3   6
ENDBRANCH   2   3
TORSDOF 9
ENDMDL
MODEL      116
REMARK 921   NORMALIZED FREE ENERGY PREDICTED BY IDOCK:   -3.97 KCAL/MOL
REMARK 922        TOTAL FREE ENERGY PREDICTED BY IDOCK:   -8.20 KCAL/MOL
REMARK 923 INTER-LIGAND FREE ENERGY PREDICTED BY IDOCK:   -6.93 KCAL/MOL
REMARK 924 INTRA-LIGAND FREE ENERGY PREDICTED BY IDOCK:   -1.27 KCAL/MOL
REMARK 927      BINDING AFFINITY PREDICTED BY RF-SCORE:    0.00 PKD
ROOT
HETATM    1  C   UNL     1      -6.740   7.036  69.644  1.00  0.00    -0.049 C  
HETATM    2  C   UNL     1      -6.690   6.911  71.164  1.00  0.00    -0.057 C  
ENDROOT
BRANCH   2   3
HETATM    3  N   UNL     1      -7.941   6.438  71.775  1.00  0.00    -0.104 NA 
BRANCH   3   4
HETATM    4  C   UNL     1      -7.755   5.504  72.896  1.00  0.00    -0.098 C  
HETATM    5  C   UNL     1      -8.317   5.951  74.240  1.00  0.00    -0.108 C  
ENDBRANCH   3   4
BRANCH   3   6
HETATM    6  C   UNL     1      -8.817   7.590  72.087  1.00  0.00    -0.125 C  
BRANCH   6   7
HETATM    7  C   UNL     1      -9.865   7.865  71.002  1.00  0.00    -0.170 C  
BRANCH   7   8
HETATM    8  O   UNL     1     -10.762   8.904  71.416  1.00  0.00    -0.259 OA 
BRANCH   8   9
HETATM    9  C   UNL     1     -10.909   9.910  70.492  1.00  0.00    -0.326 A  
HETATM   10  C   UNL     1     -12.122  10.532  70.186  1.00  0.00    -0.380 A  
HETATM   11  C   UNL     1     -12.192  11.471  69.161  1.00  0.00    -0.221 A  
HETATM   12  C   UNL     1     -11.044  11.838  68.454  1.00  0.00    -0.286 A  
HETATM   13  C   UNL     1      -9.815  11.256  68.795  1.00  0.00    -0.194 A  
HETATM   14  C   UNL     1      -9.750  10.299  69.817  1.00  0.00    -0.183 A  
BRANCH  12  15
HETATM   15  C   UNL     1     -11.171  12.821  67.349  1.00  0.00    -0.337 C  
HETATM   16 CL   UNL     1     -11.749  15.313  66.407  1.00  0.00    -0.014 Cl 
HETATM   17  C   UNL     1     -11.458  14.115  67.637  1.00  0.00    -0.338 C  
BRANCH  15  18
HETATM   18  C   UNL     1     -11.062  12.366  65.938  1.00  0.00    -0.349 A  
HETATM   19  C   UNL     1     -12.178  12.402  65.089  1.00  0.00    -0.449 A  
HETATM   20  C   UNL     1      -9.845  11.877  65.445  1.00  0.00    -0.258 A  
HETATM   21  C   UNL     1      -9.742  11.442  64.120  1.00  0.00    -0.267 A  
HETATM   22  C   UNL     1     -12.072  11.966  63.765  1.00  0.00    -0.547 A  
HETATM   23  C   UNL     1     -10.854  11.488  63.283  1.00  0.00    -0.342 A  
ENDBRANCH  15  18
BRANCH  17  24
HETATM   24  C   UNL     1     -11.549  14.657  69.010  1.00  0.00    -0.328 A  
HETATM   25  C   UNL     1     -11.787  15.804  71.556  1.00  0.00    -0.514 A  
HETATM   26  C   UNL     1     -12.786  14.674  69.669  1.00  0.00     0.033 A  
HETATM   27  C   UNL     1     -12.904  15.248  70.937  1.00  0.00    -0.511 A  
HETATM   28  C   UNL     1     -10.546  15.765  70.924  1.00  0.00     0.110 A  
HETATM   29  C   UNL     1     -10.424  15.188  69.654  1.00  0.00    -0.261 A  
ENDBRANCH  17  24
ENDBRANCH  12  15
ENDBRANCH   8   9
ENDBRANCH   7   8
ENDBRANCH   6   7
ENDBRANCH   3   6
ENDBRANCH   2   3
TORSDOF 9
ENDMDL
MODEL      117
REMARK 921   NORMALIZED FREE ENERGY PREDICTED BY IDOCK:   -3.97 KCAL/MOL
REMARK 922        TOTAL FREE ENERGY PREDICTED BY IDOCK:   -8.19 KCAL/MOL
REMARK 923 INTER-LIGAND FREE ENERGY PREDICTED BY IDOCK:   -6.43 KCAL/MOL
REMARK 924 INTRA-LIGAND FREE ENERGY PREDICTED BY IDOCK:   -1.76 KCAL/MOL
REMARK 927      BINDING AFFINITY PREDICTED BY RF-SCORE:    0.00 PKD
ROOT
HETATM    1  C   UNL     1     -10.524  17.993  68.441  1.00  0.00    -0.326 C  
HETATM    2  C   UNL     1     -10.186  17.667  66.989  1.00  0.00    -0.332 C  
ENDROOT
BRANCH   2   3
HETATM    3  N   UNL     1      -9.752  16.280  66.763  1.00  0.00    -0.232 NA 
BRANCH   3   4
HETATM    4  C   UNL     1      -8.375  16.148  66.263  1.00  0.00    -0.287 C  
HETATM    5  C   UNL     1      -7.534  17.419  66.276  1.00  0.00    -0.354 C  
ENDBRANCH   3   4
BRANCH   3   6
HETATM    6  C   UNL     1     -10.044  15.459  67.960  1.00  0.00    -0.226 C  
BRANCH   6   7
HETATM    7  C   UNL     1     -10.963  14.268  67.668  1.00  0.00    -0.277 C  
BRANCH   7   8
HETATM    8  O   UNL     1     -10.365  13.390  66.704  1.00  0.00    -0.262 OA 
BRANCH   8   9
HETATM    9  C   UNL     1     -10.163  12.113  67.168  1.00  0.00    -0.210 A  
HETATM   10  C   UNL     1     -10.967  11.017  66.841  1.00  0.00    -0.311 A  
HETATM   11  C   UNL     1     -10.747   9.780  67.442  1.00  0.00    -0.314 A  
HETATM   12  C   UNL     1      -9.695   9.606  68.345  1.00  0.00    -0.163 A  
HETATM   13  C   UNL     1      -8.854  10.689  68.633  1.00  0.00    -0.151 A  
HETATM   14  C   UNL     1      -9.087  11.937  68.040  1.00  0.00    -0.189 A  
BRANCH  12  15
HETATM   15  C   UNL     1      -9.518   8.278  68.984  1.00  0.00    -0.155 C  
HETATM   16 CL   UNL     1      -8.519   5.741  69.013  1.00  0.00    -0.104 Cl 
HETATM   17  C   UNL     1      -8.696   7.365  68.408  1.00  0.00    -0.123 C  
BRANCH  15  18
HETATM   18  C   UNL     1     -10.298   7.932  70.201  1.00  0.00    -0.215 A  
HETATM   19  C   UNL     1     -11.362   7.021  70.131  1.00  0.00    -0.321 A  
HETATM   20  C   UNL     1      -9.991   8.529  71.431  1.00  0.00    -0.301 A  
HETATM   21  C   UNL     1     -10.729   8.210  72.576  1.00  0.00    -0.419 A  
HETATM   22  C   UNL     1     -12.098   6.705  71.276  1.00  0.00    -0.395 A  
HETATM   23  C   UNL     1     -11.779   7.298  72.496  1.00  0.00    -0.244 A  
ENDBRANCH  15  18
BRANCH  17  24
HETATM   24  C   UNL     1      -7.859   7.637  67.220  1.00  0.00    -0.117 A  
HETATM   25  C   UNL     1      -6.275   8.011  64.938  1.00  0.00    -0.048 A  
HETATM   26  C   UNL     1      -8.434   7.602  65.942  1.00  0.00    -0.150 A  
HETATM   27  C   UNL     1      -7.644   7.786  64.805  1.00  0.00    -0.108 A  
HETATM   28  C   UNL     1      -5.698   8.079  66.204  1.00  0.00    -0.037 A  
HETATM   29  C   UNL     1      -6.488   7.898  67.345  1.00  0.00    -0.056 A  
ENDBRANCH  17  24
ENDBRANCH  12  15
ENDBRANCH   8   9
ENDBRANCH   7   8
ENDBRANCH   6   7
ENDBRANCH   3   6
ENDBRANCH   2   3
TORSDOF 9
ENDMDL
MODEL      118
REMARK 921   NORMALIZED FREE ENERGY PREDICTED BY IDOCK:   -3.95 KCAL/MOL
REMARK 922        TOTAL FREE ENERGY PREDICTED BY IDOCK:   -8.16 KCAL/MOL
REMARK 923 INTER-LIGAND FREE ENERGY PREDICTED BY IDOCK:   -6.12 KCAL/MOL
REMARK 924 INTRA-LIGAND FREE ENERGY PREDICTED BY IDOCK:   -2.04 KCAL/MOL
REMARK 927      BINDING AFFINITY PREDICTED BY RF-SCORE:    0.00 PKD
ROOT
HETATM    1  C   UNL     1      -9.433   9.316  70.215  1.00  0.00    -0.277 C  
HETATM    2  C   UNL     1      -8.051   9.136  70.836  1.00  0.00    -0.162 C  
ENDROOT
BRANCH   2   3
HETATM    3  N   UNL     1      -6.934   9.473  69.940  1.00  0.00    -0.068 NA 
BRANCH   3   4
HETATM    4  C   UNL     1      -6.538   8.389  69.029  1.00  0.00    -0.048 C  
HETATM    5  C   UNL     1      -6.604   6.977  69.600  1.00  0.00    -0.045 C  
ENDBRANCH   3   4
BRANCH   3   6
HETATM    6  C   UNL     1      -7.200  10.764  69.266  1.00  0.00    -0.122 C  
BRANCH   6   7
HETATM    7  C   UNL     1      -5.945  11.628  69.097  1.00  0.00    -0.064 C  
BRANCH   7   8
HETATM    8  O   UNL     1      -6.020  12.799  69.922  1.00  0.00    -0.120 OA 
BRANCH   8   9
HETATM    9  C   UNL     1      -6.592  13.880  69.299  1.00  0.00    -0.113 A  
HETATM   10  C   UNL     1      -7.323  14.875  69.955  1.00  0.00    -0.033 A  
HETATM   11  C   UNL     1      -7.954  15.880  69.226  1.00  0.00    -0.229 A  
HETATM   12  C   UNL     1      -7.830  15.933  67.835  1.00  0.00    -0.148 A  
HETATM   13  C   UNL     1      -7.053  14.968  67.180  1.00  0.00     0.010 A  
HETATM   14  C   UNL     1      -6.433  13.949  67.914  1.00  0.00    -0.168 A  
BRANCH  12  15
HETATM   15  C   UNL     1      -8.546  17.004  67.097  1.00  0.00    -0.220 C  
HETATM   16 CL   UNL     1     -10.573  17.873  65.495  1.00  0.00    -0.191 Cl 
HETATM   17  C   UNL     1      -9.724  16.721  66.486  1.00  0.00    -0.283 C  
BRANCH  15  18
HETATM   18  C   UNL     1      -7.931  18.351  66.967  1.00  0.00    -0.238 A  
HETATM   19  C   UNL     1      -7.092  18.651  65.885  1.00  0.00    -0.290 A  
HETATM   20  C   UNL     1      -8.169  19.333  67.939  1.00  0.00    -0.340 A  
HETATM   21  C   UNL     1      -7.586  20.599  67.822  1.00  0.00    -0.209 A  
HETATM   22  C   UNL     1      -6.510  19.917  65.771  1.00  0.00    -0.254 A  
HETATM   23  C   UNL     1      -6.759  20.888  66.739  1.00  0.00    -0.367 A  
ENDBRANCH  15  18
BRANCH  17  24
HETATM   24  C   UNL     1     -10.420  15.420  66.593  1.00  0.00    -0.293 A  
HETATM   25  C   UNL     1     -11.829  12.999  66.687  1.00  0.00    -0.455 A  
HETATM   26  C   UNL     1     -10.220  14.443  65.608  1.00  0.00    -0.371 A  
HETATM   27  C   UNL     1     -10.925  13.238  65.655  1.00  0.00    -0.292 A  
HETATM   28  C   UNL     1     -12.012  13.951  67.688  1.00  0.00    -0.403 A  
HETATM   29  C   UNL     1     -11.306  15.158  67.646  1.00  0.00    -0.327 A  
ENDBRANCH  17  24
ENDBRANCH  12  15
ENDBRANCH   8   9
ENDBRANCH   7   8
ENDBRANCH   6   7
ENDBRANCH   3   6
ENDBRANCH   2   3
TORSDOF 9
ENDMDL
MODEL      119
REMARK 921   NORMALIZED FREE ENERGY PREDICTED BY IDOCK:   -3.94 KCAL/MOL
REMARK 922        TOTAL FREE ENERGY PREDICTED BY IDOCK:   -8.16 KCAL/MOL
REMARK 923 INTER-LIGAND FREE ENERGY PREDICTED BY IDOCK:   -6.20 KCAL/MOL
REMARK 924 INTRA-LIGAND FREE ENERGY PREDICTED BY IDOCK:   -1.95 KCAL/MOL
REMARK 927      BINDING AFFINITY PREDICTED BY RF-SCORE:    0.00 PKD
ROOT
HETATM    1  C   UNL     1      -6.617   5.031  71.084  1.00  0.00    -0.038 C  
HETATM    2  C   UNL     1      -5.615   4.525  70.051  1.00  0.00    -0.012 C  
ENDROOT
BRANCH   2   3
HETATM    3  N   UNL     1      -6.224   4.043  68.801  1.00  0.00    -0.031 NA 
BRANCH   3   4
HETATM    4  C   UNL     1      -5.507   2.926  68.167  1.00  0.00    -0.017 C  
HETATM    5  C   UNL     1      -6.328   1.672  67.896  1.00  0.00    -0.025 C  
ENDBRANCH   3   4
BRANCH   3   6
HETATM    6  C   UNL     1      -7.669   3.796  69.006  1.00  0.00    -0.053 C  
BRANCH   6   7
HETATM    7  C   UNL     1      -8.556   4.501  67.975  1.00  0.00    -0.102 C  
BRANCH   7   8
HETATM    8  O   UNL     1      -7.844   5.573  67.341  1.00  0.00    -0.099 OA 
BRANCH   8   9
HETATM    9  C   UNL     1      -8.401   6.810  67.553  1.00  0.00    -0.122 A  
HETATM   10  C   UNL     1      -7.693   7.929  68.002  1.00  0.00    -0.125 A  
HETATM   11  C   UNL     1      -8.363   9.116  68.287  1.00  0.00    -0.120 A  
HETATM   12  C   UNL     1      -9.741   9.220  68.088  1.00  0.00    -0.169 A  
HETATM   13  C   UNL     1     -10.445   8.116  67.587  1.00  0.00    -0.300 A  
HETATM   14  C   UNL     1      -9.772   6.918  67.315  1.00  0.00    -0.184 A  
BRANCH  12  15
HETATM   15  C   UNL     1     -10.417  10.495  68.435  1.00  0.00    -0.212 C  
HETATM   16 CL   UNL     1     -11.971  12.020  70.076  1.00  0.00    -0.412 Cl 
HETATM   17  C   UNL     1     -11.047  10.613  69.631  1.00  0.00    -0.284 C  
BRANCH  15  18
HETATM   18  C   UNL     1     -10.466  11.601  67.443  1.00  0.00    -0.239 A  
HETATM   19  C   UNL     1      -9.527  12.641  67.488  1.00  0.00    -0.186 A  
HETATM   20  C   UNL     1     -11.466  11.625  66.461  1.00  0.00    -0.260 A  
HETATM   21  C   UNL     1     -11.518  12.669  65.531  1.00  0.00    -0.375 A  
HETATM   22  C   UNL     1      -9.582  13.683  66.557  1.00  0.00    -0.294 A  
HETATM   23  C   UNL     1     -10.576  13.694  65.580  1.00  0.00    -0.294 A  
ENDBRANCH  15  18
BRANCH  17  24
HETATM   24  C   UNL     1     -11.019   9.577  70.687  1.00  0.00    -0.370 A  
HETATM   25  C   UNL     1     -11.019   7.715  72.781  1.00  0.00    -0.432 A  
HETATM   26  C   UNL     1     -12.217   8.989  71.115  1.00  0.00    -0.331 A  
HETATM   27  C   UNL     1     -12.216   8.063  72.161  1.00  0.00    -0.377 A  
HETATM   28  C   UNL     1      -9.818   8.270  72.343  1.00  0.00    -0.375 A  
HETATM   29  C   UNL     1      -9.815   9.196  71.294  1.00  0.00    -0.363 A  
ENDBRANCH  17  24
ENDBRANCH  12  15
ENDBRANCH   8   9
ENDBRANCH   7   8
ENDBRANCH   6   7
ENDBRANCH   3   6
ENDBRANCH   2   3
TORSDOF 9
ENDMDL
MODEL      120
REMARK 921   NORMALIZED FREE ENERGY PREDICTED BY IDOCK:   -3.92 KCAL/MOL
REMARK 922        TOTAL FREE ENERGY PREDICTED BY IDOCK:   -8.12 KCAL/MOL
REMARK 923 INTER-LIGAND FREE ENERGY PREDICTED BY IDOCK:   -6.71 KCAL/MOL
REMARK 924 INTRA-LIGAND FREE ENERGY PREDICTED BY IDOCK:   -1.41 KCAL/MOL
REMARK 927      BINDING AFFINITY PREDICTED BY RF-SCORE:    0.00 PKD
ROOT
HETATM    1  C   UNL     1      -6.899  18.611  69.440  1.00  0.00    -0.188 C  
HETATM    2  C   UNL     1      -7.242  18.774  67.962  1.00  0.00    -0.243 C  
ENDROOT
BRANCH   2   3
HETATM    3  N   UNL     1      -8.684  18.776  67.671  1.00  0.00    -0.277 NA 
BRANCH   3   4
HETATM    4  C   UNL     1      -9.015  18.796  66.238  1.00  0.00    -0.236 C  
HETATM    5  C   UNL     1     -10.390  19.344  65.877  1.00  0.00    -0.536 C  
ENDBRANCH   3   4
BRANCH   3   6
HETATM    6  C   UNL     1      -9.354  17.697  68.432  1.00  0.00    -0.289 C  
BRANCH   6   7
HETATM    7  C   UNL     1      -9.853  16.551  67.545  1.00  0.00    -0.248 C  
BRANCH   7   8
HETATM    8  O   UNL     1     -10.835  15.766  68.235  1.00  0.00    -0.278 OA 
BRANCH   8   9
HETATM    9  C   UNL     1     -10.531  14.428  68.297  1.00  0.00    -0.245 A  
HETATM   10  C   UNL     1      -9.261  13.894  68.067  1.00  0.00    -0.193 A  
HETATM   11  C   UNL     1      -9.070  12.515  68.051  1.00  0.00    -0.200 A  
HETATM   12  C   UNL     1     -10.135  11.648  68.307  1.00  0.00    -0.206 A  
HETATM   13  C   UNL     1     -11.399  12.181  68.592  1.00  0.00    -0.330 A  
HETATM   14  C   UNL     1     -11.592  13.569  68.592  1.00  0.00    -0.365 A  
BRANCH  12  15
HETATM   15  C   UNL     1      -9.891  10.185  68.249  1.00  0.00    -0.162 C  
HETATM   16 CL   UNL     1      -9.552   7.860  66.865  1.00  0.00    -0.240 Cl 
HETATM   17  C   UNL     1      -9.719   9.584  67.045  1.00  0.00    -0.176 C  
BRANCH  15  18
HETATM   18  C   UNL     1      -9.916   9.380  69.499  1.00  0.00    -0.200 A  
HETATM   19  C   UNL     1      -8.731   9.119  70.202  1.00  0.00    -0.196 A  
HETATM   20  C   UNL     1     -11.124   8.855  69.977  1.00  0.00    -0.180 A  
HETATM   21  C   UNL     1     -11.149   8.091  71.149  1.00  0.00    -0.278 A  
HETATM   22  C   UNL     1      -8.759   8.354  71.372  1.00  0.00    -0.218 A  
HETATM   23  C   UNL     1      -9.967   7.844  71.844  1.00  0.00    -0.234 A  
ENDBRANCH  15  18
BRANCH  17  24
HETATM   24  C   UNL     1      -9.646  10.312  65.759  1.00  0.00    -0.279 A  
HETATM   25  C   UNL     1      -9.429  11.796  63.391  1.00  0.00    -0.179 A  
HETATM   26  C   UNL     1      -8.449  10.315  65.030  1.00  0.00    -0.177 A  
HETATM   27  C   UNL     1      -8.341  11.057  63.851  1.00  0.00     0.281 A  
HETATM   28  C   UNL     1     -10.633  11.775  64.091  1.00  0.00    -0.403 A  
HETATM   29  C   UNL     1     -10.746  11.031  65.272  1.00  0.00    -0.234 A  
ENDBRANCH  17  24
ENDBRANCH  12  15
ENDBRANCH   8   9
ENDBRANCH   7   8
ENDBRANCH   6   7
ENDBRANCH   3   6
ENDBRANCH   2   3
TORSDOF 9
ENDMDL
MODEL      121
REMARK 921   NORMALIZED FREE ENERGY PREDICTED BY IDOCK:   -3.90 KCAL/MOL
REMARK 922        TOTAL FREE ENERGY PREDICTED BY IDOCK:   -8.10 KCAL/MOL
REMARK 923 INTER-LIGAND FREE ENERGY PREDICTED BY IDOCK:   -6.85 KCAL/MOL
REMARK 924 INTRA-LIGAND FREE ENERGY PREDICTED BY IDOCK:   -1.24 KCAL/MOL
REMARK 927      BINDING AFFINITY PREDICTED BY RF-SCORE:    0.00 PKD
ROOT
HETATM    1  C   UNL     1     -12.812   6.873  70.584  1.00  0.00     0.089 C  
HETATM    2  C   UNL     1     -11.455   6.185  70.469  1.00  0.00    -0.260 C  
ENDROOT
BRANCH   2   3
HETATM    3  N   UNL     1     -10.615   6.295  71.671  1.00  0.00    -0.221 NA 
BRANCH   3   4
HETATM    4  C   UNL     1     -10.457   5.040  72.421  1.00  0.00    -0.217 C  
HETATM    5  C   UNL     1     -10.979   5.045  73.853  1.00  0.00    -0.268 C  
ENDBRANCH   3   4
BRANCH   3   6
HETATM    6  C   UNL     1      -9.338   6.964  71.335  1.00  0.00    -0.156 C  
BRANCH   6   7
HETATM    7  C   UNL     1      -9.258   8.408  71.842  1.00  0.00    -0.238 C  
BRANCH   7   8
HETATM    8  O   UNL     1     -10.397   9.163  71.407  1.00  0.00    -0.297 OA 
BRANCH   8   9
HETATM    9  C   UNL     1     -10.202   9.826  70.220  1.00  0.00    -0.289 A  
HETATM   10  C   UNL     1      -8.983  10.373  69.811  1.00  0.00     0.024 A  
HETATM   11  C   UNL     1      -8.905  11.118  68.637  1.00  0.00    -0.155 A  
HETATM   12  C   UNL     1     -10.033  11.292  67.831  1.00  0.00    -0.189 A  
HETATM   13  C   UNL     1     -11.244  10.699  68.211  1.00  0.00    -0.362 A  
HETATM   14  C   UNL     1     -11.324   9.963  69.400  1.00  0.00    -0.143 A  
BRANCH  12  15
HETATM   15  C   UNL     1      -9.910  12.120  66.605  1.00  0.00    -0.224 C  
HETATM   16 CL   UNL     1     -10.048  14.507  65.295  1.00  0.00    -0.409 Cl 
HETATM   17  C   UNL     1     -10.051  13.466  66.691  1.00  0.00    -0.275 C  
BRANCH  15  18
HETATM   18  C   UNL     1      -9.713  11.463  65.285  1.00  0.00    -0.276 A  
HETATM   19  C   UNL     1      -9.102  10.204  65.199  1.00  0.00    -0.242 A  
HETATM   20  C   UNL     1     -10.120  12.107  64.109  1.00  0.00    -0.335 A  
HETATM   21  C   UNL     1      -9.929  11.494  62.865  1.00  0.00    -0.246 A  
HETATM   22  C   UNL     1      -8.912   9.595  63.955  1.00  0.00    -0.261 A  
HETATM   23  C   UNL     1      -9.327  10.240  62.791  1.00  0.00    -0.340 A  
ENDBRANCH  15  18
BRANCH  17  24
HETATM   24  C   UNL     1     -10.214  14.201  67.964  1.00  0.00    -0.232 A  
HETATM   25  C   UNL     1     -10.574  15.708  70.300  1.00  0.00    -0.329 A  
HETATM   26  C   UNL     1     -11.497  14.388  68.498  1.00  0.00    -0.326 A  
HETATM   27  C   UNL     1     -11.676  15.142  69.661  1.00  0.00    -0.353 A  
HETATM   28  C   UNL     1      -9.292  15.502  69.796  1.00  0.00    -0.136 A  
HETATM   29  C   UNL     1      -9.110  14.745  68.632  1.00  0.00    -0.186 A  
ENDBRANCH  17  24
ENDBRANCH  12  15
ENDBRANCH   8   9
ENDBRANCH   7   8
ENDBRANCH   6   7
ENDBRANCH   3   6
ENDBRANCH   2   3
TORSDOF 9
ENDMDL
MODEL      122
REMARK 921   NORMALIZED FREE ENERGY PREDICTED BY IDOCK:   -3.89 KCAL/MOL
REMARK 922        TOTAL FREE ENERGY PREDICTED BY IDOCK:   -8.08 KCAL/MOL
REMARK 923 INTER-LIGAND FREE ENERGY PREDICTED BY IDOCK:   -6.39 KCAL/MOL
REMARK 924 INTRA-LIGAND FREE ENERGY PREDICTED BY IDOCK:   -1.69 KCAL/MOL
REMARK 927      BINDING AFFINITY PREDICTED BY RF-SCORE:    0.00 PKD
ROOT
HETATM    1  C   UNL     1     -13.279   7.180  71.030  1.00  0.00    -0.158 C  
HETATM    2  C   UNL     1     -12.341   6.691  72.129  1.00  0.00    -0.200 C  
ENDROOT
BRANCH   2   3
HETATM    3  N   UNL     1     -10.911   6.859  71.827  1.00  0.00    -0.226 NA 
BRANCH   3   4
HETATM    4  C   UNL     1     -10.299   8.054  72.428  1.00  0.00    -0.289 C  
HETATM    5  C   UNL     1      -9.748   9.086  71.451  1.00  0.00    -0.369 C  
ENDBRANCH   3   4
BRANCH   3   6
HETATM    6  C   UNL     1     -10.184   5.601  72.107  1.00  0.00    -0.202 C  
BRANCH   6   7
HETATM    7  C   UNL     1      -9.459   5.034  70.881  1.00  0.00    -0.162 C  
BRANCH   7   8
HETATM    8  O   UNL     1     -10.330   5.014  69.741  1.00  0.00    -0.277 OA 
BRANCH   8   9
HETATM    9  C   UNL     1      -9.996   5.928  68.773  1.00  0.00    -0.152 A  
HETATM   10  C   UNL     1      -8.856   6.736  68.807  1.00  0.00    -0.131 A  
HETATM   11  C   UNL     1      -8.653   7.708  67.831  1.00  0.00    -0.122 A  
HETATM   12  C   UNL     1      -9.563   7.861  66.782  1.00  0.00    -0.278 A  
HETATM   13  C   UNL     1     -10.679   7.016  66.714  1.00  0.00    -0.282 A  
HETATM   14  C   UNL     1     -10.889   6.049  67.706  1.00  0.00    -0.380 A  
BRANCH  12  15
HETATM   15  C   UNL     1      -9.322   8.931  65.781  1.00  0.00    -0.286 C  
HETATM   16 CL   UNL     1      -7.869  10.049  63.763  1.00  0.00    -0.149 Cl 
HETATM   17  C   UNL     1      -8.308   8.797  64.890  1.00  0.00    -0.170 C  
BRANCH  15  18
HETATM   18  C   UNL     1     -10.141  10.172  65.813  1.00  0.00    -0.324 A  
HETATM   19  C   UNL     1     -10.471  10.839  64.625  1.00  0.00    -0.346 A  
HETATM   20  C   UNL     1     -10.575  10.701  67.036  1.00  0.00    -0.317 A  
HETATM   21  C   UNL     1     -11.338  11.872  67.069  1.00  0.00    -0.392 A  
HETATM   22  C   UNL     1     -11.234  12.010  64.661  1.00  0.00    -0.380 A  
HETATM   23  C   UNL     1     -11.668  12.523  65.882  1.00  0.00    -0.480 A  
ENDBRANCH  15  18
BRANCH  17  24
HETATM   24  C   UNL     1      -7.470   7.584  64.768  1.00  0.00    -0.091 A  
HETATM   25  C   UNL     1      -5.806   5.354  64.429  1.00  0.00    -0.021 A  
HETATM   26  C   UNL     1      -6.162   7.590  65.273  1.00  0.00    -0.038 A  
HETATM   27  C   UNL     1      -5.333   6.479  65.101  1.00  0.00    -0.021 A  
HETATM   28  C   UNL     1      -7.113   5.326  63.950  1.00  0.00    -0.049 A  
HETATM   29  C   UNL     1      -7.948   6.436  64.123  1.00  0.00    -0.096 A  
ENDBRANCH  17  24
ENDBRANCH  12  15
ENDBRANCH   8   9
ENDBRANCH   7   8
ENDBRANCH   6   7
ENDBRANCH   3   6
ENDBRANCH   2   3
TORSDOF 9
ENDMDL
MODEL      123
REMARK 921   NORMALIZED FREE ENERGY PREDICTED BY IDOCK:   -3.89 KCAL/MOL
REMARK 922        TOTAL FREE ENERGY PREDICTED BY IDOCK:   -8.07 KCAL/MOL
REMARK 923 INTER-LIGAND FREE ENERGY PREDICTED BY IDOCK:   -6.00 KCAL/MOL
REMARK 924 INTRA-LIGAND FREE ENERGY PREDICTED BY IDOCK:   -2.07 KCAL/MOL
REMARK 927      BINDING AFFINITY PREDICTED BY RF-SCORE:    0.00 PKD
ROOT
HETATM    1  C   UNL     1      -8.359   2.169  67.522  1.00  0.00    -0.081 C  
HETATM    2  C   UNL     1      -8.662   2.121  66.027  1.00  0.00    -0.116 C  
ENDROOT
BRANCH   2   3
HETATM    3  N   UNL     1      -8.485   3.405  65.331  1.00  0.00    -0.102 NA 
BRANCH   3   4
HETATM    4  C   UNL     1      -7.384   3.421  64.356  1.00  0.00    -0.070 C  
HETATM    5  C   UNL     1      -6.849   4.796  63.974  1.00  0.00    -0.044 C  
ENDBRANCH   3   4
BRANCH   3   6
HETATM    6  C   UNL     1      -9.782   3.867  64.788  1.00  0.00    -0.187 C  
BRANCH   6   7
HETATM    7  C   UNL     1     -10.549   4.784  65.748  1.00  0.00    -0.218 C  
BRANCH   7   8
HETATM    8  O   UNL     1      -9.678   5.780  66.302  1.00  0.00    -0.157 OA 
BRANCH   8   9
HETATM    9  C   UNL     1      -9.662   5.798  67.676  1.00  0.00    -0.119 A  
HETATM   10  C   UNL     1      -8.500   5.788  68.452  1.00  0.00    -0.110 A  
HETATM   11  C   UNL     1      -8.583   5.704  69.840  1.00  0.00    -0.125 A  
HETATM   12  C   UNL     1      -9.826   5.673  70.476  1.00  0.00    -0.249 A  
HETATM   13  C   UNL     1     -10.993   5.738  69.703  1.00  0.00    -0.385 A  
HETATM   14  C   UNL     1     -10.907   5.807  68.306  1.00  0.00    -0.249 A  
BRANCH  12  15
HETATM   15  C   UNL     1      -9.866   5.552  71.955  1.00  0.00    -0.204 C  
HETATM   16 CL   UNL     1     -10.286   6.594  74.440  1.00  0.00    -0.367 Cl 
HETATM   17  C   UNL     1     -10.317   6.594  72.699  1.00  0.00    -0.196 C  
BRANCH  15  18
HETATM   18  C   UNL     1      -9.340   4.326  72.612  1.00  0.00    -0.152 A  
HETATM   19  C   UNL     1     -10.196   3.258  72.918  1.00  0.00    -0.235 A  
HETATM   20  C   UNL     1      -7.984   4.233  72.952  1.00  0.00    -0.086 A  
HETATM   21  C   UNL     1      -7.488   3.084  73.577  1.00  0.00    -0.051 A  
HETATM   22  C   UNL     1      -9.698   2.111  73.543  1.00  0.00    -0.122 A  
HETATM   23  C   UNL     1      -8.346   2.026  73.870  1.00  0.00    -0.058 A  
ENDBRANCH  15  18
BRANCH  17  24
HETATM   24  C   UNL     1     -10.888   7.832  72.127  1.00  0.00    -0.310 A  
HETATM   25  C   UNL     1     -12.031  10.098  70.937  1.00  0.00    -0.461 A  
HETATM   26  C   UNL     1     -12.257   8.097  72.272  1.00  0.00    -0.397 A  
HETATM   27  C   UNL     1     -12.826   9.225  71.676  1.00  0.00    -0.447 A  
HETATM   28  C   UNL     1     -10.664   9.862  70.812  1.00  0.00    -0.350 A  
HETATM   29  C   UNL     1     -10.090   8.734  71.410  1.00  0.00    -0.354 A  
ENDBRANCH  17  24
ENDBRANCH  12  15
ENDBRANCH   8   9
ENDBRANCH   7   8
ENDBRANCH   6   7
ENDBRANCH   3   6
ENDBRANCH   2   3
TORSDOF 9
ENDMDL
MODEL      124
REMARK 921   NORMALIZED FREE ENERGY PREDICTED BY IDOCK:   -3.88 KCAL/MOL
REMARK 922        TOTAL FREE ENERGY PREDICTED BY IDOCK:   -8.06 KCAL/MOL
REMARK 923 INTER-LIGAND FREE ENERGY PREDICTED BY IDOCK:   -6.87 KCAL/MOL
REMARK 924 INTRA-LIGAND FREE ENERGY PREDICTED BY IDOCK:   -1.20 KCAL/MOL
REMARK 927      BINDING AFFINITY PREDICTED BY RF-SCORE:    0.00 PKD
ROOT
HETATM    1  C   UNL     1     -10.203  20.446  66.773  1.00  0.00    -0.394 C  
HETATM    2  C   UNL     1      -9.122  19.590  66.119  1.00  0.00    -0.310 C  
ENDROOT
BRANCH   2   3
HETATM    3  N   UNL     1      -7.787  19.734  66.721  1.00  0.00    -0.278 NA 
BRANCH   3   4
HETATM    4  C   UNL     1      -6.954  20.780  66.108  1.00  0.00    -0.100 C  
HETATM    5  C   UNL     1      -6.225  20.390  64.828  1.00  0.00    -0.335 C  
ENDBRANCH   3   4
BRANCH   3   6
HETATM    6  C   UNL     1      -7.906  19.839  68.192  1.00  0.00    -0.308 C  
BRANCH   6   7
HETATM    7  C   UNL     1      -7.615  18.521  68.919  1.00  0.00    -0.235 C  
BRANCH   7   8
HETATM    8  O   UNL     1      -7.363  17.468  67.979  1.00  0.00    -0.197 OA 
BRANCH   8   9
HETATM    9  C   UNL     1      -8.145  16.355  68.171  1.00  0.00    -0.165 A  
HETATM   10  C   UNL     1      -7.694  15.161  68.739  1.00  0.00    -0.143 A  
HETATM   11  C   UNL     1      -8.532  14.050  68.800  1.00  0.00    -0.038 A  
HETATM   12  C   UNL     1      -9.847  14.127  68.334  1.00  0.00    -0.231 A  
HETATM   13  C   UNL     1     -10.319  15.339  67.814  1.00  0.00    -0.244 A  
HETATM   14  C   UNL     1      -9.469  16.451  67.739  1.00  0.00    -0.222 A  
BRANCH  12  15
HETATM   15  C   UNL     1     -10.694  12.909  68.390  1.00  0.00    -0.273 C  
HETATM   16 CL   UNL     1     -12.621  11.377  69.561  1.00  0.00    -0.070 Cl 
HETATM   17  C   UNL     1     -11.661  12.812  69.336  1.00  0.00    -0.319 C  
BRANCH  15  18
HETATM   18  C   UNL     1     -10.426  11.777  67.464  1.00  0.00    -0.228 A  
HETATM   19  C   UNL     1     -10.815  11.849  66.119  1.00  0.00    -0.334 A  
HETATM   20  C   UNL     1      -9.796  10.616  67.932  1.00  0.00    -0.181 A  
HETATM   21  C   UNL     1      -9.550   9.547  67.064  1.00  0.00    -0.214 A  
HETATM   22  C   UNL     1     -10.568  10.779  65.254  1.00  0.00    -0.230 A  
HETATM   23  C   UNL     1      -9.934   9.631  65.728  1.00  0.00    -0.342 A  
ENDBRANCH  15  18
BRANCH  17  24
HETATM   24  C   UNL     1     -12.017  13.901  70.272  1.00  0.00    -0.401 A  
HETATM   25  C   UNL     1     -12.664  15.873  72.155  1.00  0.00    -0.506 A  
HETATM   26  C   UNL     1     -11.007  14.552  70.994  1.00  0.00     0.435 A  
HETATM   27  C   UNL     1     -11.331  15.533  71.935  1.00  0.00    -0.456 A  
HETATM   28  C   UNL     1     -13.673  15.255  71.420  1.00  0.00    -0.602 A  
HETATM   29  C   UNL     1     -13.352  14.274  70.475  1.00  0.00     0.058 A  
ENDBRANCH  17  24
ENDBRANCH  12  15
ENDBRANCH   8   9
ENDBRANCH   7   8
ENDBRANCH   6   7
ENDBRANCH   3   6
ENDBRANCH   2   3
TORSDOF 9
ENDMDL
MODEL      125
REMARK 921   NORMALIZED FREE ENERGY PREDICTED BY IDOCK:   -3.88 KCAL/MOL
REMARK 922        TOTAL FREE ENERGY PREDICTED BY IDOCK:   -8.06 KCAL/MOL
REMARK 923 INTER-LIGAND FREE ENERGY PREDICTED BY IDOCK:   -6.38 KCAL/MOL
REMARK 924 INTRA-LIGAND FREE ENERGY PREDICTED BY IDOCK:   -1.68 KCAL/MOL
REMARK 927      BINDING AFFINITY PREDICTED BY RF-SCORE:    0.00 PKD
ROOT
HETATM    1  C   UNL     1     -11.835  12.493  63.362  1.00  0.00    -0.587 C  
HETATM    2  C   UNL     1     -10.968  11.859  64.446  1.00  0.00    -0.337 C  
ENDROOT
BRANCH   2   3
HETATM    3  N   UNL     1     -10.173  10.709  63.992  1.00  0.00    -0.322 NA 
BRANCH   3   4
HETATM    4  C   UNL     1      -9.345  10.973  62.806  1.00  0.00    -0.346 C  
HETATM    5  C   UNL     1      -8.258   9.947  62.507  1.00  0.00    -0.147 C  
ENDBRANCH   3   4
BRANCH   3   6
HETATM    6  C   UNL     1      -9.428  10.128  65.132  1.00  0.00    -0.260 C  
BRANCH   6   7
HETATM    7  C   UNL     1      -9.886  10.668  66.492  1.00  0.00    -0.204 C  
BRANCH   7   8
HETATM    8  O   UNL     1      -8.759  11.053  67.291  1.00  0.00    -0.128 OA 
BRANCH   8   9
HETATM    9  C   UNL     1      -8.667  12.407  67.503  1.00  0.00    -0.179 A  
HETATM   10  C   UNL     1      -7.824  13.004  68.444  1.00  0.00    -0.134 A  
HETATM   11  C   UNL     1      -7.874  14.379  68.660  1.00  0.00    -0.140 A  
HETATM   12  C   UNL     1      -8.733  15.185  67.909  1.00  0.00    -0.157 A  
HETATM   13  C   UNL     1      -9.540  14.596  66.926  1.00  0.00    -0.253 A  
HETATM   14  C   UNL     1      -9.500  13.211  66.722  1.00  0.00    -0.252 A  
BRANCH  12  15
HETATM   15  C   UNL     1      -8.775  16.641  68.195  1.00  0.00    -0.201 C  
HETATM   16 CL   UNL     1      -9.989  18.851  69.232  1.00  0.00    -0.281 Cl 
HETATM   17  C   UNL     1      -9.786  17.146  68.946  1.00  0.00    -0.256 C  
BRANCH  15  18
HETATM   18  C   UNL     1      -7.757  17.543  67.594  1.00  0.00    -0.207 A  
HETATM   19  C   UNL     1      -7.835  17.904  66.241  1.00  0.00    -0.296 A  
HETATM   20  C   UNL     1      -6.695  18.027  68.370  1.00  0.00    -0.217 A  
HETATM   21  C   UNL     1      -5.733  18.870  67.804  1.00  0.00    -0.189 A  
HETATM   22  C   UNL     1      -6.871  18.746  65.678  1.00  0.00    -0.289 A  
HETATM   23  C   UNL     1      -5.823  19.228  66.461  1.00  0.00    -0.174 A  
ENDBRANCH  15  18
BRANCH  17  24
HETATM   24  C   UNL     1     -10.817  16.318  69.609  1.00  0.00    -0.345 A  
HETATM   25  C   UNL     1     -12.688  14.631  70.837  1.00  0.00    -0.413 A  
HETATM   26  C   UNL     1     -10.570  15.791  70.885  1.00  0.00     0.110 A  
HETATM   27  C   UNL     1     -11.502  14.948  71.494  1.00  0.00    -0.307 A  
HETATM   28  C   UNL     1     -12.958  15.174  69.582  1.00  0.00     0.291 A  
HETATM   29  C   UNL     1     -12.027  16.021  68.970  1.00  0.00    -0.159 A  
ENDBRANCH  17  24
ENDBRANCH  12  15
ENDBRANCH   8   9
ENDBRANCH   7   8
ENDBRANCH   6   7
ENDBRANCH   3   6
ENDBRANCH   2   3
TORSDOF 9
ENDMDL
MODEL      126
REMARK 921   NORMALIZED FREE ENERGY PREDICTED BY IDOCK:   -3.87 KCAL/MOL
REMARK 922        TOTAL FREE ENERGY PREDICTED BY IDOCK:   -8.05 KCAL/MOL
REMARK 923 INTER-LIGAND FREE ENERGY PREDICTED BY IDOCK:   -5.80 KCAL/MOL
REMARK 924 INTRA-LIGAND FREE ENERGY PREDICTED BY IDOCK:   -2.25 KCAL/MOL
REMARK 927      BINDING AFFINITY PREDICTED BY RF-SCORE:    0.00 PKD
ROOT
HETATM    1  C   UNL     1     -11.759   6.395  70.202  1.00  0.00    -0.372 C  
HETATM    2  C   UNL     1     -11.594   6.910  71.629  1.00  0.00    -0.287 C  
ENDROOT
BRANCH   2   3
HETATM    3  N   UNL     1     -10.503   6.273  72.382  1.00  0.00    -0.192 NA 
BRANCH   3   4
HETATM    4  C   UNL     1      -9.849   5.159  71.678  1.00  0.00    -0.173 C  
HETATM    5  C   UNL     1      -8.416   5.406  71.223  1.00  0.00    -0.126 C  
ENDBRANCH   3   4
BRANCH   3   6
HETATM    6  C   UNL     1      -9.568   7.304  72.884  1.00  0.00    -0.164 C  
BRANCH   6   7
HETATM    7  C   UNL     1      -9.739   8.663  72.197  1.00  0.00    -0.313 C  
BRANCH   7   8
HETATM    8  O   UNL     1      -8.471   9.175  71.762  1.00  0.00    -0.340 OA 
BRANCH   8   9
HETATM    9  C   UNL     1      -8.424   9.474  70.423  1.00  0.00    -0.201 A  
HETATM   10  C   UNL     1      -7.436  10.260  69.823  1.00  0.00    -0.169 A  
HETATM   11  C   UNL     1      -7.527  10.595  68.474  1.00  0.00    -0.093 A  
HETATM   12  C   UNL     1      -8.581  10.115  67.693  1.00  0.00    -0.118 A  
HETATM   13  C   UNL     1      -9.544   9.282  68.279  1.00  0.00    -0.160 A  
HETATM   14  C   UNL     1      -9.459   8.960  69.640  1.00  0.00    -0.168 A  
BRANCH  12  15
HETATM   15  C   UNL     1      -8.655  10.523  66.268  1.00  0.00    -0.151 C  
HETATM   16 CL   UNL     1      -9.666  12.067  64.260  1.00  0.00    -0.156 Cl 
HETATM   17  C   UNL     1      -9.418  11.588  65.916  1.00  0.00    -0.230 C  
BRANCH  15  18
HETATM   18  C   UNL     1      -7.957   9.718  65.230  1.00  0.00    -0.123 A  
HETATM   19  C   UNL     1      -8.528   8.534  64.744  1.00  0.00    -0.146 A  
HETATM   20  C   UNL     1      -6.709  10.125  64.741  1.00  0.00    -0.121 A  
HETATM   21  C   UNL     1      -6.048   9.366  63.770  1.00  0.00    -0.092 A  
HETATM   22  C   UNL     1      -7.865   7.776  63.774  1.00  0.00    -0.132 A  
HETATM   23  C   UNL     1      -6.627   8.194  63.288  1.00  0.00    -0.080 A  
ENDBRANCH  15  18
BRANCH  17  24
HETATM   24  C   UNL     1     -10.115  12.462  66.885  1.00  0.00    -0.230 A  
HETATM   25  C   UNL     1     -11.344  14.070  68.824  1.00  0.00    -0.309 A  
HETATM   26  C   UNL     1      -9.499  13.642  67.324  1.00  0.00    -0.230 A  
HETATM   27  C   UNL     1     -10.111  14.441  68.293  1.00  0.00    -0.239 A  
HETATM   28  C   UNL     1     -11.981  12.916  68.372  1.00  0.00    -0.289 A  
HETATM   29  C   UNL     1     -11.371  12.115  67.400  1.00  0.00    -0.393 A  
ENDBRANCH  17  24
ENDBRANCH  12  15
ENDBRANCH   8   9
ENDBRANCH   7   8
ENDBRANCH   6   7
ENDBRANCH   3   6
ENDBRANCH   2   3
TORSDOF 9
ENDMDL
MODEL      127
REMARK 921   NORMALIZED FREE ENERGY PREDICTED BY IDOCK:   -3.87 KCAL/MOL
REMARK 922        TOTAL FREE ENERGY PREDICTED BY IDOCK:   -8.05 KCAL/MOL
REMARK 923 INTER-LIGAND FREE ENERGY PREDICTED BY IDOCK:   -6.06 KCAL/MOL
REMARK 924 INTRA-LIGAND FREE ENERGY PREDICTED BY IDOCK:   -1.98 KCAL/MOL
REMARK 927      BINDING AFFINITY PREDICTED BY RF-SCORE:    0.00 PKD
ROOT
HETATM    1  C   UNL     1     -10.207  16.104  69.652  1.00  0.00    -0.243 C  
HETATM    2  C   UNL     1     -11.339  16.072  70.675  1.00  0.00    -0.399 C  
ENDROOT
BRANCH   2   3
HETATM    3  N   UNL     1     -12.170  14.860  70.622  1.00  0.00    -0.294 NA 
BRANCH   3   4
HETATM    4  C   UNL     1     -13.504  15.011  71.223  1.00  0.00    -0.447 C  
HETATM    5  C   UNL     1     -13.913  13.935  72.222  1.00  0.00    -0.663 C  
ENDBRANCH   3   4
BRANCH   3   6
HETATM    6  C   UNL     1     -12.186  14.319  69.244  1.00  0.00    -0.252 C  
BRANCH   6   7
HETATM    7  C   UNL     1     -11.790  12.840  69.170  1.00  0.00    -0.301 C  
BRANCH   7   8
HETATM    8  O   UNL     1     -10.854  12.617  68.106  1.00  0.00    -0.211 OA 
BRANCH   8   9
HETATM    9  C   UNL     1     -10.270  11.375  68.133  1.00  0.00    -0.187 A  
HETATM   10  C   UNL     1      -9.027  11.098  68.710  1.00  0.00    -0.136 A  
HETATM   11  C   UNL     1      -8.468   9.828  68.598  1.00  0.00    -0.116 A  
HETATM   12  C   UNL     1      -9.158   8.803  67.947  1.00  0.00    -0.145 A  
HETATM   13  C   UNL     1     -10.428   9.063  67.414  1.00  0.00    -0.338 A  
HETATM   14  C   UNL     1     -10.982  10.346  67.514  1.00  0.00    -0.358 A  
BRANCH  12  15
HETATM   15  C   UNL     1      -8.509   7.473  67.824  1.00  0.00    -0.118 C  
HETATM   16 CL   UNL     1      -7.119   5.600  66.412  1.00  0.00    -0.071 Cl 
HETATM   17  C   UNL     1      -7.809   7.173  66.702  1.00  0.00    -0.109 C  
BRANCH  15  18
HETATM   18  C   UNL     1      -8.697   6.457  68.893  1.00  0.00    -0.126 A  
HETATM   19  C   UNL     1      -7.758   6.327  69.926  1.00  0.00    -0.105 A  
HETATM   20  C   UNL     1      -9.807   5.602  68.868  1.00  0.00    -0.197 A  
HETATM   21  C   UNL     1      -9.982   4.640  69.869  1.00  0.00    -0.296 A  
HETATM   22  C   UNL     1      -7.935   5.364  70.925  1.00  0.00    -0.104 A  
HETATM   23  C   UNL     1      -9.046   4.524  70.895  1.00  0.00    -0.185 A  
ENDBRANCH  15  18
BRANCH  17  24
HETATM   24  C   UNL     1      -7.545   8.134  65.609  1.00  0.00    -0.083 A  
HETATM   25  C   UNL     1      -7.093  10.062  63.626  1.00  0.00    -0.126 A  
HETATM   26  C   UNL     1      -6.435   8.986  65.687  1.00  0.00    -0.067 A  
HETATM   27  C   UNL     1      -6.212   9.949  64.700  1.00  0.00    -0.112 A  
HETATM   28  C   UNL     1      -8.181   9.199  63.522  1.00  0.00    -0.178 A  
HETATM   29  C   UNL     1      -8.406   8.232  64.508  1.00  0.00    -0.097 A  
ENDBRANCH  17  24
ENDBRANCH  12  15
ENDBRANCH   8   9
ENDBRANCH   7   8
ENDBRANCH   6   7
ENDBRANCH   3   6
ENDBRANCH   2   3
TORSDOF 9
ENDMDL
MODEL      128
REMARK 921   NORMALIZED FREE ENERGY PREDICTED BY IDOCK:   -3.84 KCAL/MOL
REMARK 922        TOTAL FREE ENERGY PREDICTED BY IDOCK:   -8.00 KCAL/MOL
REMARK 923 INTER-LIGAND FREE ENERGY PREDICTED BY IDOCK:   -5.92 KCAL/MOL
REMARK 924 INTRA-LIGAND FREE ENERGY PREDICTED BY IDOCK:   -2.08 KCAL/MOL
REMARK 927      BINDING AFFINITY PREDICTED BY RF-SCORE:    0.00 PKD
ROOT
HETATM    1  C   UNL     1      -9.433   3.745  65.627  1.00  0.00    -0.170 C  
HETATM    2  C   UNL     1      -8.112   3.007  65.827  1.00  0.00    -0.086 C  
ENDROOT
BRANCH   2   3
HETATM    3  N   UNL     1      -6.932   3.727  65.325  1.00  0.00    -0.060 NA 
BRANCH   3   4
HETATM    4  C   UNL     1      -6.218   3.040  64.238  1.00  0.00    -0.023 C  
HETATM    5  C   UNL     1      -6.816   3.192  62.844  1.00  0.00    -0.031 C  
ENDBRANCH   3   4
BRANCH   3   6
HETATM    6  C   UNL     1      -7.289   5.131  65.021  1.00  0.00    -0.068 C  
BRANCH   6   7
HETATM    7  C   UNL     1      -6.603   6.143  65.946  1.00  0.00    -0.047 C  
BRANCH   7   8
HETATM    8  O   UNL     1      -7.007   7.481  65.622  1.00  0.00    -0.058 OA 
BRANCH   8   9
HETATM    9  C   UNL     1      -7.806   8.065  66.574  1.00  0.00    -0.097 A  
HETATM   10  C   UNL     1      -7.330   8.782  67.674  1.00  0.00    -0.085 A  
HETATM   11  C   UNL     1      -8.213   9.251  68.644  1.00  0.00    -0.113 A  
HETATM   12  C   UNL     1      -9.588   9.048  68.509  1.00  0.00    -0.161 A  
HETATM   13  C   UNL     1     -10.074   8.376  67.379  1.00  0.00    -0.301 A  
HETATM   14  C   UNL     1      -9.182   7.892  66.412  1.00  0.00    -0.241 A  
BRANCH  12  15
HETATM   15  C   UNL     1     -10.489   9.538  69.582  1.00  0.00    -0.239 C  
HETATM   16 CL   UNL     1     -11.914  11.515  70.806  1.00  0.00    -0.402 Cl 
HETATM   17  C   UNL     1     -10.956  10.811  69.533  1.00  0.00    -0.266 C  
BRANCH  15  18
HETATM   18  C   UNL     1     -10.809   8.660  70.739  1.00  0.00    -0.272 A  
HETATM   19  C   UNL     1     -11.879   7.756  70.674  1.00  0.00    -0.142 A  
HETATM   20  C   UNL     1     -10.053   8.739  71.916  1.00  0.00    -0.409 A  
HETATM   21  C   UNL     1     -10.357   7.919  73.008  1.00  0.00    -0.401 A  
HETATM   22  C   UNL     1     -12.181   6.938  71.766  1.00  0.00    -0.396 A  
HETATM   23  C   UNL     1     -11.418   7.020  72.930  1.00  0.00    -0.162 A  
ENDBRANCH  15  18
BRANCH  17  24
HETATM   24  C   UNL     1     -10.716  11.738  68.406  1.00  0.00    -0.249 A  
HETATM   25  C   UNL     1     -10.213  13.379  66.190  1.00  0.00    -0.301 A  
HETATM   26  C   UNL     1     -11.585  11.733  67.306  1.00  0.00    -0.344 A  
HETATM   27  C   UNL     1     -11.332  12.550  66.201  1.00  0.00    -0.388 A  
HETATM   28  C   UNL     1      -9.360  13.415  67.291  1.00  0.00    -0.233 A  
HETATM   29  C   UNL     1      -9.612  12.600  68.400  1.00  0.00    -0.173 A  
ENDBRANCH  17  24
ENDBRANCH  12  15
ENDBRANCH   8   9
ENDBRANCH   7   8
ENDBRANCH   6   7
ENDBRANCH   3   6
ENDBRANCH   2   3
TORSDOF 9
ENDMDL
MODEL      129
REMARK 921   NORMALIZED FREE ENERGY PREDICTED BY IDOCK:   -3.83 KCAL/MOL
REMARK 922        TOTAL FREE ENERGY PREDICTED BY IDOCK:   -7.98 KCAL/MOL
REMARK 923 INTER-LIGAND FREE ENERGY PREDICTED BY IDOCK:   -5.52 KCAL/MOL
REMARK 924 INTRA-LIGAND FREE ENERGY PREDICTED BY IDOCK:   -2.45 KCAL/MOL
REMARK 927      BINDING AFFINITY PREDICTED BY RF-SCORE:    0.00 PKD
ROOT
HETATM    1  C   UNL     1      -8.853  15.196  66.668  1.00  0.00    -0.321 C  
HETATM    2  C   UNL     1      -8.310  15.805  67.957  1.00  0.00    -0.152 C  
ENDROOT
BRANCH   2   3
HETATM    3  N   UNL     1      -6.873  16.119  67.921  1.00  0.00    -0.128 NA 
BRANCH   3   4
HETATM    4  C   UNL     1      -6.562  17.493  67.499  1.00  0.00    -0.154 C  
HETATM    5  C   UNL     1      -5.847  17.636  66.161  1.00  0.00    -0.245 C  
ENDBRANCH   3   4
BRANCH   3   6
HETATM    6  C   UNL     1      -6.237  15.719  69.196  1.00  0.00    -0.126 C  
BRANCH   6   7
HETATM    7  C   UNL     1      -5.542  14.355  69.125  1.00  0.00    -0.091 C  
BRANCH   7   8
HETATM    8  O   UNL     1      -5.614  13.817  67.798  1.00  0.00    -0.209 OA 
BRANCH   8   9
HETATM    9  C   UNL     1      -6.223  12.588  67.730  1.00  0.00    -0.119 A  
HETATM   10  C   UNL     1      -5.975  11.636  66.737  1.00  0.00    -0.137 A  
HETATM   11  C   UNL     1      -6.716  10.458  66.692  1.00  0.00    -0.090 A  
HETATM   12  C   UNL     1      -7.684  10.190  67.662  1.00  0.00    -0.091 A  
HETATM   13  C   UNL     1      -7.897  11.118  68.691  1.00  0.00    -0.138 A  
HETATM   14  C   UNL     1      -7.162  12.310  68.725  1.00  0.00    -0.098 A  
BRANCH  12  15
HETATM   15  C   UNL     1      -8.471   8.936  67.556  1.00  0.00    -0.116 C  
HETATM   16 CL   UNL     1     -10.756   7.578  66.950  1.00  0.00    -0.398 Cl 
HETATM   17  C   UNL     1      -9.710   8.970  67.006  1.00  0.00    -0.189 C  
BRANCH  15  18
HETATM   18  C   UNL     1      -7.929   7.673  68.122  1.00  0.00    -0.123 A  
HETATM   19  C   UNL     1      -7.456   6.658  67.278  1.00  0.00    -0.092 A  
HETATM   20  C   UNL     1      -7.903   7.474  69.509  1.00  0.00    -0.120 A  
HETATM   21  C   UNL     1      -7.401   6.283  70.044  1.00  0.00    -0.082 A  
HETATM   22  C   UNL     1      -6.954   5.469  67.815  1.00  0.00    -0.066 A  
HETATM   23  C   UNL     1      -6.927   5.284  69.196  1.00  0.00    -0.056 A  
ENDBRANCH  15  18
BRANCH  17  24
HETATM   24  C   UNL     1     -10.310  10.173  66.389  1.00  0.00    -0.258 A  
HETATM   25  C   UNL     1     -11.577  12.387  65.227  1.00  0.00    -0.419 A  
HETATM   26  C   UNL     1     -11.071  11.049  67.175  1.00  0.00    -0.333 A  
HETATM   27  C   UNL     1     -11.704  12.151  66.595  1.00  0.00    -0.385 A  
HETATM   28  C   UNL     1     -10.797  11.540  64.443  1.00  0.00    -0.405 A  
HETATM   29  C   UNL     1     -10.159  10.437  65.022  1.00  0.00    -0.379 A  
ENDBRANCH  17  24
ENDBRANCH  12  15
ENDBRANCH   8   9
ENDBRANCH   7   8
ENDBRANCH   6   7
ENDBRANCH   3   6
ENDBRANCH   2   3
TORSDOF 9
ENDMDL
MODEL      130
REMARK 921   NORMALIZED FREE ENERGY PREDICTED BY IDOCK:   -3.76 KCAL/MOL
REMARK 922        TOTAL FREE ENERGY PREDICTED BY IDOCK:   -7.87 KCAL/MOL
REMARK 923 INTER-LIGAND FREE ENERGY PREDICTED BY IDOCK:   -6.11 KCAL/MOL
REMARK 924 INTRA-LIGAND FREE ENERGY PREDICTED BY IDOCK:   -1.76 KCAL/MOL
REMARK 927      BINDING AFFINITY PREDICTED BY RF-SCORE:    0.00 PKD
ROOT
HETATM    1  C   UNL     1      -6.609  10.544  67.524  1.00  0.00    -0.066 C  
HETATM    2  C   UNL     1      -7.182  11.673  66.673  1.00  0.00    -0.025 C  
ENDROOT
BRANCH   2   3
HETATM    3  N   UNL     1      -8.403  12.285  67.219  1.00  0.00    -0.175 NA 
BRANCH   3   4
HETATM    4  C   UNL     1      -8.195  13.595  67.854  1.00  0.00    -0.171 C  
HETATM    5  C   UNL     1      -6.796  14.185  67.727  1.00  0.00    -0.188 C  
ENDBRANCH   3   4
BRANCH   3   6
HETATM    6  C   UNL     1      -9.474  12.271  66.197  1.00  0.00    -0.217 C  
BRANCH   6   7
HETATM    7  C   UNL     1     -10.863  12.575  66.771  1.00  0.00    -0.249 C  
BRANCH   7   8
HETATM    8  O   UNL     1     -11.645  11.376  66.867  1.00  0.00    -0.492 OA 
BRANCH   8   9
HETATM    9  C   UNL     1     -11.053  10.386  67.612  1.00  0.00    -0.293 A  
HETATM   10  C   UNL     1     -10.783   9.098  67.142  1.00  0.00    -0.213 A  
HETATM   11  C   UNL     1     -10.274   8.128  68.002  1.00  0.00    -0.263 A  
HETATM   12  C   UNL     1      -9.985   8.440  69.332  1.00  0.00    -0.191 A  
HETATM   13  C   UNL     1     -10.204   9.746  69.792  1.00  0.00    -0.271 A  
HETATM   14  C   UNL     1     -10.731  10.716  68.930  1.00  0.00    -0.254 A  
BRANCH  12  15
HETATM   15  C   UNL     1      -9.473   7.367  70.221  1.00  0.00    -0.165 C  
HETATM   16 CL   UNL     1      -9.635   5.824  72.463  1.00  0.00    -0.165 Cl 
HETATM   17  C   UNL     1     -10.206   6.984  71.296  1.00  0.00    -0.190 C  
BRANCH  15  18
HETATM   18  C   UNL     1      -8.131   6.778  69.971  1.00  0.00    -0.125 A  
HETATM   19  C   UNL     1      -8.005   5.452  69.532  1.00  0.00    -0.089 A  
HETATM   20  C   UNL     1      -6.974   7.536  70.193  1.00  0.00    -0.059 A  
HETATM   21  C   UNL     1      -5.710   6.981  69.966  1.00  0.00    -0.023 A  
HETATM   22  C   UNL     1      -6.741   4.900  69.307  1.00  0.00    -0.048 A  
HETATM   23  C   UNL     1      -5.596   5.665  69.523  1.00  0.00    -0.008 A  
ENDBRANCH  15  18
BRANCH  17  24
HETATM   24  C   UNL     1     -11.562   7.492  71.597  1.00  0.00    -0.299 A  
HETATM   25  C   UNL     1     -14.135   8.513  72.033  1.00  0.00    -0.516 A  
HETATM   26  C   UNL     1     -12.680   6.869  71.025  1.00  0.00    -0.269 A  
HETATM   27  C   UNL     1     -13.962   7.381  71.240  1.00  0.00    -0.374 A  
HETATM   28  C   UNL     1     -13.035   9.122  72.632  1.00  0.00    -0.320 A  
HETATM   29  C   UNL     1     -11.749   8.610  72.420  1.00  0.00    -0.393 A  
ENDBRANCH  17  24
ENDBRANCH  12  15
ENDBRANCH   8   9
ENDBRANCH   7   8
ENDBRANCH   6   7
ENDBRANCH   3   6
ENDBRANCH   2   3
TORSDOF 9
ENDMDL
MODEL      131
REMARK 921   NORMALIZED FREE ENERGY PREDICTED BY IDOCK:   -3.73 KCAL/MOL
REMARK 922        TOTAL FREE ENERGY PREDICTED BY IDOCK:   -7.82 KCAL/MOL
REMARK 923 INTER-LIGAND FREE ENERGY PREDICTED BY IDOCK:   -5.52 KCAL/MOL
REMARK 924 INTRA-LIGAND FREE ENERGY PREDICTED BY IDOCK:   -2.31 KCAL/MOL
REMARK 927      BINDING AFFINITY PREDICTED BY RF-SCORE:    0.00 PKD
ROOT
HETATM    1  C   UNL     1      -6.697   5.810  68.266  1.00  0.00    -0.057 C  
HETATM    2  C   UNL     1      -6.944   5.652  66.769  1.00  0.00    -0.065 C  
ENDROOT
BRANCH   2   3
HETATM    3  N   UNL     1      -5.761   5.236  65.999  1.00  0.00    -0.017 NA 
BRANCH   3   4
HETATM    4  C   UNL     1      -5.654   3.785  65.786  1.00  0.00    -0.018 C  
HETATM    5  C   UNL     1      -6.945   3.067  65.411  1.00  0.00    -0.053 C  
ENDBRANCH   3   4
BRANCH   3   6
HETATM    6  C   UNL     1      -5.659   6.039  64.760  1.00  0.00    -0.017 C  
BRANCH   6   7
HETATM    7  C   UNL     1      -5.716   7.550  65.010  1.00  0.00    -0.037 C  
BRANCH   7   8
HETATM    8  O   UNL     1      -6.624   8.182  64.097  1.00  0.00    -0.065 OA 
BRANCH   8   9
HETATM    9  C   UNL     1      -7.423   9.134  64.680  1.00  0.00    -0.104 A  
HETATM   10  C   UNL     1      -6.972  10.101  65.582  1.00  0.00    -0.125 A  
HETATM   11  C   UNL     1      -7.875  10.961  66.202  1.00  0.00    -0.144 A  
HETATM   12  C   UNL     1      -9.237  10.899  65.899  1.00  0.00    -0.214 A  
HETATM   13  C   UNL     1      -9.686   9.966  64.954  1.00  0.00    -0.332 A  
HETATM   14  C   UNL     1      -8.778   9.092  64.344  1.00  0.00    -0.151 A  
BRANCH  12  15
HETATM   15  C   UNL     1     -10.167  11.814  66.607  1.00  0.00    -0.240 C  
HETATM   16 CL   UNL     1     -11.871  12.393  68.655  1.00  0.00    -0.359 Cl 
HETATM   17  C   UNL     1     -10.680  11.447  67.808  1.00  0.00    -0.211 C  
BRANCH  15  18
HETATM   18  C   UNL     1     -10.588  13.085  65.962  1.00  0.00    -0.292 A  
HETATM   19  C   UNL     1      -9.778  14.227  66.039  1.00  0.00    -0.312 A  
HETATM   20  C   UNL     1     -11.813  13.162  65.284  1.00  0.00    -0.400 A  
HETATM   21  C   UNL     1     -12.215  14.359  64.683  1.00  0.00    -0.479 A  
HETATM   22  C   UNL     1     -10.182  15.422  65.437  1.00  0.00    -0.408 A  
HETATM   23  C   UNL     1     -11.399  15.486  64.760  1.00  0.00    -0.362 A  
ENDBRANCH  15  18
BRANCH  17  24
HETATM   24  C   UNL     1     -10.289  10.219  68.534  1.00  0.00    -0.200 A  
HETATM   25  C   UNL     1      -9.423   7.892  69.834  1.00  0.00    -0.160 A  
HETATM   26  C   UNL     1      -9.311  10.287  69.536  1.00  0.00    -0.200 A  
HETATM   27  C   UNL     1      -8.878   9.127  70.182  1.00  0.00    -0.215 A  
HETATM   28  C   UNL     1     -10.418   7.817  68.863  1.00  0.00    -0.208 A  
HETATM   29  C   UNL     1     -10.856   8.978  68.216  1.00  0.00    -0.072 A  
ENDBRANCH  17  24
ENDBRANCH  12  15
ENDBRANCH   8   9
ENDBRANCH   7   8
ENDBRANCH   6   7
ENDBRANCH   3   6
ENDBRANCH   2   3
TORSDOF 9
ENDMDL
MODEL      132
REMARK 921   NORMALIZED FREE ENERGY PREDICTED BY IDOCK:   -3.72 KCAL/MOL
REMARK 922        TOTAL FREE ENERGY PREDICTED BY IDOCK:   -7.82 KCAL/MOL
REMARK 923 INTER-LIGAND FREE ENERGY PREDICTED BY IDOCK:   -5.65 KCAL/MOL
REMARK 924 INTRA-LIGAND FREE ENERGY PREDICTED BY IDOCK:   -2.18 KCAL/MOL
REMARK 927      BINDING AFFINITY PREDICTED BY RF-SCORE:    0.00 PKD
ROOT
HETATM    1  C   UNL     1      -5.533  10.827  67.857  1.00  0.00    -0.039 C  
HETATM    2  C   UNL     1      -6.021  12.024  67.046  1.00  0.00    -0.135 C  
ENDROOT
BRANCH   2   3
HETATM    3  N   UNL     1      -6.979  12.886  67.754  1.00  0.00    -0.121 NA 
BRANCH   3   4
HETATM    4  C   UNL     1      -6.507  14.261  67.982  1.00  0.00    -0.152 C  
HETATM    5  C   UNL     1      -6.940  14.907  69.292  1.00  0.00    -0.151 C  
ENDBRANCH   3   4
BRANCH   3   6
HETATM    6  C   UNL     1      -8.307  12.803  67.106  1.00  0.00    -0.164 C  
BRANCH   6   7
HETATM    7  C   UNL     1      -9.249  11.799  67.782  1.00  0.00    -0.181 C  
BRANCH   7   8
HETATM    8  O   UNL     1      -9.759  10.859  66.826  1.00  0.00    -0.183 OA 
BRANCH   8   9
HETATM    9  C   UNL     1      -9.694   9.553  67.245  1.00  0.00    -0.167 A  
HETATM   10  C   UNL     1     -10.575   8.547  66.839  1.00  0.00    -0.279 A  
HETATM   11  C   UNL     1     -10.495   7.274  67.397  1.00  0.00    -0.359 A  
HETATM   12  C   UNL     1      -9.506   6.971  68.336  1.00  0.00    -0.133 A  
HETATM   13  C   UNL     1      -8.586   7.962  68.705  1.00  0.00    -0.128 A  
HETATM   14  C   UNL     1      -8.679   9.247  68.154  1.00  0.00    -0.125 A  
BRANCH  12  15
HETATM   15  C   UNL     1      -9.477   5.610  68.926  1.00  0.00    -0.157 C  
HETATM   16 CL   UNL     1      -9.929   3.872  70.978  1.00  0.00    -0.212 Cl 
HETATM   17  C   UNL     1     -10.023   5.402  70.151  1.00  0.00    -0.232 C  
BRANCH  15  18
HETATM   18  C   UNL     1      -8.784   4.507  68.210  1.00  0.00    -0.113 A  
HETATM   19  C   UNL     1      -9.490   3.673  67.331  1.00  0.00    -0.238 A  
HETATM   20  C   UNL     1      -7.418   4.276  68.422  1.00  0.00    -0.064 A  
HETATM   21  C   UNL     1      -6.766   3.234  67.755  1.00  0.00    -0.042 A  
HETATM   22  C   UNL     1      -8.835   2.632  66.666  1.00  0.00    -0.140 A  
HETATM   23  C   UNL     1      -7.475   2.415  66.878  1.00  0.00    -0.065 A  
ENDBRANCH  15  18
BRANCH  17  24
HETATM   24  C   UNL     1     -10.760   6.432  70.914  1.00  0.00    -0.301 A  
HETATM   25  C   UNL     1     -12.155   8.294  72.477  1.00  0.00    -0.400 A  
HETATM   26  C   UNL     1     -10.092   7.180  71.893  1.00  0.00    -0.197 A  
HETATM   27  C   UNL     1     -10.789   8.106  72.673  1.00  0.00    -0.429 A  
HETATM   28  C   UNL     1     -12.823   7.578  71.486  1.00  0.00    -0.397 A  
HETATM   29  C   UNL     1     -12.127   6.652  70.701  1.00  0.00    -0.342 A  
ENDBRANCH  17  24
ENDBRANCH  12  15
ENDBRANCH   8   9
ENDBRANCH   7   8
ENDBRANCH   6   7
ENDBRANCH   3   6
ENDBRANCH   2   3
TORSDOF 9
ENDMDL
MODEL      133
REMARK 921   NORMALIZED FREE ENERGY PREDICTED BY IDOCK:   -3.69 KCAL/MOL
REMARK 922        TOTAL FREE ENERGY PREDICTED BY IDOCK:   -7.77 KCAL/MOL
REMARK 923 INTER-LIGAND FREE ENERGY PREDICTED BY IDOCK:   -5.86 KCAL/MOL
REMARK 924 INTRA-LIGAND FREE ENERGY PREDICTED BY IDOCK:   -1.92 KCAL/MOL
REMARK 927      BINDING AFFINITY PREDICTED BY RF-SCORE:    0.00 PKD
ROOT
HETATM    1  C   UNL     1     -11.892  13.278  68.392  1.00  0.00    -0.395 C  
HETATM    2  C   UNL     1     -11.484  12.062  69.218  1.00  0.00    -0.301 C  
ENDROOT
BRANCH   2   3
HETATM    3  N   UNL     1     -12.075  12.015  70.563  1.00  0.00    -0.364 NA 
BRANCH   3   4
HETATM    4  C   UNL     1     -12.912  13.177  70.900  1.00  0.00    -0.066 C  
HETATM    5  C   UNL     1     -13.560  13.157  72.279  1.00  0.00    -0.677 C  
ENDBRANCH   3   4
BRANCH   3   6
HETATM    6  C   UNL     1     -12.739  10.709  70.778  1.00  0.00    -0.378 C  
BRANCH   6   7
HETATM    7  C   UNL     1     -11.861   9.700  71.528  1.00  0.00    -0.407 C  
BRANCH   7   8
HETATM    8  O   UNL     1     -12.292   8.358  71.263  1.00  0.00    -0.305 OA 
BRANCH   8   9
HETATM    9  C   UNL     1     -11.281   7.522  70.856  1.00  0.00    -0.269 A  
HETATM   10  C   UNL     1      -9.956   7.613  71.291  1.00  0.00    -0.195 A  
HETATM   11  C   UNL     1      -8.979   6.785  70.745  1.00  0.00    -0.151 A  
HETATM   12  C   UNL     1      -9.315   5.825  69.788  1.00  0.00    -0.175 A  
HETATM   13  C   UNL     1     -10.652   5.695  69.389  1.00  0.00    -0.374 A  
HETATM   14  C   UNL     1     -11.631   6.539  69.928  1.00  0.00    -0.433 A  
BRANCH  12  15
HETATM   15  C   UNL     1      -8.234   4.986  69.211  1.00  0.00    -0.083 C  
HETATM   16 CL   UNL     1      -6.539   2.853  69.308  1.00  0.00    -0.033 Cl 
HETATM   17  C   UNL     1      -7.875   3.837  69.837  1.00  0.00    -0.051 C  
BRANCH  15  18
HETATM   18  C   UNL     1      -7.504   5.449  68.001  1.00  0.00    -0.077 A  
HETATM   19  C   UNL     1      -7.914   5.043  66.723  1.00  0.00    -0.104 A  
HETATM   20  C   UNL     1      -6.384   6.281  68.127  1.00  0.00    -0.040 A  
HETATM   21  C   UNL     1      -5.691   6.711  66.991  1.00  0.00    -0.014 A  
HETATM   22  C   UNL     1      -7.219   5.474  65.589  1.00  0.00    -0.068 A  
HETATM   23  C   UNL     1      -6.111   6.308  65.725  1.00  0.00    -0.033 A  
ENDBRANCH  15  18
BRANCH  17  24
HETATM   24  C   UNL     1      -8.569   3.288  71.022  1.00  0.00    -0.112 A  
HETATM   25  C   UNL     1     -10.003   2.324  73.229  1.00  0.00    -0.172 A  
HETATM   26  C   UNL     1      -9.541   2.292  70.857  1.00  0.00    -0.185 A  
HETATM   27  C   UNL     1     -10.257   1.814  71.957  1.00  0.00    -0.215 A  
HETATM   28  C   UNL     1      -9.017   3.292  73.408  1.00  0.00    -0.090 A  
HETATM   29  C   UNL     1      -8.296   3.771  72.309  1.00  0.00    -0.089 A  
ENDBRANCH  17  24
ENDBRANCH  12  15
ENDBRANCH   8   9
ENDBRANCH   7   8
ENDBRANCH   6   7
ENDBRANCH   3   6
ENDBRANCH   2   3
TORSDOF 9
ENDMDL
MODEL      134
REMARK 921   NORMALIZED FREE ENERGY PREDICTED BY IDOCK:   -3.68 KCAL/MOL
REMARK 922        TOTAL FREE ENERGY PREDICTED BY IDOCK:   -7.76 KCAL/MOL
REMARK 923 INTER-LIGAND FREE ENERGY PREDICTED BY IDOCK:   -5.48 KCAL/MOL
REMARK 924 INTRA-LIGAND FREE ENERGY PREDICTED BY IDOCK:   -2.28 KCAL/MOL
REMARK 927      BINDING AFFINITY PREDICTED BY RF-SCORE:    0.00 PKD
ROOT
HETATM    1  C   UNL     1      -5.773   5.418  62.804  1.00  0.00    -0.014 C  
HETATM    2  C   UNL     1      -6.304   4.988  64.168  1.00  0.00    -0.023 C  
ENDROOT
BRANCH   2   3
HETATM    3  N   UNL     1      -6.637   6.103  65.068  1.00  0.00    -0.042 NA 
BRANCH   3   4
HETATM    4  C   UNL     1      -7.288   5.697  66.323  1.00  0.00    -0.078 C  
HETATM    5  C   UNL     1      -7.931   6.814  67.135  1.00  0.00    -0.116 C  
ENDBRANCH   3   4
BRANCH   3   6
HETATM    6  C   UNL     1      -5.454   6.972  65.254  1.00  0.00    -0.028 C  
BRANCH   6   7
HETATM    7  C   UNL     1      -5.640   8.379  64.674  1.00  0.00    -0.048 C  
BRANCH   7   8
HETATM    8  O   UNL     1      -6.942   8.520  64.091  1.00  0.00    -0.077 OA 
BRANCH   8   9
HETATM    9  C   UNL     1      -7.774   9.361  64.789  1.00  0.00    -0.116 A  
HETATM   10  C   UNL     1      -9.170   9.287  64.772  1.00  0.00    -0.160 A  
HETATM   11  C   UNL     1      -9.933  10.247  65.430  1.00  0.00    -0.371 A  
HETATM   12  C   UNL     1      -9.317  11.272  66.152  1.00  0.00    -0.230 A  
HETATM   13  C   UNL     1      -7.917  11.317  66.217  1.00  0.00    -0.086 A  
HETATM   14  C   UNL     1      -7.151  10.359  65.541  1.00  0.00    -0.133 A  
BRANCH  12  15
HETATM   15  C   UNL     1     -10.170  12.291  66.812  1.00  0.00    -0.229 C  
HETATM   16 CL   UNL     1     -11.798  13.112  68.840  1.00  0.00    -0.354 Cl 
HETATM   17  C   UNL     1     -10.688  12.035  68.040  1.00  0.00    -0.212 C  
BRANCH  15  18
HETATM   18  C   UNL     1     -10.514  13.546  66.094  1.00  0.00    -0.296 A  
HETATM   19  C   UNL     1     -11.614  13.593  65.225  1.00  0.00    -0.334 A  
HETATM   20  C   UNL     1      -9.729  14.695  66.262  1.00  0.00    -0.329 A  
HETATM   21  C   UNL     1     -10.046  15.875  65.582  1.00  0.00    -0.388 A  
HETATM   22  C   UNL     1     -11.928  14.773  64.546  1.00  0.00    -0.451 A  
HETATM   23  C   UNL     1     -11.145  15.912  64.726  1.00  0.00    -0.397 A  
ENDBRANCH  15  18
BRANCH  17  24
HETATM   24  C   UNL     1     -10.371  10.830  68.837  1.00  0.00    -0.220 A  
HETATM   25  C   UNL     1      -9.701   8.492  70.230  1.00  0.00    -0.182 A  
HETATM   26  C   UNL     1      -9.061  10.625  69.294  1.00  0.00    -0.117 A  
HETATM   27  C   UNL     1      -8.728   9.458  69.985  1.00  0.00    -0.227 A  
HETATM   28  C   UNL     1     -11.013   8.699  69.808  1.00  0.00    -0.132 A  
HETATM   29  C   UNL     1     -11.350   9.868  69.117  1.00  0.00    -0.088 A  
ENDBRANCH  17  24
ENDBRANCH  12  15
ENDBRANCH   8   9
ENDBRANCH   7   8
ENDBRANCH   6   7
ENDBRANCH   3   6
ENDBRANCH   2   3
TORSDOF 9
ENDMDL
MODEL      135
REMARK 921   NORMALIZED FREE ENERGY PREDICTED BY IDOCK:   -3.68 KCAL/MOL
REMARK 922        TOTAL FREE ENERGY PREDICTED BY IDOCK:   -7.75 KCAL/MOL
REMARK 923 INTER-LIGAND FREE ENERGY PREDICTED BY IDOCK:   -6.66 KCAL/MOL
REMARK 924 INTRA-LIGAND FREE ENERGY PREDICTED BY IDOCK:   -1.09 KCAL/MOL
REMARK 927      BINDING AFFINITY PREDICTED BY RF-SCORE:    0.00 PKD
ROOT
HETATM    1  C   UNL     1      -8.551  20.004  67.033  1.00  0.00    -0.399 C  
HETATM    2  C   UNL     1      -8.042  18.891  67.944  1.00  0.00    -0.272 C  
ENDROOT
BRANCH   2   3
HETATM    3  N   UNL     1      -6.688  19.112  68.474  1.00  0.00    -0.258 NA 
BRANCH   3   4
HETATM    4  C   UNL     1      -6.432  20.486  68.934  1.00  0.00    -0.212 C  
HETATM    5  C   UNL     1      -5.498  20.628  70.130  1.00  0.00    -0.359 C  
ENDBRANCH   3   4
BRANCH   3   6
HETATM    6  C   UNL     1      -6.359  18.070  69.472  1.00  0.00    -0.215 C  
BRANCH   6   7
HETATM    7  C   UNL     1      -6.006  16.718  68.842  1.00  0.00    -0.156 C  
BRANCH   7   8
HETATM    8  O   UNL     1      -6.997  16.333  67.878  1.00  0.00    -0.126 OA 
BRANCH   8   9
HETATM    9  C   UNL     1      -7.411  15.029  68.000  1.00  0.00    -0.127 A  
HETATM   10  C   UNL     1      -6.667  13.921  67.584  1.00  0.00    -0.189 A  
HETATM   11  C   UNL     1      -7.213  12.642  67.653  1.00  0.00    -0.142 A  
HETATM   12  C   UNL     1      -8.492  12.443  68.179  1.00  0.00    -0.180 A  
HETATM   13  C   UNL     1      -9.219  13.546  68.648  1.00  0.00    -0.022 A  
HETATM   14  C   UNL     1      -8.674  14.834  68.562  1.00  0.00    -0.174 A  
BRANCH  12  15
HETATM   15  C   UNL     1      -9.045  11.066  68.205  1.00  0.00    -0.155 C  
HETATM   16 CL   UNL     1     -10.797   9.165  67.338  1.00  0.00    -0.244 Cl 
HETATM   17  C   UNL     1     -10.001  10.713  67.308  1.00  0.00    -0.188 C  
BRANCH  15  18
HETATM   18  C   UNL     1      -8.607  10.112  69.257  1.00  0.00    -0.180 A  
HETATM   19  C   UNL     1      -9.488   9.720  70.276  1.00  0.00    -0.250 A  
HETATM   20  C   UNL     1      -7.300   9.607  69.254  1.00  0.00    -0.079 A  
HETATM   21  C   UNL     1      -6.883   8.715  70.248  1.00  0.00    -0.040 A  
HETATM   22  C   UNL     1      -9.069   8.829  71.268  1.00  0.00    -0.300 A  
HETATM   23  C   UNL     1      -7.768   8.327  71.252  1.00  0.00    -0.106 A  
ENDBRANCH  15  18
BRANCH  17  24
HETATM   24  C   UNL     1     -10.467  11.587  66.210  1.00  0.00    -0.294 A  
HETATM   25  C   UNL     1     -11.445  13.136  64.089  1.00  0.00    -0.449 A  
HETATM   26  C   UNL     1     -11.715  12.218  66.308  1.00  0.00    -0.431 A  
HETATM   27  C   UNL     1     -12.203  12.988  65.249  1.00  0.00    -0.513 A  
HETATM   28  C   UNL     1     -10.191  12.538  63.993  1.00  0.00    -0.390 A  
HETATM   29  C   UNL     1      -9.698  11.769  65.053  1.00  0.00    -0.212 A  
ENDBRANCH  17  24
ENDBRANCH  12  15
ENDBRANCH   8   9
ENDBRANCH   7   8
ENDBRANCH   6   7
ENDBRANCH   3   6
ENDBRANCH   2   3
TORSDOF 9
ENDMDL
MODEL      136
REMARK 921   NORMALIZED FREE ENERGY PREDICTED BY IDOCK:   -3.66 KCAL/MOL
REMARK 922        TOTAL FREE ENERGY PREDICTED BY IDOCK:   -7.72 KCAL/MOL
REMARK 923 INTER-LIGAND FREE ENERGY PREDICTED BY IDOCK:   -5.30 KCAL/MOL
REMARK 924 INTRA-LIGAND FREE ENERGY PREDICTED BY IDOCK:   -2.42 KCAL/MOL
REMARK 927      BINDING AFFINITY PREDICTED BY RF-SCORE:    0.00 PKD
ROOT
HETATM    1  C   UNL     1     -11.360   5.993  70.542  1.00  0.00    -0.310 C  
HETATM    2  C   UNL     1     -11.627   5.797  72.032  1.00  0.00    -0.162 C  
ENDROOT
BRANCH   2   3
HETATM    3  N   UNL     1     -10.614   4.991  72.729  1.00  0.00    -0.210 NA 
BRANCH   3   4
HETATM    4  C   UNL     1      -9.672   4.295  71.839  1.00  0.00    -0.165 C  
HETATM    5  C   UNL     1      -9.832   2.782  71.748  1.00  0.00    -0.220 C  
ENDBRANCH   3   4
BRANCH   3   6
HETATM    6  C   UNL     1      -9.964   5.801  73.784  1.00  0.00    -0.197 C  
BRANCH   6   7
HETATM    7  C   UNL     1     -10.410   7.267  73.784  1.00  0.00    -0.313 C  
BRANCH   7   8
HETATM    8  O   UNL     1      -9.280   8.142  73.667  1.00  0.00    -0.246 OA 
BRANCH   8   9
HETATM    9  C   UNL     1      -9.049   8.580  72.386  1.00  0.00    -0.238 A  
HETATM   10  C   UNL     1      -7.786   8.667  71.796  1.00  0.00    -0.131 A  
HETATM   11  C   UNL     1      -7.639   9.221  70.526  1.00  0.00    -0.147 A  
HETATM   12  C   UNL     1      -8.755   9.657  69.808  1.00  0.00    -0.221 A  
HETATM   13  C   UNL     1     -10.030   9.520  70.375  1.00  0.00    -0.325 A  
HETATM   14  C   UNL     1     -10.173   8.977  71.659  1.00  0.00    -0.418 A  
BRANCH  12  15
HETATM   15  C   UNL     1      -8.548  10.269  68.472  1.00  0.00    -0.126 C  
HETATM   16 CL   UNL     1      -7.866  10.108  65.837  1.00  0.00    -0.126 Cl 
HETATM   17  C   UNL     1      -8.248   9.475  67.413  1.00  0.00    -0.114 C  
BRANCH  15  18
HETATM   18  C   UNL     1      -8.593  11.747  68.320  1.00  0.00    -0.162 A  
HETATM   19  C   UNL     1      -7.454  12.525  68.570  1.00  0.00    -0.122 A  
HETATM   20  C   UNL     1      -9.784  12.382  67.942  1.00  0.00    -0.204 A  
HETATM   21  C   UNL     1      -9.830  13.774  67.806  1.00  0.00    -0.234 A  
HETATM   22  C   UNL     1      -7.503  13.915  68.434  1.00  0.00    -0.117 A  
HETATM   23  C   UNL     1      -8.690  14.536  68.050  1.00  0.00    -0.167 A  
ENDBRANCH  15  18
BRANCH  17  24
HETATM   24  C   UNL     1      -8.217   7.997  67.469  1.00  0.00    -0.123 A  
HETATM   25  C   UNL     1      -8.195   5.206  67.717  1.00  0.00    -0.098 A  
HETATM   26  C   UNL     1      -9.420   7.280  67.524  1.00  0.00    -0.151 A  
HETATM   27  C   UNL     1      -9.408   5.888  67.650  1.00  0.00    -0.107 A  
HETATM   28  C   UNL     1      -6.994   5.906  67.632  1.00  0.00    -0.069 A  
HETATM   29  C   UNL     1      -7.003   7.300  67.503  1.00  0.00    -0.075 A  
ENDBRANCH  17  24
ENDBRANCH  12  15
ENDBRANCH   8   9
ENDBRANCH   7   8
ENDBRANCH   6   7
ENDBRANCH   3   6
ENDBRANCH   2   3
TORSDOF 9
ENDMDL
MODEL      137
REMARK 921   NORMALIZED FREE ENERGY PREDICTED BY IDOCK:   -3.65 KCAL/MOL
REMARK 922        TOTAL FREE ENERGY PREDICTED BY IDOCK:   -7.71 KCAL/MOL
REMARK 923 INTER-LIGAND FREE ENERGY PREDICTED BY IDOCK:   -6.43 KCAL/MOL
REMARK 924 INTRA-LIGAND FREE ENERGY PREDICTED BY IDOCK:   -1.28 KCAL/MOL
REMARK 927      BINDING AFFINITY PREDICTED BY RF-SCORE:    0.00 PKD
ROOT
HETATM    1  C   UNL     1      -7.327   9.377  68.330  1.00  0.00    -0.078 C  
HETATM    2  C   UNL     1      -7.381   8.606  67.014  1.00  0.00    -0.080 C  
ENDROOT
BRANCH   2   3
HETATM    3  N   UNL     1      -8.359   9.126  66.046  1.00  0.00    -0.117 NA 
BRANCH   3   4
HETATM    4  C   UNL     1      -8.279   8.512  64.712  1.00  0.00    -0.162 C  
HETATM    5  C   UNL     1      -6.885   8.114  64.242  1.00  0.00    -0.066 C  
ENDBRANCH   3   4
BRANCH   3   6
HETATM    6  C   UNL     1      -9.715   9.108  66.641  1.00  0.00    -0.223 C  
BRANCH   6   7
HETATM    7  C   UNL     1     -10.380  10.489  66.672  1.00  0.00    -0.237 C  
BRANCH   7   8
HETATM    8  O   UNL     1      -9.803  11.353  65.684  1.00  0.00    -0.217 OA 
BRANCH   8   9
HETATM    9  C   UNL     1      -9.571  12.631  66.131  1.00  0.00    -0.222 A  
HETATM   10  C   UNL     1      -8.791  12.948  67.246  1.00  0.00    -0.206 A  
HETATM   11  C   UNL     1      -8.696  14.266  67.686  1.00  0.00    -0.192 A  
HETATM   12  C   UNL     1      -9.344  15.293  66.996  1.00  0.00    -0.238 A  
HETATM   13  C   UNL     1     -10.084  14.985  65.846  1.00  0.00    -0.343 A  
HETATM   14  C   UNL     1     -10.190  13.656  65.414  1.00  0.00    -0.330 A  
BRANCH  12  15
HETATM   15  C   UNL     1      -9.241  16.678  67.519  1.00  0.00    -0.207 C  
HETATM   16 CL   UNL     1     -10.047  18.683  69.182  1.00  0.00    -0.311 Cl 
HETATM   17  C   UNL     1     -10.006  17.051  68.576  1.00  0.00    -0.293 C  
BRANCH  15  18
HETATM   18  C   UNL     1      -8.364  17.665  66.835  1.00  0.00    -0.258 A  
HETATM   19  C   UNL     1      -8.852  18.932  66.487  1.00  0.00    -0.324 A  
HETATM   20  C   UNL     1      -7.042  17.330  66.513  1.00  0.00    -0.300 A  
HETATM   21  C   UNL     1      -6.217  18.254  65.863  1.00  0.00    -0.272 A  
HETATM   22  C   UNL     1      -8.026  19.853  65.837  1.00  0.00    -0.288 A  
HETATM   23  C   UNL     1      -6.710  19.513  65.528  1.00  0.00    -0.310 A  
ENDBRANCH  15  18
BRANCH  17  24
HETATM   24  C   UNL     1     -10.877  16.127  69.334  1.00  0.00    -0.320 A  
HETATM   25  C   UNL     1     -12.419  14.278  70.768  1.00  0.00    -0.428 A  
HETATM   26  C   UNL     1     -10.629  15.899  70.695  1.00  0.00    -0.010 A  
HETATM   27  C   UNL     1     -11.397  14.975  71.408  1.00  0.00    -0.327 A  
HETATM   28  C   UNL     1     -12.695  14.520  69.424  1.00  0.00     0.206 A  
HETATM   29  C   UNL     1     -11.929  15.447  68.708  1.00  0.00    -0.278 A  
ENDBRANCH  17  24
ENDBRANCH  12  15
ENDBRANCH   8   9
ENDBRANCH   7   8
ENDBRANCH   6   7
ENDBRANCH   3   6
ENDBRANCH   2   3
TORSDOF 9
ENDMDL
MODEL      138
REMARK 921   NORMALIZED FREE ENERGY PREDICTED BY IDOCK:   -3.64 KCAL/MOL
REMARK 922        TOTAL FREE ENERGY PREDICTED BY IDOCK:   -7.70 KCAL/MOL
REMARK 923 INTER-LIGAND FREE ENERGY PREDICTED BY IDOCK:   -5.38 KCAL/MOL
REMARK 924 INTRA-LIGAND FREE ENERGY PREDICTED BY IDOCK:   -2.32 KCAL/MOL
REMARK 927      BINDING AFFINITY PREDICTED BY RF-SCORE:    0.00 PKD
ROOT
HETATM    1  C   UNL     1      -7.655   2.345  67.674  1.00  0.00    -0.060 C  
HETATM    2  C   UNL     1      -8.193   1.881  66.324  1.00  0.00    -0.085 C  
ENDROOT
BRANCH   2   3
HETATM    3  N   UNL     1      -8.002   2.846  65.231  1.00  0.00    -0.082 NA 
BRANCH   3   4
HETATM    4  C   UNL     1      -6.862   2.551  64.351  1.00  0.00    -0.043 C  
HETATM    5  C   UNL     1      -6.016   3.747  63.928  1.00  0.00    -0.014 C  
ENDBRANCH   3   4
BRANCH   3   6
HETATM    6  C   UNL     1      -9.281   3.056  64.514  1.00  0.00    -0.140 C  
BRANCH   6   7
HETATM    7  C   UNL     1     -10.173   4.119  65.165  1.00  0.00    -0.204 C  
BRANCH   7   8
HETATM    8  O   UNL     1      -9.424   5.311  65.440  1.00  0.00    -0.108 OA 
BRANCH   8   9
HETATM    9  C   UNL     1      -9.457   5.695  66.758  1.00  0.00    -0.141 A  
HETATM   10  C   UNL     1      -8.327   5.838  67.569  1.00  0.00    -0.104 A  
HETATM   11  C   UNL     1      -8.466   6.132  68.923  1.00  0.00    -0.118 A  
HETATM   12  C   UNL     1      -9.731   6.330  69.480  1.00  0.00    -0.169 A  
HETATM   13  C   UNL     1     -10.863   6.241  68.659  1.00  0.00    -0.401 A  
HETATM   14  C   UNL     1     -10.722   5.930  67.300  1.00  0.00    -0.380 A  
BRANCH  12  15
HETATM   15  C   UNL     1      -9.832   6.610  70.934  1.00  0.00    -0.197 C  
HETATM   16 CL   UNL     1      -9.674   8.296  73.072  1.00  0.00    -0.321 Cl 
HETATM   17  C   UNL     1      -9.694   7.884  71.380  1.00  0.00    -0.164 C  
BRANCH  15  18
HETATM   18  C   UNL     1     -10.005   5.488  71.894  1.00  0.00    -0.227 A  
HETATM   19  C   UNL     1      -8.956   4.589  72.136  1.00  0.00    -0.145 A  
HETATM   20  C   UNL     1     -11.227   5.306  72.555  1.00  0.00    -0.272 A  
HETATM   21  C   UNL     1     -11.394   4.246  73.453  1.00  0.00    -0.324 A  
HETATM   22  C   UNL     1      -9.126   3.531  73.033  1.00  0.00    -0.113 A  
HETATM   23  C   UNL     1     -10.343   3.362  73.691  1.00  0.00    -0.232 A  
ENDBRANCH  15  18
BRANCH  17  24
HETATM   24  C   UNL     1      -9.555   9.060  70.494  1.00  0.00    -0.264 A  
HETATM   25  C   UNL     1      -9.323  11.202  68.701  1.00  0.00    -0.186 A  
HETATM   26  C   UNL     1     -10.700   9.665  69.957  1.00  0.00    -0.298 A  
HETATM   27  C   UNL     1     -10.583  10.731  69.062  1.00  0.00    -0.250 A  
HETATM   28  C   UNL     1      -8.179  10.629  69.252  1.00  0.00    -0.122 A  
HETATM   29  C   UNL     1      -8.293   9.563  70.152  1.00  0.00    -0.212 A  
ENDBRANCH  17  24
ENDBRANCH  12  15
ENDBRANCH   8   9
ENDBRANCH   7   8
ENDBRANCH   6   7
ENDBRANCH   3   6
ENDBRANCH   2   3
TORSDOF 9
ENDMDL
MODEL      139
REMARK 921   NORMALIZED FREE ENERGY PREDICTED BY IDOCK:   -3.63 KCAL/MOL
REMARK 922        TOTAL FREE ENERGY PREDICTED BY IDOCK:   -7.69 KCAL/MOL
REMARK 923 INTER-LIGAND FREE ENERGY PREDICTED BY IDOCK:   -5.49 KCAL/MOL
REMARK 924 INTRA-LIGAND FREE ENERGY PREDICTED BY IDOCK:   -2.19 KCAL/MOL
REMARK 927      BINDING AFFINITY PREDICTED BY RF-SCORE:    0.00 PKD
ROOT
HETATM    1  C   UNL     1      -9.196   8.783  71.794  1.00  0.00    -0.332 C  
HETATM    2  C   UNL     1     -10.187   7.971  72.623  1.00  0.00    -0.316 C  
ENDROOT
BRANCH   2   3
HETATM    3  N   UNL     1     -11.595   8.157  72.237  1.00  0.00    -0.348 NA 
BRANCH   3   4
HETATM    4  C   UNL     1     -11.830   9.279  71.317  1.00  0.00    -0.343 C  
HETATM    5  C   UNL     1     -12.955  10.234  71.701  1.00  0.00    -0.570 C  
ENDBRANCH   3   4
BRANCH   3   6
HETATM    6  C   UNL     1     -12.167   6.870  71.781  1.00  0.00    -0.356 C  
BRANCH   6   7
HETATM    7  C   UNL     1     -11.983   6.624  70.280  1.00  0.00    -0.240 C  
BRANCH   7   8
HETATM    8  O   UNL     1     -11.067   5.544  70.051  1.00  0.00    -0.256 OA 
BRANCH   8   9
HETATM    9  C   UNL     1     -10.303   5.696  68.919  1.00  0.00    -0.225 A  
HETATM   10  C   UNL     1      -8.929   5.451  68.854  1.00  0.00    -0.130 A  
HETATM   11  C   UNL     1      -8.219   5.731  67.690  1.00  0.00    -0.101 A  
HETATM   12  C   UNL     1      -8.876   6.220  66.558  1.00  0.00    -0.140 A  
HETATM   13  C   UNL     1     -10.263   6.416  66.603  1.00  0.00    -0.216 A  
HETATM   14  C   UNL     1     -10.972   6.148  67.780  1.00  0.00    -0.400 A  
BRANCH  12  15
HETATM   15  C   UNL     1      -8.073   6.535  65.349  1.00  0.00    -0.129 C  
HETATM   16 CL   UNL     1      -6.853   5.809  63.022  1.00  0.00    -0.032 Cl 
HETATM   17  C   UNL     1      -7.879   5.576  64.409  1.00  0.00    -0.110 C  
BRANCH  15  18
HETATM   18  C   UNL     1      -7.426   7.867  65.216  1.00  0.00    -0.081 A  
HETATM   19  C   UNL     1      -6.153   8.098  65.756  1.00  0.00    -0.041 A  
HETATM   20  C   UNL     1      -8.093   8.913  64.565  1.00  0.00    -0.150 A  
HETATM   21  C   UNL     1      -7.489  10.169  64.444  1.00  0.00    -0.123 A  
HETATM   22  C   UNL     1      -5.552   9.355  65.634  1.00  0.00    -0.048 A  
HETATM   23  C   UNL     1      -6.220  10.387  64.978  1.00  0.00    -0.105 A  
ENDBRANCH  15  18
BRANCH  17  24
HETATM   24  C   UNL     1      -8.512   4.240  64.447  1.00  0.00    -0.112 A  
HETATM   25  C   UNL     1      -9.615   1.664  64.416  1.00  0.00    -0.098 A  
HETATM   26  C   UNL     1      -7.850   3.176  65.076  1.00  0.00    -0.082 A  
HETATM   27  C   UNL     1      -8.400   1.892  65.058  1.00  0.00    -0.084 A  
HETATM   28  C   UNL     1     -10.296   2.719  63.814  1.00  0.00    -0.164 A  
HETATM   29  C   UNL     1      -9.749   4.008  63.833  1.00  0.00    -0.157 A  
ENDBRANCH  17  24
ENDBRANCH  12  15
ENDBRANCH   8   9
ENDBRANCH   7   8
ENDBRANCH   6   7
ENDBRANCH   3   6
ENDBRANCH   2   3
TORSDOF 9
ENDMDL
MODEL      140
REMARK 921   NORMALIZED FREE ENERGY PREDICTED BY IDOCK:   -3.63 KCAL/MOL
REMARK 922        TOTAL FREE ENERGY PREDICTED BY IDOCK:   -7.68 KCAL/MOL
REMARK 923 INTER-LIGAND FREE ENERGY PREDICTED BY IDOCK:   -5.38 KCAL/MOL
REMARK 924 INTRA-LIGAND FREE ENERGY PREDICTED BY IDOCK:   -2.30 KCAL/MOL
REMARK 927      BINDING AFFINITY PREDICTED BY RF-SCORE:    0.00 PKD
ROOT
HETATM    1  C   UNL     1      -8.400   1.962  67.618  1.00  0.00    -0.081 C  
HETATM    2  C   UNL     1      -8.132   1.887  66.118  1.00  0.00    -0.081 C  
ENDROOT
BRANCH   2   3
HETATM    3  N   UNL     1      -7.790   3.176  65.497  1.00  0.00    -0.084 NA 
BRANCH   3   4
HETATM    4  C   UNL     1      -6.466   3.210  64.856  1.00  0.00    -0.035 C  
HETATM    5  C   UNL     1      -5.785   4.572  64.801  1.00  0.00    -0.014 C  
ENDBRANCH   3   4
BRANCH   3   6
HETATM    6  C   UNL     1      -8.897   3.625  64.624  1.00  0.00    -0.119 C  
BRANCH   6   7
HETATM    7  C   UNL     1      -9.902   4.534  65.339  1.00  0.00    -0.191 C  
BRANCH   7   8
HETATM    8  O   UNL     1      -9.272   5.749  65.768  1.00  0.00    -0.148 OA 
BRANCH   8   9
HETATM    9  C   UNL     1      -9.509   6.063  67.084  1.00  0.00    -0.118 A  
HETATM   10  C   UNL     1     -10.527   5.500  67.859  1.00  0.00    -0.244 A  
HETATM   11  C   UNL     1     -10.757   5.955  69.155  1.00  0.00    -0.394 A  
HETATM   12  C   UNL     1      -9.948   6.948  69.712  1.00  0.00    -0.187 A  
HETATM   13  C   UNL     1      -8.893   7.477  68.956  1.00  0.00    -0.132 A  
HETATM   14  C   UNL     1      -8.673   7.028  67.647  1.00  0.00    -0.121 A  
BRANCH  12  15
HETATM   15  C   UNL     1     -10.250   7.424  71.086  1.00  0.00    -0.199 C  
HETATM   16 CL   UNL     1      -9.854   7.382  73.783  1.00  0.00    -0.347 Cl 
HETATM   17  C   UNL     1      -9.501   6.979  72.126  1.00  0.00    -0.137 C  
BRANCH  15  18
HETATM   18  C   UNL     1     -11.413   8.320  71.320  1.00  0.00    -0.314 A  
HETATM   19  C   UNL     1     -12.690   7.785  71.548  1.00  0.00    -0.355 A  
HETATM   20  C   UNL     1     -11.250   9.711  71.295  1.00  0.00    -0.446 A  
HETATM   21  C   UNL     1     -12.345  10.555  71.508  1.00  0.00    -0.443 A  
HETATM   22  C   UNL     1     -13.782   8.631  71.760  1.00  0.00    -0.456 A  
HETATM   23  C   UNL     1     -13.608  10.014  71.741  1.00  0.00    -0.330 A  
ENDBRANCH  15  18
BRANCH  17  24
HETATM   24  C   UNL     1      -8.309   6.117  71.978  1.00  0.00    -0.114 A  
HETATM   25  C   UNL     1      -6.027   4.542  71.566  1.00  0.00    -0.017 A  
HETATM   26  C   UNL     1      -7.029   6.678  72.088  1.00  0.00    -0.072 A  
HETATM   27  C   UNL     1      -5.892   5.893  71.880  1.00  0.00    -0.031 A  
HETATM   28  C   UNL     1      -7.293   3.967  71.485  1.00  0.00    -0.054 A  
HETATM   29  C   UNL     1      -8.434   4.751  71.696  1.00  0.00    -0.121 A  
ENDBRANCH  17  24
ENDBRANCH  12  15
ENDBRANCH   8   9
ENDBRANCH   7   8
ENDBRANCH   6   7
ENDBRANCH   3   6
ENDBRANCH   2   3
TORSDOF 9
ENDMDL
MODEL      141
REMARK 921   NORMALIZED FREE ENERGY PREDICTED BY IDOCK:   -3.57 KCAL/MOL
REMARK 922        TOTAL FREE ENERGY PREDICTED BY IDOCK:   -7.58 KCAL/MOL
REMARK 923 INTER-LIGAND FREE ENERGY PREDICTED BY IDOCK:   -5.93 KCAL/MOL
REMARK 924 INTRA-LIGAND FREE ENERGY PREDICTED BY IDOCK:   -1.65 KCAL/MOL
REMARK 927      BINDING AFFINITY PREDICTED BY RF-SCORE:    0.00 PKD
ROOT
HETATM    1  C   UNL     1     -10.019   2.396  72.358  1.00  0.00    -0.221 C  
HETATM    2  C   UNL     1     -10.779   3.714  72.462  1.00  0.00     0.062 C  
ENDROOT
BRANCH   2   3
HETATM    3  N   UNL     1     -10.266   4.631  73.492  1.00  0.00    -0.161 NA 
BRANCH   3   4
HETATM    4  C   UNL     1      -8.809   4.575  73.684  1.00  0.00    -0.105 C  
HETATM    5  C   UNL     1      -7.998   5.642  72.959  1.00  0.00    -0.104 C  
ENDBRANCH   3   4
BRANCH   3   6
HETATM    6  C   UNL     1     -10.795   5.994  73.263  1.00  0.00    -0.252 C  
BRANCH   6   7
HETATM    7  C   UNL     1     -11.333   6.204  71.843  1.00  0.00    -0.296 C  
BRANCH   7   8
HETATM    8  O   UNL     1     -11.757   7.562  71.657  1.00  0.00    -0.265 OA 
BRANCH   8   9
HETATM    9  C   UNL     1     -11.262   8.146  70.517  1.00  0.00    -0.247 A  
HETATM   10  C   UNL     1     -11.009   7.462  69.324  1.00  0.00    -0.091 A  
HETATM   11  C   UNL     1     -10.409   8.117  68.252  1.00  0.00    -0.241 A  
HETATM   12  C   UNL     1     -10.092   9.475  68.337  1.00  0.00    -0.199 A  
HETATM   13  C   UNL     1     -10.394  10.176  69.512  1.00  0.00    -0.263 A  
HETATM   14  C   UNL     1     -10.983   9.511  70.595  1.00  0.00    -0.370 A  
BRANCH  12  15
HETATM   15  C   UNL     1      -9.426  10.124  67.180  1.00  0.00    -0.185 C  
HETATM   16 CL   UNL     1      -7.194  10.921  65.831  1.00  0.00    -0.088 Cl 
HETATM   17  C   UNL     1      -8.073  10.085  67.081  1.00  0.00    -0.117 C  
BRANCH  15  18
HETATM   18  C   UNL     1     -10.235  10.876  66.186  1.00  0.00    -0.304 A  
HETATM   19  C   UNL     1     -10.058  10.660  64.812  1.00  0.00    -0.412 A  
HETATM   20  C   UNL     1     -11.173  11.826  66.612  1.00  0.00    -0.383 A  
HETATM   21  C   UNL     1     -11.931  12.540  65.678  1.00  0.00    -0.492 A  
HETATM   22  C   UNL     1     -10.816  11.376  63.880  1.00  0.00    -0.463 A  
HETATM   23  C   UNL     1     -11.751  12.313  64.315  1.00  0.00    -0.456 A  
ENDBRANCH  15  18
BRANCH  17  24
HETATM   24  C   UNL     1      -7.197   9.332  68.004  1.00  0.00    -0.079 A  
HETATM   25  C   UNL     1      -5.421   7.976  69.697  1.00  0.00    -0.023 A  
HETATM   26  C   UNL     1      -6.636   9.981  69.113  1.00  0.00    -0.053 A  
HETATM   27  C   UNL     1      -5.749   9.305  69.954  1.00  0.00    -0.031 A  
HETATM   28  C   UNL     1      -5.997   7.312  68.616  1.00  0.00    -0.026 A  
HETATM   29  C   UNL     1      -6.888   7.986  67.772  1.00  0.00    -0.070 A  
ENDBRANCH  17  24
ENDBRANCH  12  15
ENDBRANCH   8   9
ENDBRANCH   7   8
ENDBRANCH   6   7
ENDBRANCH   3   6
ENDBRANCH   2   3
TORSDOF 9
ENDMDL
MODEL      142
REMARK 921   NORMALIZED FREE ENERGY PREDICTED BY IDOCK:   -3.55 KCAL/MOL
REMARK 922        TOTAL FREE ENERGY PREDICTED BY IDOCK:   -7.55 KCAL/MOL
REMARK 923 INTER-LIGAND FREE ENERGY PREDICTED BY IDOCK:   -5.66 KCAL/MOL
REMARK 924 INTRA-LIGAND FREE ENERGY PREDICTED BY IDOCK:   -1.89 KCAL/MOL
REMARK 927      BINDING AFFINITY PREDICTED BY RF-SCORE:    0.00 PKD
ROOT
HETATM    1  C   UNL     1     -12.300   6.527  70.969  1.00  0.00    -0.167 C  
HETATM    2  C   UNL     1     -11.039   6.085  70.232  1.00  0.00    -0.345 C  
ENDROOT
BRANCH   2   3
HETATM    3  N   UNL     1      -9.935   5.675  71.112  1.00  0.00    -0.183 NA 
BRANCH   3   4
HETATM    4  C   UNL     1      -9.993   4.271  71.547  1.00  0.00    -0.173 C  
HETATM    5  C   UNL     1     -10.477   4.032  72.972  1.00  0.00    -0.250 C  
ENDBRANCH   3   4
BRANCH   3   6
HETATM    6  C   UNL     1      -8.640   6.070  70.514  1.00  0.00    -0.137 C  
BRANCH   6   7
HETATM    7  C   UNL     1      -7.932   7.190  71.285  1.00  0.00    -0.102 C  
BRANCH   7   8
HETATM    8  O   UNL     1      -8.866   8.206  71.674  1.00  0.00    -0.131 OA 
BRANCH   8   9
HETATM    9  C   UNL     1      -9.065   9.172  70.719  1.00  0.00    -0.255 A  
HETATM   10  C   UNL     1      -8.041   9.797  70.002  1.00  0.00    -0.203 A  
HETATM   11  C   UNL     1      -8.331  10.840  69.126  1.00  0.00    -0.111 A  
HETATM   12  C   UNL     1      -9.651  11.246  68.919  1.00  0.00    -0.119 A  
HETATM   13  C   UNL     1     -10.685  10.585  69.595  1.00  0.00    -0.302 A  
HETATM   14  C   UNL     1     -10.390   9.547  70.488  1.00  0.00    -0.350 A  
BRANCH  12  15
HETATM   15  C   UNL     1      -9.910  12.383  67.999  1.00  0.00    -0.205 C  
HETATM   16 CL   UNL     1      -9.824  13.545  65.534  1.00  0.00    -0.217 Cl 
HETATM   17  C   UNL     1      -9.669  12.236  66.672  1.00  0.00    -0.222 C  
BRANCH  15  18
HETATM   18  C   UNL     1     -10.355  13.691  68.547  1.00  0.00    -0.244 A  
HETATM   19  C   UNL     1     -11.692  13.892  68.918  1.00  0.00    -0.373 A  
HETATM   20  C   UNL     1      -9.444  14.748  68.679  1.00  0.00    -0.213 A  
HETATM   21  C   UNL     1      -9.862  15.982  69.187  1.00  0.00    -0.247 A  
HETATM   22  C   UNL     1     -12.107  15.127  69.425  1.00  0.00    -0.293 A  
HETATM   23  C   UNL     1     -11.191  16.169  69.560  1.00  0.00    -0.337 A  
ENDBRANCH  15  18
BRANCH  17  24
HETATM   24  C   UNL     1      -9.260  10.962  66.041  1.00  0.00    -0.210 A  
HETATM   25  C   UNL     1      -8.494   8.615  64.715  1.00  0.00    -0.168 A  
HETATM   26  C   UNL     1      -7.963  10.828  65.527  1.00  0.00    -0.064 A  
HETATM   27  C   UNL     1      -7.583   9.659  64.864  1.00  0.00    -0.117 A  
HETATM   28  C   UNL     1      -9.775   8.725  65.249  1.00  0.00     0.390 A  
HETATM   29  C   UNL     1     -10.158   9.895  65.917  1.00  0.00    -0.316 A  
ENDBRANCH  17  24
ENDBRANCH  12  15
ENDBRANCH   8   9
ENDBRANCH   7   8
ENDBRANCH   6   7
ENDBRANCH   3   6
ENDBRANCH   2   3
TORSDOF 9
ENDMDL
MODEL      143
REMARK 921   NORMALIZED FREE ENERGY PREDICTED BY IDOCK:   -3.54 KCAL/MOL
REMARK 922        TOTAL FREE ENERGY PREDICTED BY IDOCK:   -7.54 KCAL/MOL
REMARK 923 INTER-LIGAND FREE ENERGY PREDICTED BY IDOCK:   -5.57 KCAL/MOL
REMARK 924 INTRA-LIGAND FREE ENERGY PREDICTED BY IDOCK:   -1.97 KCAL/MOL
REMARK 927      BINDING AFFINITY PREDICTED BY RF-SCORE:    0.00 PKD
ROOT
HETATM    1  C   UNL     1      -6.248   2.049  66.798  1.00  0.00    -0.023 C  
HETATM    2  C   UNL     1      -5.822   3.256  65.968  1.00  0.00    -0.023 C  
ENDROOT
BRANCH   2   3
HETATM    3  N   UNL     1      -6.920   4.172  65.623  1.00  0.00    -0.061 NA 
BRANCH   3   4
HETATM    4  C   UNL     1      -6.485   5.444  65.026  1.00  0.00    -0.039 C  
HETATM    5  C   UNL     1      -5.289   6.119  65.688  1.00  0.00    -0.013 C  
ENDBRANCH   3   4
BRANCH   3   6
HETATM    6  C   UNL     1      -7.947   3.454  64.835  1.00  0.00    -0.089 C  
BRANCH   6   7
HETATM    7  C   UNL     1      -9.362   3.604  65.405  1.00  0.00    -0.159 C  
BRANCH   7   8
HETATM    8  O   UNL     1      -9.318   3.821  66.822  1.00  0.00    -0.166 OA 
BRANCH   8   9
HETATM    9  C   UNL     1      -9.627   5.105  67.196  1.00  0.00    -0.146 A  
HETATM   10  C   UNL     1     -10.703   5.839  66.689  1.00  0.00    -0.333 A  
HETATM   11  C   UNL     1     -10.877   7.172  67.052  1.00  0.00    -0.382 A  
HETATM   12  C   UNL     1     -10.007   7.782  67.958  1.00  0.00    -0.210 A  
HETATM   13  C   UNL     1      -8.959   7.032  68.510  1.00  0.00    -0.122 A  
HETATM   14  C   UNL     1      -8.776   5.696  68.132  1.00  0.00    -0.102 A  
BRANCH  12  15
HETATM   15  C   UNL     1     -10.213   9.213  68.292  1.00  0.00    -0.242 C  
HETATM   16 CL   UNL     1      -9.679  11.863  67.935  1.00  0.00    -0.186 Cl 
HETATM   17  C   UNL     1      -9.598  10.167  67.548  1.00  0.00    -0.156 C  
BRANCH  15  18
HETATM   18  C   UNL     1     -11.024   9.588  69.480  1.00  0.00    -0.217 A  
HETATM   19  C   UNL     1     -10.842   8.928  70.704  1.00  0.00    -0.286 A  
HETATM   20  C   UNL     1     -11.995  10.593  69.384  1.00  0.00    -0.298 A  
HETATM   21  C   UNL     1     -12.765  10.941  70.499  1.00  0.00    -0.363 A  
HETATM   22  C   UNL     1     -11.613   9.278  71.817  1.00  0.00    -0.458 A  
HETATM   23  C   UNL     1     -12.571  10.284  71.713  1.00  0.00    -0.488 A  
ENDBRANCH  15  18
BRANCH  17  24
HETATM   24  C   UNL     1      -8.804   9.885  66.332  1.00  0.00    -0.159 A  
HETATM   25  C   UNL     1      -7.255   9.490  64.030  1.00  0.00    -0.111 A  
HETATM   26  C   UNL     1      -7.410   9.770  66.425  1.00  0.00    -0.095 A  
HETATM   27  C   UNL     1      -6.639   9.575  65.277  1.00  0.00    -0.082 A  
HETATM   28  C   UNL     1      -8.642   9.571  63.930  1.00  0.00    -0.226 A  
HETATM   29  C   UNL     1      -9.418   9.763  65.079  1.00  0.00    -0.337 A  
ENDBRANCH  17  24
ENDBRANCH  12  15
ENDBRANCH   8   9
ENDBRANCH   7   8
ENDBRANCH   6   7
ENDBRANCH   3   6
ENDBRANCH   2   3
TORSDOF 9
ENDMDL
MODEL      144
REMARK 921   NORMALIZED FREE ENERGY PREDICTED BY IDOCK:   -3.53 KCAL/MOL
REMARK 922        TOTAL FREE ENERGY PREDICTED BY IDOCK:   -7.52 KCAL/MOL
REMARK 923 INTER-LIGAND FREE ENERGY PREDICTED BY IDOCK:   -5.48 KCAL/MOL
REMARK 924 INTRA-LIGAND FREE ENERGY PREDICTED BY IDOCK:   -2.04 KCAL/MOL
REMARK 927      BINDING AFFINITY PREDICTED BY RF-SCORE:    0.00 PKD
ROOT
HETATM    1  C   UNL     1     -10.269  17.088  68.744  1.00  0.00    -0.317 C  
HETATM    2  C   UNL     1     -10.050  15.729  69.403  1.00  0.00    -0.268 C  
ENDROOT
BRANCH   2   3
HETATM    3  N   UNL     1     -10.597  14.593  68.647  1.00  0.00    -0.244 NA 
BRANCH   3   4
HETATM    4  C   UNL     1     -11.188  13.535  69.481  1.00  0.00    -0.132 C  
HETATM    5  C   UNL     1     -11.790  12.352  68.733  1.00  0.00    -0.358 C  
ENDBRANCH   3   4
BRANCH   3   6
HETATM    6  C   UNL     1     -11.487  15.084  67.571  1.00  0.00    -0.328 C  
BRANCH   6   7
HETATM    7  C   UNL     1     -10.789  15.199  66.212  1.00  0.00    -0.333 C  
BRANCH   7   8
HETATM    8  O   UNL     1     -11.181  14.124  65.347  1.00  0.00    -0.309 OA 
BRANCH   8   9
HETATM    9  C   UNL     1     -10.451  12.974  65.527  1.00  0.00    -0.285 A  
HETATM   10  C   UNL     1      -9.255  12.901  66.245  1.00  0.00    -0.087 A  
HETATM   11  C   UNL     1      -8.531  11.712  66.286  1.00  0.00    -0.066 A  
HETATM   12  C   UNL     1      -9.012  10.566  65.649  1.00  0.00    -0.200 A  
HETATM   13  C   UNL     1     -10.239  10.622  64.973  1.00  0.00    -0.380 A  
HETATM   14  C   UNL     1     -10.957  11.823  64.920  1.00  0.00    -0.358 A  
BRANCH  12  15
HETATM   15  C   UNL     1      -8.192   9.329  65.694  1.00  0.00    -0.119 C  
HETATM   16 CL   UNL     1      -7.160   7.179  67.015  1.00  0.00    -0.087 Cl 
HETATM   17  C   UNL     1      -8.183   8.575  66.822  1.00  0.00    -0.105 C  
BRANCH  15  18
HETATM   18  C   UNL     1      -7.331   8.970  64.537  1.00  0.00    -0.099 A  
HETATM   19  C   UNL     1      -5.979   9.343  64.511  1.00  0.00    -0.076 A  
HETATM   20  C   UNL     1      -7.866   8.269  63.448  1.00  0.00    -0.152 A  
HETATM   21  C   UNL     1      -7.059   7.936  62.355  1.00  0.00    -0.086 A  
HETATM   22  C   UNL     1      -5.175   9.010  63.417  1.00  0.00    -0.066 A  
HETATM   23  C   UNL     1      -5.716   8.306  62.342  1.00  0.00    -0.075 A  
ENDBRANCH  15  18
BRANCH  17  24
HETATM   24  C   UNL     1      -9.034   8.841  68.002  1.00  0.00    -0.141 A  
HETATM   25  C   UNL     1     -10.578   9.233  70.307  1.00  0.00    -0.278 A  
HETATM   26  C   UNL     1      -8.481   9.462  69.130  1.00  0.00    -0.134 A  
HETATM   27  C   UNL     1      -9.251   9.655  70.280  1.00  0.00    -0.285 A  
HETATM   28  C   UNL     1     -11.147   8.643  69.181  1.00  0.00     0.158 A  
HETATM   29  C   UNL     1     -10.379   8.451  68.027  1.00  0.00    -0.270 A  
ENDBRANCH  17  24
ENDBRANCH  12  15
ENDBRANCH   8   9
ENDBRANCH   7   8
ENDBRANCH   6   7
ENDBRANCH   3   6
ENDBRANCH   2   3
TORSDOF 9
ENDMDL
MODEL      145
REMARK 921   NORMALIZED FREE ENERGY PREDICTED BY IDOCK:   -3.52 KCAL/MOL
REMARK 922        TOTAL FREE ENERGY PREDICTED BY IDOCK:   -7.51 KCAL/MOL
REMARK 923 INTER-LIGAND FREE ENERGY PREDICTED BY IDOCK:   -5.98 KCAL/MOL
REMARK 924 INTRA-LIGAND FREE ENERGY PREDICTED BY IDOCK:   -1.54 KCAL/MOL
REMARK 927      BINDING AFFINITY PREDICTED BY RF-SCORE:    0.00 PKD
ROOT
HETATM    1  C   UNL     1     -10.786  16.548  69.619  1.00  0.00    -0.322 C  
HETATM    2  C   UNL     1     -10.614  15.140  70.180  1.00  0.00    -0.202 C  
ENDROOT
BRANCH   2   3
HETATM    3  N   UNL     1     -11.052  14.068  69.273  1.00  0.00    -0.248 NA 
BRANCH   3   4
HETATM    4  C   UNL     1     -11.805  12.988  69.928  1.00  0.00    -0.307 C  
HETATM    5  C   UNL     1     -12.236  11.834  69.031  1.00  0.00    -0.132 C  
ENDBRANCH   3   4
BRANCH   3   6
HETATM    6  C   UNL     1     -11.730  14.650  68.094  1.00  0.00    -0.330 C  
BRANCH   6   7
HETATM    7  C   UNL     1     -10.807  14.808  66.880  1.00  0.00    -0.316 C  
BRANCH   7   8
HETATM    8  O   UNL     1     -11.165  13.883  65.845  1.00  0.00    -0.294 OA 
BRANCH   8   9
HETATM    9  C   UNL     1     -10.580  12.647  65.979  1.00  0.00    -0.270 A  
HETATM   10  C   UNL     1     -10.945  11.516  65.244  1.00  0.00    -0.291 A  
HETATM   11  C   UNL     1     -10.366  10.281  65.522  1.00  0.00    -0.239 A  
HETATM   12  C   UNL     1      -9.382  10.163  66.506  1.00  0.00    -0.200 A  
HETATM   13  C   UNL     1      -8.974  11.306  67.207  1.00  0.00    -0.149 A  
HETATM   14  C   UNL     1      -9.570  12.545  66.937  1.00  0.00    -0.229 A  
BRANCH  12  15
HETATM   15  C   UNL     1      -8.814   8.821  66.789  1.00  0.00    -0.147 C  
HETATM   16 CL   UNL     1      -7.157   6.739  66.190  1.00  0.00    -0.065 Cl 
HETATM   17  C   UNL     1      -7.804   8.347  66.017  1.00  0.00    -0.098 C  
BRANCH  15  18
HETATM   18  C   UNL     1      -9.406   7.977  67.860  1.00  0.00    -0.148 A  
HETATM   19  C   UNL     1     -10.401   7.036  67.559  1.00  0.00    -0.288 A  
HETATM   20  C   UNL     1      -8.989   8.127  69.189  1.00  0.00    -0.144 A  
HETATM   21  C   UNL     1      -9.550   7.340  70.200  1.00  0.00    -0.168 A  
HETATM   22  C   UNL     1     -10.961   6.251  68.571  1.00  0.00    -0.421 A  
HETATM   23  C   UNL     1     -10.533   6.403  69.889  1.00  0.00    -0.265 A  
ENDBRANCH  15  18
BRANCH  17  24
HETATM   24  C   UNL     1      -7.135   9.131  64.956  1.00  0.00    -0.092 A  
HETATM   25  C   UNL     1      -5.827  10.491  62.883  1.00  0.00    -0.145 A  
HETATM   26  C   UNL     1      -7.709   9.201  63.678  1.00  0.00    -0.118 A  
HETATM   27  C   UNL     1      -7.054   9.876  62.645  1.00  0.00    -0.119 A  
HETATM   28  C   UNL     1      -5.263  10.455  64.157  1.00  0.00    -0.146 A  
HETATM   29  C   UNL     1      -5.918   9.781  65.194  1.00  0.00    -0.083 A  
ENDBRANCH  17  24
ENDBRANCH  12  15
ENDBRANCH   8   9
ENDBRANCH   7   8
ENDBRANCH   6   7
ENDBRANCH   3   6
ENDBRANCH   2   3
TORSDOF 9
ENDMDL
MODEL      146
REMARK 921   NORMALIZED FREE ENERGY PREDICTED BY IDOCK:   -3.51 KCAL/MOL
REMARK 922        TOTAL FREE ENERGY PREDICTED BY IDOCK:   -7.50 KCAL/MOL
REMARK 923 INTER-LIGAND FREE ENERGY PREDICTED BY IDOCK:   -5.97 KCAL/MOL
REMARK 924 INTRA-LIGAND FREE ENERGY PREDICTED BY IDOCK:   -1.53 KCAL/MOL
REMARK 927      BINDING AFFINITY PREDICTED BY RF-SCORE:    0.00 PKD
ROOT
HETATM    1  C   UNL     1      -7.025   7.341  69.229  1.00  0.00    -0.069 C  
HETATM    2  C   UNL     1      -5.987   7.078  68.143  1.00  0.00    -0.029 C  
ENDROOT
BRANCH   2   3
HETATM    3  N   UNL     1      -6.475   7.293  66.772  1.00  0.00    -0.050 NA 
BRANCH   3   4
HETATM    4  C   UNL     1      -5.460   7.090  65.727  1.00  0.00    -0.027 C  
HETATM    5  C   UNL     1      -5.980   7.014  64.296  1.00  0.00    -0.036 C  
ENDBRANCH   3   4
BRANCH   3   6
HETATM    6  C   UNL     1      -7.726   6.532  66.557  1.00  0.00    -0.099 C  
BRANCH   6   7
HETATM    7  C   UNL     1      -8.917   7.418  66.177  1.00  0.00    -0.149 C  
BRANCH   7   8
HETATM    8  O   UNL     1      -8.473   8.727  65.794  1.00  0.00    -0.131 OA 
BRANCH   8   9
HETATM    9  C   UNL     1      -8.983   9.736  66.575  1.00  0.00    -0.150 A  
HETATM   10  C   UNL     1      -8.239  10.472  67.501  1.00  0.00    -0.114 A  
HETATM   11  C   UNL     1      -8.865  11.406  68.322  1.00  0.00    -0.167 A  
HETATM   12  C   UNL     1     -10.235  11.652  68.203  1.00  0.00    -0.206 A  
HETATM   13  C   UNL     1     -10.974  10.954  67.238  1.00  0.00    -0.355 A  
HETATM   14  C   UNL     1     -10.345  10.004  66.423  1.00  0.00    -0.249 A  
BRANCH  12  15
HETATM   15  C   UNL     1     -10.865  12.634  69.120  1.00  0.00    -0.127 C  
HETATM   16 CL   UNL     1     -12.459  13.258  71.243  1.00  0.00    -0.403 Cl 
HETATM   17  C   UNL     1     -11.581  12.190  70.184  1.00  0.00    -0.118 C  
BRANCH  15  18
HETATM   18  C   UNL     1     -10.772  14.088  68.825  1.00  0.00    -0.272 A  
HETATM   19  C   UNL     1     -11.748  14.720  68.040  1.00  0.00    -0.360 A  
HETATM   20  C   UNL     1      -9.696  14.841  69.313  1.00  0.00    -0.098 A  
HETATM   21  C   UNL     1      -9.604  16.208  69.030  1.00  0.00    -0.251 A  
HETATM   22  C   UNL     1     -11.652  16.085  67.758  1.00  0.00     0.017 A  
HETATM   23  C   UNL     1     -10.582  16.827  68.255  1.00  0.00    -0.352 A  
ENDBRANCH  15  18
BRANCH  17  24
HETATM   24  C   UNL     1     -11.695  10.767  70.569  1.00  0.00    -0.449 A  
HETATM   25  C   UNL     1     -11.927   8.112  71.438  1.00  0.00    -0.330 A  
HETATM   26  C   UNL     1     -12.946  10.240  70.916  1.00  0.00    -0.456 A  
HETATM   27  C   UNL     1     -13.060   8.917  71.352  1.00  0.00    -0.315 A  
HETATM   28  C   UNL     1     -10.683   8.616  71.065  1.00  0.00    -0.284 A  
HETATM   29  C   UNL     1     -10.565   9.940  70.626  1.00  0.00    -0.341 A  
ENDBRANCH  17  24
ENDBRANCH  12  15
ENDBRANCH   8   9
ENDBRANCH   7   8
ENDBRANCH   6   7
ENDBRANCH   3   6
ENDBRANCH   2   3
TORSDOF 9
ENDMDL
MODEL      147
REMARK 921   NORMALIZED FREE ENERGY PREDICTED BY IDOCK:   -3.51 KCAL/MOL
REMARK 922        TOTAL FREE ENERGY PREDICTED BY IDOCK:   -7.49 KCAL/MOL
REMARK 923 INTER-LIGAND FREE ENERGY PREDICTED BY IDOCK:   -4.97 KCAL/MOL
REMARK 924 INTRA-LIGAND FREE ENERGY PREDICTED BY IDOCK:   -2.53 KCAL/MOL
REMARK 927      BINDING AFFINITY PREDICTED BY RF-SCORE:    0.00 PKD
ROOT
HETATM    1  C   UNL     1      -5.322   9.579  64.323  1.00  0.00    -0.061 C  
HETATM    2  C   UNL     1      -5.692   8.616  63.200  1.00  0.00    -0.073 C  
ENDROOT
BRANCH   2   3
HETATM    3  N   UNL     1      -7.053   8.795  62.670  1.00  0.00    -0.097 NA 
BRANCH   3   4
HETATM    4  C   UNL     1      -7.966   7.677  62.950  1.00  0.00    -0.120 C  
HETATM    5  C   UNL     1      -7.503   6.684  64.009  1.00  0.00    -0.093 C  
ENDBRANCH   3   4
BRANCH   3   6
HETATM    6  C   UNL     1      -7.578  10.121  63.068  1.00  0.00    -0.143 C  
BRANCH   6   7
HETATM    7  C   UNL     1      -8.972  10.054  63.701  1.00  0.00    -0.255 C  
BRANCH   7   8
HETATM    8  O   UNL     1      -8.936  10.520  65.057  1.00  0.00    -0.183 OA 
BRANCH   8   9
HETATM    9  C   UNL     1      -9.132   9.531  65.989  1.00  0.00    -0.176 A  
HETATM   10  C   UNL     1     -10.377   8.991  66.320  1.00  0.00    -0.130 A  
HETATM   11  C   UNL     1     -10.490   8.062  67.351  1.00  0.00    -0.357 A  
HETATM   12  C   UNL     1      -9.356   7.626  68.040  1.00  0.00    -0.144 A  
HETATM   13  C   UNL     1      -8.098   8.125  67.675  1.00  0.00    -0.127 A  
HETATM   14  C   UNL     1      -7.989   9.070  66.647  1.00  0.00    -0.100 A  
BRANCH  12  15
HETATM   15  C   UNL     1      -9.527   6.658  69.153  1.00  0.00    -0.136 C  
HETATM   16 CL   UNL     1      -9.799   4.119  70.107  1.00  0.00    -0.279 Cl 
HETATM   17  C   UNL     1      -9.486   5.327  68.893  1.00  0.00    -0.128 C  
BRANCH  15  18
HETATM   18  C   UNL     1      -9.819   7.152  70.525  1.00  0.00    -0.181 A  
HETATM   19  C   UNL     1      -8.807   7.207  71.494  1.00  0.00    -0.127 A  
HETATM   20  C   UNL     1     -11.117   7.550  70.871  1.00  0.00    -0.279 A  
HETATM   21  C   UNL     1     -11.396   8.008  72.163  1.00  0.00    -0.387 A  
HETATM   22  C   UNL     1      -9.088   7.665  72.784  1.00  0.00    -0.217 A  
HETATM   23  C   UNL     1     -10.381   8.066  73.116  1.00  0.00    -0.269 A  
ENDBRANCH  15  18
BRANCH  17  24
HETATM   24  C   UNL     1      -9.168   4.752  67.568  1.00  0.00    -0.142 A  
HETATM   25  C   UNL     1      -8.501   3.790  65.022  1.00  0.00    -0.108 A  
HETATM   26  C   UNL     1      -7.852   4.368  67.277  1.00  0.00    -0.096 A  
HETATM   27  C   UNL     1      -7.520   3.890  66.006  1.00  0.00    -0.084 A  
HETATM   28  C   UNL     1      -9.818   4.139  65.311  1.00  0.00    -0.212 A  
HETATM   29  C   UNL     1     -10.155   4.615  66.583  1.00  0.00    -0.263 A  
ENDBRANCH  17  24
ENDBRANCH  12  15
ENDBRANCH   8   9
ENDBRANCH   7   8
ENDBRANCH   6   7
ENDBRANCH   3   6
ENDBRANCH   2   3
TORSDOF 9
ENDMDL
MODEL      148
REMARK 921   NORMALIZED FREE ENERGY PREDICTED BY IDOCK:   -3.48 KCAL/MOL
REMARK 922        TOTAL FREE ENERGY PREDICTED BY IDOCK:   -7.45 KCAL/MOL
REMARK 923 INTER-LIGAND FREE ENERGY PREDICTED BY IDOCK:   -7.17 KCAL/MOL
REMARK 924 INTRA-LIGAND FREE ENERGY PREDICTED BY IDOCK:   -0.28 KCAL/MOL
REMARK 927      BINDING AFFINITY PREDICTED BY RF-SCORE:    0.00 PKD
ROOT
HETATM    1  C   UNL     1      -7.697  10.114  63.987  1.00  0.00    -0.136 C  
HETATM    2  C   UNL     1      -8.390   8.782  63.714  1.00  0.00    -0.136 C  
ENDROOT
BRANCH   2   3
HETATM    3  N   UNL     1      -7.576   7.598  64.032  1.00  0.00    -0.107 NA 
BRANCH   3   4
HETATM    4  C   UNL     1      -6.292   7.901  64.682  1.00  0.00    -0.048 C  
HETATM    5  C   UNL     1      -5.153   6.928  64.399  1.00  0.00    -0.027 C  
ENDBRANCH   3   4
BRANCH   3   6
HETATM    6  C   UNL     1      -8.398   6.599  64.750  1.00  0.00    -0.006 C  
BRANCH   6   7
HETATM    7  C   UNL     1      -8.251   6.676  66.274  1.00  0.00    -0.120 C  
BRANCH   7   8
HETATM    8  O   UNL     1      -7.848   7.992  66.679  1.00  0.00    -0.095 OA 
BRANCH   8   9
HETATM    9  C   UNL     1      -8.768   8.634  67.471  1.00  0.00    -0.135 A  
HETATM   10  C   UNL     1     -10.152   8.581  67.279  1.00  0.00    -0.317 A  
HETATM   11  C   UNL     1     -11.002   9.348  68.071  1.00  0.00    -0.119 A  
HETATM   12  C   UNL     1     -10.489  10.146  69.096  1.00  0.00    -0.242 A  
HETATM   13  C   UNL     1      -9.106  10.160  69.327  1.00  0.00    -0.208 A  
HETATM   14  C   UNL     1      -8.252   9.400  68.518  1.00  0.00    -0.113 A  
BRANCH  12  15
HETATM   15  C   UNL     1     -11.430  10.971  69.895  1.00  0.00    -0.400 C  
HETATM   16 CL   UNL     1     -13.274  11.265  71.882  1.00  0.00    -0.566 Cl 
HETATM   17  C   UNL     1     -12.062  10.419  70.960  1.00  0.00    -0.385 C  
BRANCH  15  18
HETATM   18  C   UNL     1     -11.731  12.366  69.477  1.00  0.00    -0.388 A  
HETATM   19  C   UNL     1     -11.703  12.725  68.121  1.00  0.00    -0.392 A  
HETATM   20  C   UNL     1     -12.026  13.343  70.436  1.00  0.00    -0.358 A  
HETATM   21  C   UNL     1     -12.302  14.657  70.046  1.00  0.00    -0.365 A  
HETATM   22  C   UNL     1     -11.979  14.040  67.734  1.00  0.00    -0.392 A  
HETATM   23  C   UNL     1     -12.279  15.002  68.696  1.00  0.00    -0.085 A  
ENDBRANCH  15  18
BRANCH  17  24
HETATM   24  C   UNL     1     -11.797   9.054  71.464  1.00  0.00    -0.415 A  
HETATM   25  C   UNL     1     -11.390   6.492  72.526  1.00  0.00    -0.299 A  
HETATM   26  C   UNL     1     -12.747   8.043  71.265  1.00  0.00    -0.234 A  
HETATM   27  C   UNL     1     -12.545   6.767  71.797  1.00  0.00    -0.370 A  
HETATM   28  C   UNL     1     -10.424   7.480  72.704  1.00  0.00    -0.322 A  
HETATM   29  C   UNL     1     -10.623   8.759  72.170  1.00  0.00    -0.386 A  
ENDBRANCH  17  24
ENDBRANCH  12  15
ENDBRANCH   8   9
ENDBRANCH   7   8
ENDBRANCH   6   7
ENDBRANCH   3   6
ENDBRANCH   2   3
TORSDOF 9
ENDMDL
MODEL      149
REMARK 921   NORMALIZED FREE ENERGY PREDICTED BY IDOCK:   -3.48 KCAL/MOL
REMARK 922        TOTAL FREE ENERGY PREDICTED BY IDOCK:   -7.45 KCAL/MOL
REMARK 923 INTER-LIGAND FREE ENERGY PREDICTED BY IDOCK:   -5.26 KCAL/MOL
REMARK 924 INTRA-LIGAND FREE ENERGY PREDICTED BY IDOCK:   -2.19 KCAL/MOL
REMARK 927      BINDING AFFINITY PREDICTED BY RF-SCORE:    0.00 PKD
ROOT
HETATM    1  C   UNL     1     -12.997   7.899  71.589  1.00  0.00    -0.359 C  
HETATM    2  C   UNL     1     -11.917   7.838  72.665  1.00  0.00    -0.205 C  
ENDROOT
BRANCH   2   3
HETATM    3  N   UNL     1     -10.594   7.424  72.175  1.00  0.00    -0.214 NA 
BRANCH   3   4
HETATM    4  C   UNL     1      -9.601   8.508  72.116  1.00  0.00    -0.312 C  
HETATM    5  C   UNL     1      -8.219   8.179  72.669  1.00  0.00    -0.227 C  
ENDBRANCH   3   4
BRANCH   3   6
HETATM    6  C   UNL     1     -10.136   6.224  72.909  1.00  0.00    -0.183 C  
BRANCH   6   7
HETATM    7  C   UNL     1      -9.719   5.072  71.987  1.00  0.00    -0.164 C  
BRANCH   7   8
HETATM    8  O   UNL     1     -10.606   4.974  70.864  1.00  0.00    -0.188 OA 
BRANCH   8   9
HETATM    9  C   UNL     1     -10.096   5.512  69.708  1.00  0.00    -0.232 A  
HETATM   10  C   UNL     1      -8.736   5.713  69.461  1.00  0.00    -0.109 A  
HETATM   11  C   UNL     1      -8.319   6.361  68.301  1.00  0.00    -0.116 A  
HETATM   12  C   UNL     1      -9.251   6.778  67.348  1.00  0.00    -0.130 A  
HETATM   13  C   UNL     1     -10.613   6.530  67.566  1.00  0.00    -0.345 A  
HETATM   14  C   UNL     1     -11.030   5.892  68.742  1.00  0.00    -0.311 A  
BRANCH  12  15
HETATM   15  C   UNL     1      -8.764   7.492  66.141  1.00  0.00    -0.174 C  
HETATM   16 CL   UNL     1      -7.513   7.536  63.718  1.00  0.00    -0.100 Cl 
HETATM   17  C   UNL     1      -8.223   6.782  65.118  1.00  0.00    -0.114 C  
BRANCH  15  18
HETATM   18  C   UNL     1      -8.799   8.978  66.094  1.00  0.00    -0.195 A  
HETATM   19  C   UNL     1      -7.744   9.733  66.626  1.00  0.00    -0.102 A  
HETATM   20  C   UNL     1      -9.899   9.641  65.535  1.00  0.00    -0.352 A  
HETATM   21  C   UNL     1      -9.938  11.039  65.496  1.00  0.00    -0.308 A  
HETATM   22  C   UNL     1      -7.786  11.130  66.587  1.00  0.00    -0.155 A  
HETATM   23  C   UNL     1      -8.881  11.780  66.021  1.00  0.00    -0.057 A  
ENDBRANCH  15  18
BRANCH  17  24
HETATM   24  C   UNL     1      -8.180   5.305  65.068  1.00  0.00    -0.134 A  
HETATM   25  C   UNL     1      -8.028   2.515  64.846  1.00  0.00    -0.081 A  
HETATM   26  C   UNL     1      -6.974   4.637  65.324  1.00  0.00    -0.062 A  
HETATM   27  C   UNL     1      -6.899   3.246  65.210  1.00  0.00    -0.048 A  
HETATM   28  C   UNL     1      -9.238   3.166  64.621  1.00  0.00    -0.142 A  
HETATM   29  C   UNL     1      -9.318   4.559  64.737  1.00  0.00    -0.140 A  
ENDBRANCH  17  24
ENDBRANCH  12  15
ENDBRANCH   8   9
ENDBRANCH   7   8
ENDBRANCH   6   7
ENDBRANCH   3   6
ENDBRANCH   2   3
TORSDOF 9
ENDMDL
MODEL      150
REMARK 921   NORMALIZED FREE ENERGY PREDICTED BY IDOCK:   -3.47 KCAL/MOL
REMARK 922        TOTAL FREE ENERGY PREDICTED BY IDOCK:   -7.43 KCAL/MOL
REMARK 923 INTER-LIGAND FREE ENERGY PREDICTED BY IDOCK:   -4.96 KCAL/MOL
REMARK 924 INTRA-LIGAND FREE ENERGY PREDICTED BY IDOCK:   -2.47 KCAL/MOL
REMARK 927      BINDING AFFINITY PREDICTED BY RF-SCORE:    0.00 PKD
ROOT
HETATM    1  C   UNL     1      -9.737  16.703  68.037  1.00  0.00    -0.241 C  
HETATM    2  C   UNL     1     -11.073  16.027  68.331  1.00  0.00    -0.351 C  
ENDROOT
BRANCH   2   3
HETATM    3  N   UNL     1     -11.142  14.616  67.924  1.00  0.00    -0.280 NA 
BRANCH   3   4
HETATM    4  C   UNL     1     -12.103  13.808  68.689  1.00  0.00    -0.298 C  
HETATM    5  C   UNL     1     -11.553  12.535  69.322  1.00  0.00    -0.378 C  
ENDBRANCH   3   4
BRANCH   3   6
HETATM    6  C   UNL     1     -11.307  14.522  66.456  1.00  0.00    -0.352 C  
BRANCH   6   7
HETATM    7  C   UNL     1     -10.241  13.651  65.781  1.00  0.00    -0.308 C  
BRANCH   7   8
HETATM    8  O   UNL     1      -9.152  13.393  66.679  1.00  0.00    -0.234 OA 
BRANCH   8   9
HETATM    9  C   UNL     1      -8.759  12.078  66.710  1.00  0.00    -0.192 A  
HETATM   10  C   UNL     1      -7.452  11.650  66.957  1.00  0.00    -0.150 A  
HETATM   11  C   UNL     1      -7.126  10.299  66.867  1.00  0.00    -0.092 A  
HETATM   12  C   UNL     1      -8.107   9.350  66.571  1.00  0.00    -0.111 A  
HETATM   13  C   UNL     1      -9.430   9.770  66.377  1.00  0.00    -0.237 A  
HETATM   14  C   UNL     1      -9.752  11.132  66.452  1.00  0.00    -0.235 A  
BRANCH  12  15
HETATM   15  C   UNL     1      -7.707   7.925  66.455  1.00  0.00    -0.096 C  
HETATM   16 CL   UNL     1      -7.146   5.491  67.548  1.00  0.00    -0.072 Cl 
HETATM   17  C   UNL     1      -7.714   7.137  67.559  1.00  0.00    -0.111 C  
BRANCH  15  18
HETATM   18  C   UNL     1      -7.229   7.395  65.151  1.00  0.00    -0.066 A  
HETATM   19  C   UNL     1      -8.137   6.883  64.213  1.00  0.00    -0.040 A  
HETATM   20  C   UNL     1      -5.860   7.382  64.853  1.00  0.00    -0.037 A  
HETATM   21  C   UNL     1      -5.407   6.877  63.629  1.00  0.00    -0.028 A  
HETATM   22  C   UNL     1      -7.682   6.378  62.992  1.00  0.00    -0.090 A  
HETATM   23  C   UNL     1      -6.319   6.377  62.702  1.00  0.00    -0.030 A  
ENDBRANCH  15  18
BRANCH  17  24
HETATM   24  C   UNL     1      -8.206   7.574  68.884  1.00  0.00    -0.128 A  
HETATM   25  C   UNL     1      -9.203   8.515  71.329  1.00  0.00    -0.256 A  
HETATM   26  C   UNL     1      -9.557   7.400  69.214  1.00  0.00    -0.154 A  
HETATM   27  C   UNL     1     -10.054   7.872  70.432  1.00  0.00    -0.194 A  
HETATM   28  C   UNL     1      -7.852   8.665  71.024  1.00  0.00    -0.128 A  
HETATM   29  C   UNL     1      -7.351   8.191  69.806  1.00  0.00    -0.065 A  
ENDBRANCH  17  24
ENDBRANCH  12  15
ENDBRANCH   8   9
ENDBRANCH   7   8
ENDBRANCH   6   7
ENDBRANCH   3   6
ENDBRANCH   2   3
TORSDOF 9
ENDMDL
MODEL      151
REMARK 921   NORMALIZED FREE ENERGY PREDICTED BY IDOCK:   -3.46 KCAL/MOL
REMARK 922        TOTAL FREE ENERGY PREDICTED BY IDOCK:   -7.42 KCAL/MOL
REMARK 923 INTER-LIGAND FREE ENERGY PREDICTED BY IDOCK:   -7.07 KCAL/MOL
REMARK 924 INTRA-LIGAND FREE ENERGY PREDICTED BY IDOCK:   -0.36 KCAL/MOL
REMARK 927      BINDING AFFINITY PREDICTED BY RF-SCORE:    0.00 PKD
ROOT
HETATM    1  C   UNL     1      -6.007   9.981  69.276  1.00  0.00    -0.037 C  
HETATM    2  C   UNL     1      -7.189   9.695  68.355  1.00  0.00    -0.074 C  
ENDROOT
BRANCH   2   3
HETATM    3  N   UNL     1      -6.907   8.720  67.290  1.00  0.00    -0.066 NA 
BRANCH   3   4
HETATM    4  C   UNL     1      -6.515   7.388  67.774  1.00  0.00    -0.050 C  
HETATM    5  C   UNL     1      -7.523   6.268  67.540  1.00  0.00    -0.088 C  
ENDBRANCH   3   4
BRANCH   3   6
HETATM    6  C   UNL     1      -8.018   8.706  66.312  1.00  0.00    -0.102 C  
BRANCH   6   7
HETATM    7  C   UNL     1      -8.489  10.108  65.910  1.00  0.00    -0.141 C  
BRANCH   7   8
HETATM    8  O   UNL     1      -9.920  10.195  65.955  1.00  0.00    -0.240 OA 
BRANCH   8   9
HETATM    9  C   UNL     1     -10.389  11.184  66.784  1.00  0.00    -0.241 A  
HETATM   10  C   UNL     1     -11.250  12.210  66.383  1.00  0.00    -0.380 A  
HETATM   11  C   UNL     1     -11.591  13.228  67.270  1.00  0.00    -0.404 A  
HETATM   12  C   UNL     1     -11.114  13.216  68.583  1.00  0.00    -0.304 A  
HETATM   13  C   UNL     1     -10.295  12.160  69.004  1.00  0.00    -0.014 A  
HETATM   14  C   UNL     1      -9.940  11.145  68.106  1.00  0.00    -0.189 A  
BRANCH  12  15
HETATM   15  C   UNL     1     -11.479  14.338  69.483  1.00  0.00    -0.336 C  
HETATM   16 CL   UNL     1     -11.104  16.859  70.452  1.00  0.00     0.096 Cl 
HETATM   17  C   UNL     1     -10.834  15.526  69.365  1.00  0.00    -0.261 C  
BRANCH  15  18
HETATM   18  C   UNL     1     -12.488  14.129  70.555  1.00  0.00    -0.431 A  
HETATM   19  C   UNL     1     -12.625  12.877  71.171  1.00  0.00    -0.373 A  
HETATM   20  C   UNL     1     -13.328  15.179  70.949  1.00  0.00    -0.463 A  
HETATM   21  C   UNL     1     -14.283  14.983  71.952  1.00  0.00    -0.649 A  
HETATM   22  C   UNL     1     -13.581  12.683  72.173  1.00  0.00    -0.510 A  
HETATM   23  C   UNL     1     -14.407  13.737  72.562  1.00  0.00    -0.230 A  
ENDBRANCH  15  18
BRANCH  17  24
HETATM   24  C   UNL     1      -9.845  15.829  68.307  1.00  0.00    -0.213 A  
HETATM   25  C   UNL     1      -7.969  16.541  66.351  1.00  0.00    -0.352 A  
HETATM   26  C   UNL     1      -8.500  16.021  68.650  1.00  0.00    -0.208 A  
HETATM   27  C   UNL     1      -7.566  16.378  67.675  1.00  0.00    -0.161 A  
HETATM   28  C   UNL     1      -9.297  16.323  65.994  1.00  0.00    -0.361 A  
HETATM   29  C   UNL     1     -10.235  15.961  66.968  1.00  0.00    -0.283 A  
ENDBRANCH  17  24
ENDBRANCH  12  15
ENDBRANCH   8   9
ENDBRANCH   7   8
ENDBRANCH   6   7
ENDBRANCH   3   6
ENDBRANCH   2   3
TORSDOF 9
ENDMDL
MODEL      152
REMARK 921   NORMALIZED FREE ENERGY PREDICTED BY IDOCK:   -3.45 KCAL/MOL
REMARK 922        TOTAL FREE ENERGY PREDICTED BY IDOCK:   -7.40 KCAL/MOL
REMARK 923 INTER-LIGAND FREE ENERGY PREDICTED BY IDOCK:   -5.77 KCAL/MOL
REMARK 924 INTRA-LIGAND FREE ENERGY PREDICTED BY IDOCK:   -1.63 KCAL/MOL
REMARK 927      BINDING AFFINITY PREDICTED BY RF-SCORE:    0.00 PKD
ROOT
HETATM    1  C   UNL     1      -8.903   8.125  68.434  1.00  0.00    -0.133 C  
HETATM    2  C   UNL     1      -7.768   7.665  67.524  1.00  0.00    -0.118 C  
ENDROOT
BRANCH   2   3
HETATM    3  N   UNL     1      -7.557   8.513  66.341  1.00  0.00    -0.090 NA 
BRANCH   3   4
HETATM    4  C   UNL     1      -6.628   7.951  65.348  1.00  0.00    -0.045 C  
HETATM    5  C   UNL     1      -5.212   8.513  65.364  1.00  0.00    -0.034 C  
ENDBRANCH   3   4
BRANCH   3   6
HETATM    6  C   UNL     1      -8.861   8.931  65.781  1.00  0.00    -0.186 C  
BRANCH   6   7
HETATM    7  C   UNL     1      -8.737   9.676  64.447  1.00  0.00    -0.205 C  
BRANCH   7   8
HETATM    8  O   UNL     1      -8.979  11.079  64.624  1.00  0.00    -0.167 OA 
BRANCH   8   9
HETATM    9  C   UNL     1      -9.513  11.398  65.849  1.00  0.00    -0.228 A  
HETATM   10  C   UNL     1      -8.758  11.685  66.989  1.00  0.00    -0.173 A  
HETATM   11  C   UNL     1      -9.388  11.898  68.213  1.00  0.00    -0.193 A  
HETATM   12  C   UNL     1     -10.781  11.870  68.310  1.00  0.00    -0.253 A  
HETATM   13  C   UNL     1     -11.543  11.637  67.156  1.00  0.00    -0.291 A  
HETATM   14  C   UNL     1     -10.907  11.408  65.929  1.00  0.00    -0.292 A  
BRANCH  12  15
HETATM   15  C   UNL     1     -11.407  12.072  69.640  1.00  0.00    -0.249 C  
HETATM   16 CL   UNL     1     -12.096  13.647  71.757  1.00  0.00     0.080 Cl 
HETATM   17  C   UNL     1     -11.493  13.324  70.155  1.00  0.00     0.035 C  
BRANCH  15  18
HETATM   18  C   UNL     1     -11.861  10.897  70.430  1.00  0.00    -0.449 A  
HETATM   19  C   UNL     1     -10.930  10.017  71.000  1.00  0.00    -0.267 A  
HETATM   20  C   UNL     1     -13.229  10.644  70.597  1.00  0.00    -0.105 A  
HETATM   21  C   UNL     1     -13.659   9.535  71.333  1.00  0.00    -0.353 A  
HETATM   22  C   UNL     1     -11.362   8.909  71.735  1.00  0.00    -0.431 A  
HETATM   23  C   UNL     1     -12.725   8.671  71.902  1.00  0.00    -0.413 A  
ENDBRANCH  15  18
BRANCH  17  24
HETATM   24  C   UNL     1     -11.098  14.548  69.425  1.00  0.00    -0.297 A  
HETATM   25  C   UNL     1     -10.353  16.940  68.169  1.00  0.00    -0.336 A  
HETATM   26  C   UNL     1      -9.788  15.034  69.542  1.00  0.00    -0.136 A  
HETATM   27  C   UNL     1      -9.418  16.227  68.918  1.00  0.00    -0.252 A  
HETATM   28  C   UNL     1     -11.648  16.450  68.020  1.00  0.00     0.068 A  
HETATM   29  C   UNL     1     -12.021  15.253  68.642  1.00  0.00    -0.263 A  
ENDBRANCH  17  24
ENDBRANCH  12  15
ENDBRANCH   8   9
ENDBRANCH   7   8
ENDBRANCH   6   7
ENDBRANCH   3   6
ENDBRANCH   2   3
TORSDOF 9
ENDMDL
MODEL      153
REMARK 921   NORMALIZED FREE ENERGY PREDICTED BY IDOCK:   -3.44 KCAL/MOL
REMARK 922        TOTAL FREE ENERGY PREDICTED BY IDOCK:   -7.39 KCAL/MOL
REMARK 923 INTER-LIGAND FREE ENERGY PREDICTED BY IDOCK:   -5.66 KCAL/MOL
REMARK 924 INTRA-LIGAND FREE ENERGY PREDICTED BY IDOCK:   -1.73 KCAL/MOL
REMARK 927      BINDING AFFINITY PREDICTED BY RF-SCORE:    0.00 PKD
ROOT
HETATM    1  C   UNL     1     -13.079  15.488  73.106  1.00  0.00    -0.656 C  
HETATM    2  C   UNL     1     -12.214  15.568  71.852  1.00  0.00    -0.401 C  
ENDROOT
BRANCH   2   3
HETATM    3  N   UNL     1     -12.185  14.333  71.054  1.00  0.00    -0.339 NA 
BRANCH   3   4
HETATM    4  C   UNL     1     -12.721  13.151  71.746  1.00  0.00    -0.168 C  
HETATM    5  C   UNL     1     -12.600  11.827  70.999  1.00  0.00    -0.409 C  
ENDBRANCH   3   4
BRANCH   3   6
HETATM    6  C   UNL     1     -12.782  14.578  69.722  1.00  0.00    -0.004 C  
BRANCH   6   7
HETATM    7  C   UNL     1     -11.865  15.371  68.784  1.00  0.00    -0.318 C  
BRANCH   7   8
HETATM    8  O   UNL     1     -11.654  14.657  67.558  1.00  0.00    -0.349 OA 
BRANCH   8   9
HETATM    9  C   UNL     1     -11.002  13.459  67.719  1.00  0.00    -0.262 A  
HETATM   10  C   UNL     1     -11.256  12.312  66.963  1.00  0.00    -0.367 A  
HETATM   11  C   UNL     1     -10.617  11.113  67.267  1.00  0.00    -0.279 A  
HETATM   12  C   UNL     1      -9.682  11.050  68.302  1.00  0.00    -0.181 A  
HETATM   13  C   UNL     1      -9.384  12.211  69.028  1.00  0.00     0.338 A  
HETATM   14  C   UNL     1     -10.040  13.413  68.731  1.00  0.00    -0.094 A  
BRANCH  12  15
HETATM   15  C   UNL     1      -9.049   9.743  68.611  1.00  0.00    -0.130 C  
HETATM   16 CL   UNL     1      -6.876   8.101  68.752  1.00  0.00    -0.064 Cl 
HETATM   17  C   UNL     1      -7.700   9.620  68.531  1.00  0.00    -0.081 C  
BRANCH  15  18
HETATM   18  C   UNL     1      -9.898   8.565  68.927  1.00  0.00    -0.181 A  
HETATM   19  C   UNL     1     -10.128   7.572  67.964  1.00  0.00    -0.221 A  
HETATM   20  C   UNL     1     -10.496   8.443  70.189  1.00  0.00    -0.230 A  
HETATM   21  C   UNL     1     -11.302   7.339  70.486  1.00  0.00    -0.308 A  
HETATM   22  C   UNL     1     -10.934   6.470  68.263  1.00  0.00    -0.362 A  
HETATM   23  C   UNL     1     -11.518   6.355  69.523  1.00  0.00    -0.412 A  
ENDBRANCH  15  18
BRANCH  17  24
HETATM   24  C   UNL     1      -6.780  10.745  68.257  1.00  0.00    -0.063 A  
HETATM   25  C   UNL     1      -5.145  12.971  67.780  1.00  0.00    -0.094 A  
HETATM   26  C   UNL     1      -6.203  11.445  69.326  1.00  0.00    -0.073 A  
HETATM   27  C   UNL     1      -5.390  12.556  69.087  1.00  0.00    -0.068 A  
HETATM   28  C   UNL     1      -5.688  12.264  66.709  1.00  0.00     0.232 A  
HETATM   29  C   UNL     1      -6.501  11.149  66.945  1.00  0.00    -0.117 A  
ENDBRANCH  17  24
ENDBRANCH  12  15
ENDBRANCH   8   9
ENDBRANCH   7   8
ENDBRANCH   6   7
ENDBRANCH   3   6
ENDBRANCH   2   3
TORSDOF 9
ENDMDL
MODEL      154
REMARK 921   NORMALIZED FREE ENERGY PREDICTED BY IDOCK:   -3.42 KCAL/MOL
REMARK 922        TOTAL FREE ENERGY PREDICTED BY IDOCK:   -7.36 KCAL/MOL
REMARK 923 INTER-LIGAND FREE ENERGY PREDICTED BY IDOCK:   -5.47 KCAL/MOL
REMARK 924 INTRA-LIGAND FREE ENERGY PREDICTED BY IDOCK:   -1.89 KCAL/MOL
REMARK 927      BINDING AFFINITY PREDICTED BY RF-SCORE:    0.00 PKD
ROOT
HETATM    1  C   UNL     1     -10.026  16.725  66.845  1.00  0.00    -0.274 C  
HETATM    2  C   UNL     1      -8.763  17.517  66.522  1.00  0.00    -0.262 C  
ENDROOT
BRANCH   2   3
HETATM    3  N   UNL     1      -8.418  18.542  67.519  1.00  0.00    -0.259 NA 
BRANCH   3   4
HETATM    4  C   UNL     1      -9.238  19.761  67.447  1.00  0.00    -0.338 C  
HETATM    5  C   UNL     1     -10.027  19.961  66.158  1.00  0.00    -0.593 C  
ENDBRANCH   3   4
BRANCH   3   6
HETATM    6  C   UNL     1      -8.356  17.934  68.868  1.00  0.00    -0.130 C  
BRANCH   6   7
HETATM    7  C   UNL     1      -7.085  17.111  69.103  1.00  0.00    -0.213 C  
BRANCH   7   8
HETATM    8  O   UNL     1      -7.388  15.900  69.809  1.00  0.00    -0.147 OA 
BRANCH   8   9
HETATM    9  C   UNL     1      -7.754  14.859  68.991  1.00  0.00    -0.153 A  
HETATM   10  C   UNL     1      -8.907  14.087  69.161  1.00  0.00     0.297 A  
HETATM   11  C   UNL     1      -9.143  12.986  68.343  1.00  0.00    -0.129 A  
HETATM   12  C   UNL     1      -8.255  12.662  67.314  1.00  0.00    -0.184 A  
HETATM   13  C   UNL     1      -7.126  13.466  67.106  1.00  0.00     0.184 A  
HETATM   14  C   UNL     1      -6.882  14.564  67.941  1.00  0.00    -0.177 A  
BRANCH  12  15
HETATM   15  C   UNL     1      -8.531  11.461  66.487  1.00  0.00    -0.170 C  
HETATM   16 CL   UNL     1     -10.143   9.989  64.853  1.00  0.00    -0.314 Cl 
HETATM   17  C   UNL     1      -9.672  11.402  65.755  1.00  0.00    -0.233 C  
BRANCH  15  18
HETATM   18  C   UNL     1      -7.599  10.304  66.527  1.00  0.00    -0.113 A  
HETATM   19  C   UNL     1      -7.787   9.268  67.454  1.00  0.00    -0.099 A  
HETATM   20  C   UNL     1      -6.507  10.245  65.651  1.00  0.00    -0.118 A  
HETATM   21  C   UNL     1      -5.624   9.161  65.692  1.00  0.00    -0.045 A  
HETATM   22  C   UNL     1      -6.903   8.186  67.493  1.00  0.00    -0.070 A  
HETATM   23  C   UNL     1      -5.825   8.134  66.612  1.00  0.00    -0.044 A  
ENDBRANCH  15  18
BRANCH  17  24
HETATM   24  C   UNL     1     -10.634  12.519  65.631  1.00  0.00    -0.298 A  
HETATM   25  C   UNL     1     -12.357  14.723  65.456  1.00  0.00    -0.059 A  
HETATM   26  C   UNL     1     -10.445  13.491  64.640  1.00  0.00    -0.439 A  
HETATM   27  C   UNL     1     -11.303  14.591  64.555  1.00  0.00    -0.323 A  
HETATM   28  C   UNL     1     -12.573  13.746  66.425  1.00  0.00    -0.309 A  
HETATM   29  C   UNL     1     -11.717  12.641  66.511  1.00  0.00    -0.463 A  
ENDBRANCH  17  24
ENDBRANCH  12  15
ENDBRANCH   8   9
ENDBRANCH   7   8
ENDBRANCH   6   7
ENDBRANCH   3   6
ENDBRANCH   2   3
TORSDOF 9
ENDMDL
MODEL      155
REMARK 921   NORMALIZED FREE ENERGY PREDICTED BY IDOCK:   -3.41 KCAL/MOL
REMARK 922        TOTAL FREE ENERGY PREDICTED BY IDOCK:   -7.35 KCAL/MOL
REMARK 923 INTER-LIGAND FREE ENERGY PREDICTED BY IDOCK:   -6.44 KCAL/MOL
REMARK 924 INTRA-LIGAND FREE ENERGY PREDICTED BY IDOCK:   -0.90 KCAL/MOL
REMARK 927      BINDING AFFINITY PREDICTED BY RF-SCORE:    0.00 PKD
ROOT
HETATM    1  C   UNL     1      -5.797   2.298  66.121  1.00  0.00    -0.022 C  
HETATM    2  C   UNL     1      -6.254   2.894  64.793  1.00  0.00    -0.023 C  
ENDROOT
BRANCH   2   3
HETATM    3  N   UNL     1      -7.615   3.450  64.813  1.00  0.00    -0.076 NA 
BRANCH   3   4
HETATM    4  C   UNL     1      -8.102   3.914  63.505  1.00  0.00    -0.089 C  
HETATM    5  C   UNL     1      -9.463   3.383  63.072  1.00  0.00    -0.099 C  
ENDBRANCH   3   4
BRANCH   3   6
HETATM    6  C   UNL     1      -8.532   2.515  65.503  1.00  0.00    -0.103 C  
BRANCH   6   7
HETATM    7  C   UNL     1      -9.338   3.176  66.627  1.00  0.00    -0.110 C  
BRANCH   7   8
HETATM    8  O   UNL     1      -8.473   3.891  67.520  1.00  0.00    -0.097 OA 
BRANCH   8   9
HETATM    9  C   UNL     1      -8.927   5.145  67.846  1.00  0.00    -0.110 A  
HETATM   10  C   UNL     1      -8.160   6.122  68.486  1.00  0.00    -0.108 A  
HETATM   11  C   UNL     1      -8.737   7.330  68.869  1.00  0.00    -0.128 A  
HETATM   12  C   UNL     1     -10.077   7.599  68.583  1.00  0.00    -0.201 A  
HETATM   13  C   UNL     1     -10.835   6.643  67.893  1.00  0.00    -0.353 A  
HETATM   14  C   UNL     1     -10.256   5.422  67.522  1.00  0.00    -0.243 A  
BRANCH  12  15
HETATM   15  C   UNL     1     -10.658   8.887  69.038  1.00  0.00    -0.203 C  
HETATM   16 CL   UNL     1     -11.940  10.421  70.892  1.00  0.00    -0.442 Cl 
HETATM   17  C   UNL     1     -11.130   8.995  70.305  1.00  0.00    -0.235 C  
BRANCH  15  18
HETATM   18  C   UNL     1     -10.790  10.018  68.083  1.00  0.00    -0.303 A  
HETATM   19  C   UNL     1     -11.659  11.084  68.356  1.00  0.00    -0.372 A  
HETATM   20  C   UNL     1     -10.060  10.022  66.887  1.00  0.00    -0.287 A  
HETATM   21  C   UNL     1     -10.188  11.082  65.983  1.00  0.00    -0.305 A  
HETATM   22  C   UNL     1     -11.786  12.142  67.451  1.00  0.00    -0.374 A  
HETATM   23  C   UNL     1     -11.049  12.140  66.267  1.00  0.00    -0.353 A  
ENDBRANCH  15  18
BRANCH  17  24
HETATM   24  C   UNL     1     -11.008   7.933  71.328  1.00  0.00    -0.266 A  
HETATM   25  C   UNL     1     -10.902   5.969  73.324  1.00  0.00    -0.277 A  
HETATM   26  C   UNL     1     -11.839   6.807  71.261  1.00  0.00    -0.396 A  
HETATM   27  C   UNL     1     -11.787   5.829  72.258  1.00  0.00    -0.215 A  
HETATM   28  C   UNL     1     -10.049   7.069  73.384  1.00  0.00    -0.320 A  
HETATM   29  C   UNL     1     -10.097   8.049  72.385  1.00  0.00    -0.332 A  
ENDBRANCH  17  24
ENDBRANCH  12  15
ENDBRANCH   8   9
ENDBRANCH   7   8
ENDBRANCH   6   7
ENDBRANCH   3   6
ENDBRANCH   2   3
TORSDOF 9
ENDMDL
MODEL      156
REMARK 921   NORMALIZED FREE ENERGY PREDICTED BY IDOCK:   -3.41 KCAL/MOL
REMARK 922        TOTAL FREE ENERGY PREDICTED BY IDOCK:   -7.34 KCAL/MOL
REMARK 923 INTER-LIGAND FREE ENERGY PREDICTED BY IDOCK:   -7.09 KCAL/MOL
REMARK 924 INTRA-LIGAND FREE ENERGY PREDICTED BY IDOCK:   -0.25 KCAL/MOL
REMARK 927      BINDING AFFINITY PREDICTED BY RF-SCORE:    0.00 PKD
ROOT
HETATM    1  C   UNL     1      -7.806   5.897  71.396  1.00  0.00    -0.112 C  
HETATM    2  C   UNL     1      -8.493   4.836  70.542  1.00  0.00    -0.095 C  
ENDROOT
BRANCH   2   3
HETATM    3  N   UNL     1      -9.901   4.592  70.893  1.00  0.00    -0.192 NA 
BRANCH   3   4
HETATM    4  C   UNL     1     -10.093   3.740  72.077  1.00  0.00    -0.139 C  
HETATM    5  C   UNL     1      -9.427   2.370  72.030  1.00  0.00    -0.184 C  
ENDBRANCH   3   4
BRANCH   3   6
HETATM    6  C   UNL     1     -10.637   5.874  70.944  1.00  0.00    -0.256 C  
BRANCH   6   7
HETATM    7  C   UNL     1     -12.011   5.757  71.614  1.00  0.00     0.320 C  
BRANCH   7   8
HETATM    8  O   UNL     1     -12.188   6.790  72.594  1.00  0.00     0.008 OA 
BRANCH   8   9
HETATM    9  C   UNL     1     -12.119   8.061  72.077  1.00  0.00    -0.331 A  
HETATM   10  C   UNL     1     -13.214   8.773  71.580  1.00  0.00    -0.399 A  
HETATM   11  C   UNL     1     -13.031  10.017  70.982  1.00  0.00    -0.445 A  
HETATM   12  C   UNL     1     -11.759  10.589  70.908  1.00  0.00    -0.431 A  
HETATM   13  C   UNL     1     -10.667   9.902  71.455  1.00  0.00     0.107 A  
HETATM   14  C   UNL     1     -10.851   8.644  72.042  1.00  0.00    -0.430 A  
BRANCH  12  15
HETATM   15  C   UNL     1     -11.607  11.903  70.234  1.00  0.00    -0.178 C  
HETATM   16 CL   UNL     1     -10.487  13.515  68.342  1.00  0.00    -0.245 Cl 
HETATM   17  C   UNL     1     -10.826  11.999  69.129  1.00  0.00    -0.125 C  
BRANCH  15  18
HETATM   18  C   UNL     1     -12.245  13.112  70.816  1.00  0.00    -0.375 A  
HETATM   19  C   UNL     1     -12.243  14.327  70.116  1.00  0.00    -0.407 A  
HETATM   20  C   UNL     1     -12.840  13.056  72.084  1.00  0.00    -0.253 A  
HETATM   21  C   UNL     1     -13.435  14.195  72.637  1.00  0.00    -0.634 A  
HETATM   22  C   UNL     1     -12.837  15.464  70.672  1.00  0.00    -0.484 A  
HETATM   23  C   UNL     1     -13.433  15.396  71.930  1.00  0.00    -0.571 A  
ENDBRANCH  15  18
BRANCH  17  24
HETATM   24  C   UNL     1     -10.185  10.843  68.465  1.00  0.00    -0.197 A  
HETATM   25  C   UNL     1      -9.017   8.568  67.317  1.00  0.00    -0.141 A  
HETATM   26  C   UNL     1     -10.977   9.898  67.799  1.00  0.00    -0.278 A  
HETATM   27  C   UNL     1     -10.394   8.763  67.229  1.00  0.00    -0.360 A  
HETATM   28  C   UNL     1      -8.217   9.517  67.950  1.00  0.00    -0.114 A  
HETATM   29  C   UNL     1      -8.797  10.657  68.519  1.00  0.00    -0.148 A  
ENDBRANCH  17  24
ENDBRANCH  12  15
ENDBRANCH   8   9
ENDBRANCH   7   8
ENDBRANCH   6   7
ENDBRANCH   3   6
ENDBRANCH   2   3
TORSDOF 9
ENDMDL
MODEL      157
REMARK 921   NORMALIZED FREE ENERGY PREDICTED BY IDOCK:   -3.37 KCAL/MOL
REMARK 922        TOTAL FREE ENERGY PREDICTED BY IDOCK:   -7.28 KCAL/MOL
REMARK 923 INTER-LIGAND FREE ENERGY PREDICTED BY IDOCK:   -6.22 KCAL/MOL
REMARK 924 INTRA-LIGAND FREE ENERGY PREDICTED BY IDOCK:   -1.06 KCAL/MOL
REMARK 927      BINDING AFFINITY PREDICTED BY RF-SCORE:    0.00 PKD
ROOT
HETATM    1  C   UNL     1     -12.126  16.120  69.977  1.00  0.00     0.011 C  
HETATM    2  C   UNL     1     -11.327  14.980  70.602  1.00  0.00    -0.271 C  
ENDROOT
BRANCH   2   3
HETATM    3  N   UNL     1     -11.706  14.663  71.988  1.00  0.00    -0.184 NA 
BRANCH   3   4
HETATM    4  C   UNL     1     -12.016  15.837  72.817  1.00  0.00    -0.492 C  
HETATM    5  C   UNL     1     -13.404  15.865  73.445  1.00  0.00    -0.609 C  
ENDBRANCH   3   4
BRANCH   3   6
HETATM    6  C   UNL     1     -12.757  13.620  71.998  1.00  0.00    -0.197 C  
BRANCH   6   7
HETATM    7  C   UNL     1     -12.804  12.795  70.707  1.00  0.00    -0.030 C  
BRANCH   7   8
HETATM    8  O   UNL     1     -11.784  11.787  70.712  1.00  0.00    -0.120 OA 
BRANCH   8   9
HETATM    9  C   UNL     1     -11.338  11.443  69.459  1.00  0.00    -0.289 A  
HETATM   10  C   UNL     1     -12.169  11.228  68.356  1.00  0.00     0.106 A  
HETATM   11  C   UNL     1     -11.634  10.782  67.150  1.00  0.00     0.265 A  
HETATM   12  C   UNL     1     -10.258  10.583  67.013  1.00  0.00    -0.275 A  
HETATM   13  C   UNL     1      -9.417  10.849  68.102  1.00  0.00    -0.167 A  
HETATM   14  C   UNL     1      -9.958  11.284  69.319  1.00  0.00     0.022 A  
BRANCH  12  15
HETATM   15  C   UNL     1      -9.737  10.077  65.719  1.00  0.00    -0.321 C  
HETATM   16 CL   UNL     1      -9.481  10.228  63.009  1.00  0.00    -0.335 Cl 
HETATM   17  C   UNL     1      -9.944  10.797  64.588  1.00  0.00    -0.324 C  
BRANCH  15  18
HETATM   18  C   UNL     1      -9.064   8.752  65.659  1.00  0.00    -0.247 A  
HETATM   19  C   UNL     1      -7.921   8.568  64.868  1.00  0.00    -0.137 A  
HETATM   20  C   UNL     1      -9.578   7.666  66.380  1.00  0.00    -0.223 A  
HETATM   21  C   UNL     1      -8.950   6.417  66.320  1.00  0.00    -0.166 A  
HETATM   22  C   UNL     1      -7.297   7.319  64.809  1.00  0.00    -0.081 A  
HETATM   23  C   UNL     1      -7.811   6.247  65.536  1.00  0.00    -0.101 A  
ENDBRANCH  15  18
BRANCH  17  24
HETATM   24  C   UNL     1     -10.572  12.136  64.563  1.00  0.00    -0.350 A  
HETATM   25  C   UNL     1     -11.732  14.680  64.371  1.00  0.00    -0.358 A  
HETATM   26  C   UNL     1     -11.842  12.296  63.992  1.00  0.00    -0.530 A  
HETATM   27  C   UNL     1     -12.418  13.565  63.895  1.00  0.00    -0.295 A  
HETATM   28  C   UNL     1     -10.483  14.528  64.968  1.00  0.00    -0.454 A  
HETATM   29  C   UNL     1      -9.904  13.258  65.070  1.00  0.00    -0.065 A  
ENDBRANCH  17  24
ENDBRANCH  12  15
ENDBRANCH   8   9
ENDBRANCH   7   8
ENDBRANCH   6   7
ENDBRANCH   3   6
ENDBRANCH   2   3
TORSDOF 9
ENDMDL
MODEL      158
REMARK 921   NORMALIZED FREE ENERGY PREDICTED BY IDOCK:   -3.37 KCAL/MOL
REMARK 922        TOTAL FREE ENERGY PREDICTED BY IDOCK:   -7.27 KCAL/MOL
REMARK 923 INTER-LIGAND FREE ENERGY PREDICTED BY IDOCK:   -7.35 KCAL/MOL
REMARK 924 INTRA-LIGAND FREE ENERGY PREDICTED BY IDOCK:    0.08 KCAL/MOL
REMARK 927      BINDING AFFINITY PREDICTED BY RF-SCORE:    0.00 PKD
ROOT
HETATM    1  C   UNL     1      -9.915   5.591  67.426  1.00  0.00    -0.189 C  
HETATM    2  C   UNL     1      -9.382   6.681  66.501  1.00  0.00    -0.159 C  
ENDROOT
BRANCH   2   3
HETATM    3  N   UNL     1      -8.133   7.309  66.959  1.00  0.00    -0.115 NA 
BRANCH   3   4
HETATM    4  C   UNL     1      -6.982   7.094  66.069  1.00  0.00    -0.065 C  
HETATM    5  C   UNL     1      -5.929   6.109  66.562  1.00  0.00    -0.025 C  
ENDBRANCH   3   4
BRANCH   3   6
HETATM    6  C   UNL     1      -8.378   8.728  67.301  1.00  0.00    -0.104 C  
BRANCH   6   7
HETATM    7  C   UNL     1      -7.582   9.707  66.429  1.00  0.00    -0.101 C  
BRANCH   7   8
HETATM    8  O   UNL     1      -8.465  10.535  65.661  1.00  0.00    -0.165 OA 
BRANCH   8   9
HETATM    9  C   UNL     1      -8.945  11.622  66.349  1.00  0.00    -0.198 A  
HETATM   10  C   UNL     1      -8.419  12.087  67.558  1.00  0.00    -0.165 A  
HETATM   11  C   UNL     1      -9.038  13.135  68.236  1.00  0.00    -0.181 A  
HETATM   12  C   UNL     1     -10.163  13.763  67.698  1.00  0.00    -0.242 A  
HETATM   13  C   UNL     1     -10.661  13.334  66.460  1.00  0.00    -0.289 A  
HETATM   14  C   UNL     1     -10.047  12.269  65.787  1.00  0.00    -0.274 A  
BRANCH  12  15
HETATM   15  C   UNL     1     -10.807  14.854  68.471  1.00  0.00    -0.249 C  
HETATM   16 CL   UNL     1     -12.613  15.757  70.304  1.00  0.00    -0.348 Cl 
HETATM   17  C   UNL     1     -11.715  14.547  69.432  1.00  0.00    -0.318 C  
BRANCH  15  18
HETATM   18  C   UNL     1     -10.513  16.272  68.135  1.00  0.00    -0.289 A  
HETATM   19  C   UNL     1     -10.145  17.181  69.138  1.00  0.00    -0.254 A  
HETATM   20  C   UNL     1     -10.621  16.722  66.812  1.00  0.00    -0.203 A  
HETATM   21  C   UNL     1     -10.352  18.057  66.495  1.00  0.00    -0.376 A  
HETATM   22  C   UNL     1      -9.878  18.515  68.818  1.00  0.00    -0.411 A  
HETATM   23  C   UNL     1      -9.980  18.951  67.498  1.00  0.00    -0.399 A  
ENDBRANCH  15  18
BRANCH  17  24
HETATM   24  C   UNL     1     -12.039  13.166  69.852  1.00  0.00    -0.357 A  
HETATM   25  C   UNL     1     -12.528  10.548  70.723  1.00  0.00    -0.472 A  
HETATM   26  C   UNL     1     -12.456  12.921  71.168  1.00  0.00    -0.344 A  
HETATM   27  C   UNL     1     -12.697  11.615  71.602  1.00  0.00    -0.375 A  
HETATM   28  C   UNL     1     -12.145  10.782  69.404  1.00  0.00    -0.315 A  
HETATM   29  C   UNL     1     -11.906  12.090  68.966  1.00  0.00    -0.372 A  
ENDBRANCH  17  24
ENDBRANCH  12  15
ENDBRANCH   8   9
ENDBRANCH   7   8
ENDBRANCH   6   7
ENDBRANCH   3   6
ENDBRANCH   2   3
TORSDOF 9
ENDMDL
MODEL      159
REMARK 921   NORMALIZED FREE ENERGY PREDICTED BY IDOCK:   -3.36 KCAL/MOL
REMARK 922        TOTAL FREE ENERGY PREDICTED BY IDOCK:   -7.27 KCAL/MOL
REMARK 923 INTER-LIGAND FREE ENERGY PREDICTED BY IDOCK:   -5.66 KCAL/MOL
REMARK 924 INTRA-LIGAND FREE ENERGY PREDICTED BY IDOCK:   -1.61 KCAL/MOL
REMARK 927      BINDING AFFINITY PREDICTED BY RF-SCORE:    0.00 PKD
ROOT
HETATM    1  C   UNL     1     -10.987   5.088  72.916  1.00  0.00    -0.342 C  
HETATM    2  C   UNL     1      -9.693   4.913  72.125  1.00  0.00    -0.163 C  
ENDROOT
BRANCH   2   3
HETATM    3  N   UNL     1      -8.988   6.169  71.829  1.00  0.00    -0.141 NA 
BRANCH   3   4
HETATM    4  C   UNL     1      -7.573   6.000  71.466  1.00  0.00    -0.099 C  
HETATM    5  C   UNL     1      -6.560   6.280  72.570  1.00  0.00    -0.064 C  
ENDBRANCH   3   4
BRANCH   3   6
HETATM    6  C   UNL     1      -9.769   6.971  70.862  1.00  0.00    -0.174 C  
BRANCH   6   7
HETATM    7  C   UNL     1      -9.165   8.354  70.593  1.00  0.00    -0.156 C  
BRANCH   7   8
HETATM    8  O   UNL     1      -8.464   8.366  69.342  1.00  0.00    -0.122 OA 
BRANCH   8   9
HETATM    9  C   UNL     1      -8.702   9.488  68.585  1.00  0.00    -0.127 A  
HETATM   10  C   UNL     1      -8.178   9.705  67.307  1.00  0.00    -0.114 A  
HETATM   11  C   UNL     1      -8.390  10.918  66.658  1.00  0.00    -0.143 A  
HETATM   12  C   UNL     1      -9.164  11.917  67.253  1.00  0.00    -0.179 A  
HETATM   13  C   UNL     1      -9.736  11.681  68.511  1.00  0.00    -0.187 A  
HETATM   14  C   UNL     1      -9.508  10.466  69.170  1.00  0.00    -0.220 A  
BRANCH  12  15
HETATM   15  C   UNL     1      -9.337  13.206  66.537  1.00  0.00    -0.222 C  
HETATM   16 CL   UNL     1      -8.774  15.849  66.181  1.00  0.00    -0.367 Cl 
HETATM   17  C   UNL     1      -8.561  14.266  66.875  1.00  0.00    -0.146 C  
BRANCH  15  18
HETATM   18  C   UNL     1     -10.408  13.347  65.516  1.00  0.00    -0.302 A  
HETATM   19  C   UNL     1     -10.332  12.647  64.303  1.00  0.00    -0.399 A  
HETATM   20  C   UNL     1     -11.497  14.198  65.746  1.00  0.00    -0.327 A  
HETATM   21  C   UNL     1     -12.501  14.338  64.783  1.00  0.00    -0.390 A  
HETATM   22  C   UNL     1     -11.338  12.789  63.342  1.00  0.00    -0.395 A  
HETATM   23  C   UNL     1     -12.420  13.632  63.584  1.00  0.00    -0.230 A  
ENDBRANCH  15  18
BRANCH  17  24
HETATM   24  C   UNL     1      -7.454  14.204  67.853  1.00  0.00    -0.158 A  
HETATM   25  C   UNL     1      -5.380  13.941  69.720  1.00  0.00    -0.094 A  
HETATM   26  C   UNL     1      -6.231  13.629  67.480  1.00  0.00    -0.051 A  
HETATM   27  C   UNL     1      -5.199  13.496  68.412  1.00  0.00    -0.096 A  
HETATM   28  C   UNL     1      -6.580  14.543  70.093  1.00  0.00    -0.128 A  
HETATM   29  C   UNL     1      -7.615  14.680  69.160  1.00  0.00    -0.126 A  
ENDBRANCH  17  24
ENDBRANCH  12  15
ENDBRANCH   8   9
ENDBRANCH   7   8
ENDBRANCH   6   7
ENDBRANCH   3   6
ENDBRANCH   2   3
TORSDOF 9
ENDMDL
MODEL      160
REMARK 921   NORMALIZED FREE ENERGY PREDICTED BY IDOCK:   -3.34 KCAL/MOL
REMARK 922        TOTAL FREE ENERGY PREDICTED BY IDOCK:   -7.23 KCAL/MOL
REMARK 923 INTER-LIGAND FREE ENERGY PREDICTED BY IDOCK:   -5.14 KCAL/MOL
REMARK 924 INTRA-LIGAND FREE ENERGY PREDICTED BY IDOCK:   -2.09 KCAL/MOL
REMARK 927      BINDING AFFINITY PREDICTED BY RF-SCORE:    0.00 PKD
ROOT
HETATM    1  C   UNL     1      -6.914   2.892  69.643  1.00  0.00    -0.037 C  
HETATM    2  C   UNL     1      -7.400   4.276  70.064  1.00  0.00    -0.046 C  
ENDROOT
BRANCH   2   3
HETATM    3  N   UNL     1      -8.183   4.291  71.309  1.00  0.00    -0.080 NA 
BRANCH   3   4
HETATM    4  C   UNL     1      -7.899   3.172  72.220  1.00  0.00    -0.058 C  
HETATM    5  C   UNL     1      -7.678   3.539  73.682  1.00  0.00    -0.066 C  
ENDBRANCH   3   4
BRANCH   3   6
HETATM    6  C   UNL     1      -8.095   5.625  71.944  1.00  0.00    -0.115 C  
BRANCH   6   7
HETATM    7  C   UNL     1      -9.463   6.269  72.195  1.00  0.00    -0.150 C  
BRANCH   7   8
HETATM    8  O   UNL     1      -9.328   7.679  72.416  1.00  0.00    -0.144 OA 
BRANCH   8   9
HETATM    9  C   UNL     1      -9.507   8.437  71.285  1.00  0.00    -0.186 A  
HETATM   10  C   UNL     1     -10.715   8.549  70.592  1.00  0.00    -0.251 A  
HETATM   11  C   UNL     1     -10.776   9.260  69.396  1.00  0.00    -0.222 A  
HETATM   12  C   UNL     1      -9.643   9.905  68.895  1.00  0.00    -0.172 A  
HETATM   13  C   UNL     1      -8.443   9.840  69.616  1.00  0.00    -0.194 A  
HETATM   14  C   UNL     1      -8.381   9.112  70.811  1.00  0.00    -0.248 A  
BRANCH  12  15
HETATM   15  C   UNL     1      -9.748  10.624  67.601  1.00  0.00    -0.186 C  
HETATM   16 CL   UNL     1      -9.281  10.828  64.922  1.00  0.00    -0.228 Cl 
HETATM   17  C   UNL     1      -9.315  10.021  66.465  1.00  0.00    -0.162 C  
BRANCH  15  18
HETATM   18  C   UNL     1     -10.250  12.023  67.569  1.00  0.00    -0.211 A  
HETATM   19  C   UNL     1      -9.408  13.091  67.913  1.00  0.00    -0.212 A  
HETATM   20  C   UNL     1     -11.579  12.289  67.214  1.00  0.00    -0.427 A  
HETATM   21  C   UNL     1     -12.056  13.604  67.191  1.00  0.00    -0.404 A  
HETATM   22  C   UNL     1      -9.888  14.404  67.890  1.00  0.00    -0.224 A  
HETATM   23  C   UNL     1     -11.209  14.658  67.528  1.00  0.00    -0.343 A  
ENDBRANCH  15  18
BRANCH  17  24
HETATM   24  C   UNL     1      -8.834   8.624  66.402  1.00  0.00    -0.167 A  
HETATM   25  C   UNL     1      -7.891   5.998  66.140  1.00  0.00    -0.104 A  
HETATM   26  C   UNL     1      -7.458   8.365  66.353  1.00  0.00    -0.083 A  
HETATM   27  C   UNL     1      -6.989   7.056  66.220  1.00  0.00    -0.069 A  
HETATM   28  C   UNL     1      -9.261   6.241  66.219  1.00  0.00    -0.165 A  
HETATM   29  C   UNL     1      -9.734   7.551  66.355  1.00  0.00    -0.180 A  
ENDBRANCH  17  24
ENDBRANCH  12  15
ENDBRANCH   8   9
ENDBRANCH   7   8
ENDBRANCH   6   7
ENDBRANCH   3   6
ENDBRANCH   2   3
TORSDOF 9
ENDMDL
MODEL      161
REMARK 921   NORMALIZED FREE ENERGY PREDICTED BY IDOCK:   -3.32 KCAL/MOL
REMARK 922        TOTAL FREE ENERGY PREDICTED BY IDOCK:   -7.21 KCAL/MOL
REMARK 923 INTER-LIGAND FREE ENERGY PREDICTED BY IDOCK:   -5.68 KCAL/MOL
REMARK 924 INTRA-LIGAND FREE ENERGY PREDICTED BY IDOCK:   -1.53 KCAL/MOL
REMARK 927      BINDING AFFINITY PREDICTED BY RF-SCORE:    0.00 PKD
ROOT
HETATM    1  C   UNL     1     -11.757  13.767  64.147  1.00  0.00    -0.397 C  
HETATM    2  C   UNL     1     -10.585  12.965  64.704  1.00  0.00    -0.363 C  
ENDROOT
BRANCH   2   3
HETATM    3  N   UNL     1     -10.656  11.520  64.438  1.00  0.00    -0.311 NA 
BRANCH   3   4
HETATM    4  C   UNL     1     -10.219  11.128  63.090  1.00  0.00    -0.294 C  
HETATM    5  C   UNL     1      -9.032  10.174  63.022  1.00  0.00    -0.259 C  
ENDBRANCH   3   4
BRANCH   3   6
HETATM    6  C   UNL     1      -9.993  10.773  65.530  1.00  0.00    -0.263 C  
BRANCH   6   7
HETATM    7  C   UNL     1     -10.976  10.007  66.424  1.00  0.00     0.245 C  
BRANCH   7   8
HETATM    8  O   UNL     1     -10.698  10.251  67.809  1.00  0.00    -0.233 OA 
BRANCH   8   9
HETATM    9  C   UNL     1     -10.641  11.584  68.137  1.00  0.00    -0.196 A  
HETATM   10  C   UNL     1     -11.746  12.439  68.161  1.00  0.00    -0.408 A  
HETATM   11  C   UNL     1     -11.576  13.800  68.405  1.00  0.00    -0.369 A  
HETATM   12  C   UNL     1     -10.307  14.320  68.673  1.00  0.00    -0.246 A  
HETATM   13  C   UNL     1      -9.205  13.455  68.703  1.00  0.00     0.001 A  
HETATM   14  C   UNL     1      -9.376  12.090  68.441  1.00  0.00    -0.175 A  
BRANCH  12  15
HETATM   15  C   UNL     1     -10.170  15.781  68.896  1.00  0.00    -0.219 C  
HETATM   16 CL   UNL     1     -10.887  18.098  70.142  1.00  0.00     1.444 Cl 
HETATM   17  C   UNL     1     -10.887  16.376  69.883  1.00  0.00    -0.333 C  
BRANCH  15  18
HETATM   18  C   UNL     1      -9.311  16.591  67.992  1.00  0.00    -0.218 A  
HETATM   19  C   UNL     1      -8.159  17.225  68.480  1.00  0.00    -0.262 A  
HETATM   20  C   UNL     1      -9.656  16.747  66.643  1.00  0.00    -0.274 A  
HETATM   21  C   UNL     1      -8.854  17.514  65.792  1.00  0.00     0.253 A  
HETATM   22  C   UNL     1      -7.360  17.992  67.628  1.00  0.00    -0.211 A  
HETATM   23  C   UNL     1      -7.708  18.134  66.286  1.00  0.00    -0.290 A  
ENDBRANCH  15  18
BRANCH  17  24
HETATM   24  C   UNL     1     -11.735  15.642  70.847  1.00  0.00    -0.423 A  
HETATM   25  C   UNL     1     -13.400  14.380  72.715  1.00  0.00    -0.606 A  
HETATM   26  C   UNL     1     -13.102  15.476  70.582  1.00  0.00    -0.361 A  
HETATM   27  C   UNL     1     -13.931  14.849  71.515  1.00  0.00    -0.571 A  
HETATM   28  C   UNL     1     -12.038  14.512  72.974  1.00  0.00    -0.102 A  
HETATM   29  C   UNL     1     -11.204  15.137  72.040  1.00  0.00    -0.232 A  
ENDBRANCH  17  24
ENDBRANCH  12  15
ENDBRANCH   8   9
ENDBRANCH   7   8
ENDBRANCH   6   7
ENDBRANCH   3   6
ENDBRANCH   2   3
TORSDOF 9
ENDMDL
MODEL      162
REMARK 921   NORMALIZED FREE ENERGY PREDICTED BY IDOCK:   -3.32 KCAL/MOL
REMARK 922        TOTAL FREE ENERGY PREDICTED BY IDOCK:   -7.21 KCAL/MOL
REMARK 923 INTER-LIGAND FREE ENERGY PREDICTED BY IDOCK:   -5.39 KCAL/MOL
REMARK 924 INTRA-LIGAND FREE ENERGY PREDICTED BY IDOCK:   -1.81 KCAL/MOL
REMARK 927      BINDING AFFINITY PREDICTED BY RF-SCORE:    0.00 PKD
ROOT
HETATM    1  C   UNL     1      -9.099   7.924  73.131  1.00  0.00    -0.322 C  
HETATM    2  C   UNL     1     -10.497   7.399  73.446  1.00  0.00    -0.368 C  
ENDROOT
BRANCH   2   3
HETATM    3  N   UNL     1     -11.522   7.770  72.459  1.00  0.00    -0.355 NA 
BRANCH   3   4
HETATM    4  C   UNL     1     -11.184   8.948  71.646  1.00  0.00    -0.345 C  
HETATM    5  C   UNL     1     -12.235  10.050  71.596  1.00  0.00    -0.456 C  
ENDBRANCH   3   4
BRANCH   3   6
HETATM    6  C   UNL     1     -11.915   6.582  71.669  1.00  0.00    -0.335 C  
BRANCH   6   7
HETATM    7  C   UNL     1     -12.004   6.858  70.163  1.00  0.00    -0.145 C  
BRANCH   7   8
HETATM    8  O   UNL     1     -11.150   5.966  69.433  1.00  0.00    -0.363 OA 
BRANCH   8   9
HETATM    9  C   UNL     1     -10.404   6.586  68.460  1.00  0.00    -0.192 A  
HETATM   10  C   UNL     1      -9.204   7.263  68.695  1.00  0.00    -0.136 A  
HETATM   11  C   UNL     1      -8.570   7.949  67.663  1.00  0.00    -0.127 A  
HETATM   12  C   UNL     1      -9.100   7.935  66.370  1.00  0.00    -0.221 A  
HETATM   13  C   UNL     1     -10.275   7.212  66.120  1.00  0.00     0.392 A  
HETATM   14  C   UNL     1     -10.919   6.536  67.164  1.00  0.00    -0.480 A  
BRANCH  12  15
HETATM   15  C   UNL     1      -8.408   8.706  65.308  1.00  0.00    -0.177 C  
HETATM   16 CL   UNL     1      -8.074  10.955  63.803  1.00  0.00     0.160 Cl 
HETATM   17  C   UNL     1      -8.739  10.006  65.102  1.00  0.00    -0.164 C  
BRANCH  15  18
HETATM   18  C   UNL     1      -7.416   8.031  64.430  1.00  0.00    -0.104 A  
HETATM   19  C   UNL     1      -6.076   7.914  64.826  1.00  0.00    -0.045 A  
HETATM   20  C   UNL     1      -7.807   7.520  63.185  1.00  0.00    -0.133 A  
HETATM   21  C   UNL     1      -6.875   6.891  62.354  1.00  0.00    -0.051 A  
HETATM   22  C   UNL     1      -5.146   7.285  63.993  1.00  0.00    -0.029 A  
HETATM   23  C   UNL     1      -5.547   6.774  62.760  1.00  0.00    -0.032 A  
ENDBRANCH  15  18
BRANCH  17  24
HETATM   24  C   UNL     1      -9.687  10.762  65.949  1.00  0.00    -0.272 A  
HETATM   25  C   UNL     1     -11.519  12.069  67.619  1.00  0.00    -0.392 A  
HETATM   26  C   UNL     1      -9.376  11.001  67.295  1.00  0.00    -0.167 A  
HETATM   27  C   UNL     1     -10.291  11.651  68.127  1.00  0.00    -0.208 A  
HETATM   28  C   UNL     1     -11.826  11.865  66.276  1.00  0.00    -0.110 A  
HETATM   29  C   UNL     1     -10.910  11.217  65.438  1.00  0.00    -0.212 A  
ENDBRANCH  17  24
ENDBRANCH  12  15
ENDBRANCH   8   9
ENDBRANCH   7   8
ENDBRANCH   6   7
ENDBRANCH   3   6
ENDBRANCH   2   3
TORSDOF 9
ENDMDL
MODEL      163
REMARK 921   NORMALIZED FREE ENERGY PREDICTED BY IDOCK:   -3.32 KCAL/MOL
REMARK 922        TOTAL FREE ENERGY PREDICTED BY IDOCK:   -7.20 KCAL/MOL
REMARK 923 INTER-LIGAND FREE ENERGY PREDICTED BY IDOCK:   -6.70 KCAL/MOL
REMARK 924 INTRA-LIGAND FREE ENERGY PREDICTED BY IDOCK:   -0.51 KCAL/MOL
REMARK 927      BINDING AFFINITY PREDICTED BY RF-SCORE:    0.00 PKD
ROOT
HETATM    1  C   UNL     1     -11.186  16.910  67.788  1.00  0.00     0.005 C  
HETATM    2  C   UNL     1     -10.679  17.387  66.431  1.00  0.00    -0.084 C  
ENDROOT
BRANCH   2   3
HETATM    3  N   UNL     1      -9.879  18.620  66.480  1.00  0.00    -0.346 NA 
BRANCH   3   4
HETATM    4  C   UNL     1     -10.603  19.795  66.989  1.00  0.00    -0.461 C  
HETATM    5  C   UNL     1      -9.742  20.975  67.421  1.00  0.00    -0.229 C  
ENDBRANCH   3   4
BRANCH   3   6
HETATM    6  C   UNL     1      -8.592  18.359  67.164  1.00  0.00    -0.262 C  
BRANCH   6   7
HETATM    7  C   UNL     1      -7.502  17.832  66.224  1.00  0.00    -0.293 C  
BRANCH   7   8
HETATM    8  O   UNL     1      -6.822  16.715  66.811  1.00  0.00    -0.205 OA 
BRANCH   8   9
HETATM    9  C   UNL     1      -7.632  15.629  67.038  1.00  0.00    -0.210 A  
HETATM   10  C   UNL     1      -8.667  15.224  66.190  1.00  0.00    -0.060 A  
HETATM   11  C   UNL     1      -9.502  14.172  66.554  1.00  0.00    -0.303 A  
HETATM   12  C   UNL     1      -9.292  13.478  67.748  1.00  0.00    -0.213 A  
HETATM   13  C   UNL     1      -8.222  13.847  68.575  1.00  0.00    -0.131 A  
HETATM   14  C   UNL     1      -7.392  14.916  68.214  1.00  0.00    -0.109 A  
BRANCH  12  15
HETATM   15  C   UNL     1     -10.227  12.383  68.110  1.00  0.00    -0.225 C  
HETATM   16 CL   UNL     1     -11.407   9.974  67.622  1.00  0.00    -0.114 Cl 
HETATM   17  C   UNL     1     -10.262  11.258  67.353  1.00  0.00    -0.188 C  
BRANCH  15  18
HETATM   18  C   UNL     1     -11.169  12.559  69.247  1.00  0.00    -0.256 A  
HETATM   19  C   UNL     1     -11.564  13.842  69.653  1.00  0.00    -0.343 A  
HETATM   20  C   UNL     1     -11.658  11.443  69.938  1.00  0.00    -0.402 A  
HETATM   21  C   UNL     1     -12.538  11.607  71.013  1.00  0.00    -0.431 A  
HETATM   22  C   UNL     1     -12.444  14.002  70.728  1.00  0.00    -0.442 A  
HETATM   23  C   UNL     1     -12.931  12.885  71.404  1.00  0.00    -0.362 A  
ENDBRANCH  15  18
BRANCH  17  24
HETATM   24  C   UNL     1      -9.339  10.987  66.229  1.00  0.00    -0.206 A  
HETATM   25  C   UNL     1      -7.654  10.344  64.084  1.00  0.00    -0.017 A  
HETATM   26  C   UNL     1      -9.816  11.037  64.912  1.00  0.00    -0.327 A  
HETATM   27  C   UNL     1      -8.976  10.714  63.844  1.00  0.00    -0.205 A  
HETATM   28  C   UNL     1      -7.161  10.322  65.386  1.00  0.00    -0.143 A  
HETATM   29  C   UNL     1      -7.999  10.648  66.459  1.00  0.00    -0.138 A  
ENDBRANCH  17  24
ENDBRANCH  12  15
ENDBRANCH   8   9
ENDBRANCH   7   8
ENDBRANCH   6   7
ENDBRANCH   3   6
ENDBRANCH   2   3
TORSDOF 9
ENDMDL
MODEL      164
REMARK 921   NORMALIZED FREE ENERGY PREDICTED BY IDOCK:   -3.30 KCAL/MOL
REMARK 922        TOTAL FREE ENERGY PREDICTED BY IDOCK:   -7.18 KCAL/MOL
REMARK 923 INTER-LIGAND FREE ENERGY PREDICTED BY IDOCK:   -6.53 KCAL/MOL
REMARK 924 INTRA-LIGAND FREE ENERGY PREDICTED BY IDOCK:   -0.65 KCAL/MOL
REMARK 927      BINDING AFFINITY PREDICTED BY RF-SCORE:    0.00 PKD
ROOT
HETATM    1  C   UNL     1     -11.209   4.757  73.066  1.00  0.00    -0.344 C  
HETATM    2  C   UNL     1     -10.172   5.629  72.366  1.00  0.00    -0.193 C  
ENDROOT
BRANCH   2   3
HETATM    3  N   UNL     1     -10.733   6.786  71.651  1.00  0.00    -0.223 NA 
BRANCH   3   4
HETATM    4  C   UNL     1     -10.778   6.634  70.189  1.00  0.00    -0.239 C  
HETATM    5  C   UNL     1      -9.511   6.098  69.533  1.00  0.00    -0.156 C  
ENDBRANCH   3   4
BRANCH   3   6
HETATM    6  C   UNL     1     -12.025   7.175  72.259  1.00  0.00    -0.218 C  
BRANCH   6   7
HETATM    7  C   UNL     1     -12.526   8.546  71.791  1.00  0.00    -0.342 C  
BRANCH   7   8
HETATM    8  O   UNL     1     -11.461   9.506  71.798  1.00  0.00    -0.384 OA 
BRANCH   8   9
HETATM    9  C   UNL     1     -11.005   9.837  70.545  1.00  0.00    -0.321 A  
HETATM   10  C   UNL     1      -9.664   9.788  70.153  1.00  0.00    -0.299 A  
HETATM   11  C   UNL     1      -9.283  10.242  68.893  1.00  0.00    -0.176 A  
HETATM   12  C   UNL     1     -10.239  10.710  67.988  1.00  0.00    -0.202 A  
HETATM   13  C   UNL     1     -11.591  10.710  68.359  1.00  0.00    -0.269 A  
HETATM   14  C   UNL     1     -11.970  10.268  69.633  1.00  0.00    -0.130 A  
BRANCH  12  15
HETATM   15  C   UNL     1      -9.783  11.213  66.668  1.00  0.00    -0.224 C  
HETATM   16 CL   UNL     1      -8.477  10.891  64.296  1.00  0.00     0.021 Cl 
HETATM   17  C   UNL     1      -9.156  10.367  65.812  1.00  0.00    -0.168 C  
BRANCH  15  18
HETATM   18  C   UNL     1      -9.946  12.651  66.327  1.00  0.00    -0.266 A  
HETATM   19  C   UNL     1      -9.093  13.616  66.881  1.00  0.00    -0.249 A  
HETATM   20  C   UNL     1     -10.968  13.060  65.460  1.00  0.00    -0.296 A  
HETATM   21  C   UNL     1     -11.127  14.413  65.143  1.00  0.00    -0.365 A  
HETATM   22  C   UNL     1      -9.255  14.968  66.564  1.00  0.00    -0.320 A  
HETATM   23  C   UNL     1     -10.270  15.363  65.694  1.00  0.00    -0.403 A  
ENDBRANCH  15  18
BRANCH  17  24
HETATM   24  C   UNL     1      -8.984   8.919  66.057  1.00  0.00    -0.235 A  
HETATM   25  C   UNL     1      -8.690   6.198  66.663  1.00  0.00    -0.124 A  
HETATM   26  C   UNL     1     -10.111   8.112  66.269  1.00  0.00    -0.074 A  
HETATM   27  C   UNL     1      -9.963   6.757  66.574  1.00  0.00    -0.146 A  
HETATM   28  C   UNL     1      -7.565   6.983  66.423  1.00  0.00    -0.088 A  
HETATM   29  C   UNL     1      -7.709   8.341  66.115  1.00  0.00    -0.097 A  
ENDBRANCH  17  24
ENDBRANCH  12  15
ENDBRANCH   8   9
ENDBRANCH   7   8
ENDBRANCH   6   7
ENDBRANCH   3   6
ENDBRANCH   2   3
TORSDOF 9
ENDMDL
MODEL      165
REMARK 921   NORMALIZED FREE ENERGY PREDICTED BY IDOCK:   -3.29 KCAL/MOL
REMARK 922        TOTAL FREE ENERGY PREDICTED BY IDOCK:   -7.17 KCAL/MOL
REMARK 923 INTER-LIGAND FREE ENERGY PREDICTED BY IDOCK:   -6.50 KCAL/MOL
REMARK 924 INTRA-LIGAND FREE ENERGY PREDICTED BY IDOCK:   -0.67 KCAL/MOL
REMARK 927      BINDING AFFINITY PREDICTED BY RF-SCORE:    0.00 PKD
ROOT
HETATM    1  C   UNL     1      -6.644   1.977  69.652  1.00  0.00    -0.029 C  
HETATM    2  C   UNL     1      -7.457   3.266  69.732  1.00  0.00    -0.044 C  
ENDROOT
BRANCH   2   3
HETATM    3  N   UNL     1      -7.887   3.629  71.091  1.00  0.00    -0.058 NA 
BRANCH   3   4
HETATM    4  C   UNL     1      -6.878   3.386  72.133  1.00  0.00    -0.026 C  
HETATM    5  C   UNL     1      -7.387   2.745  73.419  1.00  0.00    -0.045 C  
ENDBRANCH   3   4
BRANCH   3   6
HETATM    6  C   UNL     1      -8.441   5.002  71.095  1.00  0.00    -0.120 C  
BRANCH   6   7
HETATM    7  C   UNL     1      -9.833   5.091  71.732  1.00  0.00    -0.177 C  
BRANCH   7   8
HETATM    8  O   UNL     1     -10.041   6.384  72.316  1.00  0.00    -0.176 OA 
BRANCH   8   9
HETATM    9  C   UNL     1     -10.179   7.393  71.395  1.00  0.00    -0.187 A  
HETATM   10  C   UNL     1     -11.035   7.344  70.291  1.00  0.00    -0.272 A  
HETATM   11  C   UNL     1     -11.032   8.373  69.353  1.00  0.00    -0.016 A  
HETATM   12  C   UNL     1     -10.206   9.487  69.524  1.00  0.00    -0.225 A  
HETATM   13  C   UNL     1      -9.387   9.565  70.658  1.00  0.00    -0.263 A  
HETATM   14  C   UNL     1      -9.380   8.521  71.592  1.00  0.00    -0.311 A  
BRANCH  12  15
HETATM   15  C   UNL     1     -10.214  10.545  68.483  1.00  0.00    -0.190 C  
HETATM   16 CL   UNL     1     -11.170  12.871  67.429  1.00  0.00    -0.310 Cl 
HETATM   17  C   UNL     1     -10.999  11.639  68.648  1.00  0.00    -0.220 C  
BRANCH  15  18
HETATM   18  C   UNL     1      -9.425  10.362  67.236  1.00  0.00    -0.176 A  
HETATM   19  C   UNL     1      -8.094  10.798  67.164  1.00  0.00    -0.124 A  
HETATM   20  C   UNL     1     -10.010   9.769  66.110  1.00  0.00    -0.338 A  
HETATM   21  C   UNL     1      -9.272   9.603  64.933  1.00  0.00    -0.306 A  
HETATM   22  C   UNL     1      -7.358  10.631  65.987  1.00  0.00    -0.132 A  
HETATM   23  C   UNL     1      -7.948  10.032  64.875  1.00  0.00    -0.140 A  
ENDBRANCH  15  18
BRANCH  17  24
HETATM   24  C   UNL     1     -11.786  11.916  69.869  1.00  0.00    -0.418 A  
HETATM   25  C   UNL     1     -13.401  12.417  72.104  1.00  0.00    -0.508 A  
HETATM   26  C   UNL     1     -12.397  10.857  70.555  1.00  0.00    -0.463 A  
HETATM   27  C   UNL     1     -13.204  11.108  71.668  1.00  0.00    -0.449 A  
HETATM   28  C   UNL     1     -12.773  13.473  71.449  1.00  0.00    -0.423 A  
HETATM   29  C   UNL     1     -11.962  13.225  70.335  1.00  0.00    -0.350 A  
ENDBRANCH  17  24
ENDBRANCH  12  15
ENDBRANCH   8   9
ENDBRANCH   7   8
ENDBRANCH   6   7
ENDBRANCH   3   6
ENDBRANCH   2   3
TORSDOF 9
ENDMDL
MODEL      166
REMARK 921   NORMALIZED FREE ENERGY PREDICTED BY IDOCK:   -3.26 KCAL/MOL
REMARK 922        TOTAL FREE ENERGY PREDICTED BY IDOCK:   -7.11 KCAL/MOL
REMARK 923 INTER-LIGAND FREE ENERGY PREDICTED BY IDOCK:   -4.87 KCAL/MOL
REMARK 924 INTRA-LIGAND FREE ENERGY PREDICTED BY IDOCK:   -2.24 KCAL/MOL
REMARK 927      BINDING AFFINITY PREDICTED BY RF-SCORE:    0.00 PKD
ROOT
HETATM    1  C   UNL     1      -9.356  10.137  63.926  1.00  0.00    -0.336 C  
HETATM    2  C   UNL     1      -8.137  10.880  64.463  1.00  0.00     0.257 C  
ENDROOT
BRANCH   2   3
HETATM    3  N   UNL     1      -6.860  10.178  64.261  1.00  0.00    -0.124 NA 
BRANCH   3   4
HETATM    4  C   UNL     1      -5.808  10.541  65.222  1.00  0.00    -0.133 C  
HETATM    5  C   UNL     1      -6.226  11.477  66.350  1.00  0.00    -0.008 C  
ENDBRANCH   3   4
BRANCH   3   6
HETATM    6  C   UNL     1      -7.098   8.722  64.147  1.00  0.00    -0.090 C  
BRANCH   6   7
HETATM    7  C   UNL     1      -7.064   7.994  65.495  1.00  0.00    -0.060 C  
BRANCH   7   8
HETATM    8  O   UNL     1      -8.299   7.304  65.732  1.00  0.00    -0.128 OA 
BRANCH   8   9
HETATM    9  C   UNL     1      -9.124   7.937  66.629  1.00  0.00    -0.163 A  
HETATM   10  C   UNL     1     -10.504   7.734  66.713  1.00  0.00    -0.318 A  
HETATM   11  C   UNL     1     -11.275   8.497  67.587  1.00  0.00     0.630 A  
HETATM   12  C   UNL     1     -10.675   9.444  68.421  1.00  0.00    -0.213 A  
HETATM   13  C   UNL     1      -9.284   9.611  68.378  1.00  0.00    -0.133 A  
HETATM   14  C   UNL     1      -8.513   8.853  67.487  1.00  0.00    -0.116 A  
BRANCH  12  15
HETATM   15  C   UNL     1     -11.540  10.256  69.313  1.00  0.00    -0.186 C  
HETATM   16 CL   UNL     1     -12.658  12.625  70.069  1.00  0.00    -0.004 Cl 
HETATM   17  C   UNL     1     -11.762  11.562  69.020  1.00  0.00    -0.335 C  
BRANCH  15  18
HETATM   18  C   UNL     1     -12.090   9.656  70.558  1.00  0.00    -0.198 A  
HETATM   19  C   UNL     1     -11.357   8.697  71.271  1.00  0.00    -0.341 A  
HETATM   20  C   UNL     1     -13.358  10.030  71.022  1.00  0.00    -0.334 A  
HETATM   21  C   UNL     1     -13.880   9.461  72.189  1.00  0.00    -0.433 A  
HETATM   22  C   UNL     1     -11.881   8.130  72.436  1.00  0.00    -0.448 A  
HETATM   23  C   UNL     1     -13.140   8.514  72.894  1.00  0.00     0.092 A  
ENDBRANCH  15  18
BRANCH  17  24
HETATM   24  C   UNL     1     -11.284  12.226  67.789  1.00  0.00    -0.331 A  
HETATM   25  C   UNL     1     -10.335  13.355  65.405  1.00  0.00    -0.321 A  
HETATM   26  C   UNL     1     -12.016  12.097  66.601  1.00  0.00    -0.186 A  
HETATM   27  C   UNL     1     -11.541  12.658  65.413  1.00  0.00    -0.400 A  
HETATM   28  C   UNL     1      -9.615  13.517  66.586  1.00  0.00    -0.282 A  
HETATM   29  C   UNL     1     -10.089  12.958  67.779  1.00  0.00    -0.229 A  
ENDBRANCH  17  24
ENDBRANCH  12  15
ENDBRANCH   8   9
ENDBRANCH   7   8
ENDBRANCH   6   7
ENDBRANCH   3   6
ENDBRANCH   2   3
TORSDOF 9
ENDMDL
MODEL      167
REMARK 921   NORMALIZED FREE ENERGY PREDICTED BY IDOCK:   -3.25 KCAL/MOL
REMARK 922        TOTAL FREE ENERGY PREDICTED BY IDOCK:   -7.09 KCAL/MOL
REMARK 923 INTER-LIGAND FREE ENERGY PREDICTED BY IDOCK:   -5.12 KCAL/MOL
REMARK 924 INTRA-LIGAND FREE ENERGY PREDICTED BY IDOCK:   -1.98 KCAL/MOL
REMARK 927      BINDING AFFINITY PREDICTED BY RF-SCORE:    0.00 PKD
ROOT
HETATM    1  C   UNL     1     -12.508   6.782  70.390  1.00  0.00     0.055 C  
HETATM    2  C   UNL     1     -12.355   7.619  71.656  1.00  0.00    -0.326 C  
ENDROOT
BRANCH   2   3
HETATM    3  N   UNL     1     -11.480   7.022  72.677  1.00  0.00    -0.246 NA 
BRANCH   3   4
HETATM    4  C   UNL     1     -11.092   5.629  72.405  1.00  0.00    -0.271 C  
HETATM    5  C   UNL     1     -11.226   4.658  73.572  1.00  0.00    -0.400 C  
ENDBRANCH   3   4
BRANCH   3   6
HETATM    6  C   UNL     1     -10.340   7.924  72.955  1.00  0.00    -0.347 C  
BRANCH   6   7
HETATM    7  C   UNL     1     -10.003   8.853  71.783  1.00  0.00    -0.327 C  
BRANCH   7   8
HETATM    8  O   UNL     1      -8.646   8.664  71.359  1.00  0.00    -0.161 OA 
BRANCH   8   9
HETATM    9  C   UNL     1      -8.507   8.501  70.003  1.00  0.00    -0.125 A  
HETATM   10  C   UNL     1      -7.284   8.524  69.325  1.00  0.00    -0.063 A  
HETATM   11  C   UNL     1      -7.250   8.453  67.935  1.00  0.00    -0.091 A  
HETATM   12  C   UNL     1      -8.430   8.315  67.201  1.00  0.00    -0.123 A  
HETATM   13  C   UNL     1      -9.654   8.238  67.881  1.00  0.00    -0.176 A  
HETATM   14  C   UNL     1      -9.687   8.325  69.279  1.00  0.00    -0.177 A  
BRANCH  12  15
HETATM   15  C   UNL     1      -8.347   8.275  65.720  1.00  0.00    -0.142 C  
HETATM   16 CL   UNL     1      -8.895   9.305  63.255  1.00  0.00    -0.206 Cl 
HETATM   17  C   UNL     1      -8.834   9.314  64.995  1.00  0.00    -0.198 C  
BRANCH  15  18
HETATM   18  C   UNL     1      -7.807   7.068  65.041  1.00  0.00    -0.125 A  
HETATM   19  C   UNL     1      -6.518   7.078  64.487  1.00  0.00    -0.036 A  
HETATM   20  C   UNL     1      -8.588   5.910  64.930  1.00  0.00    -0.037 A  
HETATM   21  C   UNL     1      -8.084   4.776  64.285  1.00  0.00    -0.111 A  
HETATM   22  C   UNL     1      -6.017   5.943  63.843  1.00  0.00    -0.025 A  
HETATM   23  C   UNL     1      -6.800   4.794  63.744  1.00  0.00    -0.043 A  
ENDBRANCH  15  18
BRANCH  17  24
HETATM   24  C   UNL     1      -9.356  10.564  65.589  1.00  0.00    -0.242 A  
HETATM   25  C   UNL     1     -10.328  12.872  66.847  1.00  0.00    -0.247 A  
HETATM   26  C   UNL     1      -8.477  11.447  66.232  1.00  0.00    -0.138 A  
HETATM   27  C   UNL     1      -8.963  12.596  66.861  1.00  0.00    -0.213 A  
HETATM   28  C   UNL     1     -11.207  12.019  66.184  1.00  0.00    -0.394 A  
HETATM   29  C   UNL     1     -10.723  10.868  65.550  1.00  0.00    -0.182 A  
ENDBRANCH  17  24
ENDBRANCH  12  15
ENDBRANCH   8   9
ENDBRANCH   7   8
ENDBRANCH   6   7
ENDBRANCH   3   6
ENDBRANCH   2   3
TORSDOF 9
ENDMDL
MODEL      168
REMARK 921   NORMALIZED FREE ENERGY PREDICTED BY IDOCK:   -3.24 KCAL/MOL
REMARK 922        TOTAL FREE ENERGY PREDICTED BY IDOCK:   -7.09 KCAL/MOL
REMARK 923 INTER-LIGAND FREE ENERGY PREDICTED BY IDOCK:   -4.89 KCAL/MOL
REMARK 924 INTRA-LIGAND FREE ENERGY PREDICTED BY IDOCK:   -2.19 KCAL/MOL
REMARK 927      BINDING AFFINITY PREDICTED BY RF-SCORE:    0.00 PKD
ROOT
HETATM    1  C   UNL     1      -5.188  10.138  67.192  1.00  0.00    -0.041 C  
HETATM    2  C   UNL     1      -5.700  11.573  67.102  1.00  0.00    -0.108 C  
ENDROOT
BRANCH   2   3
HETATM    3  N   UNL     1      -6.783  11.891  68.045  1.00  0.00    -0.066 NA 
BRANCH   3   4
HETATM    4  C   UNL     1      -6.382  12.765  69.158  1.00  0.00    -0.106 C  
HETATM    5  C   UNL     1      -5.617  12.094  70.293  1.00  0.00    -0.152 C  
ENDBRANCH   3   4
BRANCH   3   6
HETATM    6  C   UNL     1      -7.975  12.362  67.305  1.00  0.00    -0.178 C  
BRANCH   6   7
HETATM    7  C   UNL     1      -9.189  11.440  67.462  1.00  0.00    -0.160 C  
BRANCH   7   8
HETATM    8  O   UNL     1      -9.424  10.700  66.256  1.00  0.00    -0.168 OA 
BRANCH   8   9
HETATM    9  C   UNL     1      -9.380   9.338  66.424  1.00  0.00    -0.192 A  
HETATM   10  C   UNL     1      -8.239   8.554  66.235  1.00  0.00    -0.109 A  
HETATM   11  C   UNL     1      -8.316   7.166  66.328  1.00  0.00    -0.129 A  
HETATM   12  C   UNL     1      -9.522   6.542  66.655  1.00  0.00    -0.193 A  
HETATM   13  C   UNL     1     -10.656   7.329  66.900  1.00  0.00    -0.375 A  
HETATM   14  C   UNL     1     -10.580   8.724  66.790  1.00  0.00    -0.220 A  
BRANCH  12  15
HETATM   15  C   UNL     1      -9.564   5.060  66.714  1.00  0.00    -0.164 C  
HETATM   16 CL   UNL     1      -9.442   2.706  68.085  1.00  0.00    -0.257 Cl 
HETATM   17  C   UNL     1      -9.523   4.438  67.919  1.00  0.00    -0.161 C  
BRANCH  15  18
HETATM   18  C   UNL     1      -9.570   4.269  65.455  1.00  0.00    -0.187 A  
HETATM   19  C   UNL     1     -10.766   4.049  64.757  1.00  0.00    -0.140 A  
HETATM   20  C   UNL     1      -8.380   3.718  64.961  1.00  0.00    -0.101 A  
HETATM   21  C   UNL     1      -8.385   2.967  63.780  1.00  0.00    -0.086 A  
HETATM   22  C   UNL     1     -10.769   3.299  63.578  1.00  0.00    -0.252 A  
HETATM   23  C   UNL     1      -9.579   2.761  63.091  1.00  0.00    -0.094 A  
ENDBRANCH  15  18
BRANCH  17  24
HETATM   24  C   UNL     1      -9.550   5.145  69.217  1.00  0.00    -0.223 A  
HETATM   25  C   UNL     1      -9.649   6.607  71.607  1.00  0.00    -0.167 A  
HETATM   26  C   UNL     1     -10.778   5.406  69.840  1.00  0.00    -0.292 A  
HETATM   27  C   UNL     1     -10.827   6.136  71.030  1.00  0.00    -0.338 A  
HETATM   28  C   UNL     1      -8.420   6.327  71.013  1.00  0.00    -0.128 A  
HETATM   29  C   UNL     1      -8.368   5.593  69.822  1.00  0.00    -0.107 A  
ENDBRANCH  17  24
ENDBRANCH  12  15
ENDBRANCH   8   9
ENDBRANCH   7   8
ENDBRANCH   6   7
ENDBRANCH   3   6
ENDBRANCH   2   3
TORSDOF 9
ENDMDL
MODEL      169
REMARK 921   NORMALIZED FREE ENERGY PREDICTED BY IDOCK:   -3.24 KCAL/MOL
REMARK 922        TOTAL FREE ENERGY PREDICTED BY IDOCK:   -7.09 KCAL/MOL
REMARK 923 INTER-LIGAND FREE ENERGY PREDICTED BY IDOCK:   -5.56 KCAL/MOL
REMARK 924 INTRA-LIGAND FREE ENERGY PREDICTED BY IDOCK:   -1.52 KCAL/MOL
REMARK 927      BINDING AFFINITY PREDICTED BY RF-SCORE:    0.00 PKD
ROOT
HETATM    1  C   UNL     1      -8.563  16.150  68.510  1.00  0.00    -0.202 C  
HETATM    2  C   UNL     1      -8.499  15.223  67.300  1.00  0.00    -0.193 C  
ENDROOT
BRANCH   2   3
HETATM    3  N   UNL     1      -9.438  14.093  67.351  1.00  0.00    -0.214 NA 
BRANCH   3   4
HETATM    4  C   UNL     1     -10.272  13.941  66.149  1.00  0.00    -0.301 C  
HETATM    5  C   UNL     1     -10.415  15.180  65.274  1.00  0.00    -0.434 C  
ENDBRANCH   3   4
BRANCH   3   6
HETATM    6  C   UNL     1      -8.723  12.860  67.751  1.00  0.00    -0.188 C  
BRANCH   6   7
HETATM    7  C   UNL     1      -9.664  11.706  68.117  1.00  0.00    -0.189 C  
BRANCH   7   8
HETATM    8  O   UNL     1      -9.278  11.113  69.365  1.00  0.00     0.067 OA 
BRANCH   8   9
HETATM    9  C   UNL     1      -9.266   9.740  69.346  1.00  0.00    -0.205 A  
HETATM   10  C   UNL     1      -8.122   8.962  69.148  1.00  0.00    -0.117 A  
HETATM   11  C   UNL     1      -8.224   7.577  69.042  1.00  0.00    -0.128 A  
HETATM   12  C   UNL     1      -9.462   6.944  69.176  1.00  0.00    -0.142 A  
HETATM   13  C   UNL     1     -10.603   7.717  69.429  1.00  0.00    -0.211 A  
HETATM   14  C   UNL     1     -10.501   9.111  69.519  1.00  0.00    -0.226 A  
BRANCH  12  15
HETATM   15  C   UNL     1      -9.527   5.468  69.024  1.00  0.00    -0.167 C  
HETATM   16 CL   UNL     1      -9.429   2.943  70.047  1.00  0.00    -0.214 Cl 
HETATM   17  C   UNL     1      -9.484   4.682  70.129  1.00  0.00    -0.176 C  
BRANCH  15  18
HETATM   18  C   UNL     1      -9.558   4.864  67.666  1.00  0.00    -0.183 A  
HETATM   19  C   UNL     1     -10.525   5.261  66.732  1.00  0.00    -0.330 A  
HETATM   20  C   UNL     1      -8.632   3.875  67.312  1.00  0.00    -0.108 A  
HETATM   21  C   UNL     1      -8.664   3.299  66.037  1.00  0.00    -0.127 A  
HETATM   22  C   UNL     1     -10.556   4.684  65.459  1.00  0.00    -0.208 A  
HETATM   23  C   UNL     1      -9.625   3.706  65.113  1.00  0.00    -0.167 A  
ENDBRANCH  15  18
BRANCH  17  24
HETATM   24  C   UNL     1      -9.487   5.199  71.514  1.00  0.00    -0.197 A  
HETATM   25  C   UNL     1      -9.545   6.307  74.088  1.00  0.00    -0.217 A  
HETATM   26  C   UNL     1     -10.700   5.332  72.203  1.00  0.00    -0.271 A  
HETATM   27  C   UNL     1     -10.729   5.887  73.485  1.00  0.00    -0.284 A  
HETATM   28  C   UNL     1      -8.330   6.151  73.426  1.00  0.00    -0.116 A  
HETATM   29  C   UNL     1      -8.298   5.593  72.142  1.00  0.00    -0.115 A  
ENDBRANCH  17  24
ENDBRANCH  12  15
ENDBRANCH   8   9
ENDBRANCH   7   8
ENDBRANCH   6   7
ENDBRANCH   3   6
ENDBRANCH   2   3
TORSDOF 9
ENDMDL
MODEL      170
REMARK 921   NORMALIZED FREE ENERGY PREDICTED BY IDOCK:   -3.21 KCAL/MOL
REMARK 922        TOTAL FREE ENERGY PREDICTED BY IDOCK:   -7.04 KCAL/MOL
REMARK 923 INTER-LIGAND FREE ENERGY PREDICTED BY IDOCK:   -5.03 KCAL/MOL
REMARK 924 INTRA-LIGAND FREE ENERGY PREDICTED BY IDOCK:   -2.01 KCAL/MOL
REMARK 927      BINDING AFFINITY PREDICTED BY RF-SCORE:    0.00 PKD
ROOT
HETATM    1  C   UNL     1      -6.758   4.429  72.065  1.00  0.00    -0.030 C  
HETATM    2  C   UNL     1      -7.463   5.766  71.851  1.00  0.00    -0.095 C  
ENDROOT
BRANCH   2   3
HETATM    3  N   UNL     1      -8.922   5.718  72.034  1.00  0.00    -0.138 NA 
BRANCH   3   4
HETATM    4  C   UNL     1      -9.464   4.368  72.251  1.00  0.00    -0.135 C  
HETATM    5  C   UNL     1     -10.363   4.196  73.469  1.00  0.00    -0.238 C  
ENDBRANCH   3   4
BRANCH   3   6
HETATM    6  C   UNL     1      -9.335   6.707  73.054  1.00  0.00    -0.135 C  
BRANCH   6   7
HETATM    7  C   UNL     1     -10.313   7.759  72.517  1.00  0.00    -0.268 C  
BRANCH   7   8
HETATM    8  O   UNL     1      -9.623   8.972  72.188  1.00  0.00    -0.312 OA 
BRANCH   8   9
HETATM    9  C   UNL     1      -9.260   9.063  70.867  1.00  0.00    -0.259 A  
HETATM   10  C   UNL     1      -8.094   9.681  70.408  1.00  0.00    -0.198 A  
HETATM   11  C   UNL     1      -7.861   9.815  69.041  1.00  0.00    -0.087 A  
HETATM   12  C   UNL     1      -8.766   9.297  68.112  1.00  0.00    -0.125 A  
HETATM   13  C   UNL     1      -9.909   8.628  68.570  1.00  0.00    -0.183 A  
HETATM   14  C   UNL     1     -10.150   8.508  69.945  1.00  0.00    -0.195 A  
BRANCH  12  15
HETATM   15  C   UNL     1      -8.491   9.491  66.666  1.00  0.00    -0.136 C  
HETATM   16 CL   UNL     1      -8.894  10.779  64.297  1.00  0.00    -0.159 Cl 
HETATM   17  C   UNL     1      -9.055  10.538  66.014  1.00  0.00    -0.168 C  
BRANCH  15  18
HETATM   18  C   UNL     1      -7.668   8.496  65.929  1.00  0.00    -0.097 A  
HETATM   19  C   UNL     1      -8.246   7.317  65.437  1.00  0.00    -0.137 A  
HETATM   20  C   UNL     1      -6.298   8.717  65.735  1.00  0.00    -0.056 A  
HETATM   21  C   UNL     1      -5.521   7.779  65.048  1.00  0.00    -0.033 A  
HETATM   22  C   UNL     1      -7.466   6.381  64.752  1.00  0.00    -0.087 A  
HETATM   23  C   UNL     1      -6.106   6.614  64.557  1.00  0.00    -0.035 A  
ENDBRANCH  15  18
BRANCH  17  24
HETATM   24  C   UNL     1      -9.856  11.591  66.676  1.00  0.00    -0.228 A  
HETATM   25  C   UNL     1     -11.294  13.565  68.051  1.00  0.00    -0.318 A  
HETATM   26  C   UNL     1      -9.296  12.857  66.891  1.00  0.00    -0.240 A  
HETATM   27  C   UNL     1     -10.013  13.840  67.579  1.00  0.00    -0.233 A  
HETATM   28  C   UNL     1     -11.873  12.320  67.816  1.00  0.00    -0.341 A  
HETATM   29  C   UNL     1     -11.159  11.334  67.124  1.00  0.00    -0.364 A  
ENDBRANCH  17  24
ENDBRANCH  12  15
ENDBRANCH   8   9
ENDBRANCH   7   8
ENDBRANCH   6   7
ENDBRANCH   3   6
ENDBRANCH   2   3
TORSDOF 9
ENDMDL
MODEL      171
REMARK 921   NORMALIZED FREE ENERGY PREDICTED BY IDOCK:   -3.20 KCAL/MOL
REMARK 922        TOTAL FREE ENERGY PREDICTED BY IDOCK:   -7.02 KCAL/MOL
REMARK 923 INTER-LIGAND FREE ENERGY PREDICTED BY IDOCK:   -4.63 KCAL/MOL
REMARK 924 INTRA-LIGAND FREE ENERGY PREDICTED BY IDOCK:   -2.39 KCAL/MOL
REMARK 927      BINDING AFFINITY PREDICTED BY RF-SCORE:    0.00 PKD
ROOT
HETATM    1  C   UNL     1      -7.154  11.567  68.909  1.00  0.00    -0.111 C  
HETATM    2  C   UNL     1      -8.586  11.048  68.824  1.00  0.00    -0.144 C  
ENDROOT
BRANCH   2   3
HETATM    3  N   UNL     1      -9.418  11.724  67.818  1.00  0.00    -0.176 NA 
BRANCH   3   4
HETATM    4  C   UNL     1     -10.122  12.917  68.314  1.00  0.00    -0.242 C  
HETATM    5  C   UNL     1     -11.630  12.778  68.490  1.00  0.00    -0.358 C  
ENDBRANCH   3   4
BRANCH   3   6
HETATM    6  C   UNL     1      -8.632  11.955  66.585  1.00  0.00    -0.163 C  
BRANCH   6   7
HETATM    7  C   UNL     1      -8.667  10.769  65.614  1.00  0.00    -0.190 C  
BRANCH   7   8
HETATM    8  O   UNL     1      -7.493   9.958  65.761  1.00  0.00    -0.101 OA 
BRANCH   8   9
HETATM    9  C   UNL     1      -7.757   8.667  66.147  1.00  0.00    -0.097 A  
HETATM   10  C   UNL     1      -6.837   7.828  66.783  1.00  0.00    -0.071 A  
HETATM   11  C   UNL     1      -7.161   6.499  67.044  1.00  0.00    -0.073 A  
HETATM   12  C   UNL     1      -8.422   5.998  66.714  1.00  0.00    -0.110 A  
HETATM   13  C   UNL     1      -9.365   6.851  66.125  1.00  0.00    -0.089 A  
HETATM   14  C   UNL     1      -9.032   8.183  65.849  1.00  0.00    -0.195 A  
BRANCH  12  15
HETATM   15  C   UNL     1      -8.712   4.567  66.982  1.00  0.00    -0.104 C  
HETATM   16 CL   UNL     1      -9.500   2.545  68.633  1.00  0.00    -0.241 Cl 
HETATM   17  C   UNL     1      -9.241   4.206  68.178  1.00  0.00    -0.147 C  
BRANCH  15  18
HETATM   18  C   UNL     1      -8.349   3.536  65.974  1.00  0.00    -0.106 A  
HETATM   19  C   UNL     1      -9.291   3.098  65.032  1.00  0.00    -0.148 A  
HETATM   20  C   UNL     1      -7.065   2.976  65.966  1.00  0.00    -0.062 A  
HETATM   21  C   UNL     1      -6.724   2.001  65.023  1.00  0.00    -0.028 A  
HETATM   22  C   UNL     1      -8.948   2.123  64.091  1.00  0.00    -0.104 A  
HETATM   23  C   UNL     1      -7.665   1.578  64.087  1.00  0.00    -0.060 A  
ENDBRANCH  15  18
BRANCH  17  24
HETATM   24  C   UNL     1      -9.662   5.166  69.221  1.00  0.00    -0.242 A  
HETATM   25  C   UNL     1     -10.442   7.095  71.099  1.00  0.00    -0.225 A  
HETATM   26  C   UNL     1     -10.940   5.737  69.163  1.00  0.00    -0.308 A  
HETATM   27  C   UNL     1     -11.328   6.700  70.098  1.00  0.00    -0.440 A  
HETATM   28  C   UNL     1      -9.181   6.511  71.185  1.00  0.00    -0.156 A  
HETATM   29  C   UNL     1      -8.790   5.544  70.251  1.00  0.00    -0.140 A  
ENDBRANCH  17  24
ENDBRANCH  12  15
ENDBRANCH   8   9
ENDBRANCH   7   8
ENDBRANCH   6   7
ENDBRANCH   3   6
ENDBRANCH   2   3
TORSDOF 9
ENDMDL
MODEL      172
REMARK 921   NORMALIZED FREE ENERGY PREDICTED BY IDOCK:   -3.19 KCAL/MOL
REMARK 922        TOTAL FREE ENERGY PREDICTED BY IDOCK:   -7.00 KCAL/MOL
REMARK 923 INTER-LIGAND FREE ENERGY PREDICTED BY IDOCK:   -4.85 KCAL/MOL
REMARK 924 INTRA-LIGAND FREE ENERGY PREDICTED BY IDOCK:   -2.15 KCAL/MOL
REMARK 927      BINDING AFFINITY PREDICTED BY RF-SCORE:    0.00 PKD
ROOT
HETATM    1  C   UNL     1     -10.789  12.311  69.160  1.00  0.00    -0.149 C  
HETATM    2  C   UNL     1     -11.692  13.540  69.200  1.00  0.00    -0.327 C  
ENDROOT
BRANCH   2   3
HETATM    3  N   UNL     1     -12.137  14.009  67.879  1.00  0.00    -0.339 NA 
BRANCH   3   4
HETATM    4  C   UNL     1     -11.495  15.253  67.428  1.00  0.00    -0.241 C  
HETATM    5  C   UNL     1     -10.806  16.080  68.507  1.00  0.00    -0.304 C  
ENDBRANCH   3   4
BRANCH   3   6
HETATM    6  C   UNL     1     -12.065  12.902  66.900  1.00  0.00    -0.244 C  
BRANCH   6   7
HETATM    7  C   UNL     1     -11.269  13.258  65.639  1.00  0.00    -0.285 C  
BRANCH   7   8
HETATM    8  O   UNL     1      -9.865  13.063  65.854  1.00  0.00    -0.275 OA 
BRANCH   8   9
HETATM    9  C   UNL     1      -9.466  11.752  65.756  1.00  0.00    -0.216 A  
HETATM   10  C   UNL     1     -10.158  10.766  65.048  1.00  0.00    -0.377 A  
HETATM   11  C   UNL     1      -9.732   9.441  65.090  1.00  0.00    -0.106 A  
HETATM   12  C   UNL     1      -8.585   9.086  65.803  1.00  0.00    -0.180 A  
HETATM   13  C   UNL     1      -7.858  10.082  66.470  1.00  0.00    -0.112 A  
HETATM   14  C   UNL     1      -8.297  11.412  66.439  1.00  0.00    -0.140 A  
BRANCH  12  15
HETATM   15  C   UNL     1      -8.187   7.657  65.846  1.00  0.00    -0.133 C  
HETATM   16 CL   UNL     1      -7.782   5.315  67.183  1.00  0.00    -0.095 Cl 
HETATM   17  C   UNL     1      -8.334   6.957  66.999  1.00  0.00    -0.121 C  
BRANCH  15  18
HETATM   18  C   UNL     1      -7.560   7.027  64.654  1.00  0.00    -0.106 A  
HETATM   19  C   UNL     1      -8.280   6.115  63.868  1.00  0.00    -0.008 A  
HETATM   20  C   UNL     1      -6.234   7.324  64.313  1.00  0.00    -0.040 A  
HETATM   21  C   UNL     1      -5.640   6.727  63.196  1.00  0.00    -0.035 A  
HETATM   22  C   UNL     1      -7.683   5.520  62.752  1.00  0.00    -0.078 A  
HETATM   23  C   UNL     1      -6.366   5.828  62.418  1.00  0.00    -0.022 A  
ENDBRANCH  15  18
BRANCH  17  24
HETATM   24  C   UNL     1      -8.977   7.494  68.217  1.00  0.00    -0.130 A  
HETATM   25  C   UNL     1     -10.161   8.388  70.595  1.00  0.00    -0.222 A  
HETATM   26  C   UNL     1      -8.183   7.942  69.281  1.00  0.00    -0.128 A  
HETATM   27  C   UNL     1      -8.774   8.385  70.467  1.00  0.00    -0.152 A  
HETATM   28  C   UNL     1     -10.961   7.974  69.532  1.00  0.00    -0.062 A  
HETATM   29  C   UNL     1     -10.372   7.532  68.341  1.00  0.00    -0.226 A  
ENDBRANCH  17  24
ENDBRANCH  12  15
ENDBRANCH   8   9
ENDBRANCH   7   8
ENDBRANCH   6   7
ENDBRANCH   3   6
ENDBRANCH   2   3
TORSDOF 9
ENDMDL
MODEL      173
REMARK 921   NORMALIZED FREE ENERGY PREDICTED BY IDOCK:   -3.17 KCAL/MOL
REMARK 922        TOTAL FREE ENERGY PREDICTED BY IDOCK:   -6.97 KCAL/MOL
REMARK 923 INTER-LIGAND FREE ENERGY PREDICTED BY IDOCK:   -5.88 KCAL/MOL
REMARK 924 INTRA-LIGAND FREE ENERGY PREDICTED BY IDOCK:   -1.10 KCAL/MOL
REMARK 927      BINDING AFFINITY PREDICTED BY RF-SCORE:    0.00 PKD
ROOT
HETATM    1  C   UNL     1      -6.598   8.718  71.590  1.00  0.00    -0.075 C  
HETATM    2  C   UNL     1      -7.401   7.961  72.643  1.00  0.00    -0.097 C  
ENDROOT
BRANCH   2   3
HETATM    3  N   UNL     1      -8.813   7.748  72.292  1.00  0.00    -0.124 NA 
BRANCH   3   4
HETATM    4  C   UNL     1      -9.706   7.563  73.446  1.00  0.00    -0.291 C  
HETATM    5  C   UNL     1     -11.007   6.818  73.172  1.00  0.00    -0.279 C  
ENDBRANCH   3   4
BRANCH   3   6
HETATM    6  C   UNL     1      -9.260   8.792  71.342  1.00  0.00    -0.255 C  
BRANCH   6   7
HETATM    7  C   UNL     1      -9.648   8.235  69.968  1.00  0.00    -0.168 C  
BRANCH   7   8
HETATM    8  O   UNL     1     -10.764   8.954  69.425  1.00  0.00    -0.228 OA 
BRANCH   8   9
HETATM    9  C   UNL     1     -10.426  10.165  68.871  1.00  0.00    -0.210 A  
HETATM   10  C   UNL     1     -10.948  11.395  69.281  1.00  0.00    -0.282 A  
HETATM   11  C   UNL     1     -10.624  12.561  68.591  1.00  0.00    -0.240 A  
HETATM   12  C   UNL     1      -9.741  12.524  67.509  1.00  0.00    -0.196 A  
HETATM   13  C   UNL     1      -9.174  11.300  67.130  1.00  0.00    -0.169 A  
HETATM   14  C   UNL     1      -9.513  10.126  67.815  1.00  0.00    -0.160 A  
BRANCH  12  15
HETATM   15  C   UNL     1      -9.450  13.786  66.785  1.00  0.00    -0.281 C  
HETATM   16 CL   UNL     1      -7.953  16.028  66.373  1.00  0.00    -0.273 Cl 
HETATM   17  C   UNL     1      -8.320  14.478  67.077  1.00  0.00    -0.167 C  
BRANCH  15  18
HETATM   18  C   UNL     1     -10.432  14.321  65.805  1.00  0.00    -0.326 A  
HETATM   19  C   UNL     1     -10.525  15.701  65.570  1.00  0.00    -0.426 A  
HETATM   20  C   UNL     1     -11.291  13.452  65.119  1.00  0.00    -0.316 A  
HETATM   21  C   UNL     1     -12.220  13.955  64.203  1.00  0.00    -0.436 A  
HETATM   22  C   UNL     1     -11.455  16.200  64.654  1.00  0.00    -0.225 A  
HETATM   23  C   UNL     1     -12.300  15.326  63.971  1.00  0.00     0.046 A  
ENDBRANCH  15  18
BRANCH  17  24
HETATM   24  C   UNL     1      -7.276  14.001  68.010  1.00  0.00    -0.146 A  
HETATM   25  C   UNL     1      -5.232  13.229  69.766  1.00  0.00    -0.085 A  
HETATM   26  C   UNL     1      -7.260  14.469  69.331  1.00  0.00    -0.120 A  
HETATM   27  C   UNL     1      -6.239  14.086  70.205  1.00  0.00    -0.133 A  
HETATM   28  C   UNL     1      -5.255  12.733  68.465  1.00  0.00    -0.060 A  
HETATM   29  C   UNL     1      -6.278  13.113  67.588  1.00  0.00    -0.156 A  
ENDBRANCH  17  24
ENDBRANCH  12  15
ENDBRANCH   8   9
ENDBRANCH   7   8
ENDBRANCH   6   7
ENDBRANCH   3   6
ENDBRANCH   2   3
TORSDOF 9
ENDMDL
MODEL      174
REMARK 921   NORMALIZED FREE ENERGY PREDICTED BY IDOCK:   -3.15 KCAL/MOL
REMARK 922        TOTAL FREE ENERGY PREDICTED BY IDOCK:   -6.94 KCAL/MOL
REMARK 923 INTER-LIGAND FREE ENERGY PREDICTED BY IDOCK:   -5.19 KCAL/MOL
REMARK 924 INTRA-LIGAND FREE ENERGY PREDICTED BY IDOCK:   -1.76 KCAL/MOL
REMARK 927      BINDING AFFINITY PREDICTED BY RF-SCORE:    0.00 PKD
ROOT
HETATM    1  C   UNL     1     -11.948  13.190  63.913  1.00  0.00    -0.550 C  
HETATM    2  C   UNL     1     -10.616  12.749  64.511  1.00  0.00    -0.360 C  
ENDROOT
BRANCH   2   3
HETATM    3  N   UNL     1     -10.425  11.291  64.556  1.00  0.00    -0.314 NA 
BRANCH   3   4
HETATM    4  C   UNL     1      -9.790  10.724  63.357  1.00  0.00    -0.349 C  
HETATM    5  C   UNL     1      -8.513   9.926  63.590  1.00  0.00    -0.181 C  
ENDBRANCH   3   4
BRANCH   3   6
HETATM    6  C   UNL     1      -9.769  10.907  65.827  1.00  0.00    -0.224 C  
BRANCH   6   7
HETATM    7  C   UNL     1     -10.561   9.868  66.628  1.00  0.00    -0.115 C  
BRANCH   7   8
HETATM    8  O   UNL     1     -10.241   9.951  68.023  1.00  0.00    -0.164 OA 
BRANCH   8   9
HETATM    9  C   UNL     1      -9.771   8.776  68.556  1.00  0.00    -0.162 A  
HETATM   10  C   UNL     1      -8.438   8.359  68.499  1.00  0.00    -0.132 A  
HETATM   11  C   UNL     1      -8.074   7.103  68.976  1.00  0.00    -0.121 A  
HETATM   12  C   UNL     1      -9.025   6.260  69.557  1.00  0.00    -0.134 A  
HETATM   13  C   UNL     1     -10.352   6.697  69.665  1.00  0.00    -0.226 A  
HETATM   14  C   UNL     1     -10.720   7.955  69.169  1.00  0.00    -0.130 A  
BRANCH  12  15
HETATM   15  C   UNL     1      -8.596   4.918  70.024  1.00  0.00    -0.106 C  
HETATM   16 CL   UNL     1      -7.531   3.257  71.905  1.00  0.00    -0.051 Cl 
HETATM   17  C   UNL     1      -8.168   4.761  71.302  1.00  0.00    -0.102 C  
BRANCH  15  18
HETATM   18  C   UNL     1      -8.564   3.778  69.070  1.00  0.00    -0.115 A  
HETATM   19  C   UNL     1      -9.429   2.686  69.235  1.00  0.00    -0.140 A  
HETATM   20  C   UNL     1      -7.654   3.773  68.005  1.00  0.00    -0.066 A  
HETATM   21  C   UNL     1      -7.617   2.698  67.111  1.00  0.00    -0.069 A  
HETATM   22  C   UNL     1      -9.390   1.613  68.340  1.00  0.00    -0.241 A  
HETATM   23  C   UNL     1      -8.486   1.621  67.279  1.00  0.00    -0.094 A  
ENDBRANCH  15  18
BRANCH  17  24
HETATM   24  C   UNL     1      -8.200   5.830  72.322  1.00  0.00    -0.108 A  
HETATM   25  C   UNL     1      -8.339   7.938  74.164  1.00  0.00    -0.312 A  
HETATM   26  C   UNL     1      -9.375   6.061  73.050  1.00  0.00    -0.139 A  
HETATM   27  C   UNL     1      -9.445   7.114  73.966  1.00  0.00    -0.303 A  
HETATM   28  C   UNL     1      -7.156   7.698  73.470  1.00  0.00    -0.105 A  
HETATM   29  C   UNL     1      -7.082   6.643  72.553  1.00  0.00    -0.073 A  
ENDBRANCH  17  24
ENDBRANCH  12  15
ENDBRANCH   8   9
ENDBRANCH   7   8
ENDBRANCH   6   7
ENDBRANCH   3   6
ENDBRANCH   2   3
TORSDOF 9
ENDMDL
MODEL      175
REMARK 921   NORMALIZED FREE ENERGY PREDICTED BY IDOCK:   -3.09 KCAL/MOL
REMARK 922        TOTAL FREE ENERGY PREDICTED BY IDOCK:   -6.86 KCAL/MOL
REMARK 923 INTER-LIGAND FREE ENERGY PREDICTED BY IDOCK:   -4.32 KCAL/MOL
REMARK 924 INTRA-LIGAND FREE ENERGY PREDICTED BY IDOCK:   -2.53 KCAL/MOL
REMARK 927      BINDING AFFINITY PREDICTED BY RF-SCORE:    0.00 PKD
ROOT
HETATM    1  C   UNL     1      -8.454   3.358  73.053  1.00  0.00    -0.082 C  
HETATM    2  C   UNL     1      -7.460   4.479  73.343  1.00  0.00    -0.082 C  
ENDROOT
BRANCH   2   3
HETATM    3  N   UNL     1      -6.104   4.237  72.827  1.00  0.00    -0.016 NA 
BRANCH   3   4
HETATM    4  C   UNL     1      -6.063   3.597  71.503  1.00  0.00    -0.014 C  
HETATM    5  C   UNL     1      -5.142   4.245  70.476  1.00  0.00     0.000 C  
ENDBRANCH   3   4
BRANCH   3   6
HETATM    6  C   UNL     1      -5.298   5.474  72.926  1.00  0.00    -0.018 C  
BRANCH   6   7
HETATM    7  C   UNL     1      -5.955   6.558  73.788  1.00  0.00    -0.063 C  
BRANCH   7   8
HETATM    8  O   UNL     1      -5.859   7.839  73.151  1.00  0.00    -0.047 OA 
BRANCH   8   9
HETATM    9  C   UNL     1      -6.817   8.054  72.190  1.00  0.00    -0.071 A  
HETATM   10  C   UNL     1      -8.171   8.269  72.458  1.00  0.00    -0.224 A  
HETATM   11  C   UNL     1      -9.086   8.375  71.414  1.00  0.00    -0.240 A  
HETATM   12  C   UNL     1      -8.658   8.313  70.086  1.00  0.00    -0.128 A  
HETATM   13  C   UNL     1      -7.293   8.152  69.813  1.00  0.00    -0.065 A  
HETATM   14  C   UNL     1      -6.376   8.029  70.866  1.00  0.00    -0.037 A  
BRANCH  12  15
HETATM   15  C   UNL     1      -9.673   8.400  69.006  1.00  0.00    -0.171 C  
HETATM   16 CL   UNL     1     -11.124   7.294  66.979  1.00  0.00    -0.267 Cl 
HETATM   17  C   UNL     1     -10.037   7.275  68.340  1.00  0.00    -0.171 C  
BRANCH  15  18
HETATM   18  C   UNL     1     -10.221   9.724  68.610  1.00  0.00    -0.210 A  
HETATM   19  C   UNL     1      -9.582  10.497  67.631  1.00  0.00    -0.175 A  
HETATM   20  C   UNL     1     -11.376  10.223  69.228  1.00  0.00    -0.253 A  
HETATM   21  C   UNL     1     -11.890  11.472  68.863  1.00  0.00    -0.406 A  
HETATM   22  C   UNL     1     -10.097  11.745  67.268  1.00  0.00    -0.211 A  
HETATM   23  C   UNL     1     -11.250  12.229  67.883  1.00  0.00    -0.328 A  
ENDBRANCH  15  18
BRANCH  17  24
HETATM   24  C   UNL     1      -9.568   5.917  68.691  1.00  0.00    -0.145 A  
HETATM   25  C   UNL     1      -8.751   3.292  69.238  1.00  0.00    -0.135 A  
HETATM   26  C   UNL     1      -8.557   5.314  67.929  1.00  0.00    -0.103 A  
HETATM   27  C   UNL     1      -8.153   4.005  68.201  1.00  0.00    -0.084 A  
HETATM   28  C   UNL     1      -9.734   3.893  70.021  1.00  0.00    -0.242 A  
HETATM   29  C   UNL     1     -10.140   5.205  69.753  1.00  0.00    -0.336 A  
ENDBRANCH  17  24
ENDBRANCH  12  15
ENDBRANCH   8   9
ENDBRANCH   7   8
ENDBRANCH   6   7
ENDBRANCH   3   6
ENDBRANCH   2   3
TORSDOF 9
ENDMDL
MODEL      176
REMARK 921   NORMALIZED FREE ENERGY PREDICTED BY IDOCK:   -3.09 KCAL/MOL
REMARK 922        TOTAL FREE ENERGY PREDICTED BY IDOCK:   -6.85 KCAL/MOL
REMARK 923 INTER-LIGAND FREE ENERGY PREDICTED BY IDOCK:   -5.08 KCAL/MOL
REMARK 924 INTRA-LIGAND FREE ENERGY PREDICTED BY IDOCK:   -1.77 KCAL/MOL
REMARK 927      BINDING AFFINITY PREDICTED BY RF-SCORE:    0.00 PKD
ROOT
HETATM    1  C   UNL     1     -10.830  12.456  64.585  1.00  0.00    -0.346 C  
HETATM    2  C   UNL     1     -11.192  12.765  66.034  1.00  0.00    -0.299 C  
ENDROOT
BRANCH   2   3
HETATM    3  N   UNL     1     -10.043  13.103  66.888  1.00  0.00    -0.241 NA 
BRANCH   3   4
HETATM    4  C   UNL     1     -10.287  14.210  67.825  1.00  0.00    -0.242 C  
HETATM    5  C   UNL     1      -9.676  15.554  67.445  1.00  0.00    -0.218 C  
ENDBRANCH   3   4
BRANCH   3   6
HETATM    6  C   UNL     1      -9.510  11.878  67.525  1.00  0.00    -0.176 C  
BRANCH   6   7
HETATM    7  C   UNL     1     -10.597  11.006  68.165  1.00  0.00    -0.191 C  
BRANCH   7   8
HETATM    8  O   UNL     1     -10.723   9.759  67.468  1.00  0.00    -0.264 OA 
BRANCH   8   9
HETATM    9  C   UNL     1     -10.397   8.663  68.229  1.00  0.00    -0.207 A  
HETATM   10  C   UNL     1      -9.368   8.635  69.174  1.00  0.00    -0.153 A  
HETATM   11  C   UNL     1      -9.043   7.447  69.824  1.00  0.00    -0.141 A  
HETATM   12  C   UNL     1      -9.768   6.279  69.574  1.00  0.00    -0.169 A  
HETATM   13  C   UNL     1     -10.836   6.318  68.667  1.00  0.00    -0.401 A  
HETATM   14  C   UNL     1     -11.151   7.510  68.002  1.00  0.00     0.142 A  
BRANCH  12  15
HETATM   15  C   UNL     1      -9.367   5.030  70.267  1.00  0.00    -0.212 C  
HETATM   16 CL   UNL     1      -8.470   2.455  70.248  1.00  0.00    -0.078 Cl 
HETATM   17  C   UNL     1      -8.854   4.001  69.546  1.00  0.00    -0.091 C  
BRANCH  15  18
HETATM   18  C   UNL     1      -9.602   4.885  71.728  1.00  0.00    -0.210 A  
HETATM   19  C   UNL     1     -10.820   4.382  72.208  1.00  0.00     0.015 A  
HETATM   20  C   UNL     1      -8.614   5.269  72.644  1.00  0.00    -0.117 A  
HETATM   21  C   UNL     1      -8.836   5.141  74.019  1.00  0.00    -0.117 A  
HETATM   22  C   UNL     1     -11.039   4.256  73.583  1.00  0.00    -0.351 A  
HETATM   23  C   UNL     1     -10.047   4.634  74.485  1.00  0.00    -0.266 A  
ENDBRANCH  15  18
BRANCH  17  24
HETATM   24  C   UNL     1      -8.556   4.073  68.099  1.00  0.00    -0.111 A  
HETATM   25  C   UNL     1      -8.041   4.347  65.357  1.00  0.00    -0.102 A  
HETATM   26  C   UNL     1      -7.447   4.806  67.654  1.00  0.00    -0.078 A  
HETATM   27  C   UNL     1      -7.193   4.944  66.287  1.00  0.00    -0.077 A  
HETATM   28  C   UNL     1      -9.128   3.590  65.789  1.00  0.00    -0.150 A  
HETATM   29  C   UNL     1      -9.384   3.447  67.158  1.00  0.00    -0.224 A  
ENDBRANCH  17  24
ENDBRANCH  12  15
ENDBRANCH   8   9
ENDBRANCH   7   8
ENDBRANCH   6   7
ENDBRANCH   3   6
ENDBRANCH   2   3
TORSDOF 9
ENDMDL
MODEL      177
REMARK 921   NORMALIZED FREE ENERGY PREDICTED BY IDOCK:   -3.07 KCAL/MOL
REMARK 922        TOTAL FREE ENERGY PREDICTED BY IDOCK:   -6.82 KCAL/MOL
REMARK 923 INTER-LIGAND FREE ENERGY PREDICTED BY IDOCK:   -6.53 KCAL/MOL
REMARK 924 INTRA-LIGAND FREE ENERGY PREDICTED BY IDOCK:   -0.30 KCAL/MOL
REMARK 927      BINDING AFFINITY PREDICTED BY RF-SCORE:    0.00 PKD
ROOT
HETATM    1  C   UNL     1     -12.727  15.638  70.367  1.00  0.00    -0.325 C  
HETATM    2  C   UNL     1     -11.772  15.043  71.397  1.00  0.00    -0.357 C  
ENDROOT
BRANCH   2   3
HETATM    3  N   UNL     1     -12.429  14.239  72.439  1.00  0.00    -0.224 NA 
BRANCH   3   4
HETATM    4  C   UNL     1     -12.877  15.009  73.609  1.00  0.00    -0.446 C  
HETATM    5  C   UNL     1     -12.287  16.406  73.756  1.00  0.00    -0.577 C  
ENDBRANCH   3   4
BRANCH   3   6
HETATM    6  C   UNL     1     -13.480  13.390  71.834  1.00  0.00    -0.441 C  
BRANCH   6   7
HETATM    7  C   UNL     1     -12.950  12.459  70.737  1.00  0.00     0.113 C  
BRANCH   7   8
HETATM    8  O   UNL     1     -12.531  11.206  71.294  1.00  0.00    -0.376 OA 
BRANCH   8   9
HETATM    9  C   UNL     1     -11.631  10.525  70.511  1.00  0.00    -0.350 A  
HETATM   10  C   UNL     1     -11.579  10.602  69.116  1.00  0.00    -0.342 A  
HETATM   11  C   UNL     1     -10.698   9.796  68.400  1.00  0.00    -0.262 A  
HETATM   12  C   UNL     1      -9.826   8.931  69.065  1.00  0.00    -0.182 A  
HETATM   13  C   UNL     1      -9.838   8.890  70.466  1.00  0.00    -0.242 A  
HETATM   14  C   UNL     1     -10.736   9.691  71.184  1.00  0.00    -0.365 A  
BRANCH  12  15
HETATM   15  C   UNL     1      -8.927   8.068  68.259  1.00  0.00    -0.132 C  
HETATM   16 CL   UNL     1      -7.438   5.809  67.917  1.00  0.00    -0.077 Cl 
HETATM   17  C   UNL     1      -8.582   6.842  68.728  1.00  0.00    -0.123 C  
BRANCH  15  18
HETATM   18  C   UNL     1      -8.351   8.581  66.989  1.00  0.00    -0.110 A  
HETATM   19  C   UNL     1      -7.209   9.395  67.001  1.00  0.00    -0.087 A  
HETATM   20  C   UNL     1      -8.956   8.272  65.763  1.00  0.00    -0.185 A  
HETATM   21  C   UNL     1      -8.419   8.760  64.567  1.00  0.00    -0.158 A  
HETATM   22  C   UNL     1      -6.675   9.882  65.804  1.00  0.00    -0.099 A  
HETATM   23  C   UNL     1      -7.280   9.563  64.590  1.00  0.00    -0.113 A  
ENDBRANCH  15  18
BRANCH  17  24
HETATM   24  C   UNL     1      -9.135   6.242  69.961  1.00  0.00    -0.150 A  
HETATM   25  C   UNL     1     -10.256   5.229  72.321  1.00  0.00    -0.250 A  
HETATM   26  C   UNL     1     -10.468   5.808  69.985  1.00  0.00    -0.353 A  
HETATM   27  C   UNL     1     -11.027   5.306  71.163  1.00  0.00    -0.049 A  
HETATM   28  C   UNL     1      -8.922   5.627  72.301  1.00  0.00    -0.141 A  
HETATM   29  C   UNL     1      -8.358   6.128  71.122  1.00  0.00    -0.124 A  
ENDBRANCH  17  24
ENDBRANCH  12  15
ENDBRANCH   8   9
ENDBRANCH   7   8
ENDBRANCH   6   7
ENDBRANCH   3   6
ENDBRANCH   2   3
TORSDOF 9
ENDMDL
MODEL      178
REMARK 921   NORMALIZED FREE ENERGY PREDICTED BY IDOCK:   -3.05 KCAL/MOL
REMARK 922        TOTAL FREE ENERGY PREDICTED BY IDOCK:   -6.80 KCAL/MOL
REMARK 923 INTER-LIGAND FREE ENERGY PREDICTED BY IDOCK:   -6.05 KCAL/MOL
REMARK 924 INTRA-LIGAND FREE ENERGY PREDICTED BY IDOCK:   -0.75 KCAL/MOL
REMARK 927      BINDING AFFINITY PREDICTED BY RF-SCORE:    0.00 PKD
ROOT
HETATM    1  C   UNL     1     -13.100  15.580  70.270  1.00  0.00    -0.033 C  
HETATM    2  C   UNL     1     -12.392  14.353  70.836  1.00  0.00    -0.349 C  
ENDROOT
BRANCH   2   3
HETATM    3  N   UNL     1     -12.131  14.417  72.282  1.00  0.00    -0.134 NA 
BRANCH   3   4
HETATM    4  C   UNL     1     -12.145  15.776  72.843  1.00  0.00    -0.490 C  
HETATM    5  C   UNL     1     -12.308  15.874  74.355  1.00  0.00    -0.762 C  
ENDBRANCH   3   4
BRANCH   3   6
HETATM    6  C   UNL     1     -13.005  13.458  72.995  1.00  0.00     0.552 C  
BRANCH   6   7
HETATM    7  C   UNL     1     -13.595  12.380  72.080  1.00  0.00    -0.252 C  
BRANCH   7   8
HETATM    8  O   UNL     1     -12.783  11.197  72.100  1.00  0.00    -0.183 OA 
BRANCH   8   9
HETATM    9  C   UNL     1     -12.189  10.912  70.895  1.00  0.00    -0.381 A  
HETATM   10  C   UNL     1     -10.935  10.312  70.754  1.00  0.00    -0.213 A  
HETATM   11  C   UNL     1     -10.368  10.155  69.492  1.00  0.00    -0.263 A  
HETATM   12  C   UNL     1     -11.062  10.554  68.348  1.00  0.00    -0.335 A  
HETATM   13  C   UNL     1     -12.344  11.107  68.482  1.00  0.00     0.326 A  
HETATM   14  C   UNL     1     -12.905  11.278  69.754  1.00  0.00     0.196 A  
BRANCH  12  15
HETATM   15  C   UNL     1     -10.407  10.396  67.025  1.00  0.00    -0.295 C  
HETATM   16 CL   UNL     1      -8.873   8.997  65.257  1.00  0.00    -0.228 Cl 
HETATM   17  C   UNL     1      -9.775   9.233  66.728  1.00  0.00    -0.200 C  
BRANCH  15  18
HETATM   18  C   UNL     1     -10.378  11.537  66.072  1.00  0.00    -0.290 A  
HETATM   19  C   UNL     1      -9.961  12.808  66.493  1.00  0.00    -0.256 A  
HETATM   20  C   UNL     1     -10.788  11.357  64.744  1.00  0.00    -0.339 A  
HETATM   21  C   UNL     1     -10.770  12.431  63.847  1.00  0.00    -0.465 A  
HETATM   22  C   UNL     1      -9.944  13.879  65.594  1.00  0.00    -0.298 A  
HETATM   23  C   UNL     1     -10.346  13.688  64.274  1.00  0.00    -0.068 A  
ENDBRANCH  15  18
BRANCH  17  24
HETATM   24  C   UNL     1      -9.784   8.040  67.602  1.00  0.00    -0.198 A  
HETATM   25  C   UNL     1      -9.716   5.711  69.160  1.00  0.00    -0.193 A  
HETATM   26  C   UNL     1      -8.640   7.714  68.343  1.00  0.00    -0.124 A  
HETATM   27  C   UNL     1      -8.606   6.551  69.117  1.00  0.00    -0.129 A  
HETATM   28  C   UNL     1     -10.870   6.041  68.453  1.00  0.00    -0.361 A  
HETATM   29  C   UNL     1     -10.908   7.207  67.678  1.00  0.00    -0.279 A  
ENDBRANCH  17  24
ENDBRANCH  12  15
ENDBRANCH   8   9
ENDBRANCH   7   8
ENDBRANCH   6   7
ENDBRANCH   3   6
ENDBRANCH   2   3
TORSDOF 9
ENDMDL
MODEL      179
REMARK 921   NORMALIZED FREE ENERGY PREDICTED BY IDOCK:   -3.05 KCAL/MOL
REMARK 922        TOTAL FREE ENERGY PREDICTED BY IDOCK:   -6.79 KCAL/MOL
REMARK 923 INTER-LIGAND FREE ENERGY PREDICTED BY IDOCK:   -5.19 KCAL/MOL
REMARK 924 INTRA-LIGAND FREE ENERGY PREDICTED BY IDOCK:   -1.60 KCAL/MOL
REMARK 927      BINDING AFFINITY PREDICTED BY RF-SCORE:    0.00 PKD
ROOT
HETATM    1  C   UNL     1     -10.139  13.778  66.064  1.00  0.00    -0.320 C  
HETATM    2  C   UNL     1      -9.545  15.004  66.750  1.00  0.00    -0.245 C  
ENDROOT
BRANCH   2   3
HETATM    3  N   UNL     1      -8.097  14.921  66.994  1.00  0.00    -0.202 NA 
BRANCH   3   4
HETATM    4  C   UNL     1      -7.573  15.953  67.902  1.00  0.00    -0.133 C  
HETATM    5  C   UNL     1      -8.611  16.713  68.720  1.00  0.00    -0.261 C  
ENDBRANCH   3   4
BRANCH   3   6
HETATM    6  C   UNL     1      -7.728  13.539  67.373  1.00  0.00    -0.137 C  
BRANCH   6   7
HETATM    7  C   UNL     1      -6.434  13.459  68.191  1.00  0.00    -0.119 C  
BRANCH   7   8
HETATM    8  O   UNL     1      -6.591  12.567  69.303  1.00  0.00    -0.102 OA 
BRANCH   8   9
HETATM    9  C   UNL     1      -7.323  11.442  69.012  1.00  0.00    -0.108 A  
HETATM   10  C   UNL     1      -8.718  11.373  69.059  1.00  0.00     0.079 A  
HETATM   11  C   UNL     1      -9.369  10.160  68.847  1.00  0.00    -0.179 A  
HETATM   12  C   UNL     1      -8.642   9.007  68.542  1.00  0.00    -0.129 A  
HETATM   13  C   UNL     1      -7.246   9.085  68.440  1.00  0.00    -0.077 A  
HETATM   14  C   UNL     1      -6.592  10.303  68.669  1.00  0.00    -0.052 A  
BRANCH  12  15
HETATM   15  C   UNL     1      -9.376   7.731  68.355  1.00  0.00    -0.143 C  
HETATM   16 CL   UNL     1     -10.665   5.909  66.788  1.00  0.00    -0.376 Cl 
HETATM   17  C   UNL     1      -9.700   7.325  67.101  1.00  0.00    -0.168 C  
BRANCH  15  18
HETATM   18  C   UNL     1      -9.818   6.950  69.540  1.00  0.00    -0.163 A  
HETATM   19  C   UNL     1     -11.114   7.104  70.053  1.00  0.00    -0.288 A  
HETATM   20  C   UNL     1      -8.935   6.064  70.172  1.00  0.00    -0.150 A  
HETATM   21  C   UNL     1      -9.346   5.334  71.292  1.00  0.00    -0.187 A  
HETATM   22  C   UNL     1     -11.522   6.374  71.173  1.00  0.00    -0.381 A  
HETATM   23  C   UNL     1     -10.638   5.489  71.789  1.00  0.00    -0.296 A  
ENDBRANCH  15  18
BRANCH  17  24
HETATM   24  C   UNL     1      -9.271   8.021  65.869  1.00  0.00    -0.128 A  
HETATM   25  C   UNL     1      -8.339   9.386  63.605  1.00  0.00    -0.184 A  
HETATM   26  C   UNL     1      -8.228   7.490  65.098  1.00  0.00    -0.122 A  
HETATM   27  C   UNL     1      -7.762   8.172  63.972  1.00  0.00    -0.137 A  
HETATM   28  C   UNL     1      -9.398   9.908  64.345  1.00  0.00    -0.326 A  
HETATM   29  C   UNL     1      -9.868   9.225  65.473  1.00  0.00    -0.155 A  
ENDBRANCH  17  24
ENDBRANCH  12  15
ENDBRANCH   8   9
ENDBRANCH   7   8
ENDBRANCH   6   7
ENDBRANCH   3   6
ENDBRANCH   2   3
TORSDOF 9
ENDMDL
MODEL      180
REMARK 921   NORMALIZED FREE ENERGY PREDICTED BY IDOCK:   -3.01 KCAL/MOL
REMARK 922        TOTAL FREE ENERGY PREDICTED BY IDOCK:   -6.73 KCAL/MOL
REMARK 923 INTER-LIGAND FREE ENERGY PREDICTED BY IDOCK:   -5.09 KCAL/MOL
REMARK 924 INTRA-LIGAND FREE ENERGY PREDICTED BY IDOCK:   -1.65 KCAL/MOL
REMARK 927      BINDING AFFINITY PREDICTED BY RF-SCORE:    0.00 PKD
ROOT
HETATM    1  C   UNL     1     -10.034  14.321  65.612  1.00  0.00    -0.346 C  
HETATM    2  C   UNL     1     -11.054  14.946  66.560  1.00  0.00    -0.341 C  
ENDROOT
BRANCH   2   3
HETATM    3  N   UNL     1     -10.531  15.244  67.902  1.00  0.00    -0.249 NA 
BRANCH   3   4
HETATM    4  C   UNL     1     -11.507  15.866  68.810  1.00  0.00    -0.393 C  
HETATM    5  C   UNL     1     -10.983  16.262  70.185  1.00  0.00    -0.335 C  
ENDBRANCH   3   4
BRANCH   3   6
HETATM    6  C   UNL     1      -9.862  14.047  68.461  1.00  0.00    -0.225 C  
BRANCH   6   7
HETATM    7  C   UNL     1     -10.842  12.946  68.880  1.00  0.00    -0.200 C  
BRANCH   7   8
HETATM    8  O   UNL     1     -10.897  11.911  67.889  1.00  0.00    -0.196 OA 
BRANCH   8   9
HETATM    9  C   UNL     1     -10.318  10.731  68.287  1.00  0.00    -0.173 A  
HETATM   10  C   UNL     1      -9.285  10.634  69.223  1.00  0.00    -0.121 A  
HETATM   11  C   UNL     1      -8.689   9.403  69.487  1.00  0.00    -0.162 A  
HETATM   12  C   UNL     1      -9.144   8.244  68.855  1.00  0.00    -0.147 A  
HETATM   13  C   UNL     1     -10.217   8.330  67.957  1.00  0.00    -0.265 A  
HETATM   14  C   UNL     1     -10.804   9.571  67.680  1.00  0.00    -0.253 A  
BRANCH  12  15
HETATM   15  C   UNL     1      -8.459   6.959  69.145  1.00  0.00    -0.129 C  
HETATM   16 CL   UNL     1      -6.637   5.021  68.547  1.00  0.00    -0.047 Cl 
HETATM   17  C   UNL     1      -7.422   6.565  68.365  1.00  0.00    -0.088 C  
BRANCH  15  18
HETATM   18  C   UNL     1      -8.963   6.080  70.233  1.00  0.00    -0.152 A  
HETATM   19  C   UNL     1      -8.830   6.461  71.576  1.00  0.00    -0.137 A  
HETATM   20  C   UNL     1      -9.560   4.850  69.928  1.00  0.00    -0.252 A  
HETATM   21  C   UNL     1     -10.028   4.018  70.951  1.00  0.00    -0.167 A  
HETATM   22  C   UNL     1      -9.298   5.628  72.596  1.00  0.00    -0.148 A  
HETATM   23  C   UNL     1      -9.898   4.409  72.282  1.00  0.00    -0.231 A  
ENDBRANCH  15  18
BRANCH  17  24
HETATM   24  C   UNL     1      -6.837   7.391  67.287  1.00  0.00    -0.078 A  
HETATM   25  C   UNL     1      -5.656   8.838  65.196  1.00  0.00    -0.047 A  
HETATM   26  C   UNL     1      -7.302   7.247  65.972  1.00  0.00    -0.075 A  
HETATM   27  C   UNL     1      -6.711   7.967  64.930  1.00  0.00    -0.051 A  
HETATM   28  C   UNL     1      -5.207   9.012  66.503  1.00  0.00    -0.034 A  
HETATM   29  C   UNL     1      -5.799   8.295  67.549  1.00  0.00    -0.043 A  
ENDBRANCH  17  24
ENDBRANCH  12  15
ENDBRANCH   8   9
ENDBRANCH   7   8
ENDBRANCH   6   7
ENDBRANCH   3   6
ENDBRANCH   2   3
TORSDOF 9
ENDMDL
MODEL      181
REMARK 921   NORMALIZED FREE ENERGY PREDICTED BY IDOCK:   -3.00 KCAL/MOL
REMARK 922        TOTAL FREE ENERGY PREDICTED BY IDOCK:   -6.71 KCAL/MOL
REMARK 923 INTER-LIGAND FREE ENERGY PREDICTED BY IDOCK:   -4.09 KCAL/MOL
REMARK 924 INTRA-LIGAND FREE ENERGY PREDICTED BY IDOCK:   -2.62 KCAL/MOL
REMARK 927      BINDING AFFINITY PREDICTED BY RF-SCORE:    0.00 PKD
ROOT
HETATM    1  C   UNL     1     -12.425   7.147  71.130  1.00  0.00    -0.400 C  
HETATM    2  C   UNL     1     -11.382   6.724  72.160  1.00  0.00    -0.271 C  
ENDROOT
BRANCH   2   3
HETATM    3  N   UNL     1     -10.118   6.242  71.582  1.00  0.00    -0.187 NA 
BRANCH   3   4
HETATM    4  C   UNL     1      -9.027   7.229  71.598  1.00  0.00    -0.124 C  
HETATM    5  C   UNL     1      -8.507   7.672  70.237  1.00  0.00    -0.134 C  
ENDBRANCH   3   4
BRANCH   3   6
HETATM    6  C   UNL     1      -9.760   4.933  72.173  1.00  0.00    -0.163 C  
BRANCH   6   7
HETATM    7  C   UNL     1      -8.871   4.080  71.261  1.00  0.00    -0.099 C  
BRANCH   7   8
HETATM    8  O   UNL     1      -9.623   3.573  70.150  1.00  0.00    -0.180 OA 
BRANCH   8   9
HETATM    9  C   UNL     1      -9.273   4.128  68.943  1.00  0.00    -0.147 A  
HETATM   10  C   UNL     1      -7.992   4.070  68.388  1.00  0.00    -0.072 A  
HETATM   11  C   UNL     1      -7.705   4.752  67.208  1.00  0.00    -0.091 A  
HETATM   12  C   UNL     1      -8.703   5.466  66.541  1.00  0.00    -0.117 A  
HETATM   13  C   UNL     1     -10.002   5.481  67.066  1.00  0.00    -0.198 A  
HETATM   14  C   UNL     1     -10.284   4.808  68.262  1.00  0.00    -0.054 A  
BRANCH  12  15
HETATM   15  C   UNL     1      -8.345   6.203  65.303  1.00  0.00    -0.144 C  
HETATM   16 CL   UNL     1      -7.868   6.302  62.620  1.00  0.00    -0.090 Cl 
HETATM   17  C   UNL     1      -8.387   5.561  64.108  1.00  0.00    -0.102 C  
BRANCH  15  18
HETATM   18  C   UNL     1      -7.868   7.608  65.390  1.00  0.00    -0.115 A  
HETATM   19  C   UNL     1      -8.769   8.676  65.269  1.00  0.00    -0.200 A  
HETATM   20  C   UNL     1      -6.506   7.882  65.574  1.00  0.00    -0.042 A  
HETATM   21  C   UNL     1      -6.054   9.204  65.648  1.00  0.00    -0.055 A  
HETATM   22  C   UNL     1      -8.315   9.996  65.344  1.00  0.00    -0.154 A  
HETATM   23  C   UNL     1      -6.960  10.257  65.534  1.00  0.00    -0.138 A  
ENDBRANCH  15  18
BRANCH  17  24
HETATM   24  C   UNL     1      -8.881   4.179  63.928  1.00  0.00    -0.127 A  
HETATM   25  C   UNL     1      -9.759   1.560  63.453  1.00  0.00    -0.112 A  
HETATM   26  C   UNL     1      -7.975   3.109  63.961  1.00  0.00    -0.082 A  
HETATM   27  C   UNL     1      -8.413   1.804  63.721  1.00  0.00    -0.077 A  
HETATM   28  C   UNL     1     -10.672   2.611  63.449  1.00  0.00    -0.223 A  
HETATM   29  C   UNL     1     -10.237   3.919  63.692  1.00  0.00    -0.190 A  
ENDBRANCH  17  24
ENDBRANCH  12  15
ENDBRANCH   8   9
ENDBRANCH   7   8
ENDBRANCH   6   7
ENDBRANCH   3   6
ENDBRANCH   2   3
TORSDOF 9
ENDMDL
MODEL      182
REMARK 921   NORMALIZED FREE ENERGY PREDICTED BY IDOCK:   -2.98 KCAL/MOL
REMARK 922        TOTAL FREE ENERGY PREDICTED BY IDOCK:   -6.69 KCAL/MOL
REMARK 923 INTER-LIGAND FREE ENERGY PREDICTED BY IDOCK:   -4.86 KCAL/MOL
REMARK 924 INTRA-LIGAND FREE ENERGY PREDICTED BY IDOCK:   -1.83 KCAL/MOL
REMARK 927      BINDING AFFINITY PREDICTED BY RF-SCORE:    0.00 PKD
ROOT
HETATM    1  C   UNL     1     -10.954  12.450  64.549  1.00  0.00    -0.355 C  
HETATM    2  C   UNL     1     -11.427  12.557  65.996  1.00  0.00    -0.377 C  
ENDROOT
BRANCH   2   3
HETATM    3  N   UNL     1     -10.351  12.800  66.969  1.00  0.00    -0.233 NA 
BRANCH   3   4
HETATM    4  C   UNL     1     -10.757  13.592  68.140  1.00  0.00    -0.252 C  
HETATM    5  C   UNL     1      -9.709  14.546  68.698  1.00  0.00    -0.221 C  
ENDBRANCH   3   4
BRANCH   3   6
HETATM    6  C   UNL     1      -9.678  11.525  67.305  1.00  0.00    -0.182 C  
BRANCH   6   7
HETATM    7  C   UNL     1     -10.647  10.433  67.771  1.00  0.00    -0.250 C  
BRANCH   7   8
HETATM    8  O   UNL     1     -10.703   9.363  66.817  1.00  0.00    -0.175 OA 
BRANCH   8   9
HETATM    9  C   UNL     1     -10.098   8.207  67.244  1.00  0.00    -0.241 A  
HETATM   10  C   UNL     1      -8.840   8.151  67.851  1.00  0.00    -0.131 A  
HETATM   11  C   UNL     1      -8.262   6.921  68.157  1.00  0.00    -0.119 A  
HETATM   12  C   UNL     1      -8.947   5.731  67.902  1.00  0.00    -0.111 A  
HETATM   13  C   UNL     1     -10.232   5.787  67.343  1.00  0.00    -0.243 A  
HETATM   14  C   UNL     1     -10.805   7.024  67.022  1.00  0.00    -0.413 A  
BRANCH  12  15
HETATM   15  C   UNL     1      -8.279   4.443  68.216  1.00  0.00    -0.089 C  
HETATM   16 CL   UNL     1      -7.299   2.616  69.986  1.00  0.00    -0.043 Cl 
HETATM   17  C   UNL     1      -8.172   4.045  69.509  1.00  0.00    -0.057 C  
BRANCH  15  18
HETATM   18  C   UNL     1      -7.666   3.642  67.124  1.00  0.00    -0.079 A  
HETATM   19  C   UNL     1      -6.371   3.931  66.668  1.00  0.00    -0.036 A  
HETATM   20  C   UNL     1      -8.384   2.599  66.524  1.00  0.00    -0.091 A  
HETATM   21  C   UNL     1      -7.811   1.849  65.492  1.00  0.00    -0.073 A  
HETATM   22  C   UNL     1      -5.802   3.180  65.636  1.00  0.00    -0.019 A  
HETATM   23  C   UNL     1      -6.522   2.140  65.051  1.00  0.00    -0.023 A  
ENDBRANCH  15  18
BRANCH  17  24
HETATM   24  C   UNL     1      -8.781   4.762  70.649  1.00  0.00    -0.134 A  
HETATM   25  C   UNL     1      -9.986   6.222  72.716  1.00  0.00    -0.183 A  
HETATM   26  C   UNL     1     -10.170   4.716  70.836  1.00  0.00    -0.213 A  
HETATM   27  C   UNL     1     -10.770   5.446  71.865  1.00  0.00    -0.275 A  
HETATM   28  C   UNL     1      -8.602   6.251  72.559  1.00  0.00    -0.120 A  
HETATM   29  C   UNL     1      -7.998   5.518  71.531  1.00  0.00    -0.116 A  
ENDBRANCH  17  24
ENDBRANCH  12  15
ENDBRANCH   8   9
ENDBRANCH   7   8
ENDBRANCH   6   7
ENDBRANCH   3   6
ENDBRANCH   2   3
TORSDOF 9
ENDMDL
MODEL      183
REMARK 921   NORMALIZED FREE ENERGY PREDICTED BY IDOCK:   -2.96 KCAL/MOL
REMARK 922        TOTAL FREE ENERGY PREDICTED BY IDOCK:   -6.66 KCAL/MOL
REMARK 923 INTER-LIGAND FREE ENERGY PREDICTED BY IDOCK:   -4.56 KCAL/MOL
REMARK 924 INTRA-LIGAND FREE ENERGY PREDICTED BY IDOCK:   -2.09 KCAL/MOL
REMARK 927      BINDING AFFINITY PREDICTED BY RF-SCORE:    0.00 PKD
ROOT
HETATM    1  C   UNL     1      -8.909   4.797  74.556  1.00  0.00    -0.111 C  
HETATM    2  C   UNL     1      -8.273   5.235  73.240  1.00  0.00    -0.111 C  
ENDROOT
BRANCH   2   3
HETATM    3  N   UNL     1      -8.966   6.346  72.570  1.00  0.00    -0.137 NA 
BRANCH   3   4
HETATM    4  C   UNL     1     -10.399   6.115  72.336  1.00  0.00    -0.192 C  
HETATM    5  C   UNL     1     -11.297   7.343  72.422  1.00  0.00    -0.341 C  
ENDBRANCH   3   4
BRANCH   3   6
HETATM    6  C   UNL     1      -8.663   7.619  73.261  1.00  0.00    -0.190 C  
BRANCH   6   7
HETATM    7  C   UNL     1      -7.654   8.493  72.507  1.00  0.00    -0.025 C  
BRANCH   7   8
HETATM    8  O   UNL     1      -7.287   7.885  71.261  1.00  0.00    -0.063 OA 
BRANCH   8   9
HETATM    9  C   UNL     1      -7.682   8.601  70.158  1.00  0.00    -0.081 A  
HETATM   10  C   UNL     1      -6.923   9.609  69.557  1.00  0.00    -0.059 A  
HETATM   11  C   UNL     1      -7.449  10.351  68.503  1.00  0.00    -0.089 A  
HETATM   12  C   UNL     1      -8.723  10.071  68.003  1.00  0.00    -0.125 A  
HETATM   13  C   UNL     1      -9.465   9.024  68.568  1.00  0.00    -0.148 A  
HETATM   14  C   UNL     1      -8.940   8.289  69.639  1.00  0.00    -0.149 A  
BRANCH  12  15
HETATM   15  C   UNL     1      -9.256  10.908  66.899  1.00  0.00    -0.175 C  
HETATM   16 CL   UNL     1      -9.419  11.586  64.263  1.00  0.00    -0.157 Cl 
HETATM   17  C   UNL     1      -8.947  10.596  65.616  1.00  0.00    -0.185 C  
BRANCH  15  18
HETATM   18  C   UNL     1     -10.054  12.123  67.211  1.00  0.00    -0.214 A  
HETATM   19  C   UNL     1     -11.455  12.086  67.165  1.00  0.00    -0.401 A  
HETATM   20  C   UNL     1      -9.413  13.326  67.535  1.00  0.00    -0.220 A  
HETATM   21  C   UNL     1     -10.162  14.472  67.821  1.00  0.00    -0.226 A  
HETATM   22  C   UNL     1     -12.202  13.233  67.450  1.00  0.00    -0.236 A  
HETATM   23  C   UNL     1     -11.554  14.423  67.779  1.00  0.00    -0.384 A  
ENDBRANCH  15  18
BRANCH  17  24
HETATM   24  C   UNL     1      -8.189   9.390  65.217  1.00  0.00    -0.133 A  
HETATM   25  C   UNL     1      -6.775   7.142  64.321  1.00  0.00    -0.043 A  
HETATM   26  C   UNL     1      -6.882   9.521  64.728  1.00  0.00    -0.103 A  
HETATM   27  C   UNL     1      -6.179   8.401  64.279  1.00  0.00    -0.066 A  
HETATM   28  C   UNL     1      -8.061   6.995  64.833  1.00  0.00    -0.107 A  
HETATM   29  C   UNL     1      -8.768   8.116  65.286  1.00  0.00    -0.093 A  
ENDBRANCH  17  24
ENDBRANCH  12  15
ENDBRANCH   8   9
ENDBRANCH   7   8
ENDBRANCH   6   7
ENDBRANCH   3   6
ENDBRANCH   2   3
TORSDOF 9
ENDMDL
MODEL      184
REMARK 921   NORMALIZED FREE ENERGY PREDICTED BY IDOCK:   -2.89 KCAL/MOL
REMARK 922        TOTAL FREE ENERGY PREDICTED BY IDOCK:   -6.55 KCAL/MOL
REMARK 923 INTER-LIGAND FREE ENERGY PREDICTED BY IDOCK:   -4.47 KCAL/MOL
REMARK 924 INTRA-LIGAND FREE ENERGY PREDICTED BY IDOCK:   -2.08 KCAL/MOL
REMARK 927      BINDING AFFINITY PREDICTED BY RF-SCORE:    0.00 PKD
ROOT
HETATM    1  C   UNL     1     -12.774  10.433  72.134  1.00  0.00    -0.230 C  
HETATM    2  C   UNL     1     -11.621   9.883  71.299  1.00  0.00    -0.379 C  
ENDROOT
BRANCH   2   3
HETATM    3  N   UNL     1     -11.239   8.501  71.629  1.00  0.00    -0.271 NA 
BRANCH   3   4
HETATM    4  C   UNL     1     -11.143   8.224  73.070  1.00  0.00     0.050 C  
HETATM    5  C   UNL     1      -9.824   7.630  73.550  1.00  0.00    -0.357 C  
ENDBRANCH   3   4
BRANCH   3   6
HETATM    6  C   UNL     1     -12.096   7.550  70.886  1.00  0.00    -0.226 C  
BRANCH   6   7
HETATM    7  C   UNL     1     -11.373   6.253  70.504  1.00  0.00    -0.361 C  
BRANCH   7   8
HETATM    8  O   UNL     1      -9.990   6.508  70.221  1.00  0.00    -0.173 OA 
BRANCH   8   9
HETATM    9  C   UNL     1      -9.647   6.308  68.907  1.00  0.00    -0.126 A  
HETATM   10  C   UNL     1     -10.405   6.743  67.816  1.00  0.00    -0.245 A  
HETATM   11  C   UNL     1     -10.031   6.404  66.519  1.00  0.00    -0.162 A  
HETATM   12  C   UNL     1      -8.871   5.661  66.286  1.00  0.00    -0.137 A  
HETATM   13  C   UNL     1      -8.079   5.269  67.374  1.00  0.00    -0.100 A  
HETATM   14  C   UNL     1      -8.466   5.598  68.679  1.00  0.00    -0.105 A  
BRANCH  12  15
HETATM   15  C   UNL     1      -8.527   5.296  64.889  1.00  0.00    -0.150 C  
HETATM   16 CL   UNL     1      -7.478   5.884  62.442  1.00  0.00    -0.055 Cl 
HETATM   17  C   UNL     1      -7.821   6.168  64.125  1.00  0.00    -0.117 C  
BRANCH  15  18
HETATM   18  C   UNL     1      -9.025   4.019  64.314  1.00  0.00    -0.138 A  
HETATM   19  C   UNL     1      -8.185   2.898  64.233  1.00  0.00    -0.083 A  
HETATM   20  C   UNL     1     -10.336   3.926  63.828  1.00  0.00    -0.204 A  
HETATM   21  C   UNL     1     -10.804   2.727  63.279  1.00  0.00    -0.230 A  
HETATM   22  C   UNL     1      -8.655   1.702  63.684  1.00  0.00    -0.077 A  
HETATM   23  C   UNL     1      -9.964   1.618  63.210  1.00  0.00    -0.116 A  
ENDBRANCH  15  18
BRANCH  17  24
HETATM   24  C   UNL     1      -7.260   7.441  64.627  1.00  0.00    -0.069 A  
HETATM   25  C   UNL     1      -6.225   9.808  65.714  1.00  0.00    -0.073 A  
HETATM   26  C   UNL     1      -5.995   7.451  65.232  1.00  0.00    -0.038 A  
HETATM   27  C   UNL     1      -5.482   8.631  65.776  1.00  0.00    -0.034 A  
HETATM   28  C   UNL     1      -7.469   9.816  65.087  1.00  0.00    -0.122 A  
HETATM   29  C   UNL     1      -7.985   8.636  64.539  1.00  0.00    -0.144 A  
ENDBRANCH  17  24
ENDBRANCH  12  15
ENDBRANCH   8   9
ENDBRANCH   7   8
ENDBRANCH   6   7
ENDBRANCH   3   6
ENDBRANCH   2   3
TORSDOF 9
ENDMDL
MODEL      185
REMARK 921   NORMALIZED FREE ENERGY PREDICTED BY IDOCK:   -2.85 KCAL/MOL
REMARK 922        TOTAL FREE ENERGY PREDICTED BY IDOCK:   -6.49 KCAL/MOL
REMARK 923 INTER-LIGAND FREE ENERGY PREDICTED BY IDOCK:   -4.26 KCAL/MOL
REMARK 924 INTRA-LIGAND FREE ENERGY PREDICTED BY IDOCK:   -2.23 KCAL/MOL
REMARK 927      BINDING AFFINITY PREDICTED BY RF-SCORE:    0.00 PKD
ROOT
HETATM    1  C   UNL     1      -9.875  11.525  67.627  1.00  0.00    -0.192 C  
HETATM    2  C   UNL     1      -9.425  11.519  66.170  1.00  0.00    -0.220 C  
ENDROOT
BRANCH   2   3
HETATM    3  N   UNL     1      -9.589  10.226  65.489  1.00  0.00    -0.221 NA 
BRANCH   3   4
HETATM    4  C   UNL     1      -9.802  10.326  64.037  1.00  0.00    -0.218 C  
HETATM    5  C   UNL     1     -10.614  11.525  63.561  1.00  0.00    -0.487 C  
ENDBRANCH   3   4
BRANCH   3   6
HETATM    6  C   UNL     1      -8.495   9.308  65.878  1.00  0.00    -0.132 C  
BRANCH   6   7
HETATM    7  C   UNL     1      -8.683   7.882  65.347  1.00  0.00    -0.046 C  
BRANCH   7   8
HETATM    8  O   UNL     1      -7.635   7.023  65.817  1.00  0.00    -0.087 OA 
BRANCH   8   9
HETATM    9  C   UNL     1      -7.875   6.483  67.057  1.00  0.00    -0.108 A  
HETATM   10  C   UNL     1      -8.908   5.586  67.342  1.00  0.00    -0.105 A  
HETATM   11  C   UNL     1      -9.137   5.171  68.651  1.00  0.00    -0.135 A  
HETATM   12  C   UNL     1      -8.313   5.609  69.690  1.00  0.00    -0.107 A  
HETATM   13  C   UNL     1      -7.242   6.466  69.399  1.00  0.00    -0.086 A  
HETATM   14  C   UNL     1      -7.023   6.895  68.083  1.00  0.00    -0.080 A  
BRANCH  12  15
HETATM   15  C   UNL     1      -8.614   5.165  71.074  1.00  0.00    -0.130 C  
HETATM   16 CL   UNL     1      -9.666   5.582  73.554  1.00  0.00    -0.147 Cl 
HETATM   17  C   UNL     1      -9.364   5.957  71.881  1.00  0.00    -0.151 C  
BRANCH  15  18
HETATM   18  C   UNL     1      -8.028   3.899  71.589  1.00  0.00    -0.066 A  
HETATM   19  C   UNL     1      -8.737   2.694  71.490  1.00  0.00    -0.112 A  
HETATM   20  C   UNL     1      -6.766   3.901  72.198  1.00  0.00    -0.022 A  
HETATM   21  C   UNL     1      -6.217   2.713  72.690  1.00  0.00    -0.009 A  
HETATM   22  C   UNL     1      -8.186   1.507  71.983  1.00  0.00    -0.045 A  
HETATM   23  C   UNL     1      -6.926   1.519  72.581  1.00  0.00    -0.019 A  
ENDBRANCH  15  18
BRANCH  17  24
HETATM   24  C   UNL     1     -10.012   7.211  71.439  1.00  0.00    -0.193 A  
HETATM   25  C   UNL     1     -11.228   9.540  70.465  1.00  0.00    -0.345 A  
HETATM   26  C   UNL     1     -11.345   7.189  71.008  1.00  0.00    -0.310 A  
HETATM   27  C   UNL     1     -11.950   8.350  70.520  1.00  0.00     0.066 A  
HETATM   28  C   UNL     1      -9.912   9.581  70.920  1.00  0.00    -0.308 A  
HETATM   29  C   UNL     1      -9.304   8.420  71.412  1.00  0.00    -0.247 A  
ENDBRANCH  17  24
ENDBRANCH  12  15
ENDBRANCH   8   9
ENDBRANCH   7   8
ENDBRANCH   6   7
ENDBRANCH   3   6
ENDBRANCH   2   3
TORSDOF 9
ENDMDL
MODEL      186
REMARK 921   NORMALIZED FREE ENERGY PREDICTED BY IDOCK:   -2.84 KCAL/MOL
REMARK 922        TOTAL FREE ENERGY PREDICTED BY IDOCK:   -6.46 KCAL/MOL
REMARK 923 INTER-LIGAND FREE ENERGY PREDICTED BY IDOCK:   -4.78 KCAL/MOL
REMARK 924 INTRA-LIGAND FREE ENERGY PREDICTED BY IDOCK:   -1.68 KCAL/MOL
REMARK 927      BINDING AFFINITY PREDICTED BY RF-SCORE:    0.00 PKD
ROOT
HETATM    1  C   UNL     1      -5.446   5.561  62.334  1.00  0.00    -0.014 C  
HETATM    2  C   UNL     1      -6.415   4.874  63.292  1.00  0.00    -0.026 C  
ENDROOT
BRANCH   2   3
HETATM    3  N   UNL     1      -6.872   5.722  64.404  1.00  0.00    -0.049 NA 
BRANCH   3   4
HETATM    4  C   UNL     1      -6.284   7.070  64.423  1.00  0.00    -0.037 C  
HETATM    5  C   UNL     1      -5.265   7.339  65.524  1.00  0.00    -0.028 C  
ENDBRANCH   3   4
BRANCH   3   6
HETATM    6  C   UNL     1      -8.351   5.706  64.476  1.00  0.00    -0.108 C  
BRANCH   6   7
HETATM    7  C   UNL     1      -8.921   4.360  64.938  1.00  0.00    -0.147 C  
BRANCH   7   8
HETATM    8  O   UNL     1      -8.388   3.997  66.219  1.00  0.00    -0.104 OA 
BRANCH   8   9
HETATM    9  C   UNL     1      -8.837   4.785  67.250  1.00  0.00    -0.103 A  
HETATM   10  C   UNL     1     -10.184   4.975  67.571  1.00  0.00    -0.184 A  
HETATM   11  C   UNL     1     -10.548   5.875  68.570  1.00  0.00    -0.317 A  
HETATM   12  C   UNL     1      -9.573   6.567  69.292  1.00  0.00    -0.143 A  
HETATM   13  C   UNL     1      -8.219   6.338  69.009  1.00  0.00    -0.114 A  
HETATM   14  C   UNL     1      -7.856   5.444  67.994  1.00  0.00    -0.092 A  
BRANCH  12  15
HETATM   15  C   UNL     1     -10.008   7.539  70.326  1.00  0.00    -0.192 C  
HETATM   16 CL   UNL     1     -10.709   8.171  72.884  1.00  0.00    -0.396 Cl 
HETATM   17  C   UNL     1     -10.092   7.143  71.622  1.00  0.00    -0.185 C  
BRANCH  15  18
HETATM   18  C   UNL     1     -10.424   8.909  69.926  1.00  0.00    -0.223 A  
HETATM   19  C   UNL     1      -9.606   9.688  69.095  1.00  0.00    -0.176 A  
HETATM   20  C   UNL     1     -11.631   9.446  70.392  1.00  0.00    -0.241 A  
HETATM   21  C   UNL     1     -12.021  10.737  70.023  1.00  0.00    -0.427 A  
HETATM   22  C   UNL     1      -9.997  10.979  68.728  1.00  0.00    -0.215 A  
HETATM   23  C   UNL     1     -11.204  11.500  69.191  1.00  0.00    -0.337 A  
ENDBRANCH  15  18
BRANCH  17  24
HETATM   24  C   UNL     1      -9.667   5.813  72.110  1.00  0.00    -0.174 A  
HETATM   25  C   UNL     1      -8.937   3.319  73.158  1.00  0.00    -0.096 A  
HETATM   26  C   UNL     1     -10.588   4.757  72.136  1.00  0.00    -0.204 A  
HETATM   27  C   UNL     1     -10.224   3.515  72.661  1.00  0.00    -0.241 A  
HETATM   28  C   UNL     1      -8.005   4.352  73.108  1.00  0.00    -0.095 A  
HETATM   29  C   UNL     1      -8.365   5.597  72.580  1.00  0.00    -0.117 A  
ENDBRANCH  17  24
ENDBRANCH  12  15
ENDBRANCH   8   9
ENDBRANCH   7   8
ENDBRANCH   6   7
ENDBRANCH   3   6
ENDBRANCH   2   3
TORSDOF 9
ENDMDL
MODEL      187
REMARK 921   NORMALIZED FREE ENERGY PREDICTED BY IDOCK:   -2.78 KCAL/MOL
REMARK 922        TOTAL FREE ENERGY PREDICTED BY IDOCK:   -6.38 KCAL/MOL
REMARK 923 INTER-LIGAND FREE ENERGY PREDICTED BY IDOCK:   -4.80 KCAL/MOL
REMARK 924 INTRA-LIGAND FREE ENERGY PREDICTED BY IDOCK:   -1.58 KCAL/MOL
REMARK 927      BINDING AFFINITY PREDICTED BY RF-SCORE:    0.00 PKD
ROOT
HETATM    1  C   UNL     1      -9.237   8.356  72.482  1.00  0.00    -0.338 C  
HETATM    2  C   UNL     1     -10.573   8.948  72.044  1.00  0.00    -0.318 C  
ENDROOT
BRANCH   2   3
HETATM    3  N   UNL     1     -11.751   8.205  72.519  1.00  0.00    -0.400 NA 
BRANCH   3   4
HETATM    4  C   UNL     1     -13.036   8.872  72.260  1.00  0.00    -0.419 C  
HETATM    5  C   UNL     1     -12.958  10.344  71.871  1.00  0.00    -0.555 C  
ENDBRANCH   3   4
BRANCH   3   6
HETATM    6  C   UNL     1     -11.689   6.805  72.043  1.00  0.00    -0.306 C  
BRANCH   6   7
HETATM    7  C   UNL     1     -12.139   6.640  70.587  1.00  0.00    -0.281 C  
BRANCH   7   8
HETATM    8  O   UNL     1     -11.343   7.454  69.714  1.00  0.00    -0.154 OA 
BRANCH   8   9
HETATM    9  C   UNL     1     -10.511   6.734  68.891  1.00  0.00    -0.207 A  
HETATM   10  C   UNL     1      -9.696   7.296  67.905  1.00  0.00    -0.161 A  
HETATM   11  C   UNL     1      -8.963   6.478  67.049  1.00  0.00    -0.121 A  
HETATM   12  C   UNL     1      -8.998   5.089  67.191  1.00  0.00    -0.112 A  
HETATM   13  C   UNL     1      -9.772   4.525  68.215  1.00  0.00    -0.186 A  
HETATM   14  C   UNL     1     -10.521   5.349  69.064  1.00  0.00    -0.252 A  
BRANCH  12  15
HETATM   15  C   UNL     1      -8.225   4.256  66.237  1.00  0.00    -0.102 C  
HETATM   16 CL   UNL     1      -5.946   2.970  65.471  1.00  0.00    -0.019 Cl 
HETATM   17  C   UNL     1      -6.976   3.843  66.570  1.00  0.00    -0.059 C  
BRANCH  15  18
HETATM   18  C   UNL     1      -8.790   3.947  64.897  1.00  0.00    -0.123 A  
HETATM   19  C   UNL     1      -9.603   2.821  64.708  1.00  0.00    -0.086 A  
HETATM   20  C   UNL     1      -8.500   4.771  63.801  1.00  0.00    -0.128 A  
HETATM   21  C   UNL     1      -9.025   4.478  62.538  1.00  0.00    -0.127 A  
HETATM   22  C   UNL     1     -10.126   2.530  63.445  1.00  0.00    -0.138 A  
HETATM   23  C   UNL     1      -9.837   3.360  62.363  1.00  0.00    -0.103 A  
ENDBRANCH  15  18
BRANCH  17  24
HETATM   24  C   UNL     1      -6.353   4.076  67.891  1.00  0.00    -0.037 A  
HETATM   25  C   UNL     1      -5.305   4.507  70.455  1.00  0.00    -0.004 A  
HETATM   26  C   UNL     1      -6.213   3.009  68.790  1.00  0.00    -0.029 A  
HETATM   27  C   UNL     1      -5.693   3.226  70.069  1.00  0.00    -0.018 A  
HETATM   28  C   UNL     1      -5.410   5.568  69.559  1.00  0.00    -0.004 A  
HETATM   29  C   UNL     1      -5.928   5.354  68.276  1.00  0.00    -0.018 A  
ENDBRANCH  17  24
ENDBRANCH  12  15
ENDBRANCH   8   9
ENDBRANCH   7   8
ENDBRANCH   6   7
ENDBRANCH   3   6
ENDBRANCH   2   3
TORSDOF 9
ENDMDL
MODEL      188
REMARK 921   NORMALIZED FREE ENERGY PREDICTED BY IDOCK:   -2.69 KCAL/MOL
REMARK 922        TOTAL FREE ENERGY PREDICTED BY IDOCK:   -6.24 KCAL/MOL
REMARK 923 INTER-LIGAND FREE ENERGY PREDICTED BY IDOCK:   -3.60 KCAL/MOL
REMARK 924 INTRA-LIGAND FREE ENERGY PREDICTED BY IDOCK:   -2.65 KCAL/MOL
REMARK 927      BINDING AFFINITY PREDICTED BY RF-SCORE:    0.00 PKD
ROOT
HETATM    1  C   UNL     1      -5.303   9.578  64.316  1.00  0.00    -0.061 C  
HETATM    2  C   UNL     1      -5.560   8.630  63.149  1.00  0.00    -0.073 C  
ENDROOT
BRANCH   2   3
HETATM    3  N   UNL     1      -6.939   8.655  62.638  1.00  0.00    -0.094 NA 
BRANCH   3   4
HETATM    4  C   UNL     1      -7.663   7.382  62.778  1.00  0.00    -0.128 C  
HETATM    5  C   UNL     1      -7.034   6.355  63.711  1.00  0.00    -0.043 C  
ENDBRANCH   3   4
BRANCH   3   6
HETATM    6  C   UNL     1      -7.659   9.825  63.189  1.00  0.00    -0.122 C  
BRANCH   6   7
HETATM    7  C   UNL     1      -8.975   9.454  63.883  1.00  0.00    -0.126 C  
BRANCH   7   8
HETATM    8  O   UNL     1      -8.934   9.808  65.272  1.00  0.00    -0.166 OA 
BRANCH   8   9
HETATM    9  C   UNL     1      -8.706   8.743  66.109  1.00  0.00    -0.160 A  
HETATM   10  C   UNL     1      -7.458   8.408  66.641  1.00  0.00    -0.082 A  
HETATM   11  C   UNL     1      -7.305   7.250  67.398  1.00  0.00    -0.092 A  
HETATM   12  C   UNL     1      -8.402   6.430  67.672  1.00  0.00    -0.117 A  
HETATM   13  C   UNL     1      -9.666   6.792  67.186  1.00  0.00    -0.191 A  
HETATM   14  C   UNL     1      -9.815   7.950  66.411  1.00  0.00    -0.217 A  
BRANCH  12  15
HETATM   15  C   UNL     1      -8.186   5.189  68.457  1.00  0.00    -0.089 C  
HETATM   16 CL   UNL     1      -8.009   3.844  70.822  1.00  0.00    -0.054 Cl 
HETATM   17  C   UNL     1      -8.358   5.212  69.803  1.00  0.00    -0.093 C  
BRANCH  15  18
HETATM   18  C   UNL     1      -7.708   3.957  67.777  1.00  0.00    -0.071 A  
HETATM   19  C   UNL     1      -8.602   2.923  67.463  1.00  0.00    -0.118 A  
HETATM   20  C   UNL     1      -6.352   3.806  67.458  1.00  0.00    -0.037 A  
HETATM   21  C   UNL     1      -5.899   2.644  66.825  1.00  0.00    -0.023 A  
HETATM   22  C   UNL     1      -8.146   1.763  66.831  1.00  0.00    -0.073 A  
HETATM   23  C   UNL     1      -6.797   1.626  66.511  1.00  0.00    -0.038 A  
ENDBRANCH  15  18
BRANCH  17  24
HETATM   24  C   UNL     1      -8.863   6.382  70.553  1.00  0.00    -0.144 A  
HETATM   25  C   UNL     1      -9.877   8.650  71.850  1.00  0.00    -0.384 A  
HETATM   26  C   UNL     1     -10.229   6.478  70.853  1.00  0.00    -0.220 A  
HETATM   27  C   UNL     1     -10.734   7.610  71.497  1.00  0.00    -0.249 A  
HETATM   28  C   UNL     1      -8.513   8.552  71.586  1.00  0.00    -0.235 A  
HETATM   29  C   UNL     1      -8.004   7.418  70.943  1.00  0.00    -0.097 A  
ENDBRANCH  17  24
ENDBRANCH  12  15
ENDBRANCH   8   9
ENDBRANCH   7   8
ENDBRANCH   6   7
ENDBRANCH   3   6
ENDBRANCH   2   3
TORSDOF 9
ENDMDL
MODEL      189
REMARK 921   NORMALIZED FREE ENERGY PREDICTED BY IDOCK:   -2.67 KCAL/MOL
REMARK 922        TOTAL FREE ENERGY PREDICTED BY IDOCK:   -6.21 KCAL/MOL
REMARK 923 INTER-LIGAND FREE ENERGY PREDICTED BY IDOCK:   -6.00 KCAL/MOL
REMARK 924 INTRA-LIGAND FREE ENERGY PREDICTED BY IDOCK:   -0.21 KCAL/MOL
REMARK 927      BINDING AFFINITY PREDICTED BY RF-SCORE:    0.00 PKD
ROOT
HETATM    1  C   UNL     1      -8.654  10.283  67.379  1.00  0.00    -0.125 C  
HETATM    2  C   UNL     1      -7.481   9.737  66.571  1.00  0.00    -0.095 C  
ENDROOT
BRANCH   2   3
HETATM    3  N   UNL     1      -7.820   8.604  65.697  1.00  0.00    -0.098 NA 
BRANCH   3   4
HETATM    4  C   UNL     1      -7.560   8.838  64.269  1.00  0.00    -0.117 C  
HETATM    5  C   UNL     1      -8.072  10.157  63.703  1.00  0.00    -0.163 C  
ENDBRANCH   3   4
BRANCH   3   6
HETATM    6  C   UNL     1      -7.216   7.360  66.227  1.00  0.00    -0.078 C  
BRANCH   6   7
HETATM    7  C   UNL     1      -7.610   6.110  65.432  1.00  0.00    -0.087 C  
BRANCH   7   8
HETATM    8  O   UNL     1      -8.495   5.281  66.197  1.00  0.00    -0.113 OA 
BRANCH   8   9
HETATM    9  C   UNL     1      -8.902   5.848  67.380  1.00  0.00    -0.106 A  
HETATM   10  C   UNL     1      -8.036   6.298  68.380  1.00  0.00    -0.105 A  
HETATM   11  C   UNL     1      -8.542   6.764  69.591  1.00  0.00    -0.133 A  
HETATM   12  C   UNL     1      -9.920   6.830  69.806  1.00  0.00    -0.189 A  
HETATM   13  C   UNL     1     -10.793   6.431  68.785  1.00  0.00    -0.378 A  
HETATM   14  C   UNL     1     -10.281   5.947  67.574  1.00  0.00    -0.232 A  
BRANCH  12  15
HETATM   15  C   UNL     1     -10.413   7.305  71.123  1.00  0.00    -0.221 C  
HETATM   16 CL   UNL     1     -10.846   6.959  73.793  1.00  0.00    -0.229 Cl 
HETATM   17  C   UNL     1     -10.200   6.548  72.229  1.00  0.00    -0.184 C  
BRANCH  15  18
HETATM   18  C   UNL     1     -11.201   8.563  71.209  1.00  0.00    -0.321 A  
HETATM   19  C   UNL     1     -10.864   9.671  70.419  1.00  0.00    -0.353 A  
HETATM   20  C   UNL     1     -12.281   8.661  72.097  1.00  0.00    -0.453 A  
HETATM   21  C   UNL     1     -13.019   9.846  72.185  1.00  0.00    -0.471 A  
HETATM   22  C   UNL     1     -11.603  10.854  70.508  1.00  0.00    -0.397 A  
HETATM   23  C   UNL     1     -12.680  10.939  71.390  1.00  0.00    -0.539 A  
ENDBRANCH  15  18
BRANCH  17  24
HETATM   24  C   UNL     1      -9.399   5.305  72.238  1.00  0.00    -0.160 A  
HETATM   25  C   UNL     1      -7.800   3.005  72.148  1.00  0.00    -0.055 A  
HETATM   26  C   UNL     1      -8.107   5.316  72.783  1.00  0.00    -0.109 A  
HETATM   27  C   UNL     1      -7.310   4.170  72.735  1.00  0.00    -0.072 A  
HETATM   28  C   UNL     1      -9.093   2.974  71.632  1.00  0.00    -0.163 A  
HETATM   29  C   UNL     1      -9.896   4.120  71.681  1.00  0.00    -0.254 A  
ENDBRANCH  17  24
ENDBRANCH  12  15
ENDBRANCH   8   9
ENDBRANCH   7   8
ENDBRANCH   6   7
ENDBRANCH   3   6
ENDBRANCH   2   3
TORSDOF 9
ENDMDL
MODEL      190
REMARK 921   NORMALIZED FREE ENERGY PREDICTED BY IDOCK:   -2.66 KCAL/MOL
REMARK 922        TOTAL FREE ENERGY PREDICTED BY IDOCK:   -6.20 KCAL/MOL
REMARK 923 INTER-LIGAND FREE ENERGY PREDICTED BY IDOCK:   -4.17 KCAL/MOL
REMARK 924 INTRA-LIGAND FREE ENERGY PREDICTED BY IDOCK:   -2.03 KCAL/MOL
REMARK 927      BINDING AFFINITY PREDICTED BY RF-SCORE:    0.00 PKD
ROOT
HETATM    1  C   UNL     1      -8.313  12.681  66.916  1.00  0.00    -0.078 C  
HETATM    2  C   UNL     1      -9.775  12.251  66.846  1.00  0.00    -0.212 C  
ENDROOT
BRANCH   2   3
HETATM    3  N   UNL     1     -10.447  12.589  65.582  1.00  0.00    -0.267 NA 
BRANCH   3   4
HETATM    4  C   UNL     1     -11.061  13.926  65.559  1.00  0.00    -0.304 C  
HETATM    5  C   UNL     1     -11.857  14.317  66.798  1.00  0.00    -0.449 C  
ENDBRANCH   3   4
BRANCH   3   6
HETATM    6  C   UNL     1      -9.542  12.319  64.442  1.00  0.00     0.121 C  
BRANCH   6   7
HETATM    7  C   UNL     1      -9.639  10.881  63.919  1.00  0.00    -0.284 C  
BRANCH   7   8
HETATM    8  O   UNL     1      -8.388  10.198  64.079  1.00  0.00    -0.158 OA 
BRANCH   8   9
HETATM    9  C   UNL     1      -8.412   9.217  65.039  1.00  0.00    -0.171 A  
HETATM   10  C   UNL     1      -9.424   9.066  65.992  1.00  0.00    -0.323 A  
HETATM   11  C   UNL     1      -9.310   8.104  66.992  1.00  0.00    -0.197 A  
HETATM   12  C   UNL     1      -8.207   7.248  67.032  1.00  0.00    -0.117 A  
HETATM   13  C   UNL     1      -7.217   7.360  66.046  1.00  0.00    -0.070 A  
HETATM   14  C   UNL     1      -7.326   8.339  65.050  1.00  0.00    -0.086 A  
BRANCH  12  15
HETATM   15  C   UNL     1      -8.114   6.258  68.134  1.00  0.00    -0.115 C  
HETATM   16 CL   UNL     1      -8.540   3.774  69.173  1.00  0.00    -0.105 Cl 
HETATM   17  C   UNL     1      -8.496   4.975  67.913  1.00  0.00    -0.104 C  
BRANCH  15  18
HETATM   18  C   UNL     1      -7.679   6.696  69.487  1.00  0.00    -0.104 A  
HETATM   19  C   UNL     1      -6.317   6.755  69.814  1.00  0.00    -0.042 A  
HETATM   20  C   UNL     1      -8.630   7.035  70.459  1.00  0.00    -0.141 A  
HETATM   21  C   UNL     1      -8.223   7.440  71.735  1.00  0.00    -0.107 A  
HETATM   22  C   UNL     1      -5.913   7.160  71.090  1.00  0.00    -0.036 A  
HETATM   23  C   UNL     1      -6.867   7.502  72.047  1.00  0.00    -0.062 A  
ENDBRANCH  15  18
BRANCH  17  24
HETATM   24  C   UNL     1      -8.907   4.449  66.594  1.00  0.00    -0.114 A  
HETATM   25  C   UNL     1      -9.643   3.580  64.033  1.00  0.00    -0.153 A  
HETATM   26  C   UNL     1      -7.930   4.055  65.669  1.00  0.00    -0.093 A  
HETATM   27  C   UNL     1      -8.298   3.624  64.392  1.00  0.00    -0.093 A  
HETATM   28  C   UNL     1     -10.624   3.940  64.954  1.00  0.00    -0.088 A  
HETATM   29  C   UNL     1     -10.258   4.369  66.236  1.00  0.00    -0.211 A  
ENDBRANCH  17  24
ENDBRANCH  12  15
ENDBRANCH   8   9
ENDBRANCH   7   8
ENDBRANCH   6   7
ENDBRANCH   3   6
ENDBRANCH   2   3
TORSDOF 9
ENDMDL
MODEL      191
REMARK 921   NORMALIZED FREE ENERGY PREDICTED BY IDOCK:   -2.62 KCAL/MOL
REMARK 922        TOTAL FREE ENERGY PREDICTED BY IDOCK:   -6.13 KCAL/MOL
REMARK 923 INTER-LIGAND FREE ENERGY PREDICTED BY IDOCK:   -4.23 KCAL/MOL
REMARK 924 INTRA-LIGAND FREE ENERGY PREDICTED BY IDOCK:   -1.90 KCAL/MOL
REMARK 927      BINDING AFFINITY PREDICTED BY RF-SCORE:    0.00 PKD
ROOT
HETATM    1  C   UNL     1      -5.756   9.636  70.030  1.00  0.00    -0.041 C  
HETATM    2  C   UNL     1      -5.396   8.660  71.146  1.00  0.00    -0.033 C  
ENDROOT
BRANCH   2   3
HETATM    3  N   UNL     1      -6.555   8.076  71.838  1.00  0.00    -0.050 NA 
BRANCH   3   4
HETATM    4  C   UNL     1      -6.341   7.820  73.271  1.00  0.00    -0.066 C  
HETATM    5  C   UNL     1      -6.911   6.513  73.809  1.00  0.00    -0.081 C  
ENDBRANCH   3   4
BRANCH   3   6
HETATM    6  C   UNL     1      -7.771   8.864  71.539  1.00  0.00    -0.053 C  
BRANCH   6   7
HETATM    7  C   UNL     1      -8.888   8.033  70.897  1.00  0.00    -0.139 C  
BRANCH   7   8
HETATM    8  O   UNL     1     -10.101   8.794  70.811  1.00  0.00    -0.188 OA 
BRANCH   8   9
HETATM    9  C   UNL     1     -10.071   9.779  69.854  1.00  0.00    -0.251 A  
HETATM   10  C   UNL     1     -10.770  10.986  69.939  1.00  0.00    -0.055 A  
HETATM   11  C   UNL     1     -10.761  11.880  68.871  1.00  0.00    -0.236 A  
HETATM   12  C   UNL     1     -10.019  11.605  67.720  1.00  0.00    -0.191 A  
HETATM   13  C   UNL     1      -9.273  10.420  67.654  1.00  0.00    -0.157 A  
HETATM   14  C   UNL     1      -9.297   9.514  68.722  1.00  0.00    -0.146 A  
BRANCH  12  15
HETATM   15  C   UNL     1     -10.064  12.572  66.596  1.00  0.00    -0.241 C  
HETATM   16 CL   UNL     1      -9.399  14.956  65.451  1.00  0.00     0.074 Cl 
HETATM   17  C   UNL     1      -9.319  13.705  66.659  1.00  0.00    -0.254 C  
BRANCH  15  18
HETATM   18  C   UNL     1     -10.980  12.333  65.449  1.00  0.00    -0.341 A  
HETATM   19  C   UNL     1     -12.184  13.043  65.339  1.00  0.00    -0.520 A  
HETATM   20  C   UNL     1     -10.657  11.379  64.475  1.00  0.00    -0.390 A  
HETATM   21  C   UNL     1     -11.521  11.147  63.399  1.00  0.00     0.308 A  
HETATM   22  C   UNL     1     -13.046  12.809  64.263  1.00  0.00     0.034 A  
HETATM   23  C   UNL     1     -12.712  11.863  63.295  1.00  0.00    -0.407 A  
ENDBRANCH  15  18
BRANCH  17  24
HETATM   24  C   UNL     1      -8.359  14.004  67.744  1.00  0.00    -0.176 A  
HETATM   25  C   UNL     1      -6.521  14.704  69.740  1.00  0.00    -0.159 A  
HETATM   26  C   UNL     1      -8.738  14.855  68.791  1.00  0.00    -0.182 A  
HETATM   27  C   UNL     1      -7.820  15.206  69.784  1.00  0.00    -0.042 A  
HETATM   28  C   UNL     1      -6.143  13.832  68.722  1.00  0.00    -0.086 A  
HETATM   29  C   UNL     1      -7.061  13.477  67.726  1.00  0.00    -0.163 A  
ENDBRANCH  17  24
ENDBRANCH  12  15
ENDBRANCH   8   9
ENDBRANCH   7   8
ENDBRANCH   6   7
ENDBRANCH   3   6
ENDBRANCH   2   3
TORSDOF 9
ENDMDL
MODEL      192
REMARK 921   NORMALIZED FREE ENERGY PREDICTED BY IDOCK:   -2.57 KCAL/MOL
REMARK 922        TOTAL FREE ENERGY PREDICTED BY IDOCK:   -6.06 KCAL/MOL
REMARK 923 INTER-LIGAND FREE ENERGY PREDICTED BY IDOCK:   -3.90 KCAL/MOL
REMARK 924 INTRA-LIGAND FREE ENERGY PREDICTED BY IDOCK:   -2.16 KCAL/MOL
REMARK 927      BINDING AFFINITY PREDICTED BY RF-SCORE:    0.00 PKD
ROOT
HETATM    1  C   UNL     1      -6.173  10.367  65.761  1.00  0.00    -0.123 C  
HETATM    2  C   UNL     1      -7.425  11.163  65.404  1.00  0.00     0.400 C  
ENDROOT
BRANCH   2   3
HETATM    3  N   UNL     1      -8.516  11.048  66.383  1.00  0.00    -0.160 NA 
BRANCH   3   4
HETATM    4  C   UNL     1      -9.769  10.505  65.836  1.00  0.00    -0.217 C  
HETATM    5  C   UNL     1      -9.873  10.465  64.316  1.00  0.00    -0.388 C  
ENDBRANCH   3   4
BRANCH   3   6
HETATM    6  C   UNL     1      -8.034  10.351  67.596  1.00  0.00    -0.106 C  
BRANCH   6   7
HETATM    7  C   UNL     1      -8.762  10.785  68.874  1.00  0.00    -0.152 C  
BRANCH   7   8
HETATM    8  O   UNL     1      -8.213  10.123  70.021  1.00  0.00    -0.160 OA 
BRANCH   8   9
HETATM    9  C   UNL     1      -8.484   8.777  70.066  1.00  0.00    -0.133 A  
HETATM   10  C   UNL     1      -9.758   8.222  69.923  1.00  0.00    -0.180 A  
HETATM   11  C   UNL     1      -9.951   6.853  70.086  1.00  0.00    -0.188 A  
HETATM   12  C   UNL     1      -8.869   6.010  70.352  1.00  0.00    -0.148 A  
HETATM   13  C   UNL     1      -7.582   6.556  70.443  1.00  0.00    -0.096 A  
HETATM   14  C   UNL     1      -7.392   7.936  70.294  1.00  0.00    -0.065 A  
BRANCH  12  15
HETATM   15  C   UNL     1      -9.127   4.561  70.549  1.00  0.00    -0.172 C  
HETATM   16 CL   UNL     1      -9.618   2.057  69.589  1.00  0.00    -0.103 Cl 
HETATM   17  C   UNL     1      -9.199   3.743  69.470  1.00  0.00    -0.156 C  
BRANCH  15  18
HETATM   18  C   UNL     1      -9.380   4.034  71.916  1.00  0.00    -0.192 A  
HETATM   19  C   UNL     1     -10.662   4.103  72.480  1.00  0.00    -0.101 A  
HETATM   20  C   UNL     1      -8.334   3.479  72.664  1.00  0.00    -0.081 A  
HETATM   21  C   UNL     1      -8.569   2.988  73.953  1.00  0.00    -0.073 A  
HETATM   22  C   UNL     1     -10.894   3.613  73.769  1.00  0.00    -0.318 A  
HETATM   23  C   UNL     1      -9.848   3.055  74.502  1.00  0.00    -0.160 A  
ENDBRANCH  15  18
BRANCH  17  24
HETATM   24  C   UNL     1      -8.926   4.177  68.082  1.00  0.00    -0.150 A  
HETATM   25  C   UNL     1      -8.455   4.869  65.407  1.00  0.00    -0.133 A  
HETATM   26  C   UNL     1      -9.995   4.495  67.232  1.00  0.00    -0.187 A  
HETATM   27  C   UNL     1      -9.759   4.837  65.898  1.00  0.00    -0.203 A  
HETATM   28  C   UNL     1      -7.384   4.586  66.252  1.00  0.00    -0.081 A  
HETATM   29  C   UNL     1      -7.617   4.245  67.589  1.00  0.00    -0.073 A  
ENDBRANCH  17  24
ENDBRANCH  12  15
ENDBRANCH   8   9
ENDBRANCH   7   8
ENDBRANCH   6   7
ENDBRANCH   3   6
ENDBRANCH   2   3
TORSDOF 9
ENDMDL
MODEL      193
REMARK 921   NORMALIZED FREE ENERGY PREDICTED BY IDOCK:   -2.57 KCAL/MOL
REMARK 922        TOTAL FREE ENERGY PREDICTED BY IDOCK:   -6.05 KCAL/MOL
REMARK 923 INTER-LIGAND FREE ENERGY PREDICTED BY IDOCK:   -4.24 KCAL/MOL
REMARK 924 INTRA-LIGAND FREE ENERGY PREDICTED BY IDOCK:   -1.81 KCAL/MOL
REMARK 927      BINDING AFFINITY PREDICTED BY RF-SCORE:    0.00 PKD
ROOT
HETATM    1  C   UNL     1      -7.069   8.106  65.563  1.00  0.00    -0.067 C  
HETATM    2  C   UNL     1      -6.393   9.310  64.912  1.00  0.00    -0.067 C  
ENDROOT
BRANCH   2   3
HETATM    3  N   UNL     1      -7.103  10.583  65.109  1.00  0.00    -0.074 NA 
BRANCH   3   4
HETATM    4  C   UNL     1      -8.069  10.911  64.050  1.00  0.00     0.298 C  
HETATM    5  C   UNL     1      -8.399   9.787  63.075  1.00  0.00    -0.166 C  
ENDBRANCH   3   4
BRANCH   3   6
HETATM    6  C   UNL     1      -7.662  10.643  66.478  1.00  0.00    -0.137 C  
BRANCH   6   7
HETATM    7  C   UNL     1      -8.939  11.486  66.574  1.00  0.00    -0.189 C  
BRANCH   7   8
HETATM    8  O   UNL     1      -9.661  11.178  67.775  1.00  0.00    -0.167 OA 
BRANCH   8   9
HETATM    9  C   UNL     1      -9.634   9.847  68.112  1.00  0.00    -0.139 A  
HETATM   10  C   UNL     1     -10.368   8.851  67.462  1.00  0.00    -0.328 A  
HETATM   11  C   UNL     1     -10.356   7.544  67.940  1.00  0.00    -0.266 A  
HETATM   12  C   UNL     1      -9.577   7.200  69.048  1.00  0.00    -0.146 A  
HETATM   13  C   UNL     1      -8.798   8.185  69.669  1.00  0.00    -0.143 A  
HETATM   14  C   UNL     1      -8.823   9.503  69.196  1.00  0.00    -0.147 A  
BRANCH  12  15
HETATM   15  C   UNL     1      -9.620   5.800  69.541  1.00  0.00    -0.181 C  
HETATM   16 CL   UNL     1     -10.396   3.915  71.352  1.00  0.00    -0.004 Cl 
HETATM   17  C   UNL     1     -10.378   5.497  70.625  1.00  0.00    -0.262 C  
BRANCH  15  18
HETATM   18  C   UNL     1      -8.774   4.762  68.896  1.00  0.00    -0.107 A  
HETATM   19  C   UNL     1      -9.312   3.906  67.925  1.00  0.00    -0.227 A  
HETATM   20  C   UNL     1      -7.431   4.615  69.267  1.00  0.00    -0.056 A  
HETATM   21  C   UNL     1      -6.635   3.633  68.666  1.00  0.00    -0.041 A  
HETATM   22  C   UNL     1      -8.515   2.926  67.327  1.00  0.00    -0.105 A  
HETATM   23  C   UNL     1      -7.178   2.792  67.697  1.00  0.00    -0.053 A  
ENDBRANCH  15  18
BRANCH  17  24
HETATM   24  C   UNL     1     -11.274   6.459  71.304  1.00  0.00    -0.346 A  
HETATM   25  C   UNL     1     -12.940   8.378  72.484  1.00  0.00    -0.235 A  
HETATM   26  C   UNL     1     -12.534   6.737  70.758  1.00  0.00    -0.212 A  
HETATM   27  C   UNL     1     -13.363   7.696  71.346  1.00  0.00    -0.340 A  
HETATM   28  C   UNL     1     -11.702   8.087  73.053  1.00  0.00    -0.037 A  
HETATM   29  C   UNL     1     -10.870   7.125  72.468  1.00  0.00    -0.299 A  
ENDBRANCH  17  24
ENDBRANCH  12  15
ENDBRANCH   8   9
ENDBRANCH   7   8
ENDBRANCH   6   7
ENDBRANCH   3   6
ENDBRANCH   2   3
TORSDOF 9
ENDMDL
MODEL      194
REMARK 921   NORMALIZED FREE ENERGY PREDICTED BY IDOCK:   -2.44 KCAL/MOL
REMARK 922        TOTAL FREE ENERGY PREDICTED BY IDOCK:   -5.86 KCAL/MOL
REMARK 923 INTER-LIGAND FREE ENERGY PREDICTED BY IDOCK:   -3.94 KCAL/MOL
REMARK 924 INTRA-LIGAND FREE ENERGY PREDICTED BY IDOCK:   -1.92 KCAL/MOL
REMARK 927      BINDING AFFINITY PREDICTED BY RF-SCORE:    0.00 PKD
ROOT
HETATM    1  C   UNL     1      -6.218  10.190  66.258  1.00  0.00    -0.078 C  
HETATM    2  C   UNL     1      -7.445  10.875  65.664  1.00  0.00     0.042 C  
ENDROOT
BRANCH   2   3
HETATM    3  N   UNL     1      -8.592  10.969  66.581  1.00  0.00    -0.151 NA 
BRANCH   3   4
HETATM    4  C   UNL     1      -9.856  10.461  66.027  1.00  0.00    -0.232 C  
HETATM    5  C   UNL     1      -9.733   9.508  64.844  1.00  0.00    -0.065 C  
ENDBRANCH   3   4
BRANCH   3   6
HETATM    6  C   UNL     1      -8.233  10.394  67.897  1.00  0.00    -0.106 C  
BRANCH   6   7
HETATM    7  C   UNL     1      -9.301  10.630  68.972  1.00  0.00    -0.180 C  
BRANCH   7   8
HETATM    8  O   UNL     1      -8.940   9.977  70.197  1.00  0.00    -0.173 OA 
BRANCH   8   9
HETATM    9  C   UNL     1      -8.916   8.607  70.108  1.00  0.00    -0.154 A  
HETATM   10  C   UNL     1      -7.756   7.831  70.169  1.00  0.00    -0.090 A  
HETATM   11  C   UNL     1      -7.819   6.454  69.966  1.00  0.00    -0.111 A  
HETATM   12  C   UNL     1      -9.046   5.825  69.743  1.00  0.00    -0.151 A  
HETATM   13  C   UNL     1     -10.218   6.593  69.736  1.00  0.00    -0.214 A  
HETATM   14  C   UNL     1     -10.150   7.980  69.924  1.00  0.00    -0.198 A  
BRANCH  12  15
HETATM   15  C   UNL     1      -9.061   4.361  69.501  1.00  0.00    -0.175 C  
HETATM   16 CL   UNL     1      -9.082   1.781  70.384  1.00  0.00    -0.138 Cl 
HETATM   17  C   UNL     1      -9.178   3.512  70.553  1.00  0.00    -0.143 C  
BRANCH  15  18
HETATM   18  C   UNL     1      -8.871   3.836  68.124  1.00  0.00    -0.144 A  
HETATM   19  C   UNL     1      -9.852   4.036  67.142  1.00  0.00    -0.144 A  
HETATM   20  C   UNL     1      -7.714   3.116  67.795  1.00  0.00    -0.067 A  
HETATM   21  C   UNL     1      -7.536   2.615  66.502  1.00  0.00    -0.071 A  
HETATM   22  C   UNL     1      -9.672   3.533  65.850  1.00  0.00    -0.049 A  
HETATM   23  C   UNL     1      -8.514   2.825  65.532  1.00  0.00    -0.100 A  
ENDBRANCH  15  18
BRANCH  17  24
HETATM   24  C   UNL     1      -9.405   3.948  71.948  1.00  0.00    -0.191 A  
HETATM   25  C   UNL     1      -9.865   4.910  74.540  1.00  0.00    -0.213 A  
HETATM   26  C   UNL     1     -10.712   4.180  72.398  1.00  0.00    -0.050 A  
HETATM   27  C   UNL     1     -10.940   4.662  73.690  1.00  0.00    -0.392 A  
HETATM   28  C   UNL     1      -8.564   4.654  74.114  1.00  0.00    -0.104 A  
HETATM   29  C   UNL     1      -8.332   4.168  72.821  1.00  0.00    -0.097 A  
ENDBRANCH  17  24
ENDBRANCH  12  15
ENDBRANCH   8   9
ENDBRANCH   7   8
ENDBRANCH   6   7
ENDBRANCH   3   6
ENDBRANCH   2   3
TORSDOF 9
ENDMDL
MODEL      195
REMARK 921   NORMALIZED FREE ENERGY PREDICTED BY IDOCK:   -2.43 KCAL/MOL
REMARK 922        TOTAL FREE ENERGY PREDICTED BY IDOCK:   -5.84 KCAL/MOL
REMARK 923 INTER-LIGAND FREE ENERGY PREDICTED BY IDOCK:   -5.24 KCAL/MOL
REMARK 924 INTRA-LIGAND FREE ENERGY PREDICTED BY IDOCK:   -0.60 KCAL/MOL
REMARK 927      BINDING AFFINITY PREDICTED BY RF-SCORE:    0.00 PKD
ROOT
HETATM    1  C   UNL     1      -7.819   8.318  64.507  1.00  0.00    -0.130 C  
HETATM    2  C   UNL     1      -7.660   6.917  63.925  1.00  0.00    -0.109 C  
ENDROOT
BRANCH   2   3
HETATM    3  N   UNL     1      -6.414   6.238  64.309  1.00  0.00    -0.033 NA 
BRANCH   3   4
HETATM    4  C   UNL     1      -5.228   7.108  64.329  1.00  0.00    -0.029 C  
HETATM    5  C   UNL     1      -5.143   8.146  63.216  1.00  0.00    -0.050 C  
ENDBRANCH   3   4
BRANCH   3   6
HETATM    6  C   UNL     1      -6.622   5.471  65.558  1.00  0.00    -0.040 C  
BRANCH   6   7
HETATM    7  C   UNL     1      -5.943   6.104  66.778  1.00  0.00    -0.025 C  
BRANCH   7   8
HETATM    8  O   UNL     1      -6.679   7.249  67.231  1.00  0.00    -0.063 OA 
BRANCH   8   9
HETATM    9  C   UNL     1      -7.641   6.955  68.166  1.00  0.00    -0.108 A  
HETATM   10  C   UNL     1      -8.922   6.485  67.861  1.00  0.00    -0.115 A  
HETATM   11  C   UNL     1      -9.866   6.313  68.870  1.00  0.00    -0.155 A  
HETATM   12  C   UNL     1      -9.534   6.565  70.204  1.00  0.00    -0.164 A  
HETATM   13  C   UNL     1      -8.234   6.984  70.518  1.00  0.00    -0.123 A  
HETATM   14  C   UNL     1      -7.291   7.172  69.500  1.00  0.00    -0.089 A  
BRANCH  12  15
HETATM   15  C   UNL     1     -10.581   6.397  71.242  1.00  0.00    -0.275 C  
HETATM   16 CL   UNL     1     -11.897   4.905  73.106  1.00  0.00    -0.265 Cl 
HETATM   17  C   UNL     1     -10.634   5.245  71.957  1.00  0.00    -0.216 C  
BRANCH  15  18
HETATM   18  C   UNL     1     -11.607   7.455  71.436  1.00  0.00    -0.303 A  
HETATM   19  C   UNL     1     -12.972   7.133  71.436  1.00  0.00    -0.419 A  
HETATM   20  C   UNL     1     -11.221   8.792  71.602  1.00  0.00    -0.394 A  
HETATM   21  C   UNL     1     -12.185   9.790  71.777  1.00  0.00    -0.449 A  
HETATM   22  C   UNL     1     -13.934   8.133  71.611  1.00  0.00    -0.463 A  
HETATM   23  C   UNL     1     -13.539   9.459  71.783  1.00  0.00    -0.461 A  
ENDBRANCH  15  18
BRANCH  17  24
HETATM   24  C   UNL     1      -9.636   4.159  71.851  1.00  0.00    -0.216 A  
HETATM   25  C   UNL     1      -7.851   2.005  71.678  1.00  0.00    -0.041 A  
HETATM   26  C   UNL     1      -9.613   3.346  70.710  1.00  0.00    -0.236 A  
HETATM   27  C   UNL     1      -8.725   2.270  70.626  1.00  0.00    -0.112 A  
HETATM   28  C   UNL     1      -7.844   2.826  72.804  1.00  0.00    -0.058 A  
HETATM   29  C   UNL     1      -8.731   3.905  72.890  1.00  0.00    -0.102 A  
ENDBRANCH  17  24
ENDBRANCH  12  15
ENDBRANCH   8   9
ENDBRANCH   7   8
ENDBRANCH   6   7
ENDBRANCH   3   6
ENDBRANCH   2   3
TORSDOF 9
ENDMDL
MODEL      196
REMARK 921   NORMALIZED FREE ENERGY PREDICTED BY IDOCK:   -2.40 KCAL/MOL
REMARK 922        TOTAL FREE ENERGY PREDICTED BY IDOCK:   -5.80 KCAL/MOL
REMARK 923 INTER-LIGAND FREE ENERGY PREDICTED BY IDOCK:   -3.84 KCAL/MOL
REMARK 924 INTRA-LIGAND FREE ENERGY PREDICTED BY IDOCK:   -1.96 KCAL/MOL
REMARK 927      BINDING AFFINITY PREDICTED BY RF-SCORE:    0.00 PKD
ROOT
HETATM    1  C   UNL     1      -5.360   5.552  62.339  1.00  0.00    -0.013 C  
HETATM    2  C   UNL     1      -6.158   4.777  63.383  1.00  0.00    -0.021 C  
ENDROOT
BRANCH   2   3
HETATM    3  N   UNL     1      -6.583   5.580  64.540  1.00  0.00    -0.041 NA 
BRANCH   3   4
HETATM    4  C   UNL     1      -6.153   6.986  64.495  1.00  0.00    -0.037 C  
HETATM    5  C   UNL     1      -6.216   7.747  65.814  1.00  0.00    -0.042 C  
ENDBRANCH   3   4
BRANCH   3   6
HETATM    6  C   UNL     1      -8.033   5.398  64.775  1.00  0.00    -0.110 C  
BRANCH   6   7
HETATM    7  C   UNL     1      -8.402   3.976  65.211  1.00  0.00    -0.105 C  
BRANCH   7   8
HETATM    8  O   UNL     1      -7.691   3.609  66.401  1.00  0.00    -0.083 OA 
BRANCH   8   9
HETATM    9  C   UNL     1      -8.047   4.341  67.508  1.00  0.00    -0.099 A  
HETATM   10  C   UNL     1      -7.170   4.696  68.536  1.00  0.00    -0.057 A  
HETATM   11  C   UNL     1      -7.645   5.351  69.670  1.00  0.00    -0.070 A  
HETATM   12  C   UNL     1      -8.993   5.701  69.776  1.00  0.00    -0.140 A  
HETATM   13  C   UNL     1      -9.865   5.394  68.722  1.00  0.00    -0.208 A  
HETATM   14  C   UNL     1      -9.388   4.721  67.589  1.00  0.00    -0.161 A  
BRANCH  12  15
HETATM   15  C   UNL     1      -9.460   6.370  71.015  1.00  0.00    -0.181 C  
HETATM   16 CL   UNL     1      -9.877   8.599  72.530  1.00  0.00    -0.326 Cl 
HETATM   17  C   UNL     1      -9.466   7.726  71.081  1.00  0.00    -0.154 C  
BRANCH  15  18
HETATM   18  C   UNL     1      -9.842   5.555  72.198  1.00  0.00    -0.198 A  
HETATM   19  C   UNL     1      -8.874   5.152  73.130  1.00  0.00    -0.115 A  
HETATM   20  C   UNL     1     -11.174   5.162  72.386  1.00  0.00    -0.176 A  
HETATM   21  C   UNL     1     -11.534   4.388  73.494  1.00  0.00    -0.274 A  
HETATM   22  C   UNL     1      -9.236   4.379  74.236  1.00  0.00    -0.114 A  
HETATM   23  C   UNL     1     -10.565   4.000  74.417  1.00  0.00    -0.253 A  
ENDBRANCH  15  18
BRANCH  17  24
HETATM   24  C   UNL     1      -9.136   8.610  69.942  1.00  0.00    -0.151 A  
HETATM   25  C   UNL     1      -8.476  10.167  67.707  1.00  0.00    -0.114 A  
HETATM   26  C   UNL     1     -10.011   8.693  68.851  1.00  0.00    -0.197 A  
HETATM   27  C   UNL     1      -9.680   9.467  67.736  1.00  0.00    -0.176 A  
HETATM   28  C   UNL     1      -7.613  10.117  68.799  1.00  0.00    -0.089 A  
HETATM   29  C   UNL     1      -7.943   9.344  69.919  1.00  0.00    -0.132 A  
ENDBRANCH  17  24
ENDBRANCH  12  15
ENDBRANCH   8   9
ENDBRANCH   7   8
ENDBRANCH   6   7
ENDBRANCH   3   6
ENDBRANCH   2   3
TORSDOF 9
ENDMDL
MODEL      197
REMARK 921   NORMALIZED FREE ENERGY PREDICTED BY IDOCK:   -2.40 KCAL/MOL
REMARK 922        TOTAL FREE ENERGY PREDICTED BY IDOCK:   -5.79 KCAL/MOL
REMARK 923 INTER-LIGAND FREE ENERGY PREDICTED BY IDOCK:   -4.44 KCAL/MOL
REMARK 924 INTRA-LIGAND FREE ENERGY PREDICTED BY IDOCK:   -1.35 KCAL/MOL
REMARK 927      BINDING AFFINITY PREDICTED BY RF-SCORE:    0.00 PKD
ROOT
HETATM    1  C   UNL     1      -7.596  11.924  68.752  1.00  0.00    -0.090 C  
HETATM    2  C   UNL     1      -9.025  11.488  68.442  1.00  0.00    -0.173 C  
ENDROOT
BRANCH   2   3
HETATM    3  N   UNL     1      -9.576  12.054  67.200  1.00  0.00    -0.190 NA 
BRANCH   3   4
HETATM    4  C   UNL     1     -10.055  13.438  67.324  1.00  0.00    -0.238 C  
HETATM    5  C   UNL     1     -11.378  13.752  66.635  1.00  0.00    -0.340 C  
ENDBRANCH   3   4
BRANCH   3   6
HETATM    6  C   UNL     1      -8.628  11.839  66.084  1.00  0.00    -0.001 C  
BRANCH   6   7
HETATM    7  C   UNL     1      -8.745  10.449  65.448  1.00  0.00    -0.180 C  
BRANCH   7   8
HETATM    8  O   UNL     1      -7.660   9.608  65.862  1.00  0.00    -0.099 OA 
BRANCH   8   9
HETATM    9  C   UNL     1      -8.019   8.648  66.776  1.00  0.00    -0.094 A  
HETATM   10  C   UNL     1      -7.273   8.317  67.910  1.00  0.00    -0.095 A  
HETATM   11  C   UNL     1      -7.664   7.258  68.725  1.00  0.00    -0.119 A  
HETATM   12  C   UNL     1      -8.830   6.541  68.446  1.00  0.00    -0.123 A  
HETATM   13  C   UNL     1      -9.610   6.906  67.340  1.00  0.00    -0.163 A  
HETATM   14  C   UNL     1      -9.206   7.961  66.512  1.00  0.00    -0.238 A  
BRANCH  12  15
HETATM   15  C   UNL     1      -9.192   5.400  69.324  1.00  0.00    -0.149 C  
HETATM   16 CL   UNL     1     -10.333   4.372  71.577  1.00  0.00    -0.161 Cl 
HETATM   17  C   UNL     1      -9.960   5.620  70.421  1.00  0.00    -0.206 C  
BRANCH  15  18
HETATM   18  C   UNL     1      -8.647   4.046  69.042  1.00  0.00    -0.113 A  
HETATM   19  C   UNL     1      -9.399   3.112  68.315  1.00  0.00    -0.246 A  
HETATM   20  C   UNL     1      -7.380   3.682  69.516  1.00  0.00    -0.049 A  
HETATM   21  C   UNL     1      -6.868   2.406  69.258  1.00  0.00    -0.033 A  
HETATM   22  C   UNL     1      -8.886   1.838  68.059  1.00  0.00    -0.149 A  
HETATM   23  C   UNL     1      -7.621   1.487  68.529  1.00  0.00    -0.046 A  
ENDBRANCH  15  18
BRANCH  17  24
HETATM   24  C   UNL     1     -10.570   6.925  70.756  1.00  0.00    -0.245 A  
HETATM   25  C   UNL     1     -11.840   9.325  71.450  1.00  0.00    -0.428 A  
HETATM   26  C   UNL     1     -10.572   7.368  72.086  1.00  0.00    -0.256 A  
HETATM   27  C   UNL     1     -11.208   8.564  72.431  1.00  0.00    -0.399 A  
HETATM   28  C   UNL     1     -11.817   8.909  70.121  1.00  0.00     0.221 A  
HETATM   29  C   UNL     1     -11.179   7.713  69.771  1.00  0.00    -0.042 A  
ENDBRANCH  17  24
ENDBRANCH  12  15
ENDBRANCH   8   9
ENDBRANCH   7   8
ENDBRANCH   6   7
ENDBRANCH   3   6
ENDBRANCH   2   3
TORSDOF 9
ENDMDL
MODEL      198
REMARK 921   NORMALIZED FREE ENERGY PREDICTED BY IDOCK:   -2.40 KCAL/MOL
REMARK 922        TOTAL FREE ENERGY PREDICTED BY IDOCK:   -5.79 KCAL/MOL
REMARK 923 INTER-LIGAND FREE ENERGY PREDICTED BY IDOCK:   -4.50 KCAL/MOL
REMARK 924 INTRA-LIGAND FREE ENERGY PREDICTED BY IDOCK:   -1.29 KCAL/MOL
REMARK 927      BINDING AFFINITY PREDICTED BY RF-SCORE:    0.00 PKD
ROOT
HETATM    1  C   UNL     1     -10.973  17.424  66.850  1.00  0.00     0.135 C  
HETATM    2  C   UNL     1     -10.260  16.536  65.835  1.00  0.00    -0.349 C  
ENDROOT
BRANCH   2   3
HETATM    3  N   UNL     1      -9.956  15.182  66.320  1.00  0.00    -0.270 NA 
BRANCH   3   4
HETATM    4  C   UNL     1      -8.566  14.992  66.763  1.00  0.00    -0.244 C  
HETATM    5  C   UNL     1      -7.639  16.188  66.585  1.00  0.00    -0.238 C  
ENDBRANCH   3   4
BRANCH   3   6
HETATM    6  C   UNL     1     -10.970  14.763  67.314  1.00  0.00    -0.318 C  
BRANCH   6   7
HETATM    7  C   UNL     1     -11.763  13.523  66.884  1.00  0.00    -0.384 C  
BRANCH   7   8
HETATM    8  O   UNL     1     -10.943  12.640  66.108  1.00  0.00    -0.271 OA 
BRANCH   8   9
HETATM    9  C   UNL     1     -10.306  11.677  66.852  1.00  0.00    -0.220 A  
HETATM   10  C   UNL     1     -10.724  11.250  68.116  1.00  0.00    -0.244 A  
HETATM   11  C   UNL     1      -9.957  10.342  68.840  1.00  0.00    -0.209 A  
HETATM   12  C   UNL     1      -8.783   9.813  68.299  1.00  0.00    -0.119 A  
HETATM   13  C   UNL     1      -8.389  10.198  67.010  1.00  0.00    -0.125 A  
HETATM   14  C   UNL     1      -9.155  11.124  66.289  1.00  0.00    -0.207 A  
BRANCH  12  15
HETATM   15  C   UNL     1      -7.980   8.872  69.120  1.00  0.00    -0.105 C  
HETATM   16 CL   UNL     1      -7.366   6.359  69.981  1.00  0.00    -0.083 Cl 
HETATM   17  C   UNL     1      -8.168   7.535  68.978  1.00  0.00    -0.128 C  
BRANCH  15  18
HETATM   18  C   UNL     1      -7.039   9.399  70.142  1.00  0.00    -0.083 A  
HETATM   19  C   UNL     1      -6.850   8.721  71.355  1.00  0.00    -0.084 A  
HETATM   20  C   UNL     1      -6.343  10.594  69.913  1.00  0.00    -0.110 A  
HETATM   21  C   UNL     1      -5.462  11.096  70.876  1.00  0.00    -0.104 A  
HETATM   22  C   UNL     1      -5.969   9.225  72.317  1.00  0.00     0.052 A  
HETATM   23  C   UNL     1      -5.276  10.410  72.075  1.00  0.00     0.062 A  
ENDBRANCH  15  18
BRANCH  17  24
HETATM   24  C   UNL     1      -9.056   6.927  67.965  1.00  0.00    -0.120 A  
HETATM   25  C   UNL     1     -10.754   5.658  66.132  1.00  0.00    -0.033 A  
HETATM   26  C   UNL     1     -10.438   6.875  68.195  1.00  0.00    -0.243 A  
HETATM   27  C   UNL     1     -11.283   6.240  67.282  1.00  0.00    -0.254 A  
HETATM   28  C   UNL     1      -9.387   5.731  65.878  1.00  0.00    -0.096 A  
HETATM   29  C   UNL     1      -8.537   6.369  66.789  1.00  0.00    -0.113 A  
ENDBRANCH  17  24
ENDBRANCH  12  15
ENDBRANCH   8   9
ENDBRANCH   7   8
ENDBRANCH   6   7
ENDBRANCH   3   6
ENDBRANCH   2   3
TORSDOF 9
ENDMDL
MODEL      199
REMARK 921   NORMALIZED FREE ENERGY PREDICTED BY IDOCK:   -2.26 KCAL/MOL
REMARK 922        TOTAL FREE ENERGY PREDICTED BY IDOCK:   -5.59 KCAL/MOL
REMARK 923 INTER-LIGAND FREE ENERGY PREDICTED BY IDOCK:   -3.73 KCAL/MOL
REMARK 924 INTRA-LIGAND FREE ENERGY PREDICTED BY IDOCK:   -1.86 KCAL/MOL
REMARK 927      BINDING AFFINITY PREDICTED BY RF-SCORE:    0.00 PKD
ROOT
HETATM    1  C   UNL     1      -6.030  10.438  67.422  1.00  0.00    -0.053 C  
HETATM    2  C   UNL     1      -6.967  11.449  66.767  1.00  0.00    -0.128 C  
ENDROOT
BRANCH   2   3
HETATM    3  N   UNL     1      -8.201  11.711  67.523  1.00  0.00    -0.141 NA 
BRANCH   3   4
HETATM    4  C   UNL     1      -8.225  13.007  68.218  1.00  0.00    -0.150 C  
HETATM    5  C   UNL     1      -7.716  14.202  67.421  1.00  0.00    -0.189 C  
ENDBRANCH   3   4
BRANCH   3   6
HETATM    6  C   UNL     1      -9.381  11.463  66.665  1.00  0.00    -0.185 C  
BRANCH   6   7
HETATM    7  C   UNL     1     -10.625  11.036  67.453  1.00  0.00    -0.237 C  
BRANCH   7   8
HETATM    8  O   UNL     1     -11.095   9.757  67.006  1.00  0.00    -0.093 OA 
BRANCH   8   9
HETATM    9  C   UNL     1     -10.305   8.706  67.404  1.00  0.00    -0.284 A  
HETATM   10  C   UNL     1      -9.484   7.965  66.549  1.00  0.00    -0.277 A  
HETATM   11  C   UNL     1      -8.798   6.851  67.025  1.00  0.00    -0.119 A  
HETATM   12  C   UNL     1      -8.886   6.483  68.369  1.00  0.00    -0.123 A  
HETATM   13  C   UNL     1      -9.665   7.256  69.241  1.00  0.00    -0.161 A  
HETATM   14  C   UNL     1     -10.367   8.367  68.757  1.00  0.00    -0.225 A  
BRANCH  12  15
HETATM   15  C   UNL     1      -8.161   5.270  68.824  1.00  0.00    -0.089 C  
HETATM   16 CL   UNL     1      -6.231   4.039  70.306  1.00  0.00    -0.025 Cl 
HETATM   17  C   UNL     1      -7.218   5.379  69.794  1.00  0.00    -0.064 C  
BRANCH  15  18
HETATM   18  C   UNL     1      -8.418   3.963  68.163  1.00  0.00    -0.106 A  
HETATM   19  C   UNL     1      -9.288   3.029  68.743  1.00  0.00    -0.235 A  
HETATM   20  C   UNL     1      -7.775   3.642  66.960  1.00  0.00    -0.080 A  
HETATM   21  C   UNL     1      -8.008   2.410  66.340  1.00  0.00    -0.081 A  
HETATM   22  C   UNL     1      -9.520   1.799  68.121  1.00  0.00    -0.218 A  
HETATM   23  C   UNL     1      -8.881   1.492  66.921  1.00  0.00    -0.127 A  
ENDBRANCH  15  18
BRANCH  17  24
HETATM   24  C   UNL     1      -6.926   6.631  70.526  1.00  0.00    -0.064 A  
HETATM   25  C   UNL     1      -6.507   9.048  71.880  1.00  0.00    -0.008 A  
HETATM   26  C   UNL     1      -7.504   6.850  71.784  1.00  0.00    -0.089 A  
HETATM   27  C   UNL     1      -7.297   8.057  72.457  1.00  0.00    -0.122 A  
HETATM   28  C   UNL     1      -5.901   8.829  70.645  1.00  0.00    -0.032 A  
HETATM   29  C   UNL     1      -6.105   7.620  69.969  1.00  0.00    -0.026 A  
ENDBRANCH  17  24
ENDBRANCH  12  15
ENDBRANCH   8   9
ENDBRANCH   7   8
ENDBRANCH   6   7
ENDBRANCH   3   6
ENDBRANCH   2   3
TORSDOF 9
ENDMDL
MODEL      200
REMARK 921   NORMALIZED FREE ENERGY PREDICTED BY IDOCK:   -2.14 KCAL/MOL
REMARK 922        TOTAL FREE ENERGY PREDICTED BY IDOCK:   -5.41 KCAL/MOL
REMARK 923 INTER-LIGAND FREE ENERGY PREDICTED BY IDOCK:   -3.89 KCAL/MOL
REMARK 924 INTRA-LIGAND FREE ENERGY PREDICTED BY IDOCK:   -1.52 KCAL/MOL
REMARK 927      BINDING AFFINITY PREDICTED BY RF-SCORE:    0.00 PKD
ROOT
HETATM    1  C   UNL     1      -8.069  14.986  68.221  1.00  0.00    -0.133 C  
HETATM    2  C   UNL     1      -8.098  13.859  67.194  1.00  0.00    -0.083 C  
ENDROOT
BRANCH   2   3
HETATM    3  N   UNL     1      -9.178  12.881  67.397  1.00  0.00    -0.189 NA 
BRANCH   3   4
HETATM    4  C   UNL     1     -10.103  12.751  66.261  1.00  0.00    -0.259 C  
HETATM    5  C   UNL     1     -11.533  12.353  66.604  1.00  0.00    -0.429 C  
ENDBRANCH   3   4
BRANCH   3   6
HETATM    6  C   UNL     1      -8.613  11.596  67.867  1.00  0.00    -0.150 C  
BRANCH   6   7
HETATM    7  C   UNL     1      -9.607  10.758  68.679  1.00  0.00    -0.187 C  
BRANCH   7   8
HETATM    8  O   UNL     1      -9.092  10.490  69.990  1.00  0.00     0.131 OA 
BRANCH   8   9
HETATM    9  C   UNL     1      -8.993   9.152  70.284  1.00  0.00    -0.217 A  
HETATM   10  C   UNL     1      -7.853   8.540  70.813  1.00  0.00    -0.097 A  
HETATM   11  C   UNL     1      -7.811   7.159  70.982  1.00  0.00    -0.095 A  
HETATM   12  C   UNL     1      -8.920   6.370  70.667  1.00  0.00    -0.144 A  
HETATM   13  C   UNL     1     -10.084   6.987  70.188  1.00  0.00    -0.197 A  
HETATM   14  C   UNL     1     -10.119   8.375  70.003  1.00  0.00    -0.192 A  
BRANCH  12  15
HETATM   15  C   UNL     1      -8.818   4.899  70.834  1.00  0.00    -0.155 C  
HETATM   16 CL   UNL     1      -8.407   2.392  69.844  1.00  0.00    -0.069 Cl 
HETATM   17  C   UNL     1      -8.436   4.132  69.782  1.00  0.00    -0.060 C  
BRANCH  15  18
HETATM   18  C   UNL     1      -9.210   4.272  72.124  1.00  0.00    -0.163 A  
HETATM   19  C   UNL     1      -8.440   4.473  73.278  1.00  0.00    -0.102 A  
HETATM   20  C   UNL     1     -10.346   3.454  72.196  1.00  0.00    -0.075 A  
HETATM   21  C   UNL     1     -10.712   2.857  73.406  1.00  0.00    -0.283 A  
HETATM   22  C   UNL     1      -8.808   3.875  74.487  1.00  0.00    -0.099 A  
HETATM   23  C   UNL     1      -9.944   3.069  74.549  1.00  0.00    -0.176 A  
ENDBRANCH  15  18
BRANCH  17  24
HETATM   24  C   UNL     1      -7.997   4.676  68.479  1.00  0.00    -0.080 A  
HETATM   25  C   UNL     1      -7.162   5.839  66.069  1.00  0.00    -0.072 A  
HETATM   26  C   UNL     1      -6.662   5.066  68.303  1.00  0.00    -0.054 A  
HETATM   27  C   UNL     1      -6.248   5.648  67.103  1.00  0.00    -0.034 A  
HETATM   28  C   UNL     1      -8.484   5.426  66.221  1.00  0.00    -0.117 A  
HETATM   29  C   UNL     1      -8.902   4.840  67.422  1.00  0.00    -0.106 A  
ENDBRANCH  17  24
ENDBRANCH  12  15
ENDBRANCH   8   9
ENDBRANCH   7   8
ENDBRANCH   6   7
ENDBRANCH   3   6
ENDBRANCH   2   3
TORSDOF 9
ENDMDL
MODEL      201
REMARK 921   NORMALIZED FREE ENERGY PREDICTED BY IDOCK:   -2.12 KCAL/MOL
REMARK 922        TOTAL FREE ENERGY PREDICTED BY IDOCK:   -5.38 KCAL/MOL
REMARK 923 INTER-LIGAND FREE ENERGY PREDICTED BY IDOCK:   -3.78 KCAL/MOL
REMARK 924 INTRA-LIGAND FREE ENERGY PREDICTED BY IDOCK:   -1.60 KCAL/MOL
REMARK 927      BINDING AFFINITY PREDICTED BY RF-SCORE:    0.00 PKD
ROOT
HETATM    1  C   UNL     1     -10.913  11.071  69.705  1.00  0.00    -0.286 C  
HETATM    2  C   UNL     1     -12.403  10.810  69.506  1.00  0.00    -0.138 C  
ENDROOT
BRANCH   2   3
HETATM    3  N   UNL     1     -13.227  11.057  70.699  1.00  0.00     0.003 NA 
BRANCH   3   4
HETATM    4  C   UNL     1     -13.668   9.839  71.395  1.00  0.00    -0.170 C  
HETATM    5  C   UNL     1     -12.603   9.107  72.202  1.00  0.00    -0.451 C  
ENDBRANCH   3   4
BRANCH   3   6
HETATM    6  C   UNL     1     -12.562  12.047  71.575  1.00  0.00    -0.174 C  
BRANCH   6   7
HETATM    7  C   UNL     1     -13.518  13.117  72.114  1.00  0.00    -0.560 C  
BRANCH   7   8
HETATM    8  O   UNL     1     -13.102  14.426  71.699  1.00  0.00    -0.316 OA 
BRANCH   8   9
HETATM    9  C   UNL     1     -12.336  14.428  70.558  1.00  0.00    -0.345 A  
HETATM   10  C   UNL     1     -10.947  14.573  70.539  1.00  0.00     0.110 A  
HETATM   11  C   UNL     1     -10.266  14.666  69.328  1.00  0.00    -0.156 A  
HETATM   12  C   UNL     1     -10.956  14.573  68.117  1.00  0.00    -0.261 A  
HETATM   13  C   UNL     1     -12.343  14.372  68.133  1.00  0.00    -0.001 A  
HETATM   14  C   UNL     1     -13.028  14.294  69.353  1.00  0.00     0.811 A  
BRANCH  12  15
HETATM   15  C   UNL     1     -10.193  14.709  66.851  1.00  0.00    -0.262 C  
HETATM   16 CL   UNL     1      -8.900  16.207  64.975  1.00  0.00     2.042 Cl 
HETATM   17  C   UNL     1      -9.699  15.921  66.496  1.00  0.00    -0.266 C  
BRANCH  15  18
HETATM   18  C   UNL     1     -10.046  13.538  65.946  1.00  0.00    -0.311 A  
HETATM   19  C   UNL     1     -10.658  13.530  64.684  1.00  0.00    -0.441 A  
HETATM   20  C   UNL     1      -9.307  12.419  66.354  1.00  0.00    -0.219 A  
HETATM   21  C   UNL     1      -9.173  11.314  65.507  1.00  0.00    -0.220 A  
HETATM   22  C   UNL     1     -10.522  12.424  63.841  1.00  0.00    -0.469 A  
HETATM   23  C   UNL     1      -9.780  11.319  64.253  1.00  0.00    -0.295 A  
ENDBRANCH  15  18
BRANCH  17  24
HETATM   24  C   UNL     1      -9.771  17.126  67.351  1.00  0.00    -0.253 A  
HETATM   25  C   UNL     1      -9.876  19.491  68.852  1.00  0.00    -0.522 A  
HETATM   26  C   UNL     1     -10.879  17.979  67.257  1.00  0.00    -0.214 A  
HETATM   27  C   UNL     1     -10.930  19.159  68.003  1.00  0.00    -0.050 A  
HETATM   28  C   UNL     1      -8.784  18.636  68.977  1.00  0.00    -0.102 A  
HETATM   29  C   UNL     1      -8.732  17.451  68.232  1.00  0.00    -0.261 A  
ENDBRANCH  17  24
ENDBRANCH  12  15
ENDBRANCH   8   9
ENDBRANCH   7   8
ENDBRANCH   6   7
ENDBRANCH   3   6
ENDBRANCH   2   3
TORSDOF 9
ENDMDL
MODEL      202
REMARK 921   NORMALIZED FREE ENERGY PREDICTED BY IDOCK:   -2.11 KCAL/MOL
REMARK 922        TOTAL FREE ENERGY PREDICTED BY IDOCK:   -5.36 KCAL/MOL
REMARK 923 INTER-LIGAND FREE ENERGY PREDICTED BY IDOCK:   -5.13 KCAL/MOL
REMARK 924 INTRA-LIGAND FREE ENERGY PREDICTED BY IDOCK:   -0.22 KCAL/MOL
REMARK 927      BINDING AFFINITY PREDICTED BY RF-SCORE:    0.00 PKD
ROOT
HETATM    1  C   UNL     1     -12.047   5.406  72.493  1.00  0.00     0.075 C  
HETATM    2  C   UNL     1     -10.818   4.597  72.897  1.00  0.00    -0.221 C  
ENDROOT
BRANCH   2   3
HETATM    3  N   UNL     1      -9.833   5.346  73.692  1.00  0.00    -0.157 NA 
BRANCH   3   4
HETATM    4  C   UNL     1      -8.910   4.503  74.467  1.00  0.00    -0.107 C  
HETATM    5  C   UNL     1      -7.431   4.851  74.354  1.00  0.00    -0.089 C  
ENDBRANCH   3   4
BRANCH   3   6
HETATM    6  C   UNL     1      -9.161   6.355  72.843  1.00  0.00    -0.136 C  
BRANCH   6   7
HETATM    7  C   UNL     1      -9.401   7.796  73.309  1.00  0.00    -0.270 C  
BRANCH   7   8
HETATM    8  O   UNL     1     -10.491   8.387  72.589  1.00  0.00    -0.326 OA 
BRANCH   8   9
HETATM    9  C   UNL     1     -10.208   8.649  71.271  1.00  0.00    -0.239 A  
HETATM   10  C   UNL     1     -10.997   8.235  70.195  1.00  0.00    -0.222 A  
HETATM   11  C   UNL     1     -10.576   8.459  68.886  1.00  0.00    -0.162 A  
HETATM   12  C   UNL     1      -9.382   9.137  68.631  1.00  0.00    -0.135 A  
HETATM   13  C   UNL     1      -8.614   9.601  69.708  1.00  0.00    -0.211 A  
HETATM   14  C   UNL     1      -9.032   9.361  71.024  1.00  0.00    -0.117 A  
BRANCH  12  15
HETATM   15  C   UNL     1      -8.957   9.325  67.221  1.00  0.00    -0.136 C  
HETATM   16 CL   UNL     1      -9.077  10.631  64.831  1.00  0.00    -0.216 Cl 
HETATM   17  C   UNL     1      -9.418  10.392  66.522  1.00  0.00    -0.167 C  
BRANCH  15  18
HETATM   18  C   UNL     1      -8.096   8.305  66.565  1.00  0.00    -0.105 A  
HETATM   19  C   UNL     1      -6.699   8.409  66.621  1.00  0.00    -0.061 A  
HETATM   20  C   UNL     1      -8.674   7.238  65.866  1.00  0.00    -0.150 A  
HETATM   21  C   UNL     1      -7.867   6.281  65.241  1.00  0.00    -0.107 A  
HETATM   22  C   UNL     1      -5.894   7.452  65.995  1.00  0.00    -0.037 A  
HETATM   23  C   UNL     1      -6.479   6.390  65.308  1.00  0.00    -0.039 A  
ENDBRANCH  15  18
BRANCH  17  24
HETATM   24  C   UNL     1     -10.247  11.469  67.106  1.00  0.00    -0.233 A  
HETATM   25  C   UNL     1     -11.937  13.442  68.156  1.00  0.00    -0.356 A  
HETATM   26  C   UNL     1     -11.023  11.207  68.244  1.00  0.00    -0.278 A  
HETATM   27  C   UNL     1     -11.867  12.191  68.765  1.00  0.00    -0.356 A  
HETATM   28  C   UNL     1     -11.148  13.723  67.044  1.00  0.00    -0.313 A  
HETATM   29  C   UNL     1     -10.299  12.740  66.520  1.00  0.00    -0.262 A  
ENDBRANCH  17  24
ENDBRANCH  12  15
ENDBRANCH   8   9
ENDBRANCH   7   8
ENDBRANCH   6   7
ENDBRANCH   3   6
ENDBRANCH   2   3
TORSDOF 9
ENDMDL
MODEL      203
REMARK 921   NORMALIZED FREE ENERGY PREDICTED BY IDOCK:   -2.08 KCAL/MOL
REMARK 922        TOTAL FREE ENERGY PREDICTED BY IDOCK:   -5.31 KCAL/MOL
REMARK 923 INTER-LIGAND FREE ENERGY PREDICTED BY IDOCK:   -4.18 KCAL/MOL
REMARK 924 INTRA-LIGAND FREE ENERGY PREDICTED BY IDOCK:   -1.13 KCAL/MOL
REMARK 927      BINDING AFFINITY PREDICTED BY RF-SCORE:    0.00 PKD
ROOT
HETATM    1  C   UNL     1     -13.120  10.208  71.648  1.00  0.00    -0.550 C  
HETATM    2  C   UNL     1     -11.995   9.734  70.733  1.00  0.00    -0.299 C  
ENDROOT
BRANCH   2   3
HETATM    3  N   UNL     1     -11.303   8.522  71.200  1.00  0.00    -0.262 NA 
BRANCH   3   4
HETATM    4  C   UNL     1     -10.991   8.517  72.637  1.00  0.00    -0.140 C  
HETATM    5  C   UNL     1      -9.584   8.070  73.014  1.00  0.00    -0.347 C  
ENDBRANCH   3   4
BRANCH   3   6
HETATM    6  C   UNL     1     -12.025   7.318  70.733  1.00  0.00    -0.272 C  
BRANCH   6   7
HETATM    7  C   UNL     1     -11.113   6.099  70.548  1.00  0.00    -0.337 C  
BRANCH   7   8
HETATM    8  O   UNL     1      -9.738   6.500  70.483  1.00  0.00    -0.171 OA 
BRANCH   8   9
HETATM    9  C   UNL     1      -9.237   6.558  69.205  1.00  0.00    -0.139 A  
HETATM   10  C   UNL     1      -9.939   7.054  68.103  1.00  0.00    -0.169 A  
HETATM   11  C   UNL     1      -9.388   6.978  66.827  1.00  0.00    -0.191 A  
HETATM   12  C   UNL     1      -8.110   6.447  66.635  1.00  0.00    -0.110 A  
HETATM   13  C   UNL     1      -7.382   5.999  67.745  1.00  0.00    -0.077 A  
HETATM   14  C   UNL     1      -7.945   6.062  69.027  1.00  0.00    -0.104 A  
BRANCH  12  15
HETATM   15  C   UNL     1      -7.576   6.358  65.253  1.00  0.00    -0.091 C  
HETATM   16 CL   UNL     1      -6.655   4.928  63.122  1.00  0.00    -0.026 Cl 
HETATM   17  C   UNL     1      -7.391   5.139  64.686  1.00  0.00    -0.063 C  
BRANCH  15  18
HETATM   18  C   UNL     1      -7.176   7.595  64.533  1.00  0.00    -0.076 A  
HETATM   19  C   UNL     1      -7.968   8.104  63.494  1.00  0.00    -0.145 A  
HETATM   20  C   UNL     1      -5.989   8.258  64.873  1.00  0.00    -0.045 A  
HETATM   21  C   UNL     1      -5.606   9.418  64.192  1.00  0.00    -0.070 A  
HETATM   22  C   UNL     1      -7.583   9.263  62.814  1.00  0.00    -0.108 A  
HETATM   23  C   UNL     1      -6.404   9.919  63.166  1.00  0.00    -0.122 A  
ENDBRANCH  15  18
BRANCH  17  24
HETATM   24  C   UNL     1      -7.793   3.863  65.317  1.00  0.00    -0.089 A  
HETATM   25  C   UNL     1      -8.636   1.522  66.607  1.00  0.00    -0.104 A  
HETATM   26  C   UNL     1      -9.084   3.361  65.105  1.00  0.00    -0.144 A  
HETATM   27  C   UNL     1      -9.505   2.196  65.751  1.00  0.00     0.180 A  
HETATM   28  C   UNL     1      -7.340   1.995  66.801  1.00  0.00    -0.056 A  
HETATM   29  C   UNL     1      -6.915   3.161  66.153  1.00  0.00    -0.057 A  
ENDBRANCH  17  24
ENDBRANCH  12  15
ENDBRANCH   8   9
ENDBRANCH   7   8
ENDBRANCH   6   7
ENDBRANCH   3   6
ENDBRANCH   2   3
TORSDOF 9
ENDMDL
MODEL      204
REMARK 921   NORMALIZED FREE ENERGY PREDICTED BY IDOCK:   -2.07 KCAL/MOL
REMARK 922        TOTAL FREE ENERGY PREDICTED BY IDOCK:   -5.30 KCAL/MOL
REMARK 923 INTER-LIGAND FREE ENERGY PREDICTED BY IDOCK:   -4.04 KCAL/MOL
REMARK 924 INTRA-LIGAND FREE ENERGY PREDICTED BY IDOCK:   -1.26 KCAL/MOL
REMARK 927      BINDING AFFINITY PREDICTED BY RF-SCORE:    0.00 PKD
ROOT
HETATM    1  C   UNL     1     -10.107  12.676  65.499  1.00  0.00    -0.279 C  
HETATM    2  C   UNL     1     -11.123  12.640  66.638  1.00  0.00    -0.274 C  
ENDROOT
BRANCH   2   3
HETATM    3  N   UNL     1     -10.615  13.150  67.920  1.00  0.00    -0.229 NA 
BRANCH   3   4
HETATM    4  C   UNL     1     -11.162  14.457  68.315  1.00  0.00    -0.275 C  
HETATM    5  C   UNL     1     -10.764  14.959  69.697  1.00  0.00    -0.245 C  
ENDBRANCH   3   4
BRANCH   3   6
HETATM    6  C   UNL     1     -10.735  12.105  68.962  1.00  0.00    -0.121 C  
BRANCH   6   7
HETATM    7  C   UNL     1     -11.871  11.111  68.694  1.00  0.00    -0.287 C  
BRANCH   7   8
HETATM    8  O   UNL     1     -11.378   9.946  68.019  1.00  0.00    -0.158 OA 
BRANCH   8   9
HETATM    9  C   UNL     1     -10.845   9.001  68.862  1.00  0.00    -0.045 A  
HETATM   10  C   UNL     1     -10.747   9.143  70.249  1.00  0.00    -0.268 A  
HETATM   11  C   UNL     1     -10.098   8.176  71.011  1.00  0.00    -0.221 A  
HETATM   12  C   UNL     1      -9.574   7.030  70.407  1.00  0.00    -0.169 A  
HETATM   13  C   UNL     1      -9.718   6.858  69.024  1.00  0.00    -0.150 A  
HETATM   14  C   UNL     1     -10.358   7.841  68.257  1.00  0.00    -0.239 A  
BRANCH  12  15
HETATM   15  C   UNL     1      -8.863   6.040  71.255  1.00  0.00    -0.136 C  
HETATM   16 CL   UNL     1      -6.626   4.650  71.961  1.00  0.00    -0.029 Cl 
HETATM   17  C   UNL     1      -7.526   5.870  71.103  1.00  0.00    -0.091 C  
BRANCH  15  18
HETATM   18  C   UNL     1      -9.631   5.192  72.204  1.00  0.00    -0.189 A  
HETATM   19  C   UNL     1     -10.402   4.118  71.737  1.00  0.00    -0.082 A  
HETATM   20  C   UNL     1      -9.606   5.468  73.578  1.00  0.00    -0.140 A  
HETATM   21  C   UNL     1     -10.334   4.675  74.472  1.00  0.00    -0.318 A  
HETATM   22  C   UNL     1     -11.129   3.328  72.633  1.00  0.00     0.242 A  
HETATM   23  C   UNL     1     -11.092   3.607  73.998  1.00  0.00    -0.144 A  
ENDBRANCH  15  18
BRANCH  17  24
HETATM   24  C   UNL     1      -6.683   6.693  70.209  1.00  0.00    -0.053 A  
HETATM   25  C   UNL     1      -5.208   8.305  68.454  1.00  0.00    -0.033 A  
HETATM   26  C   UNL     1      -6.581   8.074  70.429  1.00  0.00    -0.037 A  
HETATM   27  C   UNL     1      -5.847   8.877  69.552  1.00  0.00    -0.033 A  
HETATM   28  C   UNL     1      -5.276   6.930  68.244  1.00  0.00    -0.015 A  
HETATM   29  C   UNL     1      -6.008   6.122  69.122  1.00  0.00    -0.024 A  
ENDBRANCH  17  24
ENDBRANCH  12  15
ENDBRANCH   8   9
ENDBRANCH   7   8
ENDBRANCH   6   7
ENDBRANCH   3   6
ENDBRANCH   2   3
TORSDOF 9
ENDMDL
MODEL      205
REMARK 921   NORMALIZED FREE ENERGY PREDICTED BY IDOCK:   -1.96 KCAL/MOL
REMARK 922        TOTAL FREE ENERGY PREDICTED BY IDOCK:   -5.13 KCAL/MOL
REMARK 923 INTER-LIGAND FREE ENERGY PREDICTED BY IDOCK:   -4.37 KCAL/MOL
REMARK 924 INTRA-LIGAND FREE ENERGY PREDICTED BY IDOCK:   -0.77 KCAL/MOL
REMARK 927      BINDING AFFINITY PREDICTED BY RF-SCORE:    0.00 PKD
ROOT
HETATM    1  C   UNL     1     -13.539   7.498  71.208  1.00  0.00    -0.329 C  
HETATM    2  C   UNL     1     -12.575   7.790  72.354  1.00  0.00    -0.070 C  
ENDROOT
BRANCH   2   3
HETATM    3  N   UNL     1     -11.162   7.528  72.041  1.00  0.00    -0.247 NA 
BRANCH   3   4
HETATM    4  C   UNL     1     -10.565   6.421  72.804  1.00  0.00    -0.229 C  
HETATM    5  C   UNL     1      -9.990   6.784  74.168  1.00  0.00    -0.373 C  
ENDBRANCH   3   4
BRANCH   3   6
HETATM    6  C   UNL     1     -10.982   7.419  70.576  1.00  0.00    -0.253 C  
BRANCH   6   7
HETATM    7  C   UNL     1     -11.370   6.045  70.018  1.00  0.00    -0.284 C  
BRANCH   7   8
HETATM    8  O   UNL     1     -10.202   5.256  69.755  1.00  0.00    -0.248 OA 
BRANCH   8   9
HETATM    9  C   UNL     1      -9.667   5.457  68.506  1.00  0.00    -0.137 A  
HETATM   10  C   UNL     1     -10.416   5.743  67.362  1.00  0.00    -0.318 A  
HETATM   11  C   UNL     1      -9.795   5.829  66.119  1.00  0.00    -0.087 A  
HETATM   12  C   UNL     1      -8.411   5.676  66.004  1.00  0.00    -0.132 A  
HETATM   13  C   UNL     1      -7.650   5.443  67.157  1.00  0.00    -0.092 A  
HETATM   14  C   UNL     1      -8.279   5.341  68.405  1.00  0.00    -0.090 A  
BRANCH  12  15
HETATM   15  C   UNL     1      -7.797   5.745  64.654  1.00  0.00    -0.116 C  
HETATM   16 CL   UNL     1      -7.081   7.117  62.409  1.00  0.00    -0.071 Cl 
HETATM   17  C   UNL     1      -7.673   6.948  64.038  1.00  0.00    -0.116 C  
BRANCH  15  18
HETATM   18  C   UNL     1      -7.394   4.494  63.959  1.00  0.00    -0.058 A  
HETATM   19  C   UNL     1      -6.067   4.044  64.011  1.00  0.00    -0.018 A  
HETATM   20  C   UNL     1      -8.335   3.760  63.225  1.00  0.00    -0.090 A  
HETATM   21  C   UNL     1      -7.957   2.587  62.563  1.00  0.00    -0.067 A  
HETATM   22  C   UNL     1      -5.692   2.872  63.349  1.00  0.00    -0.009 A  
HETATM   23  C   UNL     1      -6.638   2.145  62.628  1.00  0.00    -0.014 A  
ENDBRANCH  15  18
BRANCH  17  24
HETATM   24  C   UNL     1      -8.015   8.240  64.670  1.00  0.00    -0.145 A  
HETATM   25  C   UNL     1      -8.577  10.756  65.769  1.00  0.00    -0.187 A  
HETATM   26  C   UNL     1      -8.896   9.118  64.022  1.00  0.00    -0.112 A  
HETATM   27  C   UNL     1      -9.174  10.373  64.570  1.00  0.00    -0.287 A  
HETATM   28  C   UNL     1      -7.725   9.880  66.437  1.00  0.00    -0.104 A  
HETATM   29  C   UNL     1      -7.447   8.621  65.892  1.00  0.00    -0.085 A  
ENDBRANCH  17  24
ENDBRANCH  12  15
ENDBRANCH   8   9
ENDBRANCH   7   8
ENDBRANCH   6   7
ENDBRANCH   3   6
ENDBRANCH   2   3
TORSDOF 9
ENDMDL
MODEL      206
REMARK 921   NORMALIZED FREE ENERGY PREDICTED BY IDOCK:   -1.95 KCAL/MOL
REMARK 922        TOTAL FREE ENERGY PREDICTED BY IDOCK:   -5.11 KCAL/MOL
REMARK 923 INTER-LIGAND FREE ENERGY PREDICTED BY IDOCK:   -4.24 KCAL/MOL
REMARK 924 INTRA-LIGAND FREE ENERGY PREDICTED BY IDOCK:   -0.86 KCAL/MOL
REMARK 927      BINDING AFFINITY PREDICTED BY RF-SCORE:    0.00 PKD
ROOT
HETATM    1  C   UNL     1     -10.985  11.378  65.805  1.00  0.00    -0.256 C  
HETATM    2  C   UNL     1     -10.770  12.516  66.799  1.00  0.00    -0.236 C  
ENDROOT
BRANCH   2   3
HETATM    3  N   UNL     1      -9.708  13.460  66.420  1.00  0.00    -0.277 NA 
BRANCH   3   4
HETATM    4  C   UNL     1     -10.195  14.750  65.909  1.00  0.00    -0.313 C  
HETATM    5  C   UNL     1     -11.497  15.260  66.514  1.00  0.00    -0.095 C  
ENDBRANCH   3   4
BRANCH   3   6
HETATM    6  C   UNL     1      -8.722  13.577  67.517  1.00  0.00    -0.208 C  
BRANCH   6   7
HETATM    7  C   UNL     1      -7.569  12.573  67.405  1.00  0.00    -0.156 C  
BRANCH   7   8
HETATM    8  O   UNL     1      -7.987  11.397  66.699  1.00  0.00    -0.156 OA 
BRANCH   8   9
HETATM    9  C   UNL     1      -8.107  10.285  67.497  1.00  0.00    -0.110 A  
HETATM   10  C   UNL     1      -8.757  10.267  68.734  1.00  0.00    -0.144 A  
HETATM   11  C   UNL     1      -8.740   9.117  69.520  1.00  0.00    -0.140 A  
HETATM   12  C   UNL     1      -8.112   7.955  69.065  1.00  0.00    -0.124 A  
HETATM   13  C   UNL     1      -7.506   7.954  67.801  1.00  0.00    -0.097 A  
HETATM   14  C   UNL     1      -7.511   9.117  67.019  1.00  0.00    -0.091 A  
BRANCH  12  15
HETATM   15  C   UNL     1      -8.091   6.764  69.950  1.00  0.00    -0.126 C  
HETATM   16 CL   UNL     1      -8.677   4.153  70.477  1.00  0.00    -0.112 Cl 
HETATM   17  C   UNL     1      -8.545   5.575  69.479  1.00  0.00    -0.105 C  
BRANCH  15  18
HETATM   18  C   UNL     1      -7.650   6.898  71.363  1.00  0.00    -0.087 A  
HETATM   19  C   UNL     1      -6.285   6.949  71.682  1.00  0.00    -0.038 A  
HETATM   20  C   UNL     1      -8.595   6.957  72.396  1.00  0.00    -0.128 A  
HETATM   21  C   UNL     1      -8.181   7.076  73.727  1.00  0.00    -0.149 A  
HETATM   22  C   UNL     1      -5.875   7.067  73.013  1.00  0.00    -0.045 A  
HETATM   23  C   UNL     1      -6.823   7.132  74.033  1.00  0.00    -0.081 A  
ENDBRANCH  15  18
BRANCH  17  24
HETATM   24  C   UNL     1      -8.969   5.346  68.081  1.00  0.00    -0.111 A  
HETATM   25  C   UNL     1      -9.870   4.815  65.481  1.00  0.00    -0.163 A  
HETATM   26  C   UNL     1     -10.186   5.876  67.629  1.00  0.00    -0.229 A  
HETATM   27  C   UNL     1     -10.635   5.608  66.333  1.00  0.00    -0.254 A  
HETATM   28  C   UNL     1      -8.645   4.310  65.909  1.00  0.00    -0.114 A  
HETATM   29  C   UNL     1      -8.190   4.578  67.206  1.00  0.00    -0.101 A  
ENDBRANCH  17  24
ENDBRANCH  12  15
ENDBRANCH   8   9
ENDBRANCH   7   8
ENDBRANCH   6   7
ENDBRANCH   3   6
ENDBRANCH   2   3
TORSDOF 9
ENDMDL
MODEL      207
REMARK 921   NORMALIZED FREE ENERGY PREDICTED BY IDOCK:   -1.93 KCAL/MOL
REMARK 922        TOTAL FREE ENERGY PREDICTED BY IDOCK:   -5.08 KCAL/MOL
REMARK 923 INTER-LIGAND FREE ENERGY PREDICTED BY IDOCK:   -3.53 KCAL/MOL
REMARK 924 INTRA-LIGAND FREE ENERGY PREDICTED BY IDOCK:   -1.55 KCAL/MOL
REMARK 927      BINDING AFFINITY PREDICTED BY RF-SCORE:    0.00 PKD
ROOT
HETATM    1  C   UNL     1      -8.194  15.046  69.299  1.00  0.00    -0.165 C  
HETATM    2  C   UNL     1      -7.595  14.101  68.261  1.00  0.00    -0.130 C  
ENDROOT
BRANCH   2   3
HETATM    3  N   UNL     1      -8.207  12.764  68.234  1.00  0.00    -0.161 NA 
BRANCH   3   4
HETATM    4  C   UNL     1      -9.245  12.591  67.207  1.00  0.00    -0.190 C  
HETATM    5  C   UNL     1     -10.137  13.799  66.948  1.00  0.00    -0.260 C  
ENDBRANCH   3   4
BRANCH   3   6
HETATM    6  C   UNL     1      -7.151  11.727  68.208  1.00  0.00    -0.079 C  
BRANCH   6   7
HETATM    7  C   UNL     1      -7.680  10.333  67.853  1.00  0.00    -0.089 C  
BRANCH   7   8
HETATM    8  O   UNL     1      -6.902   9.315  68.498  1.00  0.00    -0.061 OA 
BRANCH   8   9
HETATM    9  C   UNL     1      -7.256   8.037  68.140  1.00  0.00    -0.094 A  
HETATM   10  C   UNL     1      -6.410   7.135  67.489  1.00  0.00    -0.047 A  
HETATM   11  C   UNL     1      -6.889   5.896  67.073  1.00  0.00    -0.063 A  
HETATM   12  C   UNL     1      -8.207   5.519  67.340  1.00  0.00    -0.101 A  
HETATM   13  C   UNL     1      -9.043   6.399  68.041  1.00  0.00    -0.113 A  
HETATM   14  C   UNL     1      -8.563   7.652  68.444  1.00  0.00    -0.124 A  
BRANCH  12  15
HETATM   15  C   UNL     1      -8.684   4.200  66.851  1.00  0.00    -0.114 C  
HETATM   16 CL   UNL     1      -9.139   1.534  67.193  1.00  0.00    -0.134 Cl 
HETATM   17  C   UNL     1      -8.715   3.144  67.703  1.00  0.00    -0.119 C  
BRANCH  15  18
HETATM   18  C   UNL     1      -9.047   4.028  65.420  1.00  0.00    -0.142 A  
HETATM   19  C   UNL     1      -8.050   3.936  64.438  1.00  0.00    -0.090 A  
HETATM   20  C   UNL     1     -10.392   3.976  65.033  1.00  0.00    -0.174 A  
HETATM   21  C   UNL     1     -10.736   3.822  63.686  1.00  0.00    -0.231 A  
HETATM   22  C   UNL     1      -8.396   3.783  63.092  1.00  0.00    -0.089 A  
HETATM   23  C   UNL     1      -9.738   3.725  62.719  1.00  0.00    -0.133 A  
ENDBRANCH  15  18
BRANCH  17  24
HETATM   24  C   UNL     1      -8.405   3.235  69.146  1.00  0.00    -0.085 A  
HETATM   25  C   UNL     1      -7.798   3.262  71.882  1.00  0.00    -0.054 A  
HETATM   26  C   UNL     1      -7.079   3.097  69.581  1.00  0.00    -0.041 A  
HETATM   27  C   UNL     1      -6.778   3.108  70.945  1.00  0.00    -0.032 A  
HETATM   28  C   UNL     1      -9.114   3.432  71.460  1.00  0.00    -0.172 A  
HETATM   29  C   UNL     1      -9.419   3.424  70.093  1.00  0.00    -0.244 A  
ENDBRANCH  17  24
ENDBRANCH  12  15
ENDBRANCH   8   9
ENDBRANCH   7   8
ENDBRANCH   6   7
ENDBRANCH   3   6
ENDBRANCH   2   3
TORSDOF 9
ENDMDL
MODEL      208
REMARK 921   NORMALIZED FREE ENERGY PREDICTED BY IDOCK:   -1.81 KCAL/MOL
REMARK 922        TOTAL FREE ENERGY PREDICTED BY IDOCK:   -4.90 KCAL/MOL
REMARK 923 INTER-LIGAND FREE ENERGY PREDICTED BY IDOCK:   -3.96 KCAL/MOL
REMARK 924 INTRA-LIGAND FREE ENERGY PREDICTED BY IDOCK:   -0.93 KCAL/MOL
REMARK 927      BINDING AFFINITY PREDICTED BY RF-SCORE:    0.00 PKD
ROOT
HETATM    1  C   UNL     1      -7.712  14.926  68.275  1.00  0.00    -0.113 C  
HETATM    2  C   UNL     1      -7.297  13.731  67.422  1.00  0.00    -0.107 C  
ENDROOT
BRANCH   2   3
HETATM    3  N   UNL     1      -8.176  12.559  67.551  1.00  0.00    -0.164 NA 
BRANCH   3   4
HETATM    4  C   UNL     1      -9.251  12.493  66.550  1.00  0.00    -0.210 C  
HETATM    5  C   UNL     1      -9.627  11.098  66.064  1.00  0.00    -0.248 C  
ENDBRANCH   3   4
BRANCH   3   6
HETATM    6  C   UNL     1      -7.362  11.326  67.648  1.00  0.00    -0.100 C  
BRANCH   6   7
HETATM    7  C   UNL     1      -8.032  10.222  68.473  1.00  0.00    -0.107 C  
BRANCH   7   8
HETATM    8  O   UNL     1      -7.051   9.327  69.015  1.00  0.00    -0.065 OA 
BRANCH   8   9
HETATM    9  C   UNL     1      -7.440   8.009  69.010  1.00  0.00    -0.093 A  
HETATM   10  C   UNL     1      -6.768   6.985  69.682  1.00  0.00    -0.049 A  
HETATM   11  C   UNL     1      -7.178   5.662  69.535  1.00  0.00    -0.066 A  
HETATM   12  C   UNL     1      -8.289   5.345  68.750  1.00  0.00    -0.097 A  
HETATM   13  C   UNL     1      -8.997   6.376  68.119  1.00  0.00    -0.116 A  
HETATM   14  C   UNL     1      -8.574   7.705  68.255  1.00  0.00    -0.124 A  
BRANCH  12  15
HETATM   15  C   UNL     1      -8.670   3.918  68.598  1.00  0.00    -0.133 C  
HETATM   16 CL   UNL     1      -9.641   1.572  69.592  1.00  0.00    -0.123 Cl 
HETATM   17  C   UNL     1      -9.270   3.273  69.629  1.00  0.00    -0.151 C  
BRANCH  15  18
HETATM   18  C   UNL     1      -8.321   3.189  67.350  1.00  0.00    -0.090 A  
HETATM   19  C   UNL     1      -9.170   3.236  66.235  1.00  0.00    -0.154 A  
HETATM   20  C   UNL     1      -7.147   2.427  67.282  1.00  0.00    -0.052 A  
HETATM   21  C   UNL     1      -6.821   1.734  66.112  1.00  0.00    -0.038 A  
HETATM   22  C   UNL     1      -8.842   2.542  65.067  1.00  0.00    -0.121 A  
HETATM   23  C   UNL     1      -7.668   1.793  65.007  1.00  0.00    -0.068 A  
ENDBRANCH  15  18
BRANCH  17  24
HETATM   24  C   UNL     1      -9.682   3.931  70.889  1.00  0.00    -0.253 A  
HETATM   25  C   UNL     1     -10.559   5.067  73.296  1.00  0.00    -0.287 A  
HETATM   26  C   UNL     1      -9.275   3.393  72.118  1.00  0.00    -0.166 A  
HETATM   27  C   UNL     1      -9.715   3.959  73.317  1.00  0.00    -0.151 A  
HETATM   28  C   UNL     1     -10.944   5.628  72.081  1.00  0.00    -0.307 A  
HETATM   29  C   UNL     1     -10.503   5.066  70.877  1.00  0.00    -0.212 A  
ENDBRANCH  17  24
ENDBRANCH  12  15
ENDBRANCH   8   9
ENDBRANCH   7   8
ENDBRANCH   6   7
ENDBRANCH   3   6
ENDBRANCH   2   3
TORSDOF 9
ENDMDL
MODEL      209
REMARK 921   NORMALIZED FREE ENERGY PREDICTED BY IDOCK:   -1.75 KCAL/MOL
REMARK 922        TOTAL FREE ENERGY PREDICTED BY IDOCK:   -4.80 KCAL/MOL
REMARK 923 INTER-LIGAND FREE ENERGY PREDICTED BY IDOCK:   -2.94 KCAL/MOL
REMARK 924 INTRA-LIGAND FREE ENERGY PREDICTED BY IDOCK:   -1.87 KCAL/MOL
REMARK 927      BINDING AFFINITY PREDICTED BY RF-SCORE:    0.00 PKD
ROOT
HETATM    1  C   UNL     1     -10.780  11.438  66.434  1.00  0.00    -0.325 C  
HETATM    2  C   UNL     1      -9.441  11.764  65.778  1.00  0.00    -0.216 C  
ENDROOT
BRANCH   2   3
HETATM    3  N   UNL     1      -8.896  13.083  66.134  1.00  0.00     0.188 NA 
BRANCH   3   4
HETATM    4  C   UNL     1      -9.914  14.091  66.468  1.00  0.00    -0.284 C  
HETATM    5  C   UNL     1      -9.449  15.245  67.348  1.00  0.00    -0.200 C  
ENDBRANCH   3   4
BRANCH   3   6
HETATM    6  C   UNL     1      -7.836  12.932  67.156  1.00  0.00    -0.077 C  
BRANCH   6   7
HETATM    7  C   UNL     1      -8.176  11.895  68.233  1.00  0.00    -0.157 C  
BRANCH   7   8
HETATM    8  O   UNL     1      -7.010  11.146  68.602  1.00  0.00    -0.070 OA 
BRANCH   8   9
HETATM    9  C   UNL     1      -7.171   9.786  68.503  1.00  0.00    -0.070 A  
HETATM   10  C   UNL     1      -8.375   9.153  68.182  1.00  0.00    -0.120 A  
HETATM   11  C   UNL     1      -8.467   7.764  68.206  1.00  0.00    -0.124 A  
HETATM   12  C   UNL     1      -7.349   6.983  68.506  1.00  0.00    -0.100 A  
HETATM   13  C   UNL     1      -6.126   7.613  68.775  1.00  0.00    -0.031 A  
HETATM   14  C   UNL     1      -6.039   9.012  68.766  1.00  0.00    -0.045 A  
BRANCH  12  15
HETATM   15  C   UNL     1      -7.501   5.507  68.550  1.00  0.00    -0.076 C  
HETATM   16 CL   UNL     1      -7.862   3.169  69.905  1.00  0.00    -0.045 Cl 
HETATM   17  C   UNL     1      -7.786   4.900  69.729  1.00  0.00    -0.066 C  
BRANCH  15  18
HETATM   18  C   UNL     1      -7.264   4.702  67.322  1.00  0.00    -0.073 A  
HETATM   19  C   UNL     1      -8.341   4.269  66.535  1.00  0.00    -0.101 A  
HETATM   20  C   UNL     1      -5.960   4.350  66.950  1.00  0.00    -0.024 A  
HETATM   21  C   UNL     1      -5.736   3.586  65.799  1.00  0.00    -0.018 A  
HETATM   22  C   UNL     1      -8.113   3.506  65.386  1.00  0.00    -0.097 A  
HETATM   23  C   UNL     1      -6.812   3.167  65.020  1.00  0.00    -0.045 A  
ENDBRANCH  15  18
BRANCH  17  24
HETATM   24  C   UNL     1      -8.070   5.626  70.986  1.00  0.00    -0.119 A  
HETATM   25  C   UNL     1      -8.641   7.119  73.288  1.00  0.00    -0.157 A  
HETATM   26  C   UNL     1      -9.398   5.893  71.348  1.00  0.00    -0.165 A  
HETATM   27  C   UNL     1      -9.681   6.640  72.494  1.00  0.00    -0.166 A  
HETATM   28  C   UNL     1      -7.319   6.832  72.955  1.00  0.00    -0.079 A  
HETATM   29  C   UNL     1      -7.032   6.082  71.808  1.00  0.00    -0.073 A  
ENDBRANCH  17  24
ENDBRANCH  12  15
ENDBRANCH   8   9
ENDBRANCH   7   8
ENDBRANCH   6   7
ENDBRANCH   3   6
ENDBRANCH   2   3
TORSDOF 9
ENDMDL
MODEL      210
REMARK 921   NORMALIZED FREE ENERGY PREDICTED BY IDOCK:   -1.54 KCAL/MOL
REMARK 922        TOTAL FREE ENERGY PREDICTED BY IDOCK:   -4.48 KCAL/MOL
REMARK 923 INTER-LIGAND FREE ENERGY PREDICTED BY IDOCK:   -4.72 KCAL/MOL
REMARK 924 INTRA-LIGAND FREE ENERGY PREDICTED BY IDOCK:    0.23 KCAL/MOL
REMARK 927      BINDING AFFINITY PREDICTED BY RF-SCORE:    0.00 PKD
ROOT
HETATM    1  C   UNL     1      -5.270   6.873  70.773  1.00  0.00    -0.023 C  
HETATM    2  C   UNL     1      -5.189   5.805  69.687  1.00  0.00    -0.004 C  
ENDROOT
BRANCH   2   3
HETATM    3  N   UNL     1      -6.435   5.049  69.485  1.00  0.00    -0.037 NA 
BRANCH   3   4
HETATM    4  C   UNL     1      -7.121   4.665  70.728  1.00  0.00    -0.041 C  
HETATM    5  C   UNL     1      -7.342   3.172  70.935  1.00  0.00    -0.033 C  
ENDBRANCH   3   4
BRANCH   3   6
HETATM    6  C   UNL     1      -7.298   5.752  68.510  1.00  0.00    -0.084 C  
BRANCH   6   7
HETATM    7  C   UNL     1      -8.772   5.342  68.599  1.00  0.00    -0.093 C  
BRANCH   7   8
HETATM    8  O   UNL     1      -9.382   5.892  69.775  1.00  0.00    -0.145 OA 
BRANCH   8   9
HETATM    9  C   UNL     1      -9.792   7.194  69.629  1.00  0.00    -0.162 A  
HETATM   10  C   UNL     1     -10.780   7.616  68.735  1.00  0.00    -0.106 A  
HETATM   11  C   UNL     1     -11.058   8.972  68.583  1.00  0.00     0.158 A  
HETATM   12  C   UNL     1     -10.385   9.925  69.351  1.00  0.00    -0.238 A  
HETATM   13  C   UNL     1      -9.432   9.501  70.288  1.00  0.00    -0.307 A  
HETATM   14  C   UNL     1      -9.143   8.138  70.428  1.00  0.00    -0.150 A  
BRANCH  12  15
HETATM   15  C   UNL     1     -10.692  11.361  69.133  1.00  0.00    -0.229 C  
HETATM   16 CL   UNL     1     -10.285  13.737  67.858  1.00  0.00    -0.240 Cl 
HETATM   17  C   UNL     1     -10.086  12.026  68.117  1.00  0.00    -0.200 C  
BRANCH  15  18
HETATM   18  C   UNL     1     -11.595  12.076  70.073  1.00  0.00    -0.275 A  
HETATM   19  C   UNL     1     -12.135  11.415  71.186  1.00  0.00    -0.197 A  
HETATM   20  C   UNL     1     -11.934  13.416  69.845  1.00  0.00    -0.408 A  
HETATM   21  C   UNL     1     -12.790  14.089  70.723  1.00  0.00    -0.355 A  
HETATM   22  C   UNL     1     -12.990  12.089  72.062  1.00  0.00    -0.374 A  
HETATM   23  C   UNL     1     -13.315  13.425  71.830  1.00  0.00    -0.479 A  
ENDBRANCH  15  18
BRANCH  17  24
HETATM   24  C   UNL     1      -9.203  11.385  67.119  1.00  0.00    -0.170 A  
HETATM   25  C   UNL     1      -7.430  10.274  65.255  1.00  0.00    -0.141 A  
HETATM   26  C   UNL     1      -8.102  10.632  67.548  1.00  0.00    -0.111 A  
HETATM   27  C   UNL     1      -7.217  10.080  66.618  1.00  0.00    -0.099 A  
HETATM   28  C   UNL     1      -8.538  10.994  64.817  1.00  0.00     0.083 A  
HETATM   29  C   UNL     1      -9.428  11.546  65.745  1.00  0.00    -0.255 A  
ENDBRANCH  17  24
ENDBRANCH  12  15
ENDBRANCH   8   9
ENDBRANCH   7   8
ENDBRANCH   6   7
ENDBRANCH   3   6
ENDBRANCH   2   3
TORSDOF 9
ENDMDL
MODEL      211
REMARK 921   NORMALIZED FREE ENERGY PREDICTED BY IDOCK:   -1.36 KCAL/MOL
REMARK 922        TOTAL FREE ENERGY PREDICTED BY IDOCK:   -4.22 KCAL/MOL
REMARK 923 INTER-LIGAND FREE ENERGY PREDICTED BY IDOCK:   -5.19 KCAL/MOL
REMARK 924 INTRA-LIGAND FREE ENERGY PREDICTED BY IDOCK:    0.98 KCAL/MOL
REMARK 927      BINDING AFFINITY PREDICTED BY RF-SCORE:    0.00 PKD
ROOT
HETATM    1  C   UNL     1     -11.645  14.642  68.977  1.00  0.00    -0.328 C  
HETATM    2  C   UNL     1     -11.816  13.223  69.509  1.00  0.00    -0.327 C  
ENDROOT
BRANCH   2   3
HETATM    3  N   UNL     1     -12.220  13.149  70.921  1.00  0.00    -0.320 NA 
BRANCH   3   4
HETATM    4  C   UNL     1     -13.001  14.302  71.392  1.00  0.00    -0.341 C  
HETATM    5  C   UNL     1     -12.996  14.545  72.896  1.00  0.00    -0.582 C  
ENDBRANCH   3   4
BRANCH   3   6
HETATM    6  C   UNL     1     -12.849  11.838  71.198  1.00  0.00    -0.267 C  
BRANCH   6   7
HETATM    7  C   UNL     1     -11.864  10.666  71.128  1.00  0.00    -0.241 C  
BRANCH   7   8
HETATM    8  O   UNL     1     -11.433  10.445  69.778  1.00  0.00    -0.251 OA 
BRANCH   8   9
HETATM    9  C   UNL     1     -10.582   9.376  69.635  1.00  0.00    -0.225 A  
HETATM   10  C   UNL     1     -10.909   8.189  68.974  1.00  0.00    -0.014 A  
HETATM   11  C   UNL     1     -10.017   7.120  68.969  1.00  0.00    -0.174 A  
HETATM   12  C   UNL     1      -8.769   7.232  69.586  1.00  0.00    -0.141 A  
HETATM   13  C   UNL     1      -8.417   8.440  70.203  1.00  0.00    -0.126 A  
HETATM   14  C   UNL     1      -9.322   9.510  70.221  1.00  0.00    -0.305 A  
BRANCH  12  15
HETATM   15  C   UNL     1      -7.864   6.056  69.582  1.00  0.00    -0.102 C  
HETATM   16 CL   UNL     1      -6.734   3.891  70.795  1.00  0.00    -0.031 Cl 
HETATM   17  C   UNL     1      -7.847   5.223  70.653  1.00  0.00    -0.089 C  
BRANCH  15  18
HETATM   18  C   UNL     1      -6.931   5.843  68.444  1.00  0.00    -0.072 A  
HETATM   19  C   UNL     1      -6.111   6.886  67.990  1.00  0.00    -0.033 A  
HETATM   20  C   UNL     1      -6.876   4.601  67.798  1.00  0.00    -0.056 A  
HETATM   21  C   UNL     1      -6.004   4.401  66.723  1.00  0.00    -0.027 A  
HETATM   22  C   UNL     1      -5.241   6.684  66.914  1.00  0.00    -0.013 A  
HETATM   23  C   UNL     1      -5.188   5.442  66.284  1.00  0.00    -0.008 A  
ENDBRANCH  15  18
BRANCH  17  24
HETATM   24  C   UNL     1      -8.763   5.341  71.808  1.00  0.00    -0.139 A  
HETATM   25  C   UNL     1     -10.588   5.470  73.931  1.00  0.00    -0.304 A  
HETATM   26  C   UNL     1      -8.845   4.296  72.738  1.00  0.00    -0.111 A  
HETATM   27  C   UNL     1      -9.757   4.360  73.795  1.00  0.00    -0.153 A  
HETATM   28  C   UNL     1     -10.493   6.528  73.030  1.00  0.00    -0.258 A  
HETATM   29  C   UNL     1      -9.579   6.468  71.972  1.00  0.00    -0.154 A  
ENDBRANCH  17  24
ENDBRANCH  12  15
ENDBRANCH   8   9
ENDBRANCH   7   8
ENDBRANCH   6   7
ENDBRANCH   3   6
ENDBRANCH   2   3
TORSDOF 9
ENDMDL
MODEL      212
REMARK 921   NORMALIZED FREE ENERGY PREDICTED BY IDOCK:   -1.13 KCAL/MOL
REMARK 922        TOTAL FREE ENERGY PREDICTED BY IDOCK:   -3.86 KCAL/MOL
REMARK 923 INTER-LIGAND FREE ENERGY PREDICTED BY IDOCK:   -3.67 KCAL/MOL
REMARK 924 INTRA-LIGAND FREE ENERGY PREDICTED BY IDOCK:   -0.18 KCAL/MOL
REMARK 927      BINDING AFFINITY PREDICTED BY RF-SCORE:    0.00 PKD
ROOT
HETATM    1  C   UNL     1     -12.818   7.857  71.684  1.00  0.00    -0.357 C  
HETATM    2  C   UNL     1     -11.427   7.877  72.312  1.00  0.00    -0.348 C  
ENDROOT
BRANCH   2   3
HETATM    3  N   UNL     1     -10.473   6.936  71.705  1.00  0.00    -0.204 NA 
BRANCH   3   4
HETATM    4  C   UNL     1      -9.959   5.912  72.627  1.00  0.00    -0.176 C  
HETATM    5  C   UNL     1      -8.732   6.301  73.442  1.00  0.00    -0.126 C  
ENDBRANCH   3   4
BRANCH   3   6
HETATM    6  C   UNL     1     -11.032   6.393  70.447  1.00  0.00    -0.308 C  
BRANCH   6   7
HETATM    7  C   UNL     1     -10.653   7.215  69.210  1.00  0.00    -0.221 C  
BRANCH   7   8
HETATM    8  O   UNL     1      -9.665   8.201  69.539  1.00  0.00    -0.167 OA 
BRANCH   8   9
HETATM    9  C   UNL     1      -9.985   9.469  69.120  1.00  0.00    -0.183 A  
HETATM   10  C   UNL     1      -9.130  10.571  69.211  1.00  0.00    -0.161 A  
HETATM   11  C   UNL     1      -9.580  11.840  68.855  1.00  0.00     0.030 A  
HETATM   12  C   UNL     1     -10.874  12.023  68.362  1.00  0.00    -0.266 A  
HETATM   13  C   UNL     1     -11.715  10.911  68.219  1.00  0.00    -0.259 A  
HETATM   14  C   UNL     1     -11.266   9.638  68.592  1.00  0.00    -0.007 A  
BRANCH  12  15
HETATM   15  C   UNL     1     -11.320  13.398  68.024  1.00  0.00    -0.320 C  
HETATM   16 CL   UNL     1     -12.673  15.693  68.602  1.00  0.00     0.728 Cl 
HETATM   17  C   UNL     1     -12.002  14.123  68.946  1.00  0.00    -0.341 C  
BRANCH  15  18
HETATM   18  C   UNL     1     -11.085  13.938  66.659  1.00  0.00    -0.310 A  
HETATM   19  C   UNL     1     -11.194  13.107  65.535  1.00  0.00    -0.305 A  
HETATM   20  C   UNL     1     -10.731  15.282  66.483  1.00  0.00    -0.311 A  
HETATM   21  C   UNL     1     -10.503  15.791  65.200  1.00  0.00    -0.394 A  
HETATM   22  C   UNL     1     -10.965  13.618  64.254  1.00  0.00    -0.317 A  
HETATM   23  C   UNL     1     -10.621  14.958  64.089  1.00  0.00     0.938 A  
ENDBRANCH  15  18
BRANCH  17  24
HETATM   24  C   UNL     1     -12.248  13.677  70.334  1.00  0.00    -0.434 A  
HETATM   25  C   UNL     1     -12.858  12.824  72.933  1.00  0.00     1.326 A  
HETATM   26  C   UNL     1     -12.568  12.335  70.585  1.00  0.00    -0.241 A  
HETATM   27  C   UNL     1     -12.874  11.912  71.881  1.00  0.00    -0.341 A  
HETATM   28  C   UNL     1     -12.511  14.153  72.700  1.00  0.00    -0.174 A  
HETATM   29  C   UNL     1     -12.201  14.580  71.404  1.00  0.00    -0.425 A  
ENDBRANCH  17  24
ENDBRANCH  12  15
ENDBRANCH   8   9
ENDBRANCH   7   8
ENDBRANCH   6   7
ENDBRANCH   3   6
ENDBRANCH   2   3
TORSDOF 9
ENDMDL
MODEL      213
REMARK 921   NORMALIZED FREE ENERGY PREDICTED BY IDOCK:   -1.00 KCAL/MOL
REMARK 922        TOTAL FREE ENERGY PREDICTED BY IDOCK:   -3.67 KCAL/MOL
REMARK 923 INTER-LIGAND FREE ENERGY PREDICTED BY IDOCK:   -4.47 KCAL/MOL
REMARK 924 INTRA-LIGAND FREE ENERGY PREDICTED BY IDOCK:    0.80 KCAL/MOL
REMARK 927      BINDING AFFINITY PREDICTED BY RF-SCORE:    0.00 PKD
ROOT
HETATM    1  C   UNL     1      -5.247   2.537  67.912  1.00  0.00    -0.012 C  
HETATM    2  C   UNL     1      -6.574   3.290  67.921  1.00  0.00    -0.037 C  
ENDROOT
BRANCH   2   3
HETATM    3  N   UNL     1      -7.364   3.113  69.148  1.00  0.00    -0.048 NA 
BRANCH   3   4
HETATM    4  C   UNL     1      -6.779   3.737  70.344  1.00  0.00    -0.033 C  
HETATM    5  C   UNL     1      -5.695   4.779  70.092  1.00  0.00    -0.016 C  
ENDBRANCH   3   4
BRANCH   3   6
HETATM    6  C   UNL     1      -8.774   3.488  68.899  1.00  0.00    -0.094 C  
BRANCH   6   7
HETATM    7  C   UNL     1      -9.640   3.464  70.163  1.00  0.00    -0.140 C  
BRANCH   7   8
HETATM    8  O   UNL     1      -9.263   4.519  71.058  1.00  0.00    -0.126 OA 
BRANCH   8   9
HETATM    9  C   UNL     1      -9.441   5.777  70.537  1.00  0.00    -0.167 A  
HETATM   10  C   UNL     1     -10.108   6.050  69.339  1.00  0.00    -0.243 A  
HETATM   11  C   UNL     1     -10.150   7.348  68.838  1.00  0.00    -0.188 A  
HETATM   12  C   UNL     1      -9.565   8.402  69.544  1.00  0.00    -0.170 A  
HETATM   13  C   UNL     1      -8.943   8.140  70.773  1.00  0.00    -0.156 A  
HETATM   14  C   UNL     1      -8.888   6.831  71.267  1.00  0.00    -0.136 A  
BRANCH  12  15
HETATM   15  C   UNL     1      -9.608   9.764  68.956  1.00  0.00    -0.177 C  
HETATM   16 CL   UNL     1     -10.815  12.179  68.575  1.00  0.00    -0.247 Cl 
HETATM   17  C   UNL     1     -10.610  10.610  69.303  1.00  0.00    -0.233 C  
BRANCH  15  18
HETATM   18  C   UNL     1      -8.601  10.162  67.937  1.00  0.00    -0.118 A  
HETATM   19  C   UNL     1      -8.753   9.778  66.597  1.00  0.00    -0.142 A  
HETATM   20  C   UNL     1      -7.476  10.910  68.309  1.00  0.00    -0.093 A  
HETATM   21  C   UNL     1      -6.524  11.279  67.353  1.00  0.00    -0.080 A  
HETATM   22  C   UNL     1      -7.800  10.148  65.643  1.00  0.00    -0.145 A  
HETATM   23  C   UNL     1      -6.689  10.899  66.023  1.00  0.00    -0.073 A  
ENDBRANCH  15  18
BRANCH  17  24
HETATM   24  C   UNL     1     -11.629  10.308  70.331  1.00  0.00    -0.411 A  
HETATM   25  C   UNL     1     -13.456   9.748  72.382  1.00  0.00    -0.364 A  
HETATM   26  C   UNL     1     -12.108  11.335  71.157  1.00  0.00    -0.252 A  
HETATM   27  C   UNL     1     -13.016  11.054  72.180  1.00  0.00    -0.244 A  
HETATM   28  C   UNL     1     -13.011   8.725  71.547  1.00  0.00    -0.359 A  
HETATM   29  C   UNL     1     -12.103   9.003  70.519  1.00  0.00     0.028 A  
ENDBRANCH  17  24
ENDBRANCH  12  15
ENDBRANCH   8   9
ENDBRANCH   7   8
ENDBRANCH   6   7
ENDBRANCH   3   6
ENDBRANCH   2   3
TORSDOF 9
ENDMDL
MODEL      214
REMARK 921   NORMALIZED FREE ENERGY PREDICTED BY IDOCK:   -0.98 KCAL/MOL
REMARK 922        TOTAL FREE ENERGY PREDICTED BY IDOCK:   -3.63 KCAL/MOL
REMARK 923 INTER-LIGAND FREE ENERGY PREDICTED BY IDOCK:   -4.92 KCAL/MOL
REMARK 924 INTRA-LIGAND FREE ENERGY PREDICTED BY IDOCK:    1.29 KCAL/MOL
REMARK 927      BINDING AFFINITY PREDICTED BY RF-SCORE:    0.00 PKD
ROOT
HETATM    1  C   UNL     1     -12.171  11.915  63.657  1.00  0.00    -0.586 C  
HETATM    2  C   UNL     1     -11.039  11.599  64.631  1.00  0.00    -0.278 C  
ENDROOT
BRANCH   2   3
HETATM    3  N   UNL     1     -10.283  12.776  65.085  1.00  0.00    -0.292 NA 
BRANCH   3   4
HETATM    4  C   UNL     1     -11.083  14.006  65.198  1.00  0.00    -0.341 C  
HETATM    5  C   UNL     1     -12.537  13.900  64.755  1.00  0.00    -0.329 C  
ENDBRANCH   3   4
BRANCH   3   6
HETATM    6  C   UNL     1      -9.511  12.442  66.303  1.00  0.00    -0.220 C  
BRANCH   6   7
HETATM    7  C   UNL     1     -10.018  11.182  67.014  1.00  0.00    -0.192 C  
BRANCH   7   8
HETATM    8  O   UNL     1      -9.159  10.836  68.109  1.00  0.00    -0.142 OA 
BRANCH   8   9
HETATM    9  C   UNL     1      -8.881   9.494  68.193  1.00  0.00    -0.124 A  
HETATM   10  C   UNL     1      -9.794   8.478  67.901  1.00  0.00    -0.208 A  
HETATM   11  C   UNL     1      -9.454   7.144  68.114  1.00  0.00    -0.132 A  
HETATM   12  C   UNL     1      -8.183   6.802  68.581  1.00  0.00    -0.120 A  
HETATM   13  C   UNL     1      -7.246   7.816  68.824  1.00  0.00    -0.081 A  
HETATM   14  C   UNL     1      -7.596   9.157  68.623  1.00  0.00    -0.084 A  
BRANCH  12  15
HETATM   15  C   UNL     1      -7.876   5.370  68.824  1.00  0.00    -0.087 C  
HETATM   16 CL   UNL     1      -7.825   3.162  70.422  1.00  0.00    -0.043 Cl 
HETATM   17  C   UNL     1      -8.248   4.796  69.995  1.00  0.00    -0.068 C  
BRANCH  15  18
HETATM   18  C   UNL     1      -7.096   4.600  67.819  1.00  0.00    -0.065 A  
HETATM   19  C   UNL     1      -6.535   5.243  66.706  1.00  0.00    -0.041 A  
HETATM   20  C   UNL     1      -6.929   3.216  67.963  1.00  0.00    -0.050 A  
HETATM   21  C   UNL     1      -6.202   2.488  67.015  1.00  0.00    -0.024 A  
HETATM   22  C   UNL     1      -5.809   4.513  65.760  1.00  0.00    -0.022 A  
HETATM   23  C   UNL     1      -5.643   3.138  65.917  1.00  0.00    -0.018 A  
ENDBRANCH  15  18
BRANCH  17  24
HETATM   24  C   UNL     1      -9.054   5.477  71.031  1.00  0.00    -0.163 A  
HETATM   25  C   UNL     1     -10.570   6.649  73.077  1.00  0.00    -0.283 A  
HETATM   26  C   UNL     1      -8.431   5.955  72.192  1.00  0.00    -0.125 A  
HETATM   27  C   UNL     1      -9.188   6.536  73.213  1.00  0.00    -0.140 A  
HETATM   28  C   UNL     1     -11.196   6.207  71.914  1.00  0.00    -0.336 A  
HETATM   29  C   UNL     1     -10.440   5.626  70.888  1.00  0.00    -0.323 A  
ENDBRANCH  17  24
ENDBRANCH  12  15
ENDBRANCH   8   9
ENDBRANCH   7   8
ENDBRANCH   6   7
ENDBRANCH   3   6
ENDBRANCH   2   3
TORSDOF 9
ENDMDL
MODEL      215
REMARK 921   NORMALIZED FREE ENERGY PREDICTED BY IDOCK:   -0.54 KCAL/MOL
REMARK 922        TOTAL FREE ENERGY PREDICTED BY IDOCK:   -2.96 KCAL/MOL
REMARK 923 INTER-LIGAND FREE ENERGY PREDICTED BY IDOCK:   -3.74 KCAL/MOL
REMARK 924 INTRA-LIGAND FREE ENERGY PREDICTED BY IDOCK:    0.78 KCAL/MOL
REMARK 927      BINDING AFFINITY PREDICTED BY RF-SCORE:    0.00 PKD
ROOT
HETATM    1  C   UNL     1     -11.281  10.307  66.721  1.00  0.00     0.204 C  
HETATM    2  C   UNL     1      -9.877  10.754  66.325  1.00  0.00    -0.215 C  
ENDROOT
BRANCH   2   3
HETATM    3  N   UNL     1      -9.576  12.159  66.637  1.00  0.00    -0.214 NA 
BRANCH   3   4
HETATM    4  C   UNL     1     -10.754  12.971  66.982  1.00  0.00    -0.258 C  
HETATM    5  C   UNL     1     -11.023  13.161  68.470  1.00  0.00    -0.289 C  
ENDBRANCH   3   4
BRANCH   3   6
HETATM    6  C   UNL     1      -8.480  12.232  67.628  1.00  0.00    -0.166 C  
BRANCH   6   7
HETATM    7  C   UNL     1      -8.423  11.016  68.560  1.00  0.00    -0.153 C  
BRANCH   7   8
HETATM    8  O   UNL     1      -7.334  10.154  68.204  1.00  0.00    -0.081 OA 
BRANCH   8   9
HETATM    9  C   UNL     1      -7.694   8.837  68.057  1.00  0.00    -0.101 A  
HETATM   10  C   UNL     1      -8.647   8.186  68.845  1.00  0.00    -0.130 A  
HETATM   11  C   UNL     1      -8.873   6.820  68.690  1.00  0.00    -0.123 A  
HETATM   12  C   UNL     1      -8.182   6.092  67.718  1.00  0.00    -0.117 A  
HETATM   13  C   UNL     1      -7.265   6.754  66.890  1.00  0.00    -0.081 A  
HETATM   14  C   UNL     1      -7.029   8.124  67.058  1.00  0.00    -0.074 A  
BRANCH  12  15
HETATM   15  C   UNL     1      -8.432   4.633  67.610  1.00  0.00    -0.103 C  
HETATM   16 CL   UNL     1      -9.277   2.258  68.649  1.00  0.00    -0.208 Cl 
HETATM   17  C   UNL     1      -9.051   3.985  68.628  1.00  0.00    -0.133 C  
BRANCH  15  18
HETATM   18  C   UNL     1      -7.935   3.882  66.427  1.00  0.00    -0.097 A  
HETATM   19  C   UNL     1      -6.642   3.340  66.418  1.00  0.00    -0.040 A  
HETATM   20  C   UNL     1      -8.748   3.726  65.296  1.00  0.00    -0.116 A  
HETATM   21  C   UNL     1      -8.279   3.026  64.179  1.00  0.00    -0.083 A  
HETATM   22  C   UNL     1      -6.176   2.642  65.301  1.00  0.00    -0.023 A  
HETATM   23  C   UNL     1      -6.996   2.485  64.184  1.00  0.00    -0.040 A  
ENDBRANCH  15  18
BRANCH  17  24
HETATM   24  C   UNL     1      -9.607   4.658  69.822  1.00  0.00    -0.258 A  
HETATM   25  C   UNL     1     -10.694   5.802  72.138  1.00  0.00    -0.282 A  
HETATM   26  C   UNL     1      -8.900   4.619  71.032  1.00  0.00    -0.149 A  
HETATM   27  C   UNL     1      -9.444   5.188  72.187  1.00  0.00    -0.170 A  
HETATM   28  C   UNL     1     -11.390   5.874  70.934  1.00  0.00    -0.218 A  
HETATM   29  C   UNL     1     -10.847   5.308  69.775  1.00  0.00    -0.022 A  
ENDBRANCH  17  24
ENDBRANCH  12  15
ENDBRANCH   8   9
ENDBRANCH   7   8
ENDBRANCH   6   7
ENDBRANCH   3   6
ENDBRANCH   2   3
TORSDOF 9
ENDMDL
MODEL      216
REMARK 921   NORMALIZED FREE ENERGY PREDICTED BY IDOCK:   -0.48 KCAL/MOL
REMARK 922        TOTAL FREE ENERGY PREDICTED BY IDOCK:   -2.87 KCAL/MOL
REMARK 923 INTER-LIGAND FREE ENERGY PREDICTED BY IDOCK:   -2.21 KCAL/MOL
REMARK 924 INTRA-LIGAND FREE ENERGY PREDICTED BY IDOCK:   -0.66 KCAL/MOL
REMARK 927      BINDING AFFINITY PREDICTED BY RF-SCORE:    0.00 PKD
ROOT
HETATM    1  C   UNL     1      -7.931   6.179  66.418  1.00  0.00    -0.106 C  
HETATM    2  C   UNL     1      -7.585   6.844  65.089  1.00  0.00    -0.102 C  
ENDROOT
BRANCH   2   3
HETATM    3  N   UNL     1      -8.118   8.207  64.935  1.00  0.00    -0.148 NA 
BRANCH   3   4
HETATM    4  C   UNL     1      -8.451   8.577  63.551  1.00  0.00    -0.028 C  
HETATM    5  C   UNL     1      -7.286   9.040  62.685  1.00  0.00    -0.098 C  
ENDBRANCH   3   4
BRANCH   3   6
HETATM    6  C   UNL     1      -9.217   8.430  65.902  1.00  0.00    -0.155 C  
BRANCH   6   7
HETATM    7  C   UNL     1     -10.085   9.646  65.561  1.00  0.00    -0.095 C  
BRANCH   7   8
HETATM    8  O   UNL     1      -9.431  10.862  65.950  1.00  0.00    -0.191 OA 
BRANCH   8   9
HETATM    9  C   UNL     1      -9.972  11.450  67.067  1.00  0.00    -0.201 A  
HETATM   10  C   UNL     1      -9.233  11.868  68.177  1.00  0.00    -0.187 A  
HETATM   11  C   UNL     1      -9.880  12.360  69.308  1.00  0.00     0.594 A  
HETATM   12  C   UNL     1     -11.271  12.483  69.333  1.00  0.00    -0.215 A  
HETATM   13  C   UNL     1     -12.012  12.115  68.201  1.00  0.00    -0.242 A  
HETATM   14  C   UNL     1     -11.360  11.606  67.070  1.00  0.00    -0.373 A  
BRANCH  12  15
HETATM   15  C   UNL     1     -11.920  12.983  70.571  1.00  0.00    -0.294 C  
HETATM   16 CL   UNL     1     -13.478  12.623  72.779  1.00  0.00    -0.019 Cl 
HETATM   17  C   UNL     1     -12.583  12.114  71.375  1.00  0.00    -0.209 C  
BRANCH  15  18
HETATM   18  C   UNL     1     -11.906  14.438  70.878  1.00  0.00    -0.346 A  
HETATM   19  C   UNL     1     -12.655  14.948  71.948  1.00  0.00    -0.400 A  
HETATM   20  C   UNL     1     -11.158  15.320  70.087  1.00  0.00    -0.312 A  
HETATM   21  C   UNL     1     -11.149  16.690  70.370  1.00  0.00    -0.010 A  
HETATM   22  C   UNL     1     -12.645  16.317  72.228  1.00  0.00    -0.277 A  
HETATM   23  C   UNL     1     -11.891  17.185  71.440  1.00  0.00     1.801 A  
ENDBRANCH  15  18
BRANCH  17  24
HETATM   24  C   UNL     1     -12.617  10.651  71.162  1.00  0.00    -0.526 A  
HETATM   25  C   UNL     1     -12.740   7.864  70.893  1.00  0.00     0.032 A  
HETATM   26  C   UNL     1     -13.839  10.016  70.903  1.00  0.00     0.253 A  
HETATM   27  C   UNL     1     -13.900   8.627  70.771  1.00  0.00     0.399 A  
HETATM   28  C   UNL     1     -11.515   8.488  71.120  1.00  0.00    -0.322 A  
HETATM   29  C   UNL     1     -11.450   9.880  71.250  1.00  0.00    -0.435 A  
ENDBRANCH  17  24
ENDBRANCH  12  15
ENDBRANCH   8   9
ENDBRANCH   7   8
ENDBRANCH   6   7
ENDBRANCH   3   6
ENDBRANCH   2   3
TORSDOF 9
ENDMDL
MODEL      217
REMARK 921   NORMALIZED FREE ENERGY PREDICTED BY IDOCK:   -0.20 KCAL/MOL
REMARK 922        TOTAL FREE ENERGY PREDICTED BY IDOCK:   -2.45 KCAL/MOL
REMARK 923 INTER-LIGAND FREE ENERGY PREDICTED BY IDOCK:   -3.80 KCAL/MOL
REMARK 924 INTRA-LIGAND FREE ENERGY PREDICTED BY IDOCK:    1.35 KCAL/MOL
REMARK 927      BINDING AFFINITY PREDICTED BY RF-SCORE:    0.00 PKD
ROOT
HETATM    1  C   UNL     1     -10.482   9.161  71.133  1.00  0.00    -0.385 C  
HETATM    2  C   UNL     1     -10.514   8.488  72.502  1.00  0.00    -0.233 C  
ENDROOT
BRANCH   2   3
HETATM    3  N   UNL     1      -9.782   7.214  72.569  1.00  0.00    -0.152 NA 
BRANCH   3   4
HETATM    4  C   UNL     1     -10.004   6.324  71.419  1.00  0.00    -0.186 C  
HETATM    5  C   UNL     1      -9.400   4.929  71.528  1.00  0.00    -0.196 C  
ENDBRANCH   3   4
BRANCH   3   6
HETATM    6  C   UNL     1      -8.356   7.467  72.872  1.00  0.00    -0.120 C  
BRANCH   6   7
HETATM    7  C   UNL     1      -7.724   8.532  71.968  1.00  0.00    -0.096 C  
BRANCH   7   8
HETATM    8  O   UNL     1      -6.622   7.983  71.232  1.00  0.00    -0.040 OA 
BRANCH   8   9
HETATM    9  C   UNL     1      -6.943   7.608  69.950  1.00  0.00    -0.054 A  
HETATM   10  C   UNL     1      -6.260   6.634  69.217  1.00  0.00    -0.030 A  
HETATM   11  C   UNL     1      -6.594   6.394  67.887  1.00  0.00    -0.062 A  
HETATM   12  C   UNL     1      -7.641   7.091  67.280  1.00  0.00    -0.108 A  
HETATM   13  C   UNL     1      -8.363   8.030  68.029  1.00  0.00    -0.126 A  
HETATM   14  C   UNL     1      -8.016   8.281  69.363  1.00  0.00    -0.113 A  
BRANCH  12  15
HETATM   15  C   UNL     1      -7.941   6.824  65.851  1.00  0.00    -0.112 C  
HETATM   16 CL   UNL     1      -8.579   5.138  63.805  1.00  0.00    -0.119 Cl 
HETATM   17  C   UNL     1      -8.327   5.580  65.470  1.00  0.00    -0.136 C  
BRANCH  15  18
HETATM   18  C   UNL     1      -7.740   7.895  64.840  1.00  0.00    -0.112 A  
HETATM   19  C   UNL     1      -8.216   7.738  63.530  1.00  0.00     0.021 A  
HETATM   20  C   UNL     1      -7.055   9.069  65.181  1.00  0.00    -0.087 A  
HETATM   21  C   UNL     1      -6.859  10.075  64.229  1.00  0.00    -0.126 A  
HETATM   22  C   UNL     1      -8.018   8.745  62.581  1.00  0.00    -0.150 A  
HETATM   23  C   UNL     1      -7.342   9.912  62.932  1.00  0.00    -0.125 A  
ENDBRANCH  15  18
BRANCH  17  24
HETATM   24  C   UNL     1      -8.583   4.469  66.412  1.00  0.00    -0.112 A  
HETATM   25  C   UNL     1      -9.195   2.339  68.128  1.00  0.00    -0.247 A  
HETATM   26  C   UNL     1      -8.454   3.144  65.974  1.00  0.00    -0.109 A  
HETATM   27  C   UNL     1      -8.762   2.083  66.829  1.00  0.00    -0.129 A  
HETATM   28  C   UNL     1      -9.296   3.651  68.585  1.00  0.00    -0.228 A  
HETATM   29  C   UNL     1      -8.986   4.716  67.731  1.00  0.00    -0.126 A  
ENDBRANCH  17  24
ENDBRANCH  12  15
ENDBRANCH   8   9
ENDBRANCH   7   8
ENDBRANCH   6   7
ENDBRANCH   3   6
ENDBRANCH   2   3
TORSDOF 9
ENDMDL
MODEL      218
REMARK 921   NORMALIZED FREE ENERGY PREDICTED BY IDOCK:   -0.10 KCAL/MOL
REMARK 922        TOTAL FREE ENERGY PREDICTED BY IDOCK:   -2.29 KCAL/MOL
REMARK 923 INTER-LIGAND FREE ENERGY PREDICTED BY IDOCK:   -4.34 KCAL/MOL
REMARK 924 INTRA-LIGAND FREE ENERGY PREDICTED BY IDOCK:    2.05 KCAL/MOL
REMARK 927      BINDING AFFINITY PREDICTED BY RF-SCORE:    0.00 PKD
ROOT
HETATM    1  C   UNL     1      -5.175   6.778  70.751  1.00  0.00    -0.023 C  
HETATM    2  C   UNL     1      -5.231   5.377  70.149  1.00  0.00    -0.004 C  
ENDROOT
BRANCH   2   3
HETATM    3  N   UNL     1      -6.529   4.702  70.304  1.00  0.00    -0.033 NA 
BRANCH   3   4
HETATM    4  C   UNL     1      -7.341   5.197  71.426  1.00  0.00    -0.085 C  
HETATM    5  C   UNL     1      -8.163   4.151  72.169  1.00  0.00    -0.101 C  
ENDBRANCH   3   4
BRANCH   3   6
HETATM    6  C   UNL     1      -7.241   4.674  69.007  1.00  0.00    -0.053 C  
BRANCH   6   7
HETATM    7  C   UNL     1      -8.766   4.747  69.152  1.00  0.00    -0.087 C  
BRANCH   7   8
HETATM    8  O   UNL     1      -9.167   6.023  69.668  1.00  0.00    -0.136 OA 
BRANCH   8   9
HETATM    9  C   UNL     1      -9.197   7.019  68.722  1.00  0.00    -0.132 A  
HETATM   10  C   UNL     1     -10.361   7.499  68.117  1.00  0.00    -0.244 A  
HETATM   11  C   UNL     1     -10.284   8.439  67.092  1.00  0.00    -0.362 A  
HETATM   12  C   UNL     1      -9.048   8.947  66.686  1.00  0.00    -0.192 A  
HETATM   13  C   UNL     1      -7.882   8.508  67.329  1.00  0.00    -0.098 A  
HETATM   14  C   UNL     1      -7.961   7.550  68.348  1.00  0.00    -0.123 A  
BRANCH  12  15
HETATM   15  C   UNL     1      -9.012   9.925  65.570  1.00  0.00    -0.209 C  
HETATM   16 CL   UNL     1      -8.276  10.668  63.052  1.00  0.00    -0.135 Cl 
HETATM   17  C   UNL     1      -8.476   9.558  64.378  1.00  0.00    -0.181 C  
BRANCH  15  18
HETATM   18  C   UNL     1      -9.489  11.316  65.788  1.00  0.00    -0.252 A  
HETATM   19  C   UNL     1      -9.019  12.069  66.874  1.00  0.00    -0.199 A  
HETATM   20  C   UNL     1     -10.430  11.884  64.919  1.00  0.00    -0.331 A  
HETATM   21  C   UNL     1     -10.886  13.191  65.127  1.00  0.00    -0.321 A  
HETATM   22  C   UNL     1      -9.477  13.373  67.080  1.00  0.00    -0.247 A  
HETATM   23  C   UNL     1     -10.408  13.932  66.205  1.00  0.00    -0.293 A  
ENDBRANCH  15  18
BRANCH  17  24
HETATM   24  C   UNL     1      -8.011   8.189  64.066  1.00  0.00    -0.139 A  
HETATM   25  C   UNL     1      -6.993   5.644  63.485  1.00  0.00    -0.045 A  
HETATM   26  C   UNL     1      -7.473   7.390  65.084  1.00  0.00    -0.086 A  
HETATM   27  C   UNL     1      -6.963   6.123  64.793  1.00  0.00    -0.055 A  
HETATM   28  C   UNL     1      -7.554   6.416  62.471  1.00  0.00    -0.078 A  
HETATM   29  C   UNL     1      -8.068   7.686  62.760  1.00  0.00    -0.097 A  
ENDBRANCH  17  24
ENDBRANCH  12  15
ENDBRANCH   8   9
ENDBRANCH   7   8
ENDBRANCH   6   7
ENDBRANCH   3   6
ENDBRANCH   2   3
TORSDOF 9
ENDMDL
MODEL      219
REMARK 921   NORMALIZED FREE ENERGY PREDICTED BY IDOCK:   -0.07 KCAL/MOL
REMARK 922        TOTAL FREE ENERGY PREDICTED BY IDOCK:   -2.25 KCAL/MOL
REMARK 923 INTER-LIGAND FREE ENERGY PREDICTED BY IDOCK:   -2.10 KCAL/MOL
REMARK 924 INTRA-LIGAND FREE ENERGY PREDICTED BY IDOCK:   -0.14 KCAL/MOL
REMARK 927      BINDING AFFINITY PREDICTED BY RF-SCORE:    0.00 PKD
ROOT
HETATM    1  C   UNL     1      -6.657   4.252  72.049  1.00  0.00    -0.022 C  
HETATM    2  C   UNL     1      -7.529   5.419  71.597  1.00  0.00    -0.091 C  
ENDROOT
BRANCH   2   3
HETATM    3  N   UNL     1      -8.964   5.107  71.510  1.00  0.00    -0.136 NA 
BRANCH   3   4
HETATM    4  C   UNL     1      -9.278   3.672  71.569  1.00  0.00    -0.125 C  
HETATM    5  C   UNL     1      -8.419   2.837  72.511  1.00  0.00    -0.072 C  
ENDBRANCH   3   4
BRANCH   3   6
HETATM    6  C   UNL     1      -9.719   5.932  72.480  1.00  0.00    -0.157 C  
BRANCH   6   7
HETATM    7  C   UNL     1     -10.704   6.900  71.815  1.00  0.00    -0.221 C  
BRANCH   7   8
HETATM    8  O   UNL     1     -10.034   8.095  71.390  1.00  0.00    -0.170 OA 
BRANCH   8   9
HETATM    9  C   UNL     1      -9.702   8.100  70.058  1.00  0.00    -0.172 A  
HETATM   10  C   UNL     1     -10.629   8.090  69.012  1.00  0.00    -0.169 A  
HETATM   11  C   UNL     1     -10.198   7.992  67.691  1.00  0.00    -0.291 A  
HETATM   12  C   UNL     1      -8.835   7.947  67.391  1.00  0.00    -0.129 A  
HETATM   13  C   UNL     1      -7.901   8.012  68.434  1.00  0.00    -0.122 A  
HETATM   14  C   UNL     1      -8.337   8.094  69.763  1.00  0.00    -0.124 A  
BRANCH  12  15
HETATM   15  C   UNL     1      -8.422   7.811  65.971  1.00  0.00    -0.146 C  
HETATM   16 CL   UNL     1      -7.230   6.442  63.937  1.00  0.00    -0.058 Cl 
HETATM   17  C   UNL     1      -7.857   6.653  65.548  1.00  0.00    -0.108 C  
BRANCH  15  18
HETATM   18  C   UNL     1      -8.559   8.968  65.047  1.00  0.00    -0.207 A  
HETATM   19  C   UNL     1      -7.450   9.769  64.739  1.00  0.00    -0.130 A  
HETATM   20  C   UNL     1      -9.804   9.282  64.488  1.00  0.00     0.812 A  
HETATM   21  C   UNL     1      -9.936  10.375  63.624  1.00  0.00    -0.204 A  
HETATM   22  C   UNL     1      -7.584  10.860  63.876  1.00  0.00     0.478 A  
HETATM   23  C   UNL     1      -8.827  11.160  63.319  1.00  0.00    -0.068 A  
ENDBRANCH  15  18
BRANCH  17  24
HETATM   24  C   UNL     1      -7.716   5.445  66.389  1.00  0.00    -0.099 A  
HETATM   25  C   UNL     1      -7.511   3.230  68.095  1.00  0.00    -0.053 A  
HETATM   26  C   UNL     1      -8.847   4.674  66.693  1.00  0.00    -0.111 A  
HETATM   27  C   UNL     1      -8.744   3.572  67.545  1.00  0.00    -0.130 A  
HETATM   28  C   UNL     1      -6.375   3.970  67.775  1.00  0.00    -0.037 A  
HETATM   29  C   UNL     1      -6.474   5.073  66.920  1.00  0.00    -0.041 A  
ENDBRANCH  17  24
ENDBRANCH  12  15
ENDBRANCH   8   9
ENDBRANCH   7   8
ENDBRANCH   6   7
ENDBRANCH   3   6
ENDBRANCH   2   3
TORSDOF 9
ENDMDL
MODEL      220
REMARK 921   NORMALIZED FREE ENERGY PREDICTED BY IDOCK:    0.45 KCAL/MOL
REMARK 922        TOTAL FREE ENERGY PREDICTED BY IDOCK:   -1.46 KCAL/MOL
REMARK 923 INTER-LIGAND FREE ENERGY PREDICTED BY IDOCK:   -2.01 KCAL/MOL
REMARK 924 INTRA-LIGAND FREE ENERGY PREDICTED BY IDOCK:    0.55 KCAL/MOL
REMARK 927      BINDING AFFINITY PREDICTED BY RF-SCORE:    0.00 PKD
ROOT
HETATM    1  C   UNL     1      -9.976  10.032  66.595  1.00  0.00    -0.274 C  
HETATM    2  C   UNL     1      -9.808  10.380  68.072  1.00  0.00    -0.150 C  
ENDROOT
BRANCH   2   3
HETATM    3  N   UNL     1      -8.776  11.391  68.343  1.00  0.00    -0.153 NA 
BRANCH   3   4
HETATM    4  C   UNL     1      -9.193  12.775  68.067  1.00  0.00    -0.208 C  
HETATM    5  C   UNL     1      -8.126  13.689  67.478  1.00  0.00    -0.190 C  
ENDBRANCH   3   4
BRANCH   3   6
HETATM    6  C   UNL     1      -8.214  11.188  69.697  1.00  0.00     0.535 C  
BRANCH   6   7
HETATM    7  C   UNL     1      -6.868  10.455  69.691  1.00  0.00    -0.108 C  
BRANCH   7   8
HETATM    8  O   UNL     1      -6.740   9.639  68.518  1.00  0.00    -0.052 OA 
BRANCH   8   9
HETATM    9  C   UNL     1      -6.908   8.297  68.756  1.00  0.00    -0.062 A  
HETATM   10  C   UNL     1      -7.081   7.734  70.023  1.00  0.00    -0.054 A  
HETATM   11  C   UNL     1      -7.141   6.351  70.176  1.00  0.00    -0.074 A  
HETATM   12  C   UNL     1      -7.072   5.510  69.063  1.00  0.00    -0.068 A  
HETATM   13  C   UNL     1      -6.953   6.074  67.786  1.00  0.00    -0.069 A  
HETATM   14  C   UNL     1      -6.877   7.465  67.636  1.00  0.00    -0.078 A  
BRANCH  12  15
HETATM   15  C   UNL     1      -7.109   4.042  69.277  1.00  0.00    -0.047 C  
HETATM   16 CL   UNL     1      -8.023   1.547  68.662  1.00  0.00    -0.053 Cl 
HETATM   17  C   UNL     1      -7.818   3.260  68.424  1.00  0.00    -0.058 C  
BRANCH  15  18
HETATM   18  C   UNL     1      -6.437   3.450  70.464  1.00  0.00    -0.031 A  
HETATM   19  C   UNL     1      -5.850   2.178  70.390  1.00  0.00    -0.018 A  
HETATM   20  C   UNL     1      -6.400   4.149  71.677  1.00  0.00    -0.018 A  
HETATM   21  C   UNL     1      -5.775   3.590  72.797  1.00  0.00    -0.007 A  
HETATM   22  C   UNL     1      -5.226   1.622  71.511  1.00  0.00    -0.004 A  
HETATM   23  C   UNL     1      -5.189   2.329  72.711  1.00  0.00     0.000 A  
ENDBRANCH  15  18
BRANCH  17  24
HETATM   24  C   UNL     1      -8.485   3.762  67.203  1.00  0.00    -0.102 A  
HETATM   25  C   UNL     1      -9.679   4.839  64.907  1.00  0.00     0.016 A  
HETATM   26  C   UNL     1      -7.757   3.877  66.011  1.00  0.00    -0.089 A  
HETATM   27  C   UNL     1      -8.352   4.416  64.868  1.00  0.00    -0.118 A  
HETATM   28  C   UNL     1     -10.421   4.700  66.078  1.00  0.00    -0.303 A  
HETATM   29  C   UNL     1      -9.829   4.158  67.224  1.00  0.00    -0.171 A  
ENDBRANCH  17  24
ENDBRANCH  12  15
ENDBRANCH   8   9
ENDBRANCH   7   8
ENDBRANCH   6   7
ENDBRANCH   3   6
ENDBRANCH   2   3
TORSDOF 9
ENDMDL
MODEL      221
REMARK 921   NORMALIZED FREE ENERGY PREDICTED BY IDOCK:    0.48 KCAL/MOL
REMARK 922        TOTAL FREE ENERGY PREDICTED BY IDOCK:   -1.40 KCAL/MOL
REMARK 923 INTER-LIGAND FREE ENERGY PREDICTED BY IDOCK:   -3.62 KCAL/MOL
REMARK 924 INTRA-LIGAND FREE ENERGY PREDICTED BY IDOCK:    2.22 KCAL/MOL
REMARK 927      BINDING AFFINITY PREDICTED BY RF-SCORE:    0.00 PKD
ROOT
HETATM    1  C   UNL     1      -5.934  17.711  71.260  1.00  0.00     1.173 C  
HETATM    2  C   UNL     1      -5.556  16.256  70.997  1.00  0.00     0.166 C  
ENDROOT
BRANCH   2   3
HETATM    3  N   UNL     1      -6.618  15.459  70.364  1.00  0.00     0.048 NA 
BRANCH   3   4
HETATM    4  C   UNL     1      -7.180  16.056  69.143  1.00  0.00    -0.208 C  
HETATM    5  C   UNL     1      -6.280  17.039  68.403  1.00  0.00    -0.145 C  
ENDBRANCH   3   4
BRANCH   3   6
HETATM    6  C   UNL     1      -6.167  14.058  70.200  1.00  0.00    -0.138 C  
BRANCH   6   7
HETATM    7  C   UNL     1      -5.899  13.674  68.740  1.00  0.00    -0.083 C  
BRANCH   7   8
HETATM    8  O   UNL     1      -7.132  13.488  68.031  1.00  0.00    -0.095 OA 
BRANCH   8   9
HETATM    9  C   UNL     1      -7.872  12.420  68.476  1.00  0.00    -0.112 A  
HETATM   10  C   UNL     1      -7.387  11.421  69.324  1.00  0.00    -0.042 A  
HETATM   11  C   UNL     1      -8.180  10.321  69.639  1.00  0.00    -0.146 A  
HETATM   12  C   UNL     1      -9.484  10.222  69.149  1.00  0.00    -0.225 A  
HETATM   13  C   UNL     1      -9.992  11.249  68.343  1.00  0.00    -0.201 A  
HETATM   14  C   UNL     1      -9.187  12.347  68.014  1.00  0.00    -0.203 A  
BRANCH  12  15
HETATM   15  C   UNL     1     -10.282   9.016  69.487  1.00  0.00    -0.205 C  
HETATM   16 CL   UNL     1     -11.114   6.469  68.984  1.00  0.00    -0.368 Cl 
HETATM   17  C   UNL     1     -10.135   7.890  68.745  1.00  0.00    -0.193 C  
BRANCH  15  18
HETATM   18  C   UNL     1     -11.289   9.077  70.579  1.00  0.00    -0.282 A  
HETATM   19  C   UNL     1     -11.195   8.217  71.683  1.00  0.00    -0.314 A  
HETATM   20  C   UNL     1     -12.355   9.983  70.508  1.00  0.00    -0.282 A  
HETATM   21  C   UNL     1     -13.307  10.036  71.532  1.00  0.00    -0.451 A  
HETATM   22  C   UNL     1     -12.148   8.272  72.704  1.00  0.00    -0.326 A  
HETATM   23  C   UNL     1     -13.201   9.182  72.627  1.00  0.00    -0.362 A  
ENDBRANCH  15  18
BRANCH  17  24
HETATM   24  C   UNL     1      -9.136   7.733  67.666  1.00  0.00    -0.138 A  
HETATM   25  C   UNL     1      -7.158   7.363  65.715  1.00  0.00    -0.065 A  
HETATM   26  C   UNL     1      -8.982   6.490  67.038  1.00  0.00    -0.121 A  
HETATM   27  C   UNL     1      -7.994   6.305  66.068  1.00  0.00    -0.114 A  
HETATM   28  C   UNL     1      -7.323   8.612  66.310  1.00  0.00    -0.086 A  
HETATM   29  C   UNL     1      -8.314   8.800  67.281  1.00  0.00    -0.104 A  
ENDBRANCH  17  24
ENDBRANCH  12  15
ENDBRANCH   8   9
ENDBRANCH   7   8
ENDBRANCH   6   7
ENDBRANCH   3   6
ENDBRANCH   2   3
TORSDOF 9
ENDMDL
MODEL      222
REMARK 921   NORMALIZED FREE ENERGY PREDICTED BY IDOCK:    1.62 KCAL/MOL
REMARK 922        TOTAL FREE ENERGY PREDICTED BY IDOCK:    0.34 KCAL/MOL
REMARK 923 INTER-LIGAND FREE ENERGY PREDICTED BY IDOCK:    0.52 KCAL/MOL
REMARK 924 INTRA-LIGAND FREE ENERGY PREDICTED BY IDOCK:   -0.18 KCAL/MOL
REMARK 927      BINDING AFFINITY PREDICTED BY RF-SCORE:    0.00 PKD
ROOT
HETATM    1  C   UNL     1      -6.954   3.946  71.392  1.00  0.00    -0.032 C  
HETATM    2  C   UNL     1      -7.829   5.193  71.469  1.00  0.00    -0.111 C  
ENDROOT
BRANCH   2   3
HETATM    3  N   UNL     1      -9.273   4.919  71.530  1.00  0.00    -0.142 NA 
BRANCH   3   4
HETATM    4  C   UNL     1      -9.685   3.678  70.857  1.00  0.00    -0.159 C  
HETATM    5  C   UNL     1      -8.724   2.501  70.978  1.00  0.00    -0.118 C  
ENDBRANCH   3   4
BRANCH   3   6
HETATM    6  C   UNL     1      -9.750   5.038  72.926  1.00  0.00    -0.148 C  
BRANCH   6   7
HETATM    7  C   UNL     1     -10.712   6.211  73.140  1.00  0.00    -0.260 C  
BRANCH   7   8
HETATM    8  O   UNL     1      -9.999   7.383  73.560  1.00  0.00    -0.276 OA 
BRANCH   8   9
HETATM    9  C   UNL     1      -9.872   8.335  72.579  1.00  0.00    -0.298 A  
HETATM   10  C   UNL     1     -10.943   9.022  71.999  1.00  0.00    -0.355 A  
HETATM   11  C   UNL     1     -10.725   9.896  70.938  1.00  0.00    -0.305 A  
HETATM   12  C   UNL     1      -9.432  10.133  70.467  1.00  0.00     0.385 A  
HETATM   13  C   UNL     1      -8.350   9.488  71.081  1.00  0.00     0.273 A  
HETATM   14  C   UNL     1      -8.573   8.596  72.138  1.00  0.00    -0.190 A  
BRANCH  12  15
HETATM   15  C   UNL     1      -9.252  11.050  69.313  1.00  0.00     0.063 C  
HETATM   16 CL   UNL     1      -8.485  11.558  66.746  1.00  0.00    -0.164 Cl 
HETATM   17  C   UNL     1      -8.844  10.549  68.120  1.00  0.00    -0.134 C  
BRANCH  15  18
HETATM   18  C   UNL     1      -9.441  12.513  69.494  1.00  0.00     1.457 A  
HETATM   19  C   UNL     1      -8.337  13.359  69.670  1.00  0.00     1.475 A  
HETATM   20  C   UNL     1     -10.731  13.062  69.509  1.00  0.00     0.253 A  
HETATM   21  C   UNL     1     -10.912  14.438  69.686  1.00  0.00    -0.194 A  
HETATM   22  C   UNL     1      -8.521  14.734  69.848  1.00  0.00     0.432 A  
HETATM   23  C   UNL     1      -9.807  15.270  69.854  1.00  0.00    -0.137 A  
ENDBRANCH  15  18
BRANCH  17  24
HETATM   24  C   UNL     1      -8.666   9.107  67.845  1.00  0.00    -0.128 A  
HETATM   25  C   UNL     1      -8.366   6.347  67.463  1.00  0.00    -0.117 A  
HETATM   26  C   UNL     1      -9.791   8.284  67.702  1.00  0.00    -0.218 A  
HETATM   27  C   UNL     1      -9.641   6.907  67.514  1.00  0.00    -0.150 A  
HETATM   28  C   UNL     1      -7.241   7.160  67.573  1.00  0.00    -0.090 A  
HETATM   29  C   UNL     1      -7.388   8.540  67.758  1.00  0.00    -0.093 A  
ENDBRANCH  17  24
ENDBRANCH  12  15
ENDBRANCH   8   9
ENDBRANCH   7   8
ENDBRANCH   6   7
ENDBRANCH   3   6
ENDBRANCH   2   3
TORSDOF 9
ENDMDL
MODEL      223
REMARK 921   NORMALIZED FREE ENERGY PREDICTED BY IDOCK:    1.75 KCAL/MOL
REMARK 922        TOTAL FREE ENERGY PREDICTED BY IDOCK:    0.54 KCAL/MOL
REMARK 923 INTER-LIGAND FREE ENERGY PREDICTED BY IDOCK:   -2.80 KCAL/MOL
REMARK 924 INTRA-LIGAND FREE ENERGY PREDICTED BY IDOCK:    3.34 KCAL/MOL
REMARK 927      BINDING AFFINITY PREDICTED BY RF-SCORE:    0.00 PKD
ROOT
HETATM    1  C   UNL     1     -10.437   9.207  71.139  1.00  0.00    -0.385 C  
HETATM    2  C   UNL     1     -10.494   8.468  72.473  1.00  0.00    -0.233 C  
ENDROOT
BRANCH   2   3
HETATM    3  N   UNL     1      -9.595   7.307  72.562  1.00  0.00    -0.149 NA 
BRANCH   3   4
HETATM    4  C   UNL     1      -9.536   6.489  71.341  1.00  0.00    -0.158 C  
HETATM    5  C   UNL     1      -8.723   5.203  71.437  1.00  0.00    -0.137 C  
ENDBRANCH   3   4
BRANCH   3   6
HETATM    6  C   UNL     1      -8.271   7.732  73.070  1.00  0.00    -0.133 C  
BRANCH   6   7
HETATM    7  C   UNL     1      -7.696   8.942  72.326  1.00  0.00     0.228 C  
BRANCH   7   8
HETATM    8  O   UNL     1      -6.539   8.568  71.566  1.00  0.00    -0.057 OA 
BRANCH   8   9
HETATM    9  C   UNL     1      -6.834   7.989  70.356  1.00  0.00    -0.037 A  
HETATM   10  C   UNL     1      -7.977   8.268  69.604  1.00  0.00    -0.111 A  
HETATM   11  C   UNL     1      -8.243   7.555  68.437  1.00  0.00    -0.125 A  
HETATM   12  C   UNL     1      -7.350   6.583  67.981  1.00  0.00    -0.090 A  
HETATM   13  C   UNL     1      -6.175   6.338  68.705  1.00  0.00    -0.036 A  
HETATM   14  C   UNL     1      -5.918   7.045  69.886  1.00  0.00    -0.024 A  
BRANCH  12  15
HETATM   15  C   UNL     1      -7.690   5.826  66.750  1.00  0.00    -0.100 C  
HETATM   16 CL   UNL     1      -8.630   5.696  64.194  1.00  0.00    -0.019 Cl 
HETATM   17  C   UNL     1      -8.093   6.499  65.643  1.00  0.00    -0.128 C  
BRANCH  15  18
HETATM   18  C   UNL     1      -7.662   4.340  66.763  1.00  0.00    -0.093 A  
HETATM   19  C   UNL     1      -7.990   3.631  67.928  1.00  0.00    -0.080 A  
HETATM   20  C   UNL     1      -7.288   3.630  65.614  1.00  0.00    -0.076 A  
HETATM   21  C   UNL     1      -7.254   2.231  65.627  1.00  0.00    -0.065 A  
HETATM   22  C   UNL     1      -7.955   2.233  67.938  1.00  0.00    -0.062 A  
HETATM   23  C   UNL     1      -7.589   1.536  66.787  1.00  0.00    -0.060 A  
ENDBRANCH  15  18
BRANCH  17  24
HETATM   24  C   UNL     1      -8.116   7.973  65.533  1.00  0.00    -0.128 A  
HETATM   25  C   UNL     1      -8.017  10.769  65.358  1.00  0.00    -0.027 A  
HETATM   26  C   UNL     1      -7.543   8.595  64.415  1.00  0.00    -0.115 A  
HETATM   27  C   UNL     1      -7.491   9.989  64.330  1.00  0.00    -0.137 A  
HETATM   28  C   UNL     1      -8.617  10.162  66.458  1.00  0.00    -0.132 A  
HETATM   29  C   UNL     1      -8.672   8.766  66.546  1.00  0.00    -0.137 A  
ENDBRANCH  17  24
ENDBRANCH  12  15
ENDBRANCH   8   9
ENDBRANCH   7   8
ENDBRANCH   6   7
ENDBRANCH   3   6
ENDBRANCH   2   3
TORSDOF 9
ENDMDL
MODEL      224
REMARK 921   NORMALIZED FREE ENERGY PREDICTED BY IDOCK:    2.04 KCAL/MOL
REMARK 922        TOTAL FREE ENERGY PREDICTED BY IDOCK:    0.97 KCAL/MOL
REMARK 923 INTER-LIGAND FREE ENERGY PREDICTED BY IDOCK:   -1.55 KCAL/MOL
REMARK 924 INTRA-LIGAND FREE ENERGY PREDICTED BY IDOCK:    2.52 KCAL/MOL
REMARK 927      BINDING AFFINITY PREDICTED BY RF-SCORE:    0.00 PKD
ROOT
HETATM    1  C   UNL     1      -8.604  15.160  67.149  1.00  0.00    -0.247 C  
HETATM    2  C   UNL     1      -8.316  15.718  68.540  1.00  0.00    -0.175 C  
ENDROOT
BRANCH   2   3
HETATM    3  N   UNL     1      -6.946  15.478  69.018  1.00  0.00    -0.131 NA 
BRANCH   3   4
HETATM    4  C   UNL     1      -5.893  16.003  68.136  1.00  0.00    -0.111 C  
HETATM    5  C   UNL     1      -5.844  17.519  67.982  1.00  0.00    -0.148 C  
ENDBRANCH   3   4
BRANCH   3   6
HETATM    6  C   UNL     1      -6.823  15.906  70.430  1.00  0.00     0.615 C  
BRANCH   6   7
HETATM    7  C   UNL     1      -5.962  14.962  71.276  1.00  0.00     0.172 C  
BRANCH   7   8
HETATM    8  O   UNL     1      -5.137  14.139  70.439  1.00  0.00    -0.093 OA 
BRANCH   8   9
HETATM    9  C   UNL     1      -5.742  12.973  70.040  1.00  0.00    -0.134 A  
HETATM   10  C   UNL     1      -5.128  11.717  70.057  1.00  0.00    -0.075 A  
HETATM   11  C   UNL     1      -5.785  10.606  69.536  1.00  0.00    -0.039 A  
HETATM   12  C   UNL     1      -7.081  10.720  69.029  1.00  0.00    -0.091 A  
HETATM   13  C   UNL     1      -7.721  11.967  69.060  1.00  0.00     0.096 A  
HETATM   14  C   UNL     1      -7.052  13.087  69.570  1.00  0.00     0.273 A  
BRANCH  12  15
HETATM   15  C   UNL     1      -7.731   9.515  68.456  1.00  0.00    -0.081 C  
HETATM   16 CL   UNL     1      -8.366   6.865  68.530  1.00  0.00    -0.120 Cl 
HETATM   17  C   UNL     1      -7.741   8.360  69.167  1.00  0.00    -0.092 C  
BRANCH  15  18
HETATM   18  C   UNL     1      -8.293   9.561  67.080  1.00  0.00    -0.131 A  
HETATM   19  C   UNL     1      -8.083   8.500  66.188  1.00  0.00    -0.105 A  
HETATM   20  C   UNL     1      -9.025  10.677  66.653  1.00  0.00    -0.162 A  
HETATM   21  C   UNL     1      -9.549  10.726  65.357  1.00  0.00    -0.272 A  
HETATM   22  C   UNL     1      -8.607   8.552  64.893  1.00  0.00    -0.135 A  
HETATM   23  C   UNL     1      -9.340   9.663  64.481  1.00  0.00    -0.247 A  
ENDBRANCH  15  18
BRANCH  17  24
HETATM   24  C   UNL     1      -7.236   8.236  70.551  1.00  0.00    -0.045 A  
HETATM   25  C   UNL     1      -6.234   8.141  73.167  1.00  0.00    -0.083 A  
HETATM   26  C   UNL     1      -7.935   8.845  71.602  1.00  0.00    -0.080 A  
HETATM   27  C   UNL     1      -7.433   8.800  72.906  1.00  0.00     0.157 A  
HETATM   28  C   UNL     1      -5.547   7.505  72.136  1.00  0.00    -0.036 A  
HETATM   29  C   UNL     1      -6.048   7.547  70.829  1.00  0.00    -0.035 A  
ENDBRANCH  17  24
ENDBRANCH  12  15
ENDBRANCH   8   9
ENDBRANCH   7   8
ENDBRANCH   6   7
ENDBRANCH   3   6
ENDBRANCH   2   3
TORSDOF 9
ENDMDL
MODEL      225
REMARK 921   NORMALIZED FREE ENERGY PREDICTED BY IDOCK:    2.41 KCAL/MOL
REMARK 922        TOTAL FREE ENERGY PREDICTED BY IDOCK:    1.53 KCAL/MOL
REMARK 923 INTER-LIGAND FREE ENERGY PREDICTED BY IDOCK:   -0.40 KCAL/MOL
REMARK 924 INTRA-LIGAND FREE ENERGY PREDICTED BY IDOCK:    1.93 KCAL/MOL
REMARK 927      BINDING AFFINITY PREDICTED BY RF-SCORE:    0.00 PKD
ROOT
HETATM    1  C   UNL     1      -9.981   9.769  64.619  1.00  0.00     0.088 C  
HETATM    2  C   UNL     1     -10.925  10.343  63.566  1.00  0.00     1.622 C  
ENDROOT
BRANCH   2   3
HETATM    3  N   UNL     1     -11.237  11.769  63.744  1.00  0.00    -0.410 NA 
BRANCH   3   4
HETATM    4  C   UNL     1     -12.221  12.300  62.788  1.00  0.00     0.645 C  
HETATM    5  C   UNL     1     -12.647  13.748  63.002  1.00  0.00     0.797 C  
ENDBRANCH   3   4
BRANCH   3   6
HETATM    6  C   UNL     1     -11.564  12.041  65.162  1.00  0.00    -0.272 C  
BRANCH   6   7
HETATM    7  C   UNL     1     -10.449  12.780  65.910  1.00  0.00    -0.277 C  
BRANCH   7   8
HETATM    8  O   UNL     1     -10.662  14.198  65.867  1.00  0.00    -0.287 OA 
BRANCH   8   9
HETATM    9  C   UNL     1      -9.725  14.920  66.564  1.00  0.00    -0.276 A  
HETATM   10  C   UNL     1      -8.357  14.924  66.279  1.00  0.00     0.433 A  
HETATM   11  C   UNL     1      -7.468  15.607  67.106  1.00  0.00    -0.253 A  
HETATM   12  C   UNL     1      -7.935  16.333  68.204  1.00  0.00    -0.157 A  
HETATM   13  C   UNL     1      -9.312  16.377  68.460  1.00  0.00    -0.225 A  
HETATM   14  C   UNL     1     -10.203  15.675  67.637  1.00  0.00    -0.261 A  
BRANCH  12  15
HETATM   15  C   UNL     1      -6.949  17.021  69.075  1.00  0.00    -0.229 C  
HETATM   16 CL   UNL     1      -5.131  17.024  71.107  1.00  0.00    -0.195 Cl 
HETATM   17  C   UNL     1      -6.220  16.295  69.960  1.00  0.00    -0.109 C  
BRANCH  15  18
HETATM   18  C   UNL     1      -6.824  18.501  69.026  1.00  0.00    -0.292 A  
HETATM   19  C   UNL     1      -6.141  19.193  70.038  1.00  0.00    -0.241 A  
HETATM   20  C   UNL     1      -7.405  19.225  67.977  1.00  0.00    -0.297 A  
HETATM   21  C   UNL     1      -7.295  20.619  67.934  1.00  0.00    -0.217 A  
HETATM   22  C   UNL     1      -6.033  20.586  69.992  1.00  0.00    -0.311 A  
HETATM   23  C   UNL     1      -6.609  21.296  68.940  1.00  0.00     0.997 A  
ENDBRANCH  15  18
BRANCH  17  24
HETATM   24  C   UNL     1      -6.257  14.819  70.049  1.00  0.00    -0.158 A  
HETATM   25  C   UNL     1      -6.189  12.020  70.171  1.00  0.00    -0.075 A  
HETATM   26  C   UNL     1      -5.577  14.170  71.089  1.00  0.00    -0.209 A  
HETATM   27  C   UNL     1      -5.541  12.775  71.147  1.00  0.00    -0.068 A  
HETATM   28  C   UNL     1      -6.895  12.655  69.152  1.00  0.00    -0.057 A  
HETATM   29  C   UNL     1      -6.935  14.053  69.092  1.00  0.00    -0.103 A  
ENDBRANCH  17  24
ENDBRANCH  12  15
ENDBRANCH   8   9
ENDBRANCH   7   8
ENDBRANCH   6   7
ENDBRANCH   3   6
ENDBRANCH   2   3
TORSDOF 9
ENDMDL
MODEL      226
REMARK 921   NORMALIZED FREE ENERGY PREDICTED BY IDOCK:    3.19 KCAL/MOL
REMARK 922        TOTAL FREE ENERGY PREDICTED BY IDOCK:    2.74 KCAL/MOL
REMARK 923 INTER-LIGAND FREE ENERGY PREDICTED BY IDOCK:   -0.82 KCAL/MOL
REMARK 924 INTRA-LIGAND FREE ENERGY PREDICTED BY IDOCK:    3.55 KCAL/MOL
REMARK 927      BINDING AFFINITY PREDICTED BY RF-SCORE:    0.00 PKD
ROOT
HETATM    1  C   UNL     1      -5.170   6.732  70.738  1.00  0.00    -0.023 C  
HETATM    2  C   UNL     1      -5.264   5.216  70.592  1.00  0.00    -0.004 C  
ENDROOT
BRANCH   2   3
HETATM    3  N   UNL     1      -6.487   4.627  71.159  1.00  0.00    -0.022 NA 
BRANCH   3   4
HETATM    4  C   UNL     1      -7.250   5.532  72.031  1.00  0.00    -0.088 C  
HETATM    5  C   UNL     1      -8.062   4.869  73.137  1.00  0.00    -0.101 C  
ENDBRANCH   3   4
BRANCH   3   6
HETATM    6  C   UNL     1      -7.290   4.002  70.084  1.00  0.00    -0.045 C  
BRANCH   6   7
HETATM    7  C   UNL     1      -8.801   4.099  70.323  1.00  0.00    -0.085 C  
BRANCH   7   8
HETATM    8  O   UNL     1      -9.219   5.469  70.382  1.00  0.00    -0.145 OA 
BRANCH   8   9
HETATM    9  C   UNL     1      -9.224   6.100  69.162  1.00  0.00    -0.127 A  
HETATM   10  C   UNL     1     -10.377   6.531  68.500  1.00  0.00    -0.219 A  
HETATM   11  C   UNL     1     -10.292   7.069  67.218  1.00  0.00    -0.331 A  
HETATM   12  C   UNL     1      -9.052   7.224  66.594  1.00  0.00    -0.181 A  
HETATM   13  C   UNL     1      -7.889   6.842  67.277  1.00  0.00    -0.110 A  
HETATM   14  C   UNL     1      -7.978   6.287  68.560  1.00  0.00    -0.105 A  
BRANCH  12  15
HETATM   15  C   UNL     1      -9.012   7.773  65.215  1.00  0.00     0.162 C  
HETATM   16 CL   UNL     1      -8.389   7.573  62.568  1.00  0.00    -0.067 Cl 
HETATM   17  C   UNL     1      -8.589   6.985  64.195  1.00  0.00     0.449 C  
BRANCH  15  18
HETATM   18  C   UNL     1      -9.360   9.198  64.975  1.00  0.00    -0.120 A  
HETATM   19  C   UNL     1      -8.390  10.102  64.520  1.00  0.00    -0.168 A  
HETATM   20  C   UNL     1     -10.660   9.659  65.221  1.00  0.00     1.017 A  
HETATM   21  C   UNL     1     -10.988  11.001  65.004  1.00  0.00    -0.117 A  
HETATM   22  C   UNL     1      -8.720  11.443  64.304  1.00  0.00     0.415 A  
HETATM   23  C   UNL     1     -10.018  11.890  64.544  1.00  0.00    -0.255 A  
ENDBRANCH  15  18
BRANCH  17  24
HETATM   24  C   UNL     1      -8.257   5.551  64.340  1.00  0.00    -0.127 A  
HETATM   25  C   UNL     1      -7.488   2.869  64.610  1.00  0.00    -0.075 A  
HETATM   26  C   UNL     1      -7.779   5.069  65.566  1.00  0.00    -0.087 A  
HETATM   27  C   UNL     1      -7.393   3.733  65.699  1.00  0.00    -0.072 A  
HETATM   28  C   UNL     1      -7.991   3.329  63.396  1.00  0.00    -0.077 A  
HETATM   29  C   UNL     1      -8.381   4.667  63.260  1.00  0.00    -0.108 A  
ENDBRANCH  17  24
ENDBRANCH  12  15
ENDBRANCH   8   9
ENDBRANCH   7   8
ENDBRANCH   6   7
ENDBRANCH   3   6
ENDBRANCH   2   3
TORSDOF 9
ENDMDL
MODEL      227
REMARK 921   NORMALIZED FREE ENERGY PREDICTED BY IDOCK:    4.14 KCAL/MOL
REMARK 922        TOTAL FREE ENERGY PREDICTED BY IDOCK:    4.18 KCAL/MOL
REMARK 923 INTER-LIGAND FREE ENERGY PREDICTED BY IDOCK:   -0.98 KCAL/MOL
REMARK 924 INTRA-LIGAND FREE ENERGY PREDICTED BY IDOCK:    5.16 KCAL/MOL
REMARK 927      BINDING AFFINITY PREDICTED BY RF-SCORE:    0.00 PKD
ROOT
HETATM    1  C   UNL     1     -13.455   6.765  70.714  1.00  0.00     0.632 C  
HETATM    2  C   UNL     1     -13.297   6.959  72.219  1.00  0.00     0.209 C  
ENDROOT
BRANCH   2   3
HETATM    3  N   UNL     1     -11.959   7.406  72.636  1.00  0.00    -0.130 NA 
BRANCH   3   4
HETATM    4  C   UNL     1     -11.062   6.322  73.064  1.00  0.00    -0.207 C  
HETATM    5  C   UNL     1      -9.610   6.439  72.616  1.00  0.00    -0.150 C  
ENDBRANCH   3   4
BRANCH   3   6
HETATM    6  C   UNL     1     -11.382   8.298  71.606  1.00  0.00    -0.272 C  
BRANCH   6   7
HETATM    7  C   UNL     1     -12.259   8.427  70.355  1.00  0.00     0.378 C  
BRANCH   7   8
HETATM    8  O   UNL     1     -12.345   7.174  69.664  1.00  0.00     0.505 OA 
BRANCH   8   9
HETATM    9  C   UNL     1     -11.213   6.852  68.957  1.00  0.00    -0.072 A  
HETATM   10  C   UNL     1     -10.407   7.779  68.290  1.00  0.00    -0.239 A  
HETATM   11  C   UNL     1      -9.336   7.348  67.512  1.00  0.00    -0.147 A  
HETATM   12  C   UNL     1      -9.025   5.989  67.421  1.00  0.00    -0.108 A  
HETATM   13  C   UNL     1      -9.799   5.061  68.132  1.00  0.00    -0.203 A  
HETATM   14  C   UNL     1     -10.886   5.496  68.902  1.00  0.00    -0.132 A  
BRANCH  12  15
HETATM   15  C   UNL     1      -7.894   5.573  66.555  1.00  0.00    -0.101 C  
HETATM   16 CL   UNL     1      -5.362   4.624  66.203  1.00  0.00    -0.009 Cl 
HETATM   17  C   UNL     1      -6.787   5.027  67.120  1.00  0.00    -0.056 C  
BRANCH  15  18
HETATM   18  C   UNL     1      -7.949   5.828  65.092  1.00  0.00    -0.119 A  
HETATM   19  C   UNL     1      -8.365   4.822  64.208  1.00  0.00    -0.127 A  
HETATM   20  C   UNL     1      -7.565   7.074  64.577  1.00  0.00    -0.107 A  
HETATM   21  C   UNL     1      -7.609   7.314  63.200  1.00  0.00    -0.113 A  
HETATM   22  C   UNL     1      -8.407   5.065  62.832  1.00  0.00    -0.110 A  
HETATM   23  C   UNL     1      -8.031   6.310  62.330  1.00  0.00    -0.104 A  
ENDBRANCH  15  18
BRANCH  17  24
HETATM   24  C   UNL     1      -6.663   4.708  68.558  1.00  0.00    -0.050 A  
HETATM   25  C   UNL     1      -6.282   4.104  71.269  1.00  0.00    -0.015 A  
HETATM   26  C   UNL     1      -6.257   5.704  69.458  1.00  0.00    -0.032 A  
HETATM   27  C   UNL     1      -6.065   5.401  70.808  1.00  0.00    -0.022 A  
HETATM   28  C   UNL     1      -6.716   3.114  70.390  1.00  0.00    -0.033 A  
HETATM   29  C   UNL     1      -6.912   3.415  69.036  1.00  0.00    -0.045 A  
ENDBRANCH  17  24
ENDBRANCH  12  15
ENDBRANCH   8   9
ENDBRANCH   7   8
ENDBRANCH   6   7
ENDBRANCH   3   6
ENDBRANCH   2   3
TORSDOF 9
ENDMDL
MODEL      228
REMARK 921   NORMALIZED FREE ENERGY PREDICTED BY IDOCK:   10.11 KCAL/MOL
REMARK 922        TOTAL FREE ENERGY PREDICTED BY IDOCK:   13.29 KCAL/MOL
REMARK 923 INTER-LIGAND FREE ENERGY PREDICTED BY IDOCK:   12.51 KCAL/MOL
REMARK 924 INTRA-LIGAND FREE ENERGY PREDICTED BY IDOCK:    0.78 KCAL/MOL
REMARK 927      BINDING AFFINITY PREDICTED BY RF-SCORE:    0.00 PKD
ROOT
HETATM    1  C   UNL     1     -10.087  18.784  70.133  1.00  0.00     1.148 C  
HETATM    2  C   UNL     1     -10.280  18.383  71.592  1.00  0.00     4.222 C  
ENDROOT
BRANCH   2   3
HETATM    3  N   UNL     1     -10.553  16.952  71.798  1.00  0.00     2.237 NA 
BRANCH   3   4
HETATM    4  C   UNL     1     -11.861  16.664  72.404  1.00  0.00    -0.169 C  
HETATM    5  C   UNL     1     -12.928  17.739  72.234  1.00  0.00     8.908 C  
ENDBRANCH   3   4
BRANCH   3   6
HETATM    6  C   UNL     1     -10.285  16.203  70.549  1.00  0.00     0.549 C  
BRANCH   6   7
HETATM    7  C   UNL     1      -8.934  16.548  69.913  1.00  0.00     0.939 C  
BRANCH   7   8
HETATM    8  O   UNL     1      -8.979  16.359  68.493  1.00  0.00    -0.206 OA 
BRANCH   8   9
HETATM    9  C   UNL     1      -9.160  15.051  68.113  1.00  0.00    -0.178 A  
HETATM   10  C   UNL     1      -8.141  14.097  68.053  1.00  0.00    -0.149 A  
HETATM   11  C   UNL     1      -8.401  12.821  67.558  1.00  0.00    -0.179 A  
HETATM   12  C   UNL     1      -9.690  12.465  67.156  1.00  0.00    -0.207 A  
HETATM   13  C   UNL     1     -10.726  13.403  67.266  1.00  0.00    -0.265 A  
HETATM   14  C   UNL     1     -10.459  14.690  67.750  1.00  0.00    -0.246 A  
BRANCH  12  15
HETATM   15  C   UNL     1      -9.914  11.105  66.606  1.00  0.00    -0.244 C  
HETATM   16 CL   UNL     1     -10.534   8.466  66.902  1.00  0.00    -0.386 Cl 
HETATM   17  C   UNL     1     -10.360  10.118  67.424  1.00  0.00    -0.238 C  
BRANCH  15  18
HETATM   18  C   UNL     1      -9.575  10.815  65.187  1.00  0.00    -0.295 A  
HETATM   19  C   UNL     1      -8.798   9.696  64.855  1.00  0.00    -0.234 A  
HETATM   20  C   UNL     1     -10.012  11.670  64.167  1.00  0.00    -0.311 A  
HETATM   21  C   UNL     1      -9.688  11.403  62.833  1.00  0.00    -0.344 A  
HETATM   22  C   UNL     1      -8.475   9.432  63.520  1.00  0.00    -0.202 A  
HETATM   23  C   UNL     1      -8.921  10.285  62.512  1.00  0.00    -0.283 A  
ENDBRANCH  15  18
BRANCH  17  24
HETATM   24  C   UNL     1     -10.753  10.328  68.834  1.00  0.00    -0.256 A  
HETATM   25  C   UNL     1     -11.561  10.591  71.505  1.00  0.00     0.217 A  
HETATM   26  C   UNL     1     -10.072   9.647  69.853  1.00  0.00    -0.279 A  
HETATM   27  C   UNL     1     -10.477   9.777  71.183  1.00  0.00    -0.149 A  
HETATM   28  C   UNL     1     -12.225  11.297  70.504  1.00  0.00    -0.474 A  
HETATM   29  C   UNL     1     -11.820  11.171  69.170  1.00  0.00    -0.419 A  
ENDBRANCH  17  24
ENDBRANCH  12  15
ENDBRANCH   8   9
ENDBRANCH   7   8
ENDBRANCH   6   7
ENDBRANCH   3   6
ENDBRANCH   2   3
TORSDOF 9
ENDMDL
MODEL      229
REMARK 921   NORMALIZED FREE ENERGY PREDICTED BY IDOCK:   11.16 KCAL/MOL
REMARK 922        TOTAL FREE ENERGY PREDICTED BY IDOCK:   14.89 KCAL/MOL
REMARK 923 INTER-LIGAND FREE ENERGY PREDICTED BY IDOCK:   13.10 KCAL/MOL
REMARK 924 INTRA-LIGAND FREE ENERGY PREDICTED BY IDOCK:    1.79 KCAL/MOL
REMARK 927      BINDING AFFINITY PREDICTED BY RF-SCORE:    0.00 PKD
ROOT
HETATM    1  C   UNL     1      -9.925  10.130  66.669  1.00  0.00    -0.272 C  
HETATM    2  C   UNL     1      -9.483  10.675  68.024  1.00  0.00    -0.158 C  
ENDROOT
BRANCH   2   3
HETATM    3  N   UNL     1      -8.468  11.737  67.949  1.00  0.00    -0.147 NA 
BRANCH   3   4
HETATM    4  C   UNL     1      -9.003  13.067  67.624  1.00  0.00    -0.192 C  
HETATM    5  C   UNL     1     -10.281  13.089  66.793  1.00  0.00    -0.246 C  
ENDBRANCH   3   4
BRANCH   3   6
HETATM    6  C   UNL     1      -7.617  11.707  69.160  1.00  0.00     0.044 C  
BRANCH   6   7
HETATM    7  C   UNL     1      -6.386  10.805  69.013  1.00  0.00    -0.048 C  
BRANCH   7   8
HETATM    8  O   UNL     1      -6.609   9.800  68.014  1.00  0.00    -0.060 OA 
BRANCH   8   9
HETATM    9  C   UNL     1      -7.144   8.636  68.509  1.00  0.00    -0.073 A  
HETATM   10  C   UNL     1      -7.075   8.241  69.847  1.00  0.00    -0.055 A  
HETATM   11  C   UNL     1      -7.556   6.993  70.238  1.00  0.00    -0.087 A  
HETATM   12  C   UNL     1      -8.153   6.140  69.307  1.00  0.00    -0.109 A  
HETATM   13  C   UNL     1      -8.272   6.556  67.974  1.00  0.00    -0.116 A  
HETATM   14  C   UNL     1      -7.773   7.805  67.581  1.00  0.00    -0.121 A  
BRANCH  12  15
HETATM   15  C   UNL     1      -8.623   4.808  69.762  1.00  0.00    -0.101 C  
HETATM   16 CL   UNL     1     -10.551   2.894  70.000  1.00  0.00     2.128 Cl 
HETATM   17  C   UNL     1      -9.864   4.383  69.413  1.00  0.00    -0.168 C  
BRANCH  15  18
HETATM   18  C   UNL     1      -7.767   3.986  70.658  1.00  0.00    -0.048 A  
HETATM   19  C   UNL     1      -7.821   2.586  70.609  1.00  0.00    -0.046 A  
HETATM   20  C   UNL     1      -6.909   4.604  71.577  1.00  0.00    -0.038 A  
HETATM   21  C   UNL     1      -6.108   3.833  72.426  1.00  0.00    -0.009 A  
HETATM   22  C   UNL     1      -7.019   1.818  71.458  1.00  0.00    -0.027 A  
HETATM   23  C   UNL     1      -6.163   2.443  72.364  1.00  0.00    -0.013 A  
ENDBRANCH  15  18
BRANCH  17  24
HETATM   24  C   UNL     1     -10.765   5.119  68.501  1.00  0.00     0.132 A  
HETATM   25  C   UNL     1     -12.357   6.536  66.681  1.00  0.00     4.998 A  
HETATM   26  C   UNL     1     -11.188   4.517  67.308  1.00  0.00     2.833 A  
HETATM   27  C   UNL     1     -11.979   5.225  66.400  1.00  0.00     3.273 A  
HETATM   28  C   UNL     1     -11.969   7.134  67.878  1.00  0.00     2.186 A  
HETATM   29  C   UNL     1     -11.178   6.426  68.791  1.00  0.00    -0.358 A  
ENDBRANCH  17  24
ENDBRANCH  12  15
ENDBRANCH   8   9
ENDBRANCH   7   8
ENDBRANCH   6   7
ENDBRANCH   3   6
ENDBRANCH   2   3
TORSDOF 9
ENDMDL
MODEL      230
REMARK 921   NORMALIZED FREE ENERGY PREDICTED BY IDOCK:   21.07 KCAL/MOL
REMARK 922        TOTAL FREE ENERGY PREDICTED BY IDOCK:   30.02 KCAL/MOL
REMARK 923 INTER-LIGAND FREE ENERGY PREDICTED BY IDOCK:   25.79 KCAL/MOL
REMARK 924 INTRA-LIGAND FREE ENERGY PREDICTED BY IDOCK:    4.23 KCAL/MOL
REMARK 927      BINDING AFFINITY PREDICTED BY RF-SCORE:    0.00 PKD
ROOT
HETATM    1  C   UNL     1      -9.214  16.202  72.180  1.00  0.00     8.552 C  
HETATM    2  C   UNL     1     -10.153  15.193  71.525  1.00  0.00     1.773 C  
ENDROOT
BRANCH   2   3
HETATM    3  N   UNL     1     -11.498  15.142  72.117  1.00  0.00    -0.408 NA 
BRANCH   3   4
HETATM    4  C   UNL     1     -11.602  14.299  73.318  1.00  0.00     1.138 C  
HETATM    5  C   UNL     1     -12.373  14.897  74.489  1.00  0.00    -0.054 C  
ENDBRANCH   3   4
BRANCH   3   6
HETATM    6  C   UNL     1     -12.024  16.514  72.293  1.00  0.00    -0.289 C  
BRANCH   6   7
HETATM    7  C   UNL     1     -12.310  17.228  70.966  1.00  0.00     4.977 C  
BRANCH   7   8
HETATM    8  O   UNL     1     -12.893  16.323  70.019  1.00  0.00     0.186 OA 
BRANCH   8   9
HETATM    9  C   UNL     1     -11.971  15.589  69.314  1.00  0.00    -0.316 A  
HETATM   10  C   UNL     1     -10.606  15.882  69.254  1.00  0.00    -0.252 A  
HETATM   11  C   UNL     1      -9.763  15.140  68.429  1.00  0.00    -0.212 A  
HETATM   12  C   UNL     1     -10.261  14.068  67.685  1.00  0.00    -0.241 A  
HETATM   13  C   UNL     1     -11.620  13.738  67.785  1.00  0.00    -0.381 A  
HETATM   14  C   UNL     1     -12.468  14.495  68.603  1.00  0.00     0.137 A  
BRANCH  12  15
HETATM   15  C   UNL     1      -9.332  13.326  66.797  1.00  0.00    -0.254 C  
HETATM   16 CL   UNL     1      -7.527  13.226  64.756  1.00  0.00     9.422 Cl 
HETATM   17  C   UNL     1      -8.554  14.011  65.922  1.00  0.00     1.240 C  
BRANCH  15  18
HETATM   18  C   UNL     1      -9.319  11.839  66.816  1.00  0.00    -0.199 A  
HETATM   19  C   UNL     1      -8.114  11.135  66.671  1.00  0.00    -0.159 A  
HETATM   20  C   UNL     1     -10.515  11.123  66.960  1.00  0.00    -0.277 A  
HETATM   21  C   UNL     1     -10.505   9.725  66.971  1.00  0.00    -0.295 A  
HETATM   22  C   UNL     1      -8.108   9.737  66.682  1.00  0.00    -0.116 A  
HETATM   23  C   UNL     1      -9.302   9.035  66.834  1.00  0.00    -0.203 A  
ENDBRANCH  15  18
BRANCH  17  24
HETATM   24  C   UNL     1      -8.481  15.487  65.860  1.00  0.00     0.574 A  
HETATM   25  C   UNL     1      -8.315  18.285  65.888  1.00  0.00     0.093 A  
HETATM   26  C   UNL     1      -7.235  16.124  65.942  1.00  0.00     1.773 A  
HETATM   27  C   UNL     1      -7.153  17.519  65.958  1.00  0.00    -0.299 A  
HETATM   28  C   UNL     1      -9.556  17.663  65.776  1.00  0.00     0.146 A  
HETATM   29  C   UNL     1      -9.641  16.266  65.756  1.00  0.00    -0.266 A  
ENDBRANCH  17  24
ENDBRANCH  12  15
ENDBRANCH   8   9
ENDBRANCH   7   8
ENDBRANCH   6   7
ENDBRANCH   3   6
ENDBRANCH   2   3
TORSDOF 9
ENDMDL
MODEL      231
REMARK 921   NORMALIZED FREE ENERGY PREDICTED BY IDOCK:   25.88 KCAL/MOL
REMARK 922        TOTAL FREE ENERGY PREDICTED BY IDOCK:   37.35 KCAL/MOL
REMARK 923 INTER-LIGAND FREE ENERGY PREDICTED BY IDOCK:   28.18 KCAL/MOL
REMARK 924 INTRA-LIGAND FREE ENERGY PREDICTED BY IDOCK:    9.17 KCAL/MOL
REMARK 927      BINDING AFFINITY PREDICTED BY RF-SCORE:    0.00 PKD
ROOT
HETATM    1  C   UNL     1     -13.879  13.020  67.023  1.00  0.00     8.833 C  
HETATM    2  C   UNL     1     -13.587  13.663  68.376  1.00  0.00     6.073 C  
ENDROOT
BRANCH   2   3
HETATM    3  N   UNL     1     -12.609  14.760  68.328  1.00  0.00     0.337 NA 
BRANCH   3   4
HETATM    4  C   UNL     1     -12.612  15.522  67.069  1.00  0.00     1.782 C  
HETATM    5  C   UNL     1     -12.929  14.728  65.808  1.00  0.00     0.411 C  
ENDBRANCH   3   4
BRANCH   3   6
HETATM    6  C   UNL     1     -12.730  15.598  69.542  1.00  0.00     0.290 C  
BRANCH   6   7
HETATM    7  C   UNL     1     -13.435  16.935  69.289  1.00  0.00     6.842 C  
BRANCH   7   8
HETATM    8  O   UNL     1     -12.931  17.557  68.099  1.00  0.00     3.757 OA 
BRANCH   8   9
HETATM    9  C   UNL     1     -11.612  17.273  67.841  1.00  0.00     0.758 A  
HETATM   10  C   UNL     1     -10.660  16.982  68.821  1.00  0.00    -0.346 A  
HETATM   11  C   UNL     1      -9.323  16.808  68.473  1.00  0.00    -0.246 A  
HETATM   12  C   UNL     1      -8.923  16.878  67.136  1.00  0.00    -0.219 A  
HETATM   13  C   UNL     1      -9.884  17.116  66.145  1.00  0.00    -0.280 A  
HETATM   14  C   UNL     1     -11.226  17.307  66.500  1.00  0.00     0.667 A  
BRANCH  12  15
HETATM   15  C   UNL     1      -7.482  16.717  66.815  1.00  0.00    -0.279 C  
HETATM   16 CL   UNL     1      -5.165  15.281  66.830  1.00  0.00     1.205 Cl 
HETATM   17  C   UNL     1      -6.873  15.529  67.056  1.00  0.00     0.096 C  
BRANCH  15  18
HETATM   18  C   UNL     1      -6.703  17.877  66.308  1.00  0.00    -0.294 A  
HETATM   19  C   UNL     1      -6.147  17.854  65.020  1.00  0.00     0.325 A  
HETATM   20  C   UNL     1      -6.498  19.000  67.120  1.00  0.00    -0.190 A  
HETATM   21  C   UNL     1      -5.758  20.089  66.647  1.00  0.00    -0.180 A  
HETATM   22  C   UNL     1      -5.408  18.944  64.551  1.00  0.00    -0.262 A  
HETATM   23  C   UNL     1      -5.216  20.059  65.364  1.00  0.00    -0.185 A  
ENDBRANCH  15  18
BRANCH  17  24
HETATM   24  C   UNL     1      -7.580  14.318  67.526  1.00  0.00    -0.202 A  
HETATM   25  C   UNL     1      -8.818  11.941  68.347  1.00  0.00    -0.159 A  
HETATM   26  C   UNL     1      -7.020  13.542  68.551  1.00  0.00    -0.102 A  
HETATM   27  C   UNL     1      -7.637  12.356  68.958  1.00  0.00     0.121 A  
HETATM   28  C   UNL     1      -9.400  12.720  67.349  1.00  0.00    -0.193 A  
HETATM   29  C   UNL     1      -8.786  13.910  66.941  1.00  0.00    -0.177 A  
ENDBRANCH  17  24
ENDBRANCH  12  15
ENDBRANCH   8   9
ENDBRANCH   7   8
ENDBRANCH   6   7
ENDBRANCH   3   6
ENDBRANCH   2   3
TORSDOF 9
ENDMDL
MODEL      232
REMARK 921   NORMALIZED FREE ENERGY PREDICTED BY IDOCK:   27.89 KCAL/MOL
REMARK 922        TOTAL FREE ENERGY PREDICTED BY IDOCK:   40.42 KCAL/MOL
REMARK 923 INTER-LIGAND FREE ENERGY PREDICTED BY IDOCK:   12.96 KCAL/MOL
REMARK 924 INTRA-LIGAND FREE ENERGY PREDICTED BY IDOCK:   27.47 KCAL/MOL
REMARK 927      BINDING AFFINITY PREDICTED BY RF-SCORE:    0.00 PKD
ROOT
HETATM    1  C   UNL     1     -10.962  10.679  68.402  1.00  0.00    -0.303 C  
HETATM    2  C   UNL     1     -12.407  10.241  68.623  1.00  0.00     1.291 C  
ENDROOT
BRANCH   2   3
HETATM    3  N   UNL     1     -12.908  10.465  69.987  1.00  0.00    -0.067 NA 
BRANCH   3   4
HETATM    4  C   UNL     1     -14.129   9.715  70.318  1.00  0.00     1.321 C  
HETATM    5  C   UNL     1     -14.323   9.369  71.789  1.00  0.00     0.001 C  
ENDBRANCH   3   4
BRANCH   3   6
HETATM    6  C   UNL     1     -11.808  10.292  70.963  1.00  0.00    -0.377 C  
BRANCH   6   7
HETATM    7  C   UNL     1     -11.657  11.478  71.922  1.00  0.00     3.039 C  
BRANCH   7   8
HETATM    8  O   UNL     1     -10.994  12.573  71.276  1.00  0.00     3.224 OA 
BRANCH   8   9
HETATM    9  C   UNL     1     -10.762  12.368  69.938  1.00  0.00     0.847 A  
HETATM   10  C   UNL     1     -10.234  11.193  69.397  1.00  0.00    -0.041 A  
HETATM   11  C   UNL     1      -9.938  11.115  68.039  1.00  0.00    -0.190 A  
HETATM   12  C   UNL     1     -10.204  12.192  67.191  1.00  0.00    -0.226 A  
HETATM   13  C   UNL     1     -10.784  13.353  67.720  1.00  0.00    -0.259 A  
HETATM   14  C   UNL     1     -11.067  13.435  69.090  1.00  0.00    -0.261 A  
BRANCH  12  15
HETATM   15  C   UNL     1      -9.843  12.075  65.756  1.00  0.00    -0.263 C  
HETATM   16 CL   UNL     1      -8.062  11.530  63.764  1.00  0.00     0.987 Cl 
HETATM   17  C   UNL     1      -8.624  11.589  65.412  1.00  0.00     0.251 C  
BRANCH  15  18
HETATM   18  C   UNL     1     -10.784  12.563  64.713  1.00  0.00    -0.333 A  
HETATM   19  C   UNL     1     -10.352  13.460  63.726  1.00  0.00     0.609 A  
HETATM   20  C   UNL     1     -12.122  12.145  64.719  1.00  0.00    -0.368 A  
HETATM   21  C   UNL     1     -13.011  12.609  63.743  1.00  0.00    -0.071 A  
HETATM   22  C   UNL     1     -11.243  13.921  62.752  1.00  0.00     3.538 A  
HETATM   23  C   UNL     1     -12.570  13.494  62.762  1.00  0.00     1.137 A  
ENDBRANCH  15  18
BRANCH  17  24
HETATM   24  C   UNL     1      -7.643  11.052  66.380  1.00  0.00    -0.135 A  
HETATM   25  C   UNL     1      -5.795   9.905  68.147  1.00  0.00    -0.042 A  
HETATM   26  C   UNL     1      -6.323  10.818  65.973  1.00  0.00    -0.126 A  
HETATM   27  C   UNL     1      -5.403  10.244  66.854  1.00  0.00    -0.041 A  
HETATM   28  C   UNL     1      -7.096  10.163  68.572  1.00  0.00    -0.074 A  
HETATM   29  C   UNL     1      -8.020  10.740  67.693  1.00  0.00    -0.110 A  
ENDBRANCH  17  24
ENDBRANCH  12  15
ENDBRANCH   8   9
ENDBRANCH   7   8
ENDBRANCH   6   7
ENDBRANCH   3   6
ENDBRANCH   2   3
TORSDOF 9
ENDMDL
MODEL      233
REMARK 921   NORMALIZED FREE ENERGY PREDICTED BY IDOCK:   28.68 KCAL/MOL
REMARK 922        TOTAL FREE ENERGY PREDICTED BY IDOCK:   41.63 KCAL/MOL
REMARK 923 INTER-LIGAND FREE ENERGY PREDICTED BY IDOCK:   -1.59 KCAL/MOL
REMARK 924 INTRA-LIGAND FREE ENERGY PREDICTED BY IDOCK:   43.22 KCAL/MOL
REMARK 927      BINDING AFFINITY PREDICTED BY RF-SCORE:    0.00 PKD
ROOT
HETATM    1  C   UNL     1      -8.556  10.638  67.391  1.00  0.00    -0.122 C  
HETATM    2  C   UNL     1      -7.154  10.059  67.225  1.00  0.00    -0.085 C  
ENDROOT
BRANCH   2   3
HETATM    3  N   UNL     1      -7.078   8.901  66.322  1.00  0.00    -0.082 NA 
BRANCH   3   4
HETATM    4  C   UNL     1      -5.756   8.689  65.713  1.00  0.00    -0.046 C  
HETATM    5  C   UNL     1      -5.319   9.727  64.687  1.00  0.00    -0.066 C  
ENDBRANCH   3   4
BRANCH   3   6
HETATM    6  C   UNL     1      -7.636   7.703  66.990  1.00  0.00    -0.103 C  
BRANCH   6   7
HETATM    7  C   UNL     1      -8.675   6.964  66.141  1.00  0.00    -0.145 C  
BRANCH   7   8
HETATM    8  O   UNL     1      -9.727   7.852  65.739  1.00  0.00     0.111 OA 
BRANCH   8   9
HETATM    9  C   UNL     1      -9.525   9.157  66.118  1.00  0.00    -0.245 A  
HETATM   10  C   UNL     1     -10.537  10.022  66.543  1.00  0.00    -0.165 A  
HETATM   11  C   UNL     1     -10.253  11.359  66.809  1.00  0.00    -0.258 A  
HETATM   12  C   UNL     1      -8.948  11.844  66.697  1.00  0.00    -0.198 A  
HETATM   13  C   UNL     1      -7.921  10.965  66.324  1.00  0.00    -0.161 A  
HETATM   14  C   UNL     1      -8.212   9.625  66.041  1.00  0.00    -0.119 A  
BRANCH  12  15
HETATM   15  C   UNL     1      -8.697  13.283  66.961  1.00  0.00    -0.192 C  
HETATM   16 CL   UNL     1      -8.827  15.912  66.251  1.00  0.00    -0.368 Cl 
HETATM   17  C   UNL     1      -9.174  14.213  66.095  1.00  0.00    -0.055 C  
BRANCH  15  18
HETATM   18  C   UNL     1      -7.863  13.689  68.122  1.00  0.00    -0.143 A  
HETATM   19  C   UNL     1      -6.485  13.426  68.137  1.00  0.00    -0.119 A  
HETATM   20  C   UNL     1      -8.449  14.321  69.227  1.00  0.00     0.243 A  
HETATM   21  C   UNL     1      -7.667  14.697  70.324  1.00  0.00     0.715 A  
HETATM   22  C   UNL     1      -5.706  13.803  69.235  1.00  0.00    -0.083 A  
HETATM   23  C   UNL     1      -6.297  14.438  70.325  1.00  0.00    -0.158 A  
ENDBRANCH  15  18
BRANCH  17  24
HETATM   24  C   UNL     1     -10.039  13.899  64.938  1.00  0.00    -0.294 A  
HETATM   25  C   UNL     1     -11.780  13.257  62.837  1.00  0.00     0.764 A  
HETATM   26  C   UNL     1     -11.142  14.717  64.654  1.00  0.00    -0.345 A  
HETATM   27  C   UNL     1     -12.011  14.394  63.609  1.00  0.00     0.202 A  
HETATM   28  C   UNL     1     -10.670  12.455  63.090  1.00  0.00    -0.059 A  
HETATM   29  C   UNL     1      -9.796  12.777  64.135  1.00  0.00    -0.011 A  
ENDBRANCH  17  24
ENDBRANCH  12  15
ENDBRANCH   8   9
ENDBRANCH   7   8
ENDBRANCH   6   7
ENDBRANCH   3   6
ENDBRANCH   2   3
TORSDOF 9
ENDMDL
MODEL      234
REMARK 921   NORMALIZED FREE ENERGY PREDICTED BY IDOCK:   28.78 KCAL/MOL
REMARK 922        TOTAL FREE ENERGY PREDICTED BY IDOCK:   41.79 KCAL/MOL
REMARK 923 INTER-LIGAND FREE ENERGY PREDICTED BY IDOCK:   43.14 KCAL/MOL
REMARK 924 INTRA-LIGAND FREE ENERGY PREDICTED BY IDOCK:   -1.35 KCAL/MOL
REMARK 927      BINDING AFFINITY PREDICTED BY RF-SCORE:    0.00 PKD
ROOT
HETATM    1  C   UNL     1      -7.971   6.762  66.242  1.00  0.00    -0.108 C  
HETATM    2  C   UNL     1      -8.033   7.350  64.836  1.00  0.00    -0.128 C  
ENDROOT
BRANCH   2   3
HETATM    3  N   UNL     1      -9.154   8.275  64.614  1.00  0.00     0.417 NA 
BRANCH   3   4
HETATM    4  C   UNL     1      -9.438   8.559  63.199  1.00  0.00     2.057 C  
HETATM    5  C   UNL     1      -8.551   9.606  62.536  1.00  0.00    -0.208 C  
ENDBRANCH   3   4
BRANCH   3   6
HETATM    6  C   UNL     1     -10.334   7.833  65.391  1.00  0.00     2.956 C  
BRANCH   6   7
HETATM    7  C   UNL     1     -11.572   8.708  65.162  1.00  0.00    10.122 C  
BRANCH   7   8
HETATM    8  O   UNL     1     -11.379  10.016  65.718  1.00  0.00     0.983 OA 
BRANCH   8   9
HETATM    9  C   UNL     1     -11.352  10.036  67.091  1.00  0.00     0.471 A  
HETATM   10  C   UNL     1     -10.286  10.521  67.854  1.00  0.00    -0.226 A  
HETATM   11  C   UNL     1     -10.305  10.406  69.242  1.00  0.00    -0.250 A  
HETATM   12  C   UNL     1     -11.407   9.845  69.893  1.00  0.00    -0.273 A  
HETATM   13  C   UNL     1     -12.501   9.407  69.134  1.00  0.00     2.279 A  
HETATM   14  C   UNL     1     -12.473   9.510  67.737  1.00  0.00     6.222 A  
BRANCH  12  15
HETATM   15  C   UNL     1     -11.370   9.714  71.371  1.00  0.00    -0.444 C  
HETATM   16 CL   UNL     1     -10.413   8.580  73.658  1.00  0.00     1.457 Cl 
HETATM   17  C   UNL     1     -10.454   8.894  71.946  1.00  0.00    -0.345 C  
BRANCH  15  18
HETATM   18  C   UNL     1     -12.382  10.418  72.202  1.00  0.00     0.214 A  
HETATM   19  C   UNL     1     -13.032   9.752  73.251  1.00  0.00     2.513 A  
HETATM   20  C   UNL     1     -12.712  11.753  71.932  1.00  0.00    -0.215 A  
HETATM   21  C   UNL     1     -13.670  12.415  72.708  1.00  0.00     0.663 A  
HETATM   22  C   UNL     1     -13.988  10.416  74.024  1.00  0.00     8.055 A  
HETATM   23  C   UNL     1     -14.304  11.746  73.753  1.00  0.00     7.744 A  
ENDBRANCH  15  18
BRANCH  17  24
HETATM   24  C   UNL     1      -9.393   8.186  71.199  1.00  0.00    -0.187 A  
HETATM   25  C   UNL     1      -7.361   6.758  69.900  1.00  0.00    -0.089 A  
HETATM   26  C   UNL     1      -9.636   6.897  70.702  1.00  0.00    -0.171 A  
HETATM   27  C   UNL     1      -8.621   6.185  70.057  1.00  0.00    -0.136 A  
HETATM   28  C   UNL     1      -7.118   8.049  70.362  1.00  0.00    -0.045 A  
HETATM   29  C   UNL     1      -8.133   8.766  71.006  1.00  0.00    -0.186 A  
ENDBRANCH  17  24
ENDBRANCH  12  15
ENDBRANCH   8   9
ENDBRANCH   7   8
ENDBRANCH   6   7
ENDBRANCH   3   6
ENDBRANCH   2   3
TORSDOF 9
ENDMDL
MODEL      235
REMARK 921   NORMALIZED FREE ENERGY PREDICTED BY IDOCK:   40.29 KCAL/MOL
REMARK 922        TOTAL FREE ENERGY PREDICTED BY IDOCK:   59.35 KCAL/MOL
REMARK 923 INTER-LIGAND FREE ENERGY PREDICTED BY IDOCK:   57.51 KCAL/MOL
REMARK 924 INTRA-LIGAND FREE ENERGY PREDICTED BY IDOCK:    1.84 KCAL/MOL
REMARK 927      BINDING AFFINITY PREDICTED BY RF-SCORE:    0.00 PKD
ROOT
HETATM    1  C   UNL     1      -7.971   6.762  66.242  1.00  0.00    -0.108 C  
HETATM    2  C   UNL     1      -8.033   7.350  64.836  1.00  0.00    -0.128 C  
ENDROOT
BRANCH   2   3
HETATM    3  N   UNL     1      -9.154   8.275  64.614  1.00  0.00     0.417 NA 
BRANCH   3   4
HETATM    4  C   UNL     1      -9.438   8.559  63.199  1.00  0.00     2.057 C  
HETATM    5  C   UNL     1      -8.551   9.606  62.536  1.00  0.00    -0.208 C  
ENDBRANCH   3   4
BRANCH   3   6
HETATM    6  C   UNL     1     -10.334   7.833  65.391  1.00  0.00     2.956 C  
BRANCH   6   7
HETATM    7  C   UNL     1     -11.572   8.708  65.162  1.00  0.00    10.122 C  
BRANCH   7   8
HETATM    8  O   UNL     1     -11.379  10.016  65.718  1.00  0.00     0.983 OA 
BRANCH   8   9
HETATM    9  C   UNL     1     -11.352  10.036  67.091  1.00  0.00     0.471 A  
HETATM   10  C   UNL     1     -12.330  10.632  67.893  1.00  0.00     1.925 A  
HETATM   11  C   UNL     1     -12.165  10.693  69.274  1.00  0.00    -0.108 A  
HETATM   12  C   UNL     1     -11.045  10.122  69.882  1.00  0.00    -0.346 A  
HETATM   13  C   UNL     1     -10.089   9.475  69.086  1.00  0.00    -0.200 A  
HETATM   14  C   UNL     1     -10.249   9.429  67.695  1.00  0.00    -0.281 A  
BRANCH  12  15
HETATM   15  C   UNL     1     -10.896  10.238  71.354  1.00  0.00     0.735 C  
HETATM   16 CL   UNL     1     -10.425  11.690  73.613  1.00  0.00    19.710 Cl 
HETATM   17  C   UNL     1     -10.731  11.463  71.914  1.00  0.00     7.272 C  
BRANCH  15  18
HETATM   18  C   UNL     1     -10.851   9.011  72.192  1.00  0.00    -0.237 A  
HETATM   19  C   UNL     1      -9.888   8.872  73.202  1.00  0.00     1.127 A  
HETATM   20  C   UNL     1     -11.761   7.969  71.969  1.00  0.00    -0.375 A  
HETATM   21  C   UNL     1     -11.715   6.810  72.752  1.00  0.00    -0.028 A  
HETATM   22  C   UNL     1      -9.844   7.713  73.983  1.00  0.00     0.068 A  
HETATM   23  C   UNL     1     -10.758   6.686  73.757  1.00  0.00    -0.206 A  
ENDBRANCH  15  18
BRANCH  17  24
HETATM   24  C   UNL     1     -10.797  12.733  71.160  1.00  0.00     4.413 A  
HETATM   25  C   UNL     1     -10.984  15.203  69.848  1.00  0.00    -0.291 A  
HETATM   26  C   UNL     1      -9.906  13.770  71.467  1.00  0.00     7.533 A  
HETATM   27  C   UNL     1     -10.002  15.002  70.815  1.00  0.00     0.844 A  
HETATM   28  C   UNL     1     -11.855  14.169  69.512  1.00  0.00    -0.373 A  
HETATM   29  C   UNL     1     -11.760  12.933  70.162  1.00  0.00    -0.234 A  
ENDBRANCH  17  24
ENDBRANCH  12  15
ENDBRANCH   8   9
ENDBRANCH   7   8
ENDBRANCH   6   7
ENDBRANCH   3   6
ENDBRANCH   2   3
TORSDOF 9
ENDMDL
MODEL      236
REMARK 921   NORMALIZED FREE ENERGY PREDICTED BY IDOCK:   41.68 KCAL/MOL
REMARK 922        TOTAL FREE ENERGY PREDICTED BY IDOCK:   61.48 KCAL/MOL
REMARK 923 INTER-LIGAND FREE ENERGY PREDICTED BY IDOCK:   18.27 KCAL/MOL
REMARK 924 INTRA-LIGAND FREE ENERGY PREDICTED BY IDOCK:   43.21 KCAL/MOL
REMARK 927      BINDING AFFINITY PREDICTED BY RF-SCORE:    0.00 PKD
ROOT
HETATM    1  C   UNL     1      -8.204  10.170  68.333  1.00  0.00    -0.112 C  
HETATM    2  C   UNL     1      -6.790   9.689  68.017  1.00  0.00    -0.073 C  
ENDROOT
BRANCH   2   3
HETATM    3  N   UNL     1      -6.734   8.454  67.221  1.00  0.00    -0.062 NA 
BRANCH   3   4
HETATM    4  C   UNL     1      -5.617   8.398  66.265  1.00  0.00    -0.039 C  
HETATM    5  C   UNL     1      -5.702   9.353  65.081  1.00  0.00    -0.058 C  
ENDBRANCH   3   4
BRANCH   3   6
HETATM    6  C   UNL     1      -6.828   7.275  68.110  1.00  0.00    -0.070 C  
BRANCH   6   7
HETATM    7  C   UNL     1      -7.955   6.311  67.721  1.00  0.00    -0.114 C  
BRANCH   7   8
HETATM    8  O   UNL     1      -9.215   6.993  67.680  1.00  0.00    -0.122 OA 
BRANCH   8   9
HETATM    9  C   UNL     1      -9.108   8.360  67.759  1.00  0.00    -0.135 A  
HETATM   10  C   UNL     1      -9.935   9.175  68.537  1.00  0.00    -0.192 A  
HETATM   11  C   UNL     1      -9.818  10.561  68.474  1.00  0.00    -0.175 A  
HETATM   12  C   UNL     1      -8.845  11.155  67.667  1.00  0.00    -0.136 A  
HETATM   13  C   UNL     1      -7.978  10.339  66.927  1.00  0.00    -0.112 A  
HETATM   14  C   UNL     1      -8.108   8.946  66.980  1.00  0.00    -0.109 A  
BRANCH  12  15
HETATM   15  C   UNL     1      -8.777  12.637  67.608  1.00  0.00    -0.179 C  
HETATM   16 CL   UNL     1      -9.818  15.063  66.928  1.00  0.00    -0.236 Cl 
HETATM   17  C   UNL     1      -9.845  13.336  67.151  1.00  0.00    -0.237 C  
BRANCH  15  18
HETATM   18  C   UNL     1      -7.516  13.335  67.974  1.00  0.00    -0.138 A  
HETATM   19  C   UNL     1      -6.384  13.240  67.151  1.00  0.00     0.387 A  
HETATM   20  C   UNL     1      -7.439  14.081  69.157  1.00  0.00    -0.005 A  
HETATM   21  C   UNL     1      -6.252  14.733  69.507  1.00  0.00    -0.120 A  
HETATM   22  C   UNL     1      -5.199  13.892  67.503  1.00  0.00     0.188 A  
HETATM   23  C   UNL     1      -5.135  14.638  68.679  1.00  0.00    -0.096 A  
ENDBRANCH  15  18
BRANCH  17  24
HETATM   24  C   UNL     1     -11.146  12.725  66.800  1.00  0.00    -0.314 A  
HETATM   25  C   UNL     1     -13.624  11.527  66.276  1.00  0.00    10.052 A  
HETATM   26  C   UNL     1     -12.336  13.356  67.189  1.00  0.00    -0.198 A  
HETATM   27  C   UNL     1     -13.571  12.756  66.929  1.00  0.00     6.649 A  
HETATM   28  C   UNL     1     -12.450  10.907  65.857  1.00  0.00     4.290 A  
HETATM   29  C   UNL     1     -11.211  11.506  66.114  1.00  0.00    -0.265 A  
ENDBRANCH  17  24
ENDBRANCH  12  15
ENDBRANCH   8   9
ENDBRANCH   7   8
ENDBRANCH   6   7
ENDBRANCH   3   6
ENDBRANCH   2   3
TORSDOF 9
ENDMDL
MODEL      237
REMARK 921   NORMALIZED FREE ENERGY PREDICTED BY IDOCK:   58.37 KCAL/MOL
REMARK 922        TOTAL FREE ENERGY PREDICTED BY IDOCK:   86.94 KCAL/MOL
REMARK 923 INTER-LIGAND FREE ENERGY PREDICTED BY IDOCK:   82.97 KCAL/MOL
REMARK 924 INTRA-LIGAND FREE ENERGY PREDICTED BY IDOCK:    3.97 KCAL/MOL
REMARK 927      BINDING AFFINITY PREDICTED BY RF-SCORE:    0.00 PKD
ROOT
HETATM    1  C   UNL     1      -7.674   6.356  66.545  1.00  0.00    -0.099 C  
HETATM    2  C   UNL     1      -8.303   6.742  65.210  1.00  0.00    -0.105 C  
ENDROOT
BRANCH   2   3
HETATM    3  N   UNL     1      -9.630   7.366  65.322  1.00  0.00     0.980 NA 
BRANCH   3   4
HETATM    4  C   UNL     1     -10.449   7.277  64.104  1.00  0.00     9.038 C  
HETATM    5  C   UNL     1     -10.069   8.225  62.973  1.00  0.00     5.671 C  
ENDBRANCH   3   4
BRANCH   3   6
HETATM    6  C   UNL     1     -10.311   6.885  66.545  1.00  0.00    -0.045 C  
BRANCH   6   7
HETATM    7  C   UNL     1     -11.756   7.382  66.669  1.00  0.00     2.949 C  
BRANCH   7   8
HETATM    8  O   UNL     1     -11.789   8.802  66.869  1.00  0.00     2.777 OA 
BRANCH   8   9
HETATM    9  C   UNL     1     -11.372   9.196  68.117  1.00  0.00     0.594 A  
HETATM   10  C   UNL     1     -12.189   9.817  69.065  1.00  0.00     1.190 A  
HETATM   11  C   UNL     1     -11.652  10.274  70.265  1.00  0.00    -0.396 A  
HETATM   12  C   UNL     1     -10.300  10.080  70.558  1.00  0.00    -0.215 A  
HETATM   13  C   UNL     1      -9.489   9.408  69.633  1.00  0.00    -0.200 A  
HETATM   14  C   UNL     1     -10.028   8.964  68.419  1.00  0.00    -0.198 A  
BRANCH  12  15
HETATM   15  C   UNL     1      -9.765  10.611  71.837  1.00  0.00     7.172 C  
HETATM   16 CL   UNL     1      -9.473  12.604  73.674  1.00  0.00    19.487 Cl 
HETATM   17  C   UNL     1     -10.141  11.846  72.256  1.00  0.00    15.970 C  
BRANCH  15  18
HETATM   18  C   UNL     1      -8.766   9.823  72.605  1.00  0.00     4.182 A  
HETATM   19  C   UNL     1      -7.650  10.452  73.178  1.00  0.00     6.818 A  
HETATM   20  C   UNL     1      -8.917   8.438  72.749  1.00  0.00    -0.291 A  
HETATM   21  C   UNL     1      -7.974   7.694  73.465  1.00  0.00    -0.181 A  
HETATM   22  C   UNL     1      -6.709   9.705  73.893  1.00  0.00     1.062 A  
HETATM   23  C   UNL     1      -6.873   8.329  74.037  1.00  0.00    -0.167 A  
ENDBRANCH  15  18
BRANCH  17  24
HETATM   24  C   UNL     1     -11.153  12.680  71.572  1.00  0.00     4.669 A  
HETATM   25  C   UNL     1     -13.114  14.309  70.407  1.00  0.00    -0.067 A  
HETATM   26  C   UNL     1     -10.959  14.064  71.472  1.00  0.00     2.328 A  
HETATM   27  C   UNL     1     -11.938  14.876  70.894  1.00  0.00    -0.374 A  
HETATM   28  C   UNL     1     -13.303  12.930  70.473  1.00  0.00     0.753 A  
HETATM   29  C   UNL     1     -12.323  12.114  71.049  1.00  0.00    -0.331 A  
ENDBRANCH  17  24
ENDBRANCH  12  15
ENDBRANCH   8   9
ENDBRANCH   7   8
ENDBRANCH   6   7
ENDBRANCH   3   6
ENDBRANCH   2   3
TORSDOF 9
ENDMDL
MODEL      238
REMARK 921   NORMALIZED FREE ENERGY PREDICTED BY IDOCK:   71.13 KCAL/MOL
REMARK 922        TOTAL FREE ENERGY PREDICTED BY IDOCK:  106.41 KCAL/MOL
REMARK 923 INTER-LIGAND FREE ENERGY PREDICTED BY IDOCK:   82.79 KCAL/MOL
REMARK 924 INTRA-LIGAND FREE ENERGY PREDICTED BY IDOCK:   23.62 KCAL/MOL
REMARK 927      BINDING AFFINITY PREDICTED BY RF-SCORE:    0.00 PKD
ROOT
HETATM    1  C   UNL     1      -8.378  10.384  69.065  1.00  0.00    -0.150 C  
HETATM    2  C   UNL     1      -6.939  10.003  68.730  1.00  0.00    -0.062 C  
ENDROOT
BRANCH   2   3
HETATM    3  N   UNL     1      -6.797   8.708  68.047  1.00  0.00    -0.069 NA 
BRANCH   3   4
HETATM    4  C   UNL     1      -5.804   8.698  66.962  1.00  0.00    -0.042 C  
HETATM    5  C   UNL     1      -6.343   8.965  65.561  1.00  0.00    -0.063 C  
ENDBRANCH   3   4
BRANCH   3   6
HETATM    6  C   UNL     1      -6.614   7.629  69.044  1.00  0.00    -0.048 C  
BRANCH   6   7
HETATM    7  C   UNL     1      -6.612   6.226  68.426  1.00  0.00    -0.058 C  
BRANCH   7   8
HETATM    8  O   UNL     1      -7.798   6.014  67.647  1.00  0.00    -0.099 OA 
BRANCH   8   9
HETATM    9  C   UNL     1      -8.385   7.173  67.203  1.00  0.00    -0.118 A  
HETATM   10  C   UNL     1      -9.760   7.421  67.220  1.00  0.00    -0.205 A  
HETATM   11  C   UNL     1     -10.272   8.585  66.653  1.00  0.00    -0.345 A  
HETATM   12  C   UNL     1      -9.417   9.540  66.098  1.00  0.00    -0.281 A  
HETATM   13  C   UNL     1      -8.033   9.320  66.127  1.00  0.00    -0.107 A  
HETATM   14  C   UNL     1      -7.521   8.141  66.685  1.00  0.00    -0.089 A  
BRANCH  12  15
HETATM   15  C   UNL     1     -10.009  10.751  65.477  1.00  0.00    -0.321 C  
HETATM   16 CL   UNL     1     -11.499  11.978  63.550  1.00  0.00    -0.526 Cl 
HETATM   17  C   UNL     1     -10.853  10.616  64.423  1.00  0.00     0.299 C  
BRANCH  15  18
HETATM   18  C   UNL     1      -9.614  12.100  65.961  1.00  0.00    -0.242 A  
HETATM   19  C   UNL     1     -10.142  13.255  65.365  1.00  0.00    -0.267 A  
HETATM   20  C   UNL     1      -8.693  12.233  67.008  1.00  0.00    -0.199 A  
HETATM   21  C   UNL     1      -8.314  13.502  67.461  1.00  0.00    -0.185 A  
HETATM   22  C   UNL     1      -9.762  14.521  65.819  1.00  0.00    -0.306 A  
HETATM   23  C   UNL     1      -8.850  14.642  66.866  1.00  0.00    -0.267 A  
ENDBRANCH  15  18
BRANCH  17  24
HETATM   24  C   UNL     1     -11.323   9.315  63.901  1.00  0.00     9.830 A  
HETATM   25  C   UNL     1     -12.282   6.825  63.041  1.00  0.00    15.237 A  
HETATM   26  C   UNL     1     -12.669   9.158  63.539  1.00  0.00    17.585 A  
HETATM   27  C   UNL     1     -13.146   7.916  63.113  1.00  0.00    20.710 A  
HETATM   28  C   UNL     1     -10.936   6.978  63.368  1.00  0.00    14.619 A  
HETATM   29  C   UNL     1     -10.454   8.222  63.793  1.00  0.00     8.562 A  
ENDBRANCH  17  24
ENDBRANCH  12  15
ENDBRANCH   8   9
ENDBRANCH   7   8
ENDBRANCH   6   7
ENDBRANCH   3   6
ENDBRANCH   2   3
TORSDOF 9
ENDMDL
