MODEL        1
REMARK 921   NORMALIZED FREE ENERGY PREDICTED BY IDOCK:   -5.58 KCAL/MOL
REMARK 922        TOTAL FREE ENERGY PREDICTED BY IDOCK:   -6.49 KCAL/MOL
REMARK 923 INTER-LIGAND FREE ENERGY PREDICTED BY IDOCK:   -6.23 KCAL/MOL
REMARK 924 INTRA-LIGAND FREE ENERGY PREDICTED BY IDOCK:   -0.25 KCAL/MOL
REMARK 927      BINDING AFFINITY PREDICTED BY RF-SCORE:    0.00 PKD
ROOT
HETATM    1 CL   UNL     1     -11.192  16.410  70.001  1.00  0.00    -0.326 Cl 
HETATM    2  C   UNL     1     -12.190  15.213  70.763  1.00  0.00    -0.340 A  
HETATM    3  C   UNL     1     -12.964  15.678  71.837  1.00  0.00    -0.541 A  
HETATM    4  C   UNL     1     -13.654  14.790  72.655  1.00  0.00    -0.565 A  
HETATM    5  C   UNL     1     -13.565  13.425  72.410  1.00  0.00    -0.708 A  
HETATM    6  C   UNL     1     -12.811  12.958  71.327  1.00  0.00    -0.270 A  
HETATM    7 CL   UNL     1     -12.731  11.240  71.091  1.00  0.00    -0.499 Cl 
HETATM    8  C   UNL     1     -12.116  13.834  70.460  1.00  0.00    -0.345 A  
ENDROOT
BRANCH   8   9
HETATM    9  N   UNL     1     -11.440  13.296  69.344  1.00  0.00    -0.346 NA 
HETATM   10  H   UNL     1     -10.559  12.818  69.539  1.00  0.00     0.000 HD 
BRANCH   9  11
HETATM   11  C   UNL     1     -11.822  13.339  68.045  1.00  0.00    -0.355 A  
HETATM   12  N   UNL     1     -12.286  14.348  67.369  1.00  0.00    -0.617 NA 
HETATM   13  C   UNL     1     -12.425  13.857  65.979  1.00  0.00    -0.461 A  
HETATM   14  H   UNL     1     -12.507  15.279  67.721  1.00  0.00     0.000 HD 
HETATM   15  C   UNL     1     -12.023  12.382  65.989  1.00  0.00    -0.350 A  
HETATM   16  N   UNL     1     -11.672  12.158  67.377  1.00  0.00    -0.509 NA 
ENDBRANCH   9  11
ENDBRANCH   8   9
TORSDOF 2
ENDMDL
MODEL        2
REMARK 921   NORMALIZED FREE ENERGY PREDICTED BY IDOCK:   -5.38 KCAL/MOL
REMARK 922        TOTAL FREE ENERGY PREDICTED BY IDOCK:   -6.26 KCAL/MOL
REMARK 923 INTER-LIGAND FREE ENERGY PREDICTED BY IDOCK:   -5.94 KCAL/MOL
REMARK 924 INTRA-LIGAND FREE ENERGY PREDICTED BY IDOCK:   -0.32 KCAL/MOL
REMARK 927      BINDING AFFINITY PREDICTED BY RF-SCORE:    0.00 PKD
ROOT
HETATM    1 CL   UNL     1     -11.965  15.839  70.247  1.00  0.00    -0.380 Cl 
HETATM    2  C   UNL     1     -12.467  14.231  70.663  1.00  0.00    -0.358 A  
HETATM    3  C   UNL     1     -13.243  14.132  71.828  1.00  0.00    -0.450 A  
HETATM    4  C   UNL     1     -13.544  12.892  72.380  1.00  0.00    -0.577 A  
HETATM    5  C   UNL     1     -13.061  11.738  71.773  1.00  0.00    -0.480 A  
HETATM    6  C   UNL     1     -12.304  11.833  70.599  1.00  0.00    -0.328 A  
HETATM    7 CL   UNL     1     -11.719  10.352  69.906  1.00  0.00    -0.330 Cl 
HETATM    8  C   UNL     1     -11.999  13.075  69.998  1.00  0.00    -0.312 A  
ENDROOT
BRANCH   8   9
HETATM    9  N   UNL     1     -11.297  13.088  68.773  1.00  0.00    -0.270 NA 
HETATM   10  H   UNL     1     -10.290  12.934  68.830  1.00  0.00     0.000 HD 
BRANCH   9  11
HETATM   11  C   UNL     1     -11.804  13.280  67.531  1.00  0.00    -0.358 A  
HETATM   12  N   UNL     1     -12.256  14.377  67.000  1.00  0.00    -0.563 NA 
HETATM   13  C   UNL     1     -12.569  14.032  65.594  1.00  0.00    -0.512 A  
HETATM   14  H   UNL     1     -12.371  15.283  67.455  1.00  0.00     0.000 HD 
HETATM   15  C   UNL     1     -12.280  12.539  65.432  1.00  0.00    -0.412 A  
HETATM   16  N   UNL     1     -11.810  12.161  66.748  1.00  0.00    -0.606 NA 
ENDBRANCH   9  11
ENDBRANCH   8   9
TORSDOF 2
ENDMDL
MODEL        3
REMARK 921   NORMALIZED FREE ENERGY PREDICTED BY IDOCK:   -5.23 KCAL/MOL
REMARK 922        TOTAL FREE ENERGY PREDICTED BY IDOCK:   -6.09 KCAL/MOL
REMARK 923 INTER-LIGAND FREE ENERGY PREDICTED BY IDOCK:   -5.84 KCAL/MOL
REMARK 924 INTRA-LIGAND FREE ENERGY PREDICTED BY IDOCK:   -0.25 KCAL/MOL
REMARK 927      BINDING AFFINITY PREDICTED BY RF-SCORE:    0.00 PKD
ROOT
HETATM    1 CL   UNL     1     -12.693  10.984  71.388  1.00  0.00    -0.529 Cl 
HETATM    2  C   UNL     1     -12.806  12.715  71.413  1.00  0.00    -0.261 A  
HETATM    3  C   UNL     1     -13.783  13.236  72.276  1.00  0.00    -0.686 A  
HETATM    4  C   UNL     1     -14.111  14.586  72.248  1.00  0.00    -0.594 A  
HETATM    5  C   UNL     1     -13.471  15.427  71.345  1.00  0.00    -0.607 A  
HETATM    6  C   UNL     1     -12.482  14.914  70.496  1.00  0.00    -0.363 A  
HETATM    7 CL   UNL     1     -11.736  16.019  69.383  1.00  0.00    -0.320 Cl 
HETATM    8  C   UNL     1     -12.106  13.552  70.515  1.00  0.00    -0.335 A  
ENDROOT
BRANCH   8   9
HETATM    9  N   UNL     1     -11.047  13.124  69.685  1.00  0.00    -0.467 NA 
HETATM   10  H   UNL     1     -10.134  13.032  70.131  1.00  0.00     0.000 HD 
BRANCH   9  11
HETATM   11  C   UNL     1     -11.101  12.821  68.365  1.00  0.00    -0.262 A  
HETATM   12  N   UNL     1     -12.023  12.169  67.720  1.00  0.00    -0.524 NA 
HETATM   13  C   UNL     1     -11.624  12.236  66.295  1.00  0.00    -0.385 A  
HETATM   14  H   UNL     1     -12.845  11.708  68.111  1.00  0.00     0.000 HD 
HETATM   15  C   UNL     1     -10.290  12.980  66.244  1.00  0.00    -0.285 A  
HETATM   16  N   UNL     1     -10.046  13.291  67.637  1.00  0.00    -0.225 NA 
ENDBRANCH   9  11
ENDBRANCH   8   9
TORSDOF 2
ENDMDL
MODEL        4
REMARK 921   NORMALIZED FREE ENERGY PREDICTED BY IDOCK:   -5.21 KCAL/MOL
REMARK 922        TOTAL FREE ENERGY PREDICTED BY IDOCK:   -6.08 KCAL/MOL
REMARK 923 INTER-LIGAND FREE ENERGY PREDICTED BY IDOCK:   -5.75 KCAL/MOL
REMARK 924 INTRA-LIGAND FREE ENERGY PREDICTED BY IDOCK:   -0.33 KCAL/MOL
REMARK 927      BINDING AFFINITY PREDICTED BY RF-SCORE:    0.00 PKD
ROOT
HETATM    1 CL   UNL     1     -11.828  11.303  69.024  1.00  0.00    -0.396 Cl 
HETATM    2  C   UNL     1     -11.769  12.752  68.072  1.00  0.00    -0.356 A  
HETATM    3  C   UNL     1     -11.837  12.556  66.683  1.00  0.00    -0.422 A  
HETATM    4  C   UNL     1     -11.603  13.607  65.803  1.00  0.00    -0.349 A  
HETATM    5  C   UNL     1     -11.288  14.863  66.307  1.00  0.00    -0.306 A  
HETATM    6  C   UNL     1     -11.240  15.068  67.692  1.00  0.00    -0.326 A  
HETATM    7 CL   UNL     1     -10.824  16.658  68.249  1.00  0.00    -0.348 Cl 
HETATM    8  C   UNL     1     -11.495  14.028  68.615  1.00  0.00    -0.302 A  
ENDROOT
BRANCH   8   9
HETATM    9  N   UNL     1     -11.504  14.327  69.995  1.00  0.00    -0.388 NA 
HETATM   10  H   UNL     1     -10.593  14.357  70.455  1.00  0.00     0.000 HD 
BRANCH   9  11
HETATM   11  C   UNL     1     -12.580  14.579  70.780  1.00  0.00    -0.351 A  
HETATM   12  N   UNL     1     -13.305  15.656  70.841  1.00  0.00    -0.734 NA 
HETATM   13  C   UNL     1     -14.406  15.334  71.778  1.00  0.00    -0.574 A  
HETATM   14  H   UNL     1     -13.149  16.536  70.349  1.00  0.00     0.000 HD 
HETATM   15  C   UNL     1     -14.150  13.916  72.289  1.00  0.00    -0.535 A  
HETATM   16  N   UNL     1     -12.938  13.540  71.590  1.00  0.00    -0.362 NA 
ENDBRANCH   9  11
ENDBRANCH   8   9
TORSDOF 2
ENDMDL
MODEL        5
REMARK 921   NORMALIZED FREE ENERGY PREDICTED BY IDOCK:   -5.12 KCAL/MOL
REMARK 922        TOTAL FREE ENERGY PREDICTED BY IDOCK:   -5.98 KCAL/MOL
REMARK 923 INTER-LIGAND FREE ENERGY PREDICTED BY IDOCK:   -5.65 KCAL/MOL
REMARK 924 INTRA-LIGAND FREE ENERGY PREDICTED BY IDOCK:   -0.32 KCAL/MOL
REMARK 927      BINDING AFFINITY PREDICTED BY RF-SCORE:    0.00 PKD
ROOT
HETATM    1 CL   UNL     1     -12.428  14.621  70.756  1.00  0.00    -0.381 Cl 
HETATM    2  C   UNL     1     -12.494  12.890  70.669  1.00  0.00    -0.252 A  
HETATM    3  C   UNL     1     -13.143  12.263  71.744  1.00  0.00    -0.449 A  
HETATM    4  C   UNL     1     -13.094  10.882  71.899  1.00  0.00    -0.537 A  
HETATM    5  C   UNL     1     -12.384  10.117  70.982  1.00  0.00    -0.474 A  
HETATM    6  C   UNL     1     -11.753  10.736  69.896  1.00  0.00    -0.333 A  
HETATM    7 CL   UNL     1     -10.870   9.718  68.800  1.00  0.00    -0.239 Cl 
HETATM    8  C   UNL     1     -11.802  12.135  69.695  1.00  0.00    -0.322 A  
ENDROOT
BRANCH   8   9
HETATM    9  N   UNL     1     -11.206  12.679  68.537  1.00  0.00    -0.259 NA 
HETATM   10  H   UNL     1     -10.192  12.788  68.561  1.00  0.00     0.000 HD 
BRANCH   9  11
HETATM   11  C   UNL     1     -11.823  13.074  67.397  1.00  0.00    -0.357 A  
HETATM   12  N   UNL     1     -12.329  14.236  67.109  1.00  0.00    -0.586 NA 
HETATM   13  C   UNL     1     -12.765  14.135  65.697  1.00  0.00    -0.441 A  
HETATM   14  H   UNL     1     -12.410  15.046  67.725  1.00  0.00     0.000 HD 
HETATM   15  C   UNL     1     -12.481  12.701  65.249  1.00  0.00    -0.416 A  
HETATM   16  N   UNL     1     -11.892  12.109  66.432  1.00  0.00    -0.607 NA 
ENDBRANCH   9  11
ENDBRANCH   8   9
TORSDOF 2
ENDMDL
MODEL        6
REMARK 921   NORMALIZED FREE ENERGY PREDICTED BY IDOCK:   -5.09 KCAL/MOL
REMARK 922        TOTAL FREE ENERGY PREDICTED BY IDOCK:   -5.94 KCAL/MOL
REMARK 923 INTER-LIGAND FREE ENERGY PREDICTED BY IDOCK:   -5.63 KCAL/MOL
REMARK 924 INTRA-LIGAND FREE ENERGY PREDICTED BY IDOCK:   -0.30 KCAL/MOL
REMARK 927      BINDING AFFINITY PREDICTED BY RF-SCORE:    0.00 PKD
ROOT
HETATM    1 CL   UNL     1     -10.974  16.459  68.207  1.00  0.00    -0.350 Cl 
HETATM    2  C   UNL     1     -11.054  14.804  67.690  1.00  0.00    -0.306 A  
HETATM    3  C   UNL     1     -10.939  14.606  66.306  1.00  0.00    -0.327 A  
HETATM    4  C   UNL     1     -11.182  13.359  65.742  1.00  0.00    -0.305 A  
HETATM    5  C   UNL     1     -11.554  12.300  66.561  1.00  0.00    -0.440 A  
HETATM    6  C   UNL     1     -11.651  12.488  67.945  1.00  0.00    -0.347 A  
HETATM    7 CL   UNL     1     -12.137  11.125  68.903  1.00  0.00    -0.363 Cl 
HETATM    8  C   UNL     1     -11.387  13.737  68.554  1.00  0.00    -0.285 A  
ENDROOT
BRANCH   8   9
HETATM    9  N   UNL     1     -11.430  13.832  69.962  1.00  0.00    -0.476 NA 
HETATM   10  H   UNL     1     -10.572  13.584  70.456  1.00  0.00     0.000 HD 
BRANCH   9  11
HETATM   11  C   UNL     1     -12.476  14.212  70.734  1.00  0.00    -0.366 A  
HETATM   12  N   UNL     1     -13.149  15.324  70.697  1.00  0.00    -0.638 NA 
HETATM   13  C   UNL     1     -14.245  15.151  71.679  1.00  0.00    -0.567 A  
HETATM   14  H   UNL     1     -12.963  16.142  70.117  1.00  0.00     0.000 HD 
HETATM   15  C   UNL     1     -14.045  13.780  72.326  1.00  0.00    -0.531 A  
HETATM   16  N   UNL     1     -12.866  13.278  71.651  1.00  0.00    -0.331 NA 
ENDBRANCH   9  11
ENDBRANCH   8   9
TORSDOF 2
ENDMDL
MODEL        7
REMARK 921   NORMALIZED FREE ENERGY PREDICTED BY IDOCK:   -5.00 KCAL/MOL
REMARK 922        TOTAL FREE ENERGY PREDICTED BY IDOCK:   -5.83 KCAL/MOL
REMARK 923 INTER-LIGAND FREE ENERGY PREDICTED BY IDOCK:   -5.53 KCAL/MOL
REMARK 924 INTRA-LIGAND FREE ENERGY PREDICTED BY IDOCK:   -0.31 KCAL/MOL
REMARK 927      BINDING AFFINITY PREDICTED BY RF-SCORE:    0.00 PKD
ROOT
HETATM    1 CL   UNL     1     -12.013  10.217  70.001  1.00  0.00    -0.295 Cl 
HETATM    2  C   UNL     1     -12.323  11.786  70.673  1.00  0.00    -0.328 A  
HETATM    3  C   UNL     1     -13.158  11.798  71.801  1.00  0.00    -0.480 A  
HETATM    4  C   UNL     1     -13.643  12.994  72.317  1.00  0.00    -0.643 A  
HETATM    5  C   UNL     1     -13.304  14.192  71.699  1.00  0.00    -0.440 A  
HETATM    6  C   UNL     1     -12.455  14.186  70.586  1.00  0.00    -0.362 A  
HETATM    7 CL   UNL     1     -12.088  15.718  69.855  1.00  0.00    -0.351 Cl 
HETATM    8  C   UNL     1     -11.924  12.991  70.050  1.00  0.00    -0.312 A  
ENDROOT
BRANCH   8   9
HETATM    9  N   UNL     1     -11.013  13.070  68.974  1.00  0.00    -0.365 NA 
HETATM   10  H   UNL     1     -10.027  13.151  69.224  1.00  0.00     0.000 HD 
BRANCH   9  11
HETATM   11  C   UNL     1     -11.295  13.051  67.649  1.00  0.00    -0.300 A  
HETATM   12  N   UNL     1     -12.003  12.188  66.982  1.00  0.00    -0.598 NA 
HETATM   13  C   UNL     1     -12.072  12.722  65.602  1.00  0.00    -0.459 A  
HETATM   14  H   UNL     1     -12.421  11.327  67.334  1.00  0.00     0.000 HD 
HETATM   15  C   UNL     1     -11.232  13.999  65.580  1.00  0.00    -0.310 A  
HETATM   16  N   UNL     1     -10.769  14.099  66.948  1.00  0.00    -0.284 NA 
ENDBRANCH   9  11
ENDBRANCH   8   9
TORSDOF 2
ENDMDL
MODEL        8
REMARK 921   NORMALIZED FREE ENERGY PREDICTED BY IDOCK:   -4.98 KCAL/MOL
REMARK 922        TOTAL FREE ENERGY PREDICTED BY IDOCK:   -5.82 KCAL/MOL
REMARK 923 INTER-LIGAND FREE ENERGY PREDICTED BY IDOCK:   -5.53 KCAL/MOL
REMARK 924 INTRA-LIGAND FREE ENERGY PREDICTED BY IDOCK:   -0.28 KCAL/MOL
REMARK 927      BINDING AFFINITY PREDICTED BY RF-SCORE:    0.00 PKD
ROOT
HETATM    1 CL   UNL     1     -12.010  12.392  69.507  1.00  0.00    -0.348 Cl 
HETATM    2  C   UNL     1     -11.286  13.531  68.417  1.00  0.00    -0.278 A  
HETATM    3  C   UNL     1     -10.326  12.994  67.545  1.00  0.00    -0.224 A  
HETATM    4  C   UNL     1      -9.532  13.823  66.761  1.00  0.00    -0.281 A  
HETATM    5  C   UNL     1      -9.686  15.201  66.851  1.00  0.00    -0.248 A  
HETATM    6  C   UNL     1     -10.657  15.740  67.705  1.00  0.00    -0.301 A  
HETATM    7 CL   UNL     1     -10.781  17.471  67.779  1.00  0.00    -0.372 Cl 
HETATM    8  C   UNL     1     -11.497  14.926  68.498  1.00  0.00    -0.315 A  
ENDROOT
BRANCH   8   9
HETATM    9  N   UNL     1     -12.504  15.538  69.276  1.00  0.00    -0.593 NA 
HETATM   10  H   UNL     1     -13.297  15.924  68.763  1.00  0.00     0.000 HD 
BRANCH   9  11
HETATM   11  C   UNL     1     -12.541  15.672  70.624  1.00  0.00    -0.414 A  
HETATM   12  N   UNL     1     -11.685  16.264  71.404  1.00  0.00    -0.621 NA 
HETATM   13  C   UNL     1     -12.285  16.207  72.757  1.00  0.00    -0.531 A  
HETATM   14  H   UNL     1     -10.792  16.679  71.141  1.00  0.00     0.000 HD 
HETATM   15  C   UNL     1     -13.594  15.427  72.627  1.00  0.00    -0.542 A  
HETATM   16  N   UNL     1     -13.643  15.121  71.213  1.00  0.00    -0.466 NA 
ENDBRANCH   9  11
ENDBRANCH   8   9
TORSDOF 2
ENDMDL
MODEL        9
REMARK 921   NORMALIZED FREE ENERGY PREDICTED BY IDOCK:   -4.95 KCAL/MOL
REMARK 922        TOTAL FREE ENERGY PREDICTED BY IDOCK:   -5.79 KCAL/MOL
REMARK 923 INTER-LIGAND FREE ENERGY PREDICTED BY IDOCK:   -5.51 KCAL/MOL
REMARK 924 INTRA-LIGAND FREE ENERGY PREDICTED BY IDOCK:   -0.27 KCAL/MOL
REMARK 927      BINDING AFFINITY PREDICTED BY RF-SCORE:    0.00 PKD
ROOT
HETATM    1 CL   UNL     1     -11.641  11.548  67.919  1.00  0.00    -0.365 Cl 
HETATM    2  C   UNL     1     -11.682  12.951  66.899  1.00  0.00    -0.382 A  
HETATM    3  C   UNL     1     -12.130  12.722  65.588  1.00  0.00    -0.514 A  
HETATM    4  C   UNL     1     -12.027  13.712  64.617  1.00  0.00    -0.441 A  
HETATM    5  C   UNL     1     -11.462  14.938  64.948  1.00  0.00    -0.407 A  
HETATM    6  C   UNL     1     -11.033  15.177  66.260  1.00  0.00    -0.335 A  
HETATM    7 CL   UNL     1     -10.322  16.725  66.596  1.00  0.00    -0.306 Cl 
HETATM    8  C   UNL     1     -11.145  14.202  67.278  1.00  0.00    -0.305 A  
ENDROOT
BRANCH   8   9
HETATM    9  N   UNL     1     -10.762  14.542  68.593  1.00  0.00    -0.245 NA 
HETATM   10  H   UNL     1      -9.769  14.449  68.811  1.00  0.00     0.000 HD 
BRANCH   9  11
HETATM   11  C   UNL     1     -11.557  14.976  69.601  1.00  0.00    -0.304 A  
HETATM   12  N   UNL     1     -12.838  14.810  69.752  1.00  0.00    -0.572 NA 
HETATM   13  C   UNL     1     -13.153  15.388  71.079  1.00  0.00    -0.501 A  
HETATM   14  H   UNL     1     -13.487  14.375  69.097  1.00  0.00     0.000 HD 
HETATM   15  C   UNL     1     -11.850  15.968  71.629  1.00  0.00    -0.507 A  
HETATM   16  N   UNL     1     -10.897  15.658  70.583  1.00  0.00    -0.327 NA 
ENDBRANCH   9  11
ENDBRANCH   8   9
TORSDOF 2
ENDMDL
MODEL       10
REMARK 921   NORMALIZED FREE ENERGY PREDICTED BY IDOCK:   -4.92 KCAL/MOL
REMARK 922        TOTAL FREE ENERGY PREDICTED BY IDOCK:   -5.75 KCAL/MOL
REMARK 923 INTER-LIGAND FREE ENERGY PREDICTED BY IDOCK:   -5.44 KCAL/MOL
REMARK 924 INTRA-LIGAND FREE ENERGY PREDICTED BY IDOCK:   -0.31 KCAL/MOL
REMARK 927      BINDING AFFINITY PREDICTED BY RF-SCORE:    0.00 PKD
ROOT
HETATM    1 CL   UNL     1     -10.824  19.609  65.425  1.00  0.00    -0.357 Cl 
HETATM    2  C   UNL     1      -9.867  18.904  66.689  1.00  0.00    -0.358 A  
HETATM    3  C   UNL     1      -9.692  19.709  67.824  1.00  0.00    -0.481 A  
HETATM    4  C   UNL     1      -8.792  19.351  68.821  1.00  0.00    -0.385 A  
HETATM    5  C   UNL     1      -8.049  18.184  68.683  1.00  0.00    -0.301 A  
HETATM    6  C   UNL     1      -8.235  17.367  67.561  1.00  0.00    -0.201 A  
HETATM    7 CL   UNL     1      -7.261  15.934  67.447  1.00  0.00    -0.205 Cl 
HETATM    8  C   UNL     1      -9.160  17.689  66.541  1.00  0.00    -0.265 A  
ENDROOT
BRANCH   8   9
HETATM    9  N   UNL     1      -9.349  16.779  65.479  1.00  0.00    -0.374 NA 
HETATM   10  H   UNL     1      -8.559  16.658  64.843  1.00  0.00     0.000 HD 
BRANCH   9  11
HETATM   11  C   UNL     1     -10.455  16.047  65.204  1.00  0.00    -0.303 A  
HETATM   12  N   UNL     1     -11.218  16.094  64.152  1.00  0.00    -1.197 NA 
HETATM   13  C   UNL     1     -12.202  15.001  64.332  1.00  0.00    -0.337 A  
HETATM   14  H   UNL     1     -11.154  16.745  63.369  1.00  0.00     0.000 HD 
HETATM   15  C   UNL     1     -11.910  14.365  65.692  1.00  0.00    -0.355 A  
HETATM   16  N   UNL     1     -10.777  15.133  66.166  1.00  0.00    -0.318 NA 
ENDBRANCH   9  11
ENDBRANCH   8   9
TORSDOF 2
ENDMDL
MODEL       11
REMARK 921   NORMALIZED FREE ENERGY PREDICTED BY IDOCK:   -4.92 KCAL/MOL
REMARK 922        TOTAL FREE ENERGY PREDICTED BY IDOCK:   -5.75 KCAL/MOL
REMARK 923 INTER-LIGAND FREE ENERGY PREDICTED BY IDOCK:   -5.47 KCAL/MOL
REMARK 924 INTRA-LIGAND FREE ENERGY PREDICTED BY IDOCK:   -0.28 KCAL/MOL
REMARK 927      BINDING AFFINITY PREDICTED BY RF-SCORE:    0.00 PKD
ROOT
HETATM    1 CL   UNL     1     -11.414  10.571  68.766  1.00  0.00    -0.310 Cl 
HETATM    2  C   UNL     1     -11.917  11.727  69.958  1.00  0.00    -0.344 A  
HETATM    3  C   UNL     1     -12.548  11.183  71.087  1.00  0.00    -0.513 A  
HETATM    4  C   UNL     1     -13.172  12.004  72.020  1.00  0.00    -0.481 A  
HETATM    5  C   UNL     1     -13.177  13.380  71.823  1.00  0.00    -0.495 A  
HETATM    6  C   UNL     1     -12.530  13.928  70.709  1.00  0.00    -0.375 A  
HETATM    7 CL   UNL     1     -12.593  15.653  70.520  1.00  0.00    -0.459 Cl 
HETATM    8  C   UNL     1     -11.866  13.125  69.754  1.00  0.00    -0.316 A  
ENDROOT
BRANCH   8   9
HETATM    9  N   UNL     1     -11.171  13.753  68.698  1.00  0.00    -0.263 NA 
HETATM   10  H   UNL     1     -10.312  14.243  68.953  1.00  0.00     0.000 HD 
BRANCH   9  11
HETATM   11  C   UNL     1     -11.510  13.784  67.387  1.00  0.00    -0.345 A  
HETATM   12  N   UNL     1     -12.639  14.136  66.849  1.00  0.00    -0.492 NA 
HETATM   13  C   UNL     1     -12.409  14.086  65.386  1.00  0.00    -0.478 A  
HETATM   14  H   UNL     1     -13.501  14.393  67.330  1.00  0.00     0.000 HD 
HETATM   15  C   UNL     1     -10.979  13.584  65.182  1.00  0.00    -0.320 A  
HETATM   16  N   UNL     1     -10.507  13.407  66.539  1.00  0.00    -0.279 NA 
ENDBRANCH   9  11
ENDBRANCH   8   9
TORSDOF 2
ENDMDL
MODEL       12
REMARK 921   NORMALIZED FREE ENERGY PREDICTED BY IDOCK:   -4.89 KCAL/MOL
REMARK 922        TOTAL FREE ENERGY PREDICTED BY IDOCK:   -5.72 KCAL/MOL
REMARK 923 INTER-LIGAND FREE ENERGY PREDICTED BY IDOCK:   -5.49 KCAL/MOL
REMARK 924 INTRA-LIGAND FREE ENERGY PREDICTED BY IDOCK:   -0.23 KCAL/MOL
REMARK 927      BINDING AFFINITY PREDICTED BY RF-SCORE:    0.00 PKD
ROOT
HETATM    1 CL   UNL     1     -12.280  13.218  63.232  1.00  0.00    -0.536 Cl 
HETATM    2  C   UNL     1     -11.341  12.210  64.287  1.00  0.00    -0.360 A  
HETATM    3  C   UNL     1     -10.430  11.359  63.643  1.00  0.00    -0.472 A  
HETATM    4  C   UNL     1      -9.761  10.366  64.349  1.00  0.00    -0.396 A  
HETATM    5  C   UNL     1     -10.007  10.211  65.708  1.00  0.00    -0.339 A  
HETATM    6  C   UNL     1     -10.899  11.071  66.358  1.00  0.00    -0.191 A  
HETATM    7 CL   UNL     1     -11.171  10.807  68.053  1.00  0.00    -0.349 Cl 
HETATM    8  C   UNL     1     -11.579  12.106  65.676  1.00  0.00    -0.351 A  
ENDROOT
BRANCH   8   9
HETATM    9  N   UNL     1     -12.404  12.983  66.413  1.00  0.00    -0.430 NA 
HETATM   10  H   UNL     1     -13.406  12.790  66.383  1.00  0.00     0.000 HD 
BRANCH   9  11
HETATM   11  C   UNL     1     -12.023  14.051  67.155  1.00  0.00    -0.430 A  
HETATM   12  N   UNL     1     -12.360  14.353  68.374  1.00  0.00    -0.599 NA 
HETATM   13  C   UNL     1     -11.562  15.554  68.714  1.00  0.00    -0.378 A  
HETATM   14  H   UNL     1     -13.031  13.868  68.969  1.00  0.00     0.000 HD 
HETATM   15  C   UNL     1     -10.762  15.921  67.463  1.00  0.00    -0.318 A  
HETATM   16  N   UNL     1     -11.155  14.893  66.522  1.00  0.00    -0.339 NA 
ENDBRANCH   9  11
ENDBRANCH   8   9
TORSDOF 2
ENDMDL
MODEL       13
REMARK 921   NORMALIZED FREE ENERGY PREDICTED BY IDOCK:   -4.87 KCAL/MOL
REMARK 922        TOTAL FREE ENERGY PREDICTED BY IDOCK:   -5.70 KCAL/MOL
REMARK 923 INTER-LIGAND FREE ENERGY PREDICTED BY IDOCK:   -5.41 KCAL/MOL
REMARK 924 INTRA-LIGAND FREE ENERGY PREDICTED BY IDOCK:   -0.29 KCAL/MOL
REMARK 927      BINDING AFFINITY PREDICTED BY RF-SCORE:    0.00 PKD
ROOT
HETATM    1 CL   UNL     1     -11.014  16.424  69.376  1.00  0.00    -0.327 Cl 
HETATM    2  C   UNL     1     -11.876  15.658  70.672  1.00  0.00    -0.376 A  
HETATM    3  C   UNL     1     -11.885  16.368  71.883  1.00  0.00    -0.433 A  
HETATM    4  C   UNL     1     -12.367  15.783  73.048  1.00  0.00    -0.586 A  
HETATM    5  C   UNL     1     -12.835  14.475  73.013  1.00  0.00    -0.550 A  
HETATM    6  C   UNL     1     -12.847  13.770  71.803  1.00  0.00    -0.326 A  
HETATM    7 CL   UNL     1     -13.429  12.135  71.837  1.00  0.00    -0.428 Cl 
HETATM    8  C   UNL     1     -12.387  14.343  70.594  1.00  0.00    -0.351 A  
ENDROOT
BRANCH   8   9
HETATM    9  N   UNL     1     -12.501  13.599  69.400  1.00  0.00    -0.249 NA 
HETATM   10  H   UNL     1     -13.400  13.652  68.921  1.00  0.00     0.000 HD 
BRANCH   9  11
HETATM   11  C   UNL     1     -11.556  12.823  68.815  1.00  0.00    -0.312 A  
HETATM   12  N   UNL     1     -10.295  12.718  69.113  1.00  0.00    -0.426 NA 
HETATM   13  C   UNL     1      -9.774  11.647  68.232  1.00  0.00    -0.197 A  
HETATM   14  H   UNL     1      -9.775  13.257  69.804  1.00  0.00     0.000 HD 
HETATM   15  C   UNL     1     -10.934  11.205  67.340  1.00  0.00    -0.290 A  
HETATM   16  N   UNL     1     -12.023  12.044  67.795  1.00  0.00    -0.553 NA 
ENDBRANCH   9  11
ENDBRANCH   8   9
TORSDOF 2
ENDMDL
MODEL       14
REMARK 921   NORMALIZED FREE ENERGY PREDICTED BY IDOCK:   -4.84 KCAL/MOL
REMARK 922        TOTAL FREE ENERGY PREDICTED BY IDOCK:   -5.66 KCAL/MOL
REMARK 923 INTER-LIGAND FREE ENERGY PREDICTED BY IDOCK:   -5.38 KCAL/MOL
REMARK 924 INTRA-LIGAND FREE ENERGY PREDICTED BY IDOCK:   -0.28 KCAL/MOL
REMARK 927      BINDING AFFINITY PREDICTED BY RF-SCORE:    0.00 PKD
ROOT
HETATM    1 CL   UNL     1     -10.078  11.015  67.966  1.00  0.00    -0.190 Cl 
HETATM    2  C   UNL     1     -10.391  11.055  66.260  1.00  0.00    -0.251 A  
HETATM    3  C   UNL     1      -9.581  10.209  65.486  1.00  0.00    -0.310 A  
HETATM    4  C   UNL     1      -9.591  10.287  64.098  1.00  0.00    -0.376 A  
HETATM    5  C   UNL     1     -10.406  11.223  63.472  1.00  0.00    -0.463 A  
HETATM    6  C   UNL     1     -11.231  12.055  64.240  1.00  0.00    -0.357 A  
HETATM    7 CL   UNL     1     -12.209  13.211  63.392  1.00  0.00    -0.594 Cl 
HETATM    8  C   UNL     1     -11.263  11.986  65.652  1.00  0.00    -0.327 A  
ENDROOT
BRANCH   8   9
HETATM    9  N   UNL     1     -12.176  12.802  66.355  1.00  0.00    -0.518 NA 
HETATM   10  H   UNL     1     -13.156  12.523  66.310  1.00  0.00     0.000 HD 
BRANCH   9  11
HETATM   11  C   UNL     1     -11.902  13.913  67.080  1.00  0.00    -0.412 A  
HETATM   12  N   UNL     1     -12.390  14.271  68.231  1.00  0.00    -0.580 NA 
HETATM   13  C   UNL     1     -11.655  15.503  68.602  1.00  0.00    -0.368 A  
HETATM   14  H   UNL     1     -13.122  13.803  68.765  1.00  0.00     0.000 HD 
HETATM   15  C   UNL     1     -10.714  15.822  67.441  1.00  0.00    -0.317 A  
HETATM   16  N   UNL     1     -10.974  14.740  66.514  1.00  0.00    -0.320 NA 
ENDBRANCH   9  11
ENDBRANCH   8   9
TORSDOF 2
ENDMDL
MODEL       15
REMARK 921   NORMALIZED FREE ENERGY PREDICTED BY IDOCK:   -4.83 KCAL/MOL
REMARK 922        TOTAL FREE ENERGY PREDICTED BY IDOCK:   -5.65 KCAL/MOL
REMARK 923 INTER-LIGAND FREE ENERGY PREDICTED BY IDOCK:   -5.36 KCAL/MOL
REMARK 924 INTRA-LIGAND FREE ENERGY PREDICTED BY IDOCK:   -0.29 KCAL/MOL
REMARK 927      BINDING AFFINITY PREDICTED BY RF-SCORE:    0.00 PKD
ROOT
HETATM    1 CL   UNL     1      -9.526  10.342  69.477  1.00  0.00    -0.228 Cl 
HETATM    2  C   UNL     1     -10.347   9.547  70.782  1.00  0.00    -0.306 A  
HETATM    3  C   UNL     1      -9.613   8.535  71.420  1.00  0.00    -0.282 A  
HETATM    4  C   UNL     1     -10.217   7.691  72.345  1.00  0.00    -0.282 A  
HETATM    5  C   UNL     1     -11.568   7.847  72.631  1.00  0.00    -0.435 A  
HETATM    6  C   UNL     1     -12.299   8.868  72.012  1.00  0.00    -0.390 A  
HETATM    7 CL   UNL     1     -13.986   8.992  72.404  1.00  0.00    -0.528 Cl 
HETATM    8  C   UNL     1     -11.711   9.759  71.085  1.00  0.00    -0.385 A  
ENDROOT
BRANCH   8   9
HETATM    9  N   UNL     1     -12.492  10.811  70.560  1.00  0.00    -0.344 NA 
HETATM   10  H   UNL     1     -13.099  10.573  69.775  1.00  0.00     0.000 HD 
BRANCH   9  11
HETATM   11  C   UNL     1     -12.529  12.101  70.975  1.00  0.00    -0.269 A  
HETATM   12  N   UNL     1     -11.859  13.118  70.523  1.00  0.00    -0.535 NA 
HETATM   13  C   UNL     1     -12.380  14.291  71.264  1.00  0.00    -0.363 A  
HETATM   14  H   UNL     1     -11.129  13.112  69.810  1.00  0.00     0.000 HD 
HETATM   15  C   UNL     1     -13.414  13.761  72.258  1.00  0.00    -0.541 A  
HETATM   16  N   UNL     1     -13.411  12.337  71.991  1.00  0.00    -0.477 NA 
ENDBRANCH   9  11
ENDBRANCH   8   9
TORSDOF 2
ENDMDL
MODEL       16
REMARK 921   NORMALIZED FREE ENERGY PREDICTED BY IDOCK:   -4.82 KCAL/MOL
REMARK 922        TOTAL FREE ENERGY PREDICTED BY IDOCK:   -5.64 KCAL/MOL
REMARK 923 INTER-LIGAND FREE ENERGY PREDICTED BY IDOCK:   -5.40 KCAL/MOL
REMARK 924 INTRA-LIGAND FREE ENERGY PREDICTED BY IDOCK:   -0.25 KCAL/MOL
REMARK 927      BINDING AFFINITY PREDICTED BY RF-SCORE:    0.00 PKD
ROOT
HETATM    1 CL   UNL     1     -11.659  12.308  68.061  1.00  0.00    -0.385 Cl 
HETATM    2  C   UNL     1     -12.156  12.570  69.703  1.00  0.00    -0.207 A  
HETATM    3  C   UNL     1     -12.357  11.405  70.458  1.00  0.00    -0.439 A  
HETATM    4  C   UNL     1     -12.942  11.464  71.718  1.00  0.00    -0.519 A  
HETATM    5  C   UNL     1     -13.342  12.693  72.228  1.00  0.00    -0.527 A  
HETATM    6  C   UNL     1     -13.124  13.860  71.487  1.00  0.00    -0.365 A  
HETATM    7 CL   UNL     1     -13.665  15.358  72.180  1.00  0.00    -0.562 Cl 
HETATM    8  C   UNL     1     -12.511  13.840  70.213  1.00  0.00    -0.289 A  
ENDROOT
BRANCH   8   9
HETATM    9  N   UNL     1     -12.255  15.064  69.558  1.00  0.00    -0.509 NA 
HETATM   10  H   UNL     1     -13.074  15.582  69.237  1.00  0.00     0.000 HD 
BRANCH   9  11
HETATM   11  C   UNL     1     -11.051  15.631  69.306  1.00  0.00    -0.293 A  
HETATM   12  N   UNL     1      -9.886  15.308  69.783  1.00  0.00    -0.427 NA 
HETATM   13  C   UNL     1      -8.919  16.182  69.080  1.00  0.00    -0.247 A  
HETATM   14  H   UNL     1      -9.681  14.603  70.491  1.00  0.00     0.000 HD 
HETATM   15  C   UNL     1      -9.734  17.100  68.170  1.00  0.00    -0.276 A  
HETATM   16  N   UNL     1     -11.094  16.665  68.414  1.00  0.00    -0.350 NA 
ENDBRANCH   9  11
ENDBRANCH   8   9
TORSDOF 2
ENDMDL
MODEL       17
REMARK 921   NORMALIZED FREE ENERGY PREDICTED BY IDOCK:   -4.82 KCAL/MOL
REMARK 922        TOTAL FREE ENERGY PREDICTED BY IDOCK:   -5.64 KCAL/MOL
REMARK 923 INTER-LIGAND FREE ENERGY PREDICTED BY IDOCK:   -5.90 KCAL/MOL
REMARK 924 INTRA-LIGAND FREE ENERGY PREDICTED BY IDOCK:    0.27 KCAL/MOL
REMARK 927      BINDING AFFINITY PREDICTED BY RF-SCORE:    0.00 PKD
ROOT
HETATM    1 CL   UNL     1     -11.177  15.131  66.158  1.00  0.00    -0.313 Cl 
HETATM    2  C   UNL     1     -11.703  14.493  67.682  1.00  0.00    -0.382 A  
HETATM    3  C   UNL     1     -11.827  15.437  68.713  1.00  0.00    -0.339 A  
HETATM    4  C   UNL     1     -12.047  15.035  70.026  1.00  0.00    -0.382 A  
HETATM    5  C   UNL     1     -12.135  13.679  70.319  1.00  0.00    -0.427 A  
HETATM    6  C   UNL     1     -12.033  12.735  69.290  1.00  0.00    -0.246 A  
HETATM    7 CL   UNL     1     -12.136  11.059  69.734  1.00  0.00    -0.404 Cl 
HETATM    8  C   UNL     1     -11.833  13.110  67.942  1.00  0.00    -0.348 A  
ENDROOT
BRANCH   8   9
HETATM    9  N   UNL     1     -11.816  12.106  66.950  1.00  0.00    -0.601 NA 
HETATM   10  H   UNL     1     -11.792  11.142  67.285  1.00  0.00     0.000 HD 
BRANCH   9  11
HETATM   11  C   UNL     1     -11.829  12.271  65.605  1.00  0.00    -0.360 A  
HETATM   12  N   UNL     1     -12.824  12.608  64.839  1.00  0.00    -0.842 NA 
HETATM   13  C   UNL     1     -12.243  12.751  63.483  1.00  0.00    -0.525 A  
HETATM   14  H   UNL     1     -13.797  12.743  65.111  1.00  0.00     0.000 HD 
HETATM   15  C   UNL     1     -10.764  12.378  63.595  1.00  0.00    -0.455 A  
HETATM   16  N   UNL     1     -10.619  12.071  65.003  1.00  0.00    -0.278 NA 
ENDBRANCH   9  11
ENDBRANCH   8   9
TORSDOF 2
ENDMDL
MODEL       18
REMARK 921   NORMALIZED FREE ENERGY PREDICTED BY IDOCK:   -4.82 KCAL/MOL
REMARK 922        TOTAL FREE ENERGY PREDICTED BY IDOCK:   -5.64 KCAL/MOL
REMARK 923 INTER-LIGAND FREE ENERGY PREDICTED BY IDOCK:   -5.36 KCAL/MOL
REMARK 924 INTRA-LIGAND FREE ENERGY PREDICTED BY IDOCK:   -0.28 KCAL/MOL
REMARK 927      BINDING AFFINITY PREDICTED BY RF-SCORE:    0.00 PKD
ROOT
HETATM    1 CL   UNL     1     -13.376  15.708  71.862  1.00  0.00    -0.545 Cl 
HETATM    2  C   UNL     1     -13.111  14.078  71.330  1.00  0.00    -0.353 A  
HETATM    3  C   UNL     1     -13.503  13.083  72.239  1.00  0.00    -0.645 A  
HETATM    4  C   UNL     1     -13.170  11.750  72.025  1.00  0.00    -0.460 A  
HETATM    5  C   UNL     1     -12.429  11.404  70.901  1.00  0.00    -0.478 A  
HETATM    6  C   UNL     1     -12.054  12.390  69.981  1.00  0.00    -0.263 A  
HETATM    7 CL   UNL     1     -11.116  11.886  68.610  1.00  0.00    -0.267 Cl 
HETATM    8  C   UNL     1     -12.397  13.751  70.155  1.00  0.00    -0.323 A  
ENDROOT
BRANCH   8   9
HETATM    9  N   UNL     1     -12.050  14.677  69.148  1.00  0.00    -0.494 NA 
HETATM   10  H   UNL     1     -12.720  14.784  68.385  1.00  0.00     0.000 HD 
BRANCH   9  11
HETATM   11  C   UNL     1     -10.932  15.439  69.074  1.00  0.00    -0.252 A  
HETATM   12  N   UNL     1      -9.741  15.179  69.525  1.00  0.00    -0.377 NA 
HETATM   13  C   UNL     1      -8.894  16.303  69.064  1.00  0.00    -0.243 A  
HETATM   14  H   UNL     1      -9.452  14.372  70.078  1.00  0.00     0.000 HD 
HETATM   15  C   UNL     1      -9.815  17.278  68.331  1.00  0.00    -0.309 A  
HETATM   16  N   UNL     1     -11.104  16.624  68.417  1.00  0.00    -0.350 NA 
ENDBRANCH   9  11
ENDBRANCH   8   9
TORSDOF 2
ENDMDL
MODEL       19
REMARK 921   NORMALIZED FREE ENERGY PREDICTED BY IDOCK:   -4.82 KCAL/MOL
REMARK 922        TOTAL FREE ENERGY PREDICTED BY IDOCK:   -5.63 KCAL/MOL
REMARK 923 INTER-LIGAND FREE ENERGY PREDICTED BY IDOCK:   -5.42 KCAL/MOL
REMARK 924 INTRA-LIGAND FREE ENERGY PREDICTED BY IDOCK:   -0.21 KCAL/MOL
REMARK 927      BINDING AFFINITY PREDICTED BY RF-SCORE:    0.00 PKD
ROOT
HETATM    1 CL   UNL     1     -12.917  11.902  71.486  1.00  0.00    -0.488 Cl 
HETATM    2  C   UNL     1     -12.048  12.276  70.032  1.00  0.00    -0.273 A  
HETATM    3  C   UNL     1     -11.234  11.244  69.541  1.00  0.00    -0.337 A  
HETATM    4  C   UNL     1     -10.339  11.474  68.503  1.00  0.00    -0.224 A  
HETATM    5  C   UNL     1     -10.244  12.747  67.953  1.00  0.00    -0.229 A  
HETATM    6  C   UNL     1     -11.069  13.775  68.426  1.00  0.00    -0.263 A  
HETATM    7 CL   UNL     1     -10.882  15.343  67.704  1.00  0.00    -0.297 Cl 
HETATM    8  C   UNL     1     -12.006  13.570  69.464  1.00  0.00    -0.334 A  
ENDROOT
BRANCH   8   9
HETATM    9  N   UNL     1     -12.857  14.633  69.836  1.00  0.00    -0.566 NA 
HETATM   10  H   UNL     1     -13.434  15.029  69.093  1.00  0.00     0.000 HD 
BRANCH   9  11
HETATM   11  C   UNL     1     -12.997  15.191  71.063  1.00  0.00    -0.431 A  
HETATM   12  N   UNL     1     -14.078  15.328  71.773  1.00  0.00    -0.520 NA 
HETATM   13  C   UNL     1     -13.627  15.894  73.066  1.00  0.00    -0.536 A  
HETATM   14  H   UNL     1     -15.032  15.096  71.499  1.00  0.00     0.000 HD 
HETATM   15  C   UNL     1     -12.119  16.115  72.949  1.00  0.00    -0.541 A  
HETATM   16  N   UNL     1     -11.830  15.642  71.611  1.00  0.00    -0.383 NA 
ENDBRANCH   9  11
ENDBRANCH   8   9
TORSDOF 2
ENDMDL
MODEL       20
REMARK 921   NORMALIZED FREE ENERGY PREDICTED BY IDOCK:   -4.80 KCAL/MOL
REMARK 922        TOTAL FREE ENERGY PREDICTED BY IDOCK:   -5.61 KCAL/MOL
REMARK 923 INTER-LIGAND FREE ENERGY PREDICTED BY IDOCK:   -5.28 KCAL/MOL
REMARK 924 INTRA-LIGAND FREE ENERGY PREDICTED BY IDOCK:   -0.33 KCAL/MOL
REMARK 927      BINDING AFFINITY PREDICTED BY RF-SCORE:    0.00 PKD
ROOT
HETATM    1 CL   UNL     1     -10.344  10.057  66.871  1.00  0.00    -0.296 Cl 
HETATM    2  C   UNL     1     -11.211  11.549  67.049  1.00  0.00    -0.300 A  
HETATM    3  C   UNL     1     -11.646  12.133  65.849  1.00  0.00    -0.425 A  
HETATM    4  C   UNL     1     -12.176  13.417  65.833  1.00  0.00    -0.502 A  
HETATM    5  C   UNL     1     -12.266  14.135  67.020  1.00  0.00    -0.374 A  
HETATM    6  C   UNL     1     -11.852  13.548  68.222  1.00  0.00    -0.366 A  
HETATM    7 CL   UNL     1     -11.977  14.509  69.663  1.00  0.00    -0.355 Cl 
HETATM    8  C   UNL     1     -11.331  12.235  68.279  1.00  0.00    -0.289 A  
ENDROOT
BRANCH   8   9
HETATM    9  N   UNL     1     -11.007  11.683  69.537  1.00  0.00    -0.444 NA 
HETATM   10  H   UNL     1     -10.139  12.012  69.963  1.00  0.00     0.000 HD 
BRANCH   9  11
HETATM   11  C   UNL     1     -11.712  10.768  70.245  1.00  0.00    -0.352 A  
HETATM   12  N   UNL     1     -11.665   9.471  70.166  1.00  0.00    -0.447 NA 
HETATM   13  C   UNL     1     -12.555   8.982  71.246  1.00  0.00    -0.280 A  
HETATM   14  H   UNL     1     -11.131   8.909  69.503  1.00  0.00     0.000 HD 
HETATM   15  C   UNL     1     -13.164  10.217  71.909  1.00  0.00    -0.452 A  
HETATM   16  N   UNL     1     -12.560  11.306  71.169  1.00  0.00    -0.403 NA 
ENDBRANCH   9  11
ENDBRANCH   8   9
TORSDOF 2
ENDMDL
MODEL       21
REMARK 921   NORMALIZED FREE ENERGY PREDICTED BY IDOCK:   -4.79 KCAL/MOL
REMARK 922        TOTAL FREE ENERGY PREDICTED BY IDOCK:   -5.60 KCAL/MOL
REMARK 923 INTER-LIGAND FREE ENERGY PREDICTED BY IDOCK:   -5.31 KCAL/MOL
REMARK 924 INTRA-LIGAND FREE ENERGY PREDICTED BY IDOCK:   -0.29 KCAL/MOL
REMARK 927      BINDING AFFINITY PREDICTED BY RF-SCORE:    0.00 PKD
ROOT
HETATM    1 CL   UNL     1     -11.758  14.937  68.270  1.00  0.00    -0.350 Cl 
HETATM    2  C   UNL     1     -11.487  13.420  69.066  1.00  0.00    -0.301 A  
HETATM    3  C   UNL     1     -10.549  12.580  68.446  1.00  0.00    -0.256 A  
HETATM    4  C   UNL     1     -10.382  11.265  68.865  1.00  0.00    -0.214 A  
HETATM    5  C   UNL     1     -11.164  10.775  69.905  1.00  0.00    -0.371 A  
HETATM    6  C   UNL     1     -12.086  11.615  70.540  1.00  0.00    -0.366 A  
HETATM    7 CL   UNL     1     -13.040  10.931  71.819  1.00  0.00    -0.586 Cl 
HETATM    8  C   UNL     1     -12.264  12.964  70.155  1.00  0.00    -0.266 A  
ENDROOT
BRANCH   8   9
HETATM    9  N   UNL     1     -13.157  13.772  70.892  1.00  0.00    -0.210 NA 
HETATM   10  H   UNL     1     -14.131  13.763  70.585  1.00  0.00     0.000 HD 
BRANCH   9  11
HETATM   11  C   UNL     1     -12.874  14.558  71.959  1.00  0.00    -0.337 A  
HETATM   12  N   UNL     1     -13.076  14.317  73.221  1.00  0.00    -0.533 NA 
HETATM   13  C   UNL     1     -12.473  15.463  73.939  1.00  0.00    -0.629 A  
HETATM   14  H   UNL     1     -13.550  13.512  73.629  1.00  0.00     0.000 HD 
HETATM   15  C   UNL     1     -11.950  16.427  72.874  1.00  0.00    -0.474 A  
HETATM   16  N   UNL     1     -12.281  15.746  71.639  1.00  0.00    -0.418 NA 
ENDBRANCH   9  11
ENDBRANCH   8   9
TORSDOF 2
ENDMDL
MODEL       22
REMARK 921   NORMALIZED FREE ENERGY PREDICTED BY IDOCK:   -4.77 KCAL/MOL
REMARK 922        TOTAL FREE ENERGY PREDICTED BY IDOCK:   -5.58 KCAL/MOL
REMARK 923 INTER-LIGAND FREE ENERGY PREDICTED BY IDOCK:   -5.29 KCAL/MOL
REMARK 924 INTRA-LIGAND FREE ENERGY PREDICTED BY IDOCK:   -0.30 KCAL/MOL
REMARK 927      BINDING AFFINITY PREDICTED BY RF-SCORE:    0.00 PKD
ROOT
HETATM    1 CL   UNL     1     -12.189  13.923  70.544  1.00  0.00    -0.423 Cl 
HETATM    2  C   UNL     1     -11.727  13.148  69.062  1.00  0.00    -0.321 A  
HETATM    3  C   UNL     1     -11.963  13.898  67.899  1.00  0.00    -0.393 A  
HETATM    4  C   UNL     1     -11.824  13.324  66.640  1.00  0.00    -0.447 A  
HETATM    5  C   UNL     1     -11.458  11.987  66.536  1.00  0.00    -0.413 A  
HETATM    6  C   UNL     1     -11.202  11.241  67.693  1.00  0.00    -0.292 A  
HETATM    7 CL   UNL     1     -10.766   9.573  67.486  1.00  0.00    -0.344 Cl 
HETATM    8  C   UNL     1     -11.310  11.800  68.987  1.00  0.00    -0.278 A  
ENDROOT
BRANCH   8   9
HETATM    9  N   UNL     1     -10.962  11.009  70.103  1.00  0.00    -0.467 NA 
HETATM   10  H   UNL     1      -9.972  10.990  70.351  1.00  0.00     0.000 HD 
BRANCH   9  11
HETATM   11  C   UNL     1     -11.788  10.270  70.884  1.00  0.00    -0.377 A  
HETATM   12  N   UNL     1     -13.051  10.456  71.132  1.00  0.00    -0.392 NA 
HETATM   13  C   UNL     1     -13.466   9.290  71.946  1.00  0.00    -0.430 A  
HETATM   14  H   UNL     1     -13.632  11.238  70.831  1.00  0.00     0.000 HD 
HETATM   15  C   UNL     1     -12.213   8.442  72.173  1.00  0.00    -0.374 A  
HETATM   16  N   UNL     1     -11.194   9.182  71.457  1.00  0.00    -0.335 NA 
ENDBRANCH   9  11
ENDBRANCH   8   9
TORSDOF 2
ENDMDL
MODEL       23
REMARK 921   NORMALIZED FREE ENERGY PREDICTED BY IDOCK:   -4.76 KCAL/MOL
REMARK 922        TOTAL FREE ENERGY PREDICTED BY IDOCK:   -5.57 KCAL/MOL
REMARK 923 INTER-LIGAND FREE ENERGY PREDICTED BY IDOCK:   -5.25 KCAL/MOL
REMARK 924 INTRA-LIGAND FREE ENERGY PREDICTED BY IDOCK:   -0.32 KCAL/MOL
REMARK 927      BINDING AFFINITY PREDICTED BY RF-SCORE:    0.00 PKD
ROOT
HETATM    1 CL   UNL     1     -13.373  12.768  71.769  1.00  0.00    -0.496 Cl 
HETATM    2  C   UNL     1     -12.819  11.178  71.347  1.00  0.00    -0.439 A  
HETATM    3  C   UNL     1     -13.475  10.125  72.003  1.00  0.00    -0.418 A  
HETATM    4  C   UNL     1     -13.002   8.821  71.907  1.00  0.00    -0.421 A  
HETATM    5  C   UNL     1     -11.859   8.563  71.160  1.00  0.00    -0.322 A  
HETATM    6  C   UNL     1     -11.213   9.608  70.488  1.00  0.00    -0.297 A  
HETATM    7 CL   UNL     1      -9.781   9.213  69.589  1.00  0.00    -0.173 Cl 
HETATM    8  C   UNL     1     -11.681  10.941  70.544  1.00  0.00    -0.342 A  
ENDROOT
BRANCH   8   9
HETATM    9  N   UNL     1     -11.023  11.928  69.778  1.00  0.00    -0.462 NA 
HETATM   10  H   UNL     1     -10.105  12.220  70.114  1.00  0.00     0.000 HD 
BRANCH   9  11
HETATM   11  C   UNL     1     -11.468  12.532  68.650  1.00  0.00    -0.306 A  
HETATM   12  N   UNL     1     -11.747  13.787  68.459  1.00  0.00    -0.335 NA 
HETATM   13  C   UNL     1     -12.074  13.900  67.018  1.00  0.00    -0.415 A  
HETATM   14  H   UNL     1     -11.743  14.535  69.152  1.00  0.00     0.000 HD 
HETATM   15  C   UNL     1     -11.996  12.489  66.436  1.00  0.00    -0.318 A  
HETATM   16  N   UNL     1     -11.615  11.692  67.584  1.00  0.00    -0.508 NA 
ENDBRANCH   9  11
ENDBRANCH   8   9
TORSDOF 2
ENDMDL
MODEL       24
REMARK 921   NORMALIZED FREE ENERGY PREDICTED BY IDOCK:   -4.74 KCAL/MOL
REMARK 922        TOTAL FREE ENERGY PREDICTED BY IDOCK:   -5.55 KCAL/MOL
REMARK 923 INTER-LIGAND FREE ENERGY PREDICTED BY IDOCK:   -5.33 KCAL/MOL
REMARK 924 INTRA-LIGAND FREE ENERGY PREDICTED BY IDOCK:   -0.21 KCAL/MOL
REMARK 927      BINDING AFFINITY PREDICTED BY RF-SCORE:    0.00 PKD
ROOT
HETATM    1 CL   UNL     1     -13.842   9.078  71.700  1.00  0.00    -0.432 Cl 
HETATM    2  C   UNL     1     -12.132   8.801  71.614  1.00  0.00    -0.337 A  
HETATM    3  C   UNL     1     -11.594   8.058  72.677  1.00  0.00    -0.448 A  
HETATM    4  C   UNL     1     -10.218   7.933  72.834  1.00  0.00    -0.397 A  
HETATM    5  C   UNL     1      -9.368   8.561  71.932  1.00  0.00    -0.337 A  
HETATM    6  C   UNL     1      -9.900   9.286  70.859  1.00  0.00    -0.293 A  
HETATM    7 CL   UNL     1      -8.778  10.058  69.783  1.00  0.00    -0.214 Cl 
HETATM    8  C   UNL     1     -11.294   9.414  70.656  1.00  0.00    -0.292 A  
ENDROOT
BRANCH   8   9
HETATM    9  N   UNL     1     -11.756  10.096  69.509  1.00  0.00    -0.459 NA 
HETATM   10  H   UNL     1     -12.070   9.511  68.733  1.00  0.00     0.000 HD 
BRANCH   9  11
HETATM   11  C   UNL     1     -11.832  11.435  69.317  1.00  0.00    -0.349 A  
HETATM   12  N   UNL     1     -11.878  12.381  70.208  1.00  0.00    -0.534 NA 
HETATM   13  C   UNL     1     -11.837  13.646  69.439  1.00  0.00    -0.339 A  
HETATM   14  H   UNL     1     -11.932  12.275  71.221  1.00  0.00     0.000 HD 
HETATM   15  C   UNL     1     -11.824  13.262  67.959  1.00  0.00    -0.355 A  
HETATM   16  N   UNL     1     -11.841  11.814  68.005  1.00  0.00    -0.546 NA 
ENDBRANCH   9  11
ENDBRANCH   8   9
TORSDOF 2
ENDMDL
MODEL       25
REMARK 921   NORMALIZED FREE ENERGY PREDICTED BY IDOCK:   -4.73 KCAL/MOL
REMARK 922        TOTAL FREE ENERGY PREDICTED BY IDOCK:   -5.53 KCAL/MOL
REMARK 923 INTER-LIGAND FREE ENERGY PREDICTED BY IDOCK:   -5.23 KCAL/MOL
REMARK 924 INTRA-LIGAND FREE ENERGY PREDICTED BY IDOCK:   -0.30 KCAL/MOL
REMARK 927      BINDING AFFINITY PREDICTED BY RF-SCORE:    0.00 PKD
ROOT
HETATM    1 CL   UNL     1     -11.626  12.657  66.634  1.00  0.00    -0.418 Cl 
HETATM    2  C   UNL     1     -11.785  12.831  68.353  1.00  0.00    -0.339 A  
HETATM    3  C   UNL     1     -11.716  11.633  69.082  1.00  0.00    -0.390 A  
HETATM    4  C   UNL     1     -12.023  11.606  70.437  1.00  0.00    -0.448 A  
HETATM    5  C   UNL     1     -12.413  12.778  71.074  1.00  0.00    -0.369 A  
HETATM    6  C   UNL     1     -12.463  13.979  70.355  1.00  0.00    -0.350 A  
HETATM    7 CL   UNL     1     -12.975  15.400  71.211  1.00  0.00    -0.498 Cl 
HETATM    8  C   UNL     1     -12.135  14.047  68.981  1.00  0.00    -0.323 A  
ENDROOT
BRANCH   8   9
HETATM    9  N   UNL     1     -12.134  15.306  68.342  1.00  0.00    -0.552 NA 
HETATM   10  H   UNL     1     -13.046  15.667  68.057  1.00  0.00     0.000 HD 
BRANCH   9  11
HETATM   11  C   UNL     1     -11.066  16.090  68.060  1.00  0.00    -0.334 A  
HETATM   12  N   UNL     1     -10.428  16.219  66.934  1.00  0.00    -0.309 NA 
HETATM   13  C   UNL     1      -9.430  17.288  67.170  1.00  0.00    -0.256 A  
HETATM   14  H   UNL     1     -10.582  15.696  66.073  1.00  0.00     0.000 HD 
HETATM   15  C   UNL     1      -9.563  17.701  68.636  1.00  0.00    -0.307 A  
HETATM   16  N   UNL     1     -10.635  16.850  69.110  1.00  0.00    -0.338 NA 
ENDBRANCH   9  11
ENDBRANCH   8   9
TORSDOF 2
ENDMDL
MODEL       26
REMARK 921   NORMALIZED FREE ENERGY PREDICTED BY IDOCK:   -4.70 KCAL/MOL
REMARK 922        TOTAL FREE ENERGY PREDICTED BY IDOCK:   -5.51 KCAL/MOL
REMARK 923 INTER-LIGAND FREE ENERGY PREDICTED BY IDOCK:   -5.34 KCAL/MOL
REMARK 924 INTRA-LIGAND FREE ENERGY PREDICTED BY IDOCK:   -0.17 KCAL/MOL
REMARK 927      BINDING AFFINITY PREDICTED BY RF-SCORE:    0.00 PKD
ROOT
HETATM    1 CL   UNL     1     -11.834  13.077  67.736  1.00  0.00    -0.402 Cl 
HETATM    2  C   UNL     1     -10.929  14.553  67.854  1.00  0.00    -0.269 A  
HETATM    3  C   UNL     1     -10.347  14.796  69.108  1.00  0.00    -0.237 A  
HETATM    4  C   UNL     1      -9.765  16.025  69.396  1.00  0.00    -0.248 A  
HETATM    5  C   UNL     1      -9.771  17.027  68.433  1.00  0.00    -0.279 A  
HETATM    6  C   UNL     1     -10.333  16.781  67.174  1.00  0.00    -0.297 A  
HETATM    7 CL   UNL     1     -10.320  18.084  66.027  1.00  0.00    -0.379 Cl 
HETATM    8  C   UNL     1     -10.911  15.536  66.839  1.00  0.00    -0.268 A  
ENDROOT
BRANCH   8   9
HETATM    9  N   UNL     1     -11.389  15.336  65.525  1.00  0.00    -0.273 NA 
HETATM   10  H   UNL     1     -11.960  16.087  65.135  1.00  0.00     0.000 HD 
BRANCH   9  11
HETATM   11  C   UNL     1     -11.179  14.265  64.722  1.00  0.00    -0.385 A  
HETATM   12  N   UNL     1     -10.056  13.678  64.431  1.00  0.00    -0.748 NA 
HETATM   13  C   UNL     1     -10.431  12.502  63.611  1.00  0.00    -0.384 A  
HETATM   14  H   UNL     1      -9.118  13.964  64.708  1.00  0.00     0.000 HD 
HETATM   15  C   UNL     1     -11.949  12.556  63.430  1.00  0.00    -0.514 A  
HETATM   16  N   UNL     1     -12.316  13.743  64.175  1.00  0.00    -0.659 NA 
ENDBRANCH   9  11
ENDBRANCH   8   9
TORSDOF 2
ENDMDL
MODEL       27
REMARK 921   NORMALIZED FREE ENERGY PREDICTED BY IDOCK:   -4.70 KCAL/MOL
REMARK 922        TOTAL FREE ENERGY PREDICTED BY IDOCK:   -5.51 KCAL/MOL
REMARK 923 INTER-LIGAND FREE ENERGY PREDICTED BY IDOCK:   -5.26 KCAL/MOL
REMARK 924 INTRA-LIGAND FREE ENERGY PREDICTED BY IDOCK:   -0.25 KCAL/MOL
REMARK 927      BINDING AFFINITY PREDICTED BY RF-SCORE:    0.00 PKD
ROOT
HETATM    1 CL   UNL     1     -11.712  11.372  68.292  1.00  0.00    -0.375 Cl 
HETATM    2  C   UNL     1     -11.447  12.079  66.730  1.00  0.00    -0.345 A  
HETATM    3  C   UNL     1     -10.878  11.221  65.775  1.00  0.00    -0.257 A  
HETATM    4  C   UNL     1     -10.434  11.710  64.552  1.00  0.00    -0.359 A  
HETATM    5  C   UNL     1     -10.547  13.068  64.278  1.00  0.00    -0.434 A  
HETATM    6  C   UNL     1     -11.133  13.924  65.219  1.00  0.00    -0.318 A  
HETATM    7 CL   UNL     1     -11.224  15.610  64.815  1.00  0.00    -0.428 Cl 
HETATM    8  C   UNL     1     -11.616  13.457  66.463  1.00  0.00    -0.357 A  
ENDROOT
BRANCH   8   9
HETATM    9  N   UNL     1     -12.264  14.364  67.328  1.00  0.00    -0.608 NA 
HETATM   10  H   UNL     1     -13.236  14.583  67.106  1.00  0.00     0.000 HD 
BRANCH   9  11
HETATM   11  C   UNL     1     -11.746  14.980  68.419  1.00  0.00    -0.317 A  
HETATM   12  N   UNL     1     -12.373  15.603  69.372  1.00  0.00    -0.565 NA 
HETATM   13  C   UNL     1     -11.326  15.973  70.352  1.00  0.00    -0.391 A  
HETATM   14  H   UNL     1     -13.373  15.797  69.433  1.00  0.00     0.000 HD 
HETATM   15  C   UNL     1      -9.991  15.513  69.767  1.00  0.00    -0.274 A  
HETATM   16  N   UNL     1     -10.386  14.905  68.513  1.00  0.00    -0.231 NA 
ENDBRANCH   9  11
ENDBRANCH   8   9
TORSDOF 2
ENDMDL
MODEL       28
REMARK 921   NORMALIZED FREE ENERGY PREDICTED BY IDOCK:   -4.70 KCAL/MOL
REMARK 922        TOTAL FREE ENERGY PREDICTED BY IDOCK:   -5.50 KCAL/MOL
REMARK 923 INTER-LIGAND FREE ENERGY PREDICTED BY IDOCK:   -5.21 KCAL/MOL
REMARK 924 INTRA-LIGAND FREE ENERGY PREDICTED BY IDOCK:   -0.28 KCAL/MOL
REMARK 927      BINDING AFFINITY PREDICTED BY RF-SCORE:    0.00 PKD
ROOT
HETATM    1 CL   UNL     1     -13.551  12.313  72.081  1.00  0.00    -0.493 Cl 
HETATM    2  C   UNL     1     -12.666  13.767  71.747  1.00  0.00    -0.282 A  
HETATM    3  C   UNL     1     -12.434  14.592  72.858  1.00  0.00    -0.390 A  
HETATM    4  C   UNL     1     -11.914  15.872  72.700  1.00  0.00    -0.610 A  
HETATM    5  C   UNL     1     -11.631  16.341  71.422  1.00  0.00    -0.424 A  
HETATM    6  C   UNL     1     -11.842  15.513  70.313  1.00  0.00    -0.357 A  
HETATM    7 CL   UNL     1     -11.482  16.172  68.747  1.00  0.00    -0.364 Cl 
HETATM    8  C   UNL     1     -12.347  14.199  70.439  1.00  0.00    -0.359 A  
ENDROOT
BRANCH   8   9
HETATM    9  N   UNL     1     -12.460  13.396  69.283  1.00  0.00    -0.058 NA 
HETATM   10  H   UNL     1     -13.320  13.503  68.744  1.00  0.00     0.000 HD 
BRANCH   9  11
HETATM   11  C   UNL     1     -11.562  12.501  68.806  1.00  0.00    -0.322 A  
HETATM   12  N   UNL     1     -10.267  12.508  68.927  1.00  0.00    -0.425 NA 
HETATM   13  C   UNL     1      -9.811  11.238  68.316  1.00  0.00    -0.197 A  
HETATM   14  H   UNL     1      -9.689  13.234  69.350  1.00  0.00     0.000 HD 
HETATM   15  C   UNL     1     -11.055  10.537  67.772  1.00  0.00    -0.317 A  
HETATM   16  N   UNL     1     -12.119  11.453  68.131  1.00  0.00    -0.617 NA 
ENDBRANCH   9  11
ENDBRANCH   8   9
TORSDOF 2
ENDMDL
MODEL       29
REMARK 921   NORMALIZED FREE ENERGY PREDICTED BY IDOCK:   -4.69 KCAL/MOL
REMARK 922        TOTAL FREE ENERGY PREDICTED BY IDOCK:   -5.49 KCAL/MOL
REMARK 923 INTER-LIGAND FREE ENERGY PREDICTED BY IDOCK:   -5.19 KCAL/MOL
REMARK 924 INTRA-LIGAND FREE ENERGY PREDICTED BY IDOCK:   -0.30 KCAL/MOL
REMARK 927      BINDING AFFINITY PREDICTED BY RF-SCORE:    0.00 PKD
ROOT
HETATM    1 CL   UNL     1     -13.554  12.593  72.216  1.00  0.00    -0.611 Cl 
HETATM    2  C   UNL     1     -12.514  12.760  70.837  1.00  0.00    -0.283 A  
HETATM    3  C   UNL     1     -12.096  14.071  70.560  1.00  0.00    -0.424 A  
HETATM    4  C   UNL     1     -11.427  14.372  69.379  1.00  0.00    -0.330 A  
HETATM    5  C   UNL     1     -11.179  13.361  68.458  1.00  0.00    -0.316 A  
HETATM    6  C   UNL     1     -11.576  12.048  68.740  1.00  0.00    -0.311 A  
HETATM    7 CL   UNL     1     -11.248  10.841  67.536  1.00  0.00    -0.377 Cl 
HETATM    8  C   UNL     1     -12.237  11.703  69.941  1.00  0.00    -0.239 A  
ENDROOT
BRANCH   8   9
HETATM    9  N   UNL     1     -12.537  10.346  70.189  1.00  0.00    -0.526 NA 
HETATM   10  H   UNL     1     -13.256   9.928  69.597  1.00  0.00     0.000 HD 
BRANCH   9  11
HETATM   11  C   UNL     1     -11.984   9.533  71.121  1.00  0.00    -0.348 A  
HETATM   12  N   UNL     1     -12.580   8.770  71.989  1.00  0.00    -0.358 NA 
HETATM   13  C   UNL     1     -11.493   8.026  72.667  1.00  0.00    -0.402 A  
HETATM   14  H   UNL     1     -13.582   8.698  72.165  1.00  0.00     0.000 HD 
HETATM   15  C   UNL     1     -10.176   8.540  72.085  1.00  0.00    -0.333 A  
HETATM   16  N   UNL     1     -10.618   9.519  71.113  1.00  0.00    -0.332 NA 
ENDBRANCH   9  11
ENDBRANCH   8   9
TORSDOF 2
ENDMDL
MODEL       30
REMARK 921   NORMALIZED FREE ENERGY PREDICTED BY IDOCK:   -4.68 KCAL/MOL
REMARK 922        TOTAL FREE ENERGY PREDICTED BY IDOCK:   -5.48 KCAL/MOL
REMARK 923 INTER-LIGAND FREE ENERGY PREDICTED BY IDOCK:   -5.23 KCAL/MOL
REMARK 924 INTRA-LIGAND FREE ENERGY PREDICTED BY IDOCK:   -0.24 KCAL/MOL
REMARK 927      BINDING AFFINITY PREDICTED BY RF-SCORE:    0.00 PKD
ROOT
HETATM    1 CL   UNL     1     -11.142   9.944  67.991  1.00  0.00    -0.272 Cl 
HETATM    2  C   UNL     1     -11.449  11.365  68.937  1.00  0.00    -0.298 A  
HETATM    3  C   UNL     1     -11.956  11.127  70.224  1.00  0.00    -0.460 A  
HETATM    4  C   UNL     1     -12.429  12.173  71.009  1.00  0.00    -0.369 A  
HETATM    5  C   UNL     1     -12.407  13.468  70.506  1.00  0.00    -0.412 A  
HETATM    6  C   UNL     1     -11.883  13.713  69.231  1.00  0.00    -0.346 A  
HETATM    7 CL   UNL     1     -11.904  15.353  68.662  1.00  0.00    -0.350 Cl 
HETATM    8  C   UNL     1     -11.372  12.677  68.415  1.00  0.00    -0.290 A  
ENDROOT
BRANCH   8   9
HETATM    9  N   UNL     1     -10.790  13.010  67.173  1.00  0.00    -0.257 NA 
HETATM   10  H   UNL     1      -9.919  13.540  67.212  1.00  0.00     0.000 HD 
BRANCH   9  11
HETATM   11  C   UNL     1     -11.252  12.708  65.935  1.00  0.00    -0.314 A  
HETATM   12  N   UNL     1     -12.483  12.639  65.524  1.00  0.00    -0.648 NA 
HETATM   13  C   UNL     1     -12.395  12.388  64.067  1.00  0.00    -0.488 A  
HETATM   14  H   UNL     1     -13.330  12.737  66.085  1.00  0.00     0.000 HD 
HETATM   15  C   UNL     1     -10.909  12.262  63.730  1.00  0.00    -0.442 A  
HETATM   16  N   UNL     1     -10.273  12.469  65.014  1.00  0.00    -0.289 NA 
ENDBRANCH   9  11
ENDBRANCH   8   9
TORSDOF 2
ENDMDL
MODEL       31
REMARK 921   NORMALIZED FREE ENERGY PREDICTED BY IDOCK:   -4.67 KCAL/MOL
REMARK 922        TOTAL FREE ENERGY PREDICTED BY IDOCK:   -5.47 KCAL/MOL
REMARK 923 INTER-LIGAND FREE ENERGY PREDICTED BY IDOCK:   -5.38 KCAL/MOL
REMARK 924 INTRA-LIGAND FREE ENERGY PREDICTED BY IDOCK:   -0.09 KCAL/MOL
REMARK 927      BINDING AFFINITY PREDICTED BY RF-SCORE:    0.00 PKD
ROOT
HETATM    1 CL   UNL     1     -10.637  15.979  65.046  1.00  0.00    -0.404 Cl 
HETATM    2  C   UNL     1     -10.896  16.001  66.761  1.00  0.00    -0.195 A  
HETATM    3  C   UNL     1     -10.247  17.038  67.449  1.00  0.00    -0.314 A  
HETATM    4  C   UNL     1     -10.209  17.057  68.839  1.00  0.00    -0.322 A  
HETATM    5  C   UNL     1     -10.813  16.029  69.553  1.00  0.00    -0.317 A  
HETATM    6  C   UNL     1     -11.479  15.003  68.871  1.00  0.00    -0.314 A  
HETATM    7 CL   UNL     1     -12.195  13.744  69.827  1.00  0.00    -0.382 Cl 
HETATM    8  C   UNL     1     -11.557  14.965  67.459  1.00  0.00    -0.339 A  
ENDROOT
BRANCH   8   9
HETATM    9  N   UNL     1     -12.311  13.942  66.845  1.00  0.00    -0.488 NA 
HETATM   10  H   UNL     1     -13.242  13.775  67.229  1.00  0.00     0.000 HD 
BRANCH   9  11
HETATM   11  C   UNL     1     -11.944  13.155  65.805  1.00  0.00    -0.423 A  
HETATM   12  N   UNL     1     -10.847  12.474  65.651  1.00  0.00    -0.270 NA 
HETATM   13  C   UNL     1     -11.032  11.713  64.394  1.00  0.00    -0.337 A  
HETATM   14  H   UNL     1     -10.032  12.465  66.265  1.00  0.00     0.000 HD 
HETATM   15  C   UNL     1     -12.390  12.123  63.825  1.00  0.00    -0.532 A  
HETATM   16  N   UNL     1     -12.875  13.068  64.810  1.00  0.00    -0.745 NA 
ENDBRANCH   9  11
ENDBRANCH   8   9
TORSDOF 2
ENDMDL
MODEL       32
REMARK 921   NORMALIZED FREE ENERGY PREDICTED BY IDOCK:   -4.66 KCAL/MOL
REMARK 922        TOTAL FREE ENERGY PREDICTED BY IDOCK:   -5.46 KCAL/MOL
REMARK 923 INTER-LIGAND FREE ENERGY PREDICTED BY IDOCK:   -5.15 KCAL/MOL
REMARK 924 INTRA-LIGAND FREE ENERGY PREDICTED BY IDOCK:   -0.31 KCAL/MOL
REMARK 927      BINDING AFFINITY PREDICTED BY RF-SCORE:    0.00 PKD
ROOT
HETATM    1 CL   UNL     1     -12.303  15.055  64.242  1.00  0.00    -0.410 Cl 
HETATM    2  C   UNL     1     -11.630  13.642  64.990  1.00  0.00    -0.332 A  
HETATM    3  C   UNL     1     -10.990  12.751  64.114  1.00  0.00    -0.435 A  
HETATM    4  C   UNL     1     -10.583  11.494  64.548  1.00  0.00    -0.387 A  
HETATM    5  C   UNL     1     -10.824  11.114  65.863  1.00  0.00    -0.223 A  
HETATM    6  C   UNL     1     -11.443  12.007  66.745  1.00  0.00    -0.345 A  
HETATM    7 CL   UNL     1     -11.727  11.458  68.367  1.00  0.00    -0.380 Cl 
HETATM    8  C   UNL     1     -11.848  13.301  66.345  1.00  0.00    -0.396 A  
ENDROOT
BRANCH   8   9
HETATM    9  N   UNL     1     -12.397  14.174  67.309  1.00  0.00    -0.576 NA 
HETATM   10  H   UNL     1     -13.408  14.124  67.439  1.00  0.00     0.000 HD 
BRANCH   9  11
HETATM   11  C   UNL     1     -11.738  15.071  68.082  1.00  0.00    -0.312 A  
HETATM   12  N   UNL     1     -10.986  16.064  67.710  1.00  0.00    -0.326 NA 
HETATM   13  C   UNL     1     -10.626  16.772  68.961  1.00  0.00    -0.343 A  
HETATM   14  H   UNL     1     -10.703  16.305  66.761  1.00  0.00     0.000 HD 
HETATM   15  C   UNL     1     -11.247  15.979  70.111  1.00  0.00    -0.373 A  
HETATM   16  N   UNL     1     -11.922  14.898  69.424  1.00  0.00    -0.308 NA 
ENDBRANCH   9  11
ENDBRANCH   8   9
TORSDOF 2
ENDMDL
MODEL       33
REMARK 921   NORMALIZED FREE ENERGY PREDICTED BY IDOCK:   -4.64 KCAL/MOL
REMARK 922        TOTAL FREE ENERGY PREDICTED BY IDOCK:   -5.44 KCAL/MOL
REMARK 923 INTER-LIGAND FREE ENERGY PREDICTED BY IDOCK:   -5.25 KCAL/MOL
REMARK 924 INTRA-LIGAND FREE ENERGY PREDICTED BY IDOCK:   -0.18 KCAL/MOL
REMARK 927      BINDING AFFINITY PREDICTED BY RF-SCORE:    0.00 PKD
ROOT
HETATM    1 CL   UNL     1      -9.844  10.112  65.143  1.00  0.00    -0.377 Cl 
HETATM    2  C   UNL     1     -10.905  11.482  65.069  1.00  0.00    -0.274 A  
HETATM    3  C   UNL     1     -11.446  11.750  63.802  1.00  0.00    -0.510 A  
HETATM    4  C   UNL     1     -12.149  12.924  63.561  1.00  0.00    -0.633 A  
HETATM    5  C   UNL     1     -12.308  13.848  64.587  1.00  0.00    -0.421 A  
HETATM    6  C   UNL     1     -11.788  13.576  65.858  1.00  0.00    -0.372 A  
HETATM    7 CL   UNL     1     -12.010  14.783  67.086  1.00  0.00    -0.314 Cl 
HETATM    8  C   UNL     1     -11.088  12.381  66.144  1.00  0.00    -0.302 A  
ENDROOT
BRANCH   8   9
HETATM    9  N   UNL     1     -10.660  12.142  67.468  1.00  0.00    -0.210 NA 
HETATM   10  H   UNL     1      -9.680  12.346  67.668  1.00  0.00     0.000 HD 
BRANCH   9  11
HETATM   11  C   UNL     1     -11.397  11.672  68.504  1.00  0.00    -0.274 A  
HETATM   12  N   UNL     1     -11.939  10.499  68.647  1.00  0.00    -0.769 NA 
HETATM   13  C   UNL     1     -12.520  10.501  70.010  1.00  0.00    -0.175 A  
HETATM   14  H   UNL     1     -11.960   9.739  67.967  1.00  0.00     0.000 HD 
HETATM   15  C   UNL     1     -12.274  11.893  70.593  1.00  0.00    -0.331 A  
HETATM   16  N   UNL     1     -11.559  12.563  69.526  1.00  0.00    -0.291 NA 
ENDBRANCH   9  11
ENDBRANCH   8   9
TORSDOF 2
ENDMDL
MODEL       34
REMARK 921   NORMALIZED FREE ENERGY PREDICTED BY IDOCK:   -4.63 KCAL/MOL
REMARK 922        TOTAL FREE ENERGY PREDICTED BY IDOCK:   -5.42 KCAL/MOL
REMARK 923 INTER-LIGAND FREE ENERGY PREDICTED BY IDOCK:   -5.11 KCAL/MOL
REMARK 924 INTRA-LIGAND FREE ENERGY PREDICTED BY IDOCK:   -0.32 KCAL/MOL
REMARK 927      BINDING AFFINITY PREDICTED BY RF-SCORE:    0.00 PKD
ROOT
HETATM    1 CL   UNL     1     -11.693  14.590  68.965  1.00  0.00    -0.326 Cl 
HETATM    2  C   UNL     1     -11.352  14.768  67.273  1.00  0.00    -0.357 A  
HETATM    3  C   UNL     1     -10.776  15.994  66.907  1.00  0.00    -0.262 A  
HETATM    4  C   UNL     1     -10.634  16.343  65.568  1.00  0.00    -0.346 A  
HETATM    5  C   UNL     1     -11.080  15.469  64.584  1.00  0.00    -0.373 A  
HETATM    6  C   UNL     1     -11.636  14.236  64.945  1.00  0.00    -0.384 A  
HETATM    7 CL   UNL     1     -12.186  13.204  63.662  1.00  0.00    -0.562 Cl 
HETATM    8  C   UNL     1     -11.773  13.839  66.295  1.00  0.00    -0.376 A  
ENDROOT
BRANCH   8   9
HETATM    9  N   UNL     1     -12.273  12.550  66.579  1.00  0.00    -0.531 NA 
HETATM   10  H   UNL     1     -13.254  12.386  66.350  1.00  0.00     0.000 HD 
BRANCH   9  11
HETATM   11  C   UNL     1     -11.603  11.504  67.122  1.00  0.00    -0.167 A  
HETATM   12  N   UNL     1     -11.801  10.920  68.266  1.00  0.00    -0.730 NA 
HETATM   13  C   UNL     1     -10.862   9.774  68.288  1.00  0.00    -0.210 A  
HETATM   14  H   UNL     1     -12.461  11.192  68.994  1.00  0.00     0.000 HD 
HETATM   15  C   UNL     1     -10.053   9.842  66.993  1.00  0.00    -0.218 A  
HETATM   16  N   UNL     1     -10.606  11.006  66.332  1.00  0.00    -0.262 NA 
ENDBRANCH   9  11
ENDBRANCH   8   9
TORSDOF 2
ENDMDL
MODEL       35
REMARK 921   NORMALIZED FREE ENERGY PREDICTED BY IDOCK:   -4.59 KCAL/MOL
REMARK 922        TOTAL FREE ENERGY PREDICTED BY IDOCK:   -5.38 KCAL/MOL
REMARK 923 INTER-LIGAND FREE ENERGY PREDICTED BY IDOCK:   -5.09 KCAL/MOL
REMARK 924 INTRA-LIGAND FREE ENERGY PREDICTED BY IDOCK:   -0.29 KCAL/MOL
REMARK 927      BINDING AFFINITY PREDICTED BY RF-SCORE:    0.00 PKD
ROOT
HETATM    1 CL   UNL     1      -8.989   9.916  67.879  1.00  0.00    -0.128 Cl 
HETATM    2  C   UNL     1      -9.778   9.768  69.417  1.00  0.00    -0.202 A  
HETATM    3  C   UNL     1      -8.988   9.225  70.442  1.00  0.00    -0.278 A  
HETATM    4  C   UNL     1      -9.551   8.871  71.663  1.00  0.00    -0.363 A  
HETATM    5  C   UNL     1     -10.915   9.048  71.864  1.00  0.00    -0.423 A  
HETATM    6  C   UNL     1     -11.702   9.608  70.851  1.00  0.00    -0.334 A  
HETATM    7 CL   UNL     1     -13.401   9.783  71.166  1.00  0.00    -0.410 Cl 
HETATM    8  C   UNL     1     -11.159  10.001  69.606  1.00  0.00    -0.259 A  
ENDROOT
BRANCH   8   9
HETATM    9  N   UNL     1     -12.000  10.629  68.662  1.00  0.00    -0.772 NA 
HETATM   10  H   UNL     1     -12.775  10.068  68.306  1.00  0.00     0.000 HD 
BRANCH   9  11
HETATM   11  C   UNL     1     -11.900  11.889  68.173  1.00  0.00    -0.270 A  
HETATM   12  N   UNL     1     -11.901  12.279  66.933  1.00  0.00    -0.581 NA 
HETATM   13  C   UNL     1     -11.882  13.760  66.989  1.00  0.00    -0.410 A  
HETATM   14  H   UNL     1     -11.911  11.692  66.099  1.00  0.00     0.000 HD 
HETATM   15  C   UNL     1     -11.806  14.144  68.467  1.00  0.00    -0.355 A  
HETATM   16  N   UNL     1     -11.805  12.857  69.131  1.00  0.00    -0.308 NA 
ENDBRANCH   9  11
ENDBRANCH   8   9
TORSDOF 2
ENDMDL
MODEL       36
REMARK 921   NORMALIZED FREE ENERGY PREDICTED BY IDOCK:   -4.58 KCAL/MOL
REMARK 922        TOTAL FREE ENERGY PREDICTED BY IDOCK:   -5.37 KCAL/MOL
REMARK 923 INTER-LIGAND FREE ENERGY PREDICTED BY IDOCK:   -5.10 KCAL/MOL
REMARK 924 INTRA-LIGAND FREE ENERGY PREDICTED BY IDOCK:   -0.27 KCAL/MOL
REMARK 927      BINDING AFFINITY PREDICTED BY RF-SCORE:    0.00 PKD
ROOT
HETATM    1 CL   UNL     1     -13.057  14.053  65.272  1.00  0.00    -0.340 Cl 
HETATM    2  C   UNL     1     -11.833  12.824  65.221  1.00  0.00    -0.403 A  
HETATM    3  C   UNL     1     -11.344  12.522  63.941  1.00  0.00    -0.504 A  
HETATM    4  C   UNL     1     -10.510  11.429  63.736  1.00  0.00    -0.456 A  
HETATM    5  C   UNL     1     -10.167  10.620  64.813  1.00  0.00    -0.401 A  
HETATM    6  C   UNL     1     -10.636  10.930  66.096  1.00  0.00    -0.206 A  
HETATM    7 CL   UNL     1     -10.180   9.867  67.390  1.00  0.00    -0.257 Cl 
HETATM    8  C   UNL     1     -11.465  12.048  66.344  1.00  0.00    -0.353 A  
ENDROOT
BRANCH   8   9
HETATM    9  N   UNL     1     -11.836  12.341  67.674  1.00  0.00    -0.496 NA 
HETATM   10  H   UNL     1     -12.358  11.615  68.167  1.00  0.00     0.000 HD 
BRANCH   9  11
HETATM   11  C   UNL     1     -11.580  13.474  68.373  1.00  0.00    -0.343 A  
HETATM   12  N   UNL     1     -12.414  14.231  69.023  1.00  0.00    -0.538 NA 
HETATM   13  C   UNL     1     -11.575  15.255  69.689  1.00  0.00    -0.321 A  
HETATM   14  H   UNL     1     -13.429  14.140  69.066  1.00  0.00     0.000 HD 
HETATM   15  C   UNL     1     -10.132  14.992  69.257  1.00  0.00    -0.233 A  
HETATM   16  N   UNL     1     -10.263  13.833  68.398  1.00  0.00    -0.244 NA 
ENDBRANCH   9  11
ENDBRANCH   8   9
TORSDOF 2
ENDMDL
MODEL       37
REMARK 921   NORMALIZED FREE ENERGY PREDICTED BY IDOCK:   -4.56 KCAL/MOL
REMARK 922        TOTAL FREE ENERGY PREDICTED BY IDOCK:   -5.35 KCAL/MOL
REMARK 923 INTER-LIGAND FREE ENERGY PREDICTED BY IDOCK:   -5.25 KCAL/MOL
REMARK 924 INTRA-LIGAND FREE ENERGY PREDICTED BY IDOCK:   -0.10 KCAL/MOL
REMARK 927      BINDING AFFINITY PREDICTED BY RF-SCORE:    0.00 PKD
ROOT
HETATM    1 CL   UNL     1      -7.769  15.481  68.029  1.00  0.00    -0.126 Cl 
HETATM    2  C   UNL     1      -8.364  17.088  67.760  1.00  0.00    -0.196 A  
HETATM    3  C   UNL     1      -8.101  18.001  68.794  1.00  0.00    -0.247 A  
HETATM    4  C   UNL     1      -8.688  19.262  68.797  1.00  0.00    -0.383 A  
HETATM    5  C   UNL     1      -9.552  19.615  67.768  1.00  0.00    -0.460 A  
HETATM    6  C   UNL     1      -9.800  18.715  66.724  1.00  0.00    -0.341 A  
HETATM    7 CL   UNL     1     -10.904  19.218  65.482  1.00  0.00    -0.362 Cl 
HETATM    8  C   UNL     1      -9.203  17.434  66.677  1.00  0.00    -0.261 A  
ENDROOT
BRANCH   8   9
HETATM    9  N   UNL     1      -9.440  16.611  65.555  1.00  0.00    -0.429 NA 
HETATM   10  H   UNL     1      -8.660  16.500  64.906  1.00  0.00     0.000 HD 
BRANCH   9  11
HETATM   11  C   UNL     1     -10.581  15.952  65.239  1.00  0.00    -0.419 A  
HETATM   12  N   UNL     1     -11.398  16.173  64.252  1.00  0.00    -1.084 NA 
HETATM   13  C   UNL     1     -12.402  15.086  64.325  1.00  0.00    -0.226 A  
HETATM   14  H   UNL     1     -11.358  16.933  63.573  1.00  0.00     0.000 HD 
HETATM   15  C   UNL     1     -12.055  14.247  65.556  1.00  0.00    -0.394 A  
HETATM   16  N   UNL     1     -10.876  14.911  66.072  1.00  0.00    -0.320 NA 
ENDBRANCH   9  11
ENDBRANCH   8   9
TORSDOF 2
ENDMDL
MODEL       38
REMARK 921   NORMALIZED FREE ENERGY PREDICTED BY IDOCK:   -4.56 KCAL/MOL
REMARK 922        TOTAL FREE ENERGY PREDICTED BY IDOCK:   -5.35 KCAL/MOL
REMARK 923 INTER-LIGAND FREE ENERGY PREDICTED BY IDOCK:   -5.03 KCAL/MOL
REMARK 924 INTRA-LIGAND FREE ENERGY PREDICTED BY IDOCK:   -0.31 KCAL/MOL
REMARK 927      BINDING AFFINITY PREDICTED BY RF-SCORE:    0.00 PKD
ROOT
HETATM    1 CL   UNL     1     -10.463  14.218  64.839  1.00  0.00    -0.450 Cl 
HETATM    2  C   UNL     1     -10.770  15.354  66.113  1.00  0.00    -0.314 A  
HETATM    3  C   UNL     1     -10.202  16.625  65.929  1.00  0.00    -0.358 A  
HETATM    4  C   UNL     1     -10.204  17.562  66.956  1.00  0.00    -0.327 A  
HETATM    5  C   UNL     1     -10.766  17.229  68.183  1.00  0.00    -0.363 A  
HETATM    6  C   UNL     1     -11.352  15.971  68.364  1.00  0.00    -0.355 A  
HETATM    7 CL   UNL     1     -12.019  15.619  69.928  1.00  0.00    -0.374 Cl 
HETATM    8  C   UNL     1     -11.389  15.003  67.334  1.00  0.00    -0.332 A  
ENDROOT
BRANCH   8   9
HETATM    9  N   UNL     1     -12.064  13.785  67.566  1.00  0.00    -0.413 NA 
HETATM   10  H   UNL     1     -13.077  13.800  67.439  1.00  0.00     0.000 HD 
BRANCH   9  11
HETATM   11  C   UNL     1     -11.526  12.598  67.937  1.00  0.00    -0.309 A  
HETATM   12  N   UNL     1     -11.009  12.265  69.083  1.00  0.00    -0.394 NA 
HETATM   13  C   UNL     1     -10.688  10.824  68.963  1.00  0.00    -0.228 A  
HETATM   14  H   UNL     1     -10.856  12.867  69.892  1.00  0.00     0.000 HD 
HETATM   15  C   UNL     1     -11.049  10.408  67.537  1.00  0.00    -0.267 A  
HETATM   16  N   UNL     1     -11.562  11.637  66.967  1.00  0.00    -0.547 NA 
ENDBRANCH   9  11
ENDBRANCH   8   9
TORSDOF 2
ENDMDL
MODEL       39
REMARK 921   NORMALIZED FREE ENERGY PREDICTED BY IDOCK:   -4.56 KCAL/MOL
REMARK 922        TOTAL FREE ENERGY PREDICTED BY IDOCK:   -5.35 KCAL/MOL
REMARK 923 INTER-LIGAND FREE ENERGY PREDICTED BY IDOCK:   -5.10 KCAL/MOL
REMARK 924 INTRA-LIGAND FREE ENERGY PREDICTED BY IDOCK:   -0.25 KCAL/MOL
REMARK 927      BINDING AFFINITY PREDICTED BY RF-SCORE:    0.00 PKD
ROOT
HETATM    1 CL   UNL     1     -12.345  14.276  71.037  1.00  0.00    -0.409 Cl 
HETATM    2  C   UNL     1     -12.137  12.994  69.888  1.00  0.00    -0.277 A  
HETATM    3  C   UNL     1     -11.941  11.720  70.444  1.00  0.00    -0.422 A  
HETATM    4  C   UNL     1     -11.568  10.644  69.647  1.00  0.00    -0.368 A  
HETATM    5  C   UNL     1     -11.378  10.838  68.284  1.00  0.00    -0.376 A  
HETATM    6  C   UNL     1     -11.593  12.102  67.721  1.00  0.00    -0.342 A  
HETATM    7 CL   UNL     1     -11.320  12.273  66.015  1.00  0.00    -0.375 Cl 
HETATM    8  C   UNL     1     -11.996  13.212  68.498  1.00  0.00    -0.289 A  
ENDROOT
BRANCH   8   9
HETATM    9  N   UNL     1     -12.268  14.436  67.850  1.00  0.00    -0.620 NA 
HETATM   10  H   UNL     1     -13.230  14.576  67.537  1.00  0.00     0.000 HD 
BRANCH   9  11
HETATM   11  C   UNL     1     -11.403  15.447  67.594  1.00  0.00    -0.290 A  
HETATM   12  N   UNL     1     -10.648  15.624  66.551  1.00  0.00    -0.305 NA 
HETATM   13  C   UNL     1     -10.005  16.943  66.753  1.00  0.00    -0.289 A  
HETATM   14  H   UNL     1     -10.524  14.990  65.762  1.00  0.00     0.000 HD 
HETATM   15  C   UNL     1     -10.471  17.458  68.115  1.00  0.00    -0.389 A  
HETATM   16  N   UNL     1     -11.353  16.403  68.569  1.00  0.00    -0.348 NA 
ENDBRANCH   9  11
ENDBRANCH   8   9
TORSDOF 2
ENDMDL
MODEL       40
REMARK 921   NORMALIZED FREE ENERGY PREDICTED BY IDOCK:   -4.51 KCAL/MOL
REMARK 922        TOTAL FREE ENERGY PREDICTED BY IDOCK:   -5.29 KCAL/MOL
REMARK 923 INTER-LIGAND FREE ENERGY PREDICTED BY IDOCK:   -4.99 KCAL/MOL
REMARK 924 INTRA-LIGAND FREE ENERGY PREDICTED BY IDOCK:   -0.30 KCAL/MOL
REMARK 927      BINDING AFFINITY PREDICTED BY RF-SCORE:    0.00 PKD
ROOT
HETATM    1 CL   UNL     1     -10.265  12.898  68.084  1.00  0.00    -0.233 Cl 
HETATM    2  C   UNL     1     -11.289  13.680  69.245  1.00  0.00    -0.269 A  
HETATM    3  C   UNL     1     -11.126  15.070  69.342  1.00  0.00    -0.290 A  
HETATM    4  C   UNL     1     -11.738  15.790  70.363  1.00  0.00    -0.390 A  
HETATM    5  C   UNL     1     -12.511  15.119  71.303  1.00  0.00    -0.411 A  
HETATM    6  C   UNL     1     -12.692  13.734  71.198  1.00  0.00    -0.362 A  
HETATM    7 CL   UNL     1     -13.656  12.961  72.417  1.00  0.00    -0.659 Cl 
HETATM    8  C   UNL     1     -12.105  12.975  70.159  1.00  0.00    -0.307 A  
ENDROOT
BRANCH   8   9
HETATM    9  N   UNL     1     -12.395  11.597  70.073  1.00  0.00    -0.226 NA 
HETATM   10  H   UNL     1     -13.250  11.347  69.573  1.00  0.00     0.000 HD 
BRANCH   9  11
HETATM   11  C   UNL     1     -11.674  10.566  70.577  1.00  0.00    -0.350 A  
HETATM   12  N   UNL     1     -10.440  10.241  70.326  1.00  0.00    -0.430 NA 
HETATM   13  C   UNL     1     -10.141   9.111  71.235  1.00  0.00    -0.318 A  
HETATM   14  H   UNL     1      -9.812  10.671  69.647  1.00  0.00     0.000 HD 
HETATM   15  C   UNL     1     -11.430   8.806  72.000  1.00  0.00    -0.371 A  
HETATM   16  N   UNL     1     -12.350   9.796  71.479  1.00  0.00    -0.378 NA 
ENDBRANCH   9  11
ENDBRANCH   8   9
TORSDOF 2
ENDMDL
MODEL       41
REMARK 921   NORMALIZED FREE ENERGY PREDICTED BY IDOCK:   -4.50 KCAL/MOL
REMARK 922        TOTAL FREE ENERGY PREDICTED BY IDOCK:   -5.28 KCAL/MOL
REMARK 923 INTER-LIGAND FREE ENERGY PREDICTED BY IDOCK:   -4.98 KCAL/MOL
REMARK 924 INTRA-LIGAND FREE ENERGY PREDICTED BY IDOCK:   -0.30 KCAL/MOL
REMARK 927      BINDING AFFINITY PREDICTED BY RF-SCORE:    0.00 PKD
ROOT
HETATM    1 CL   UNL     1      -8.769  14.926  69.142  1.00  0.00    -0.179 Cl 
HETATM    2  C   UNL     1     -10.119  14.448  68.164  1.00  0.00    -0.226 A  
HETATM    3  C   UNL     1     -10.825  13.327  68.629  1.00  0.00    -0.285 A  
HETATM    4  C   UNL     1     -11.800  12.722  67.844  1.00  0.00    -0.392 A  
HETATM    5  C   UNL     1     -12.070  13.230  66.579  1.00  0.00    -0.435 A  
HETATM    6  C   UNL     1     -11.383  14.361  66.119  1.00  0.00    -0.350 A  
HETATM    7 CL   UNL     1     -11.761  14.929  64.523  1.00  0.00    -0.409 Cl 
HETATM    8  C   UNL     1     -10.403  15.015  66.901  1.00  0.00    -0.266 A  
ENDROOT
BRANCH   8   9
HETATM    9  N   UNL     1      -9.808  16.194  66.402  1.00  0.00    -0.266 NA 
HETATM   10  H   UNL     1      -8.993  16.067  65.800  1.00  0.00     0.000 HD 
BRANCH   9  11
HETATM   11  C   UNL     1     -10.191  17.474  66.630  1.00  0.00    -0.332 A  
HETATM   12  N   UNL     1     -10.533  18.030  67.754  1.00  0.00    -0.398 NA 
HETATM   13  C   UNL     1     -10.739  19.462  67.435  1.00  0.00    -0.479 A  
HETATM   14  H   UNL     1     -10.638  17.578  68.662  1.00  0.00     0.000 HD 
HETATM   15  C   UNL     1     -10.519  19.615  65.929  1.00  0.00    -0.493 A  
HETATM   16  N   UNL     1     -10.189  18.266  65.518  1.00  0.00    -0.474 NA 
ENDBRANCH   9  11
ENDBRANCH   8   9
TORSDOF 2
ENDMDL
MODEL       42
REMARK 921   NORMALIZED FREE ENERGY PREDICTED BY IDOCK:   -4.49 KCAL/MOL
REMARK 922        TOTAL FREE ENERGY PREDICTED BY IDOCK:   -5.27 KCAL/MOL
REMARK 923 INTER-LIGAND FREE ENERGY PREDICTED BY IDOCK:   -5.04 KCAL/MOL
REMARK 924 INTRA-LIGAND FREE ENERGY PREDICTED BY IDOCK:   -0.23 KCAL/MOL
REMARK 927      BINDING AFFINITY PREDICTED BY RF-SCORE:    0.00 PKD
ROOT
HETATM    1 CL   UNL     1     -10.386   7.381  69.551  1.00  0.00    -0.211 Cl 
HETATM    2  C   UNL     1     -11.595   8.023  70.617  1.00  0.00    -0.196 A  
HETATM    3  C   UNL     1     -12.533   7.090  71.085  1.00  0.00    -0.407 A  
HETATM    4  C   UNL     1     -13.662   7.504  71.783  1.00  0.00    -0.414 A  
HETATM    5  C   UNL     1     -13.867   8.860  72.009  1.00  0.00    -0.511 A  
HETATM    6  C   UNL     1     -12.923   9.792  71.561  1.00  0.00    -0.407 A  
HETATM    7 CL   UNL     1     -13.254  11.469  71.864  1.00  0.00    -0.561 Cl 
HETATM    8  C   UNL     1     -11.752   9.405  70.870  1.00  0.00    -0.308 A  
ENDROOT
BRANCH   8   9
HETATM    9  N   UNL     1     -10.809  10.394  70.518  1.00  0.00    -0.429 NA 
HETATM   10  H   UNL     1     -10.130  10.646  71.238  1.00  0.00     0.000 HD 
BRANCH   9  11
HETATM   11  C   UNL     1     -10.698  11.049  69.336  1.00  0.00    -0.205 A  
HETATM   12  N   UNL     1      -9.680  11.705  68.865  1.00  0.00    -0.400 NA 
HETATM   13  C   UNL     1     -10.075  12.110  67.496  1.00  0.00    -0.196 A  
HETATM   14  H   UNL     1      -8.797  11.900  69.337  1.00  0.00     0.000 HD 
HETATM   15  C   UNL     1     -11.512  11.629  67.291  1.00  0.00    -0.277 A  
HETATM   16  N   UNL     1     -11.812  10.976  68.549  1.00  0.00    -0.520 NA 
ENDBRANCH   9  11
ENDBRANCH   8   9
TORSDOF 2
ENDMDL
MODEL       43
REMARK 921   NORMALIZED FREE ENERGY PREDICTED BY IDOCK:   -4.47 KCAL/MOL
REMARK 922        TOTAL FREE ENERGY PREDICTED BY IDOCK:   -5.24 KCAL/MOL
REMARK 923 INTER-LIGAND FREE ENERGY PREDICTED BY IDOCK:   -5.02 KCAL/MOL
REMARK 924 INTRA-LIGAND FREE ENERGY PREDICTED BY IDOCK:   -0.22 KCAL/MOL
REMARK 927      BINDING AFFINITY PREDICTED BY RF-SCORE:    0.00 PKD
ROOT
HETATM    1 CL   UNL     1     -12.980  12.317  64.256  1.00  0.00    -0.383 Cl 
HETATM    2  C   UNL     1     -12.199  13.613  65.104  1.00  0.00    -0.433 A  
HETATM    3  C   UNL     1     -11.926  14.753  64.331  1.00  0.00    -0.433 A  
HETATM    4  C   UNL     1     -11.134  15.780  64.831  1.00  0.00    -0.411 A  
HETATM    5  C   UNL     1     -10.597  15.669  66.108  1.00  0.00    -0.325 A  
HETATM    6  C   UNL     1     -10.883  14.543  66.890  1.00  0.00    -0.305 A  
HETATM    7 CL   UNL     1     -10.164  14.465  68.468  1.00  0.00    -0.238 Cl 
HETATM    8  C   UNL     1     -11.704  13.492  66.423  1.00  0.00    -0.369 A  
ENDROOT
BRANCH   8   9
HETATM    9  N   UNL     1     -12.011  12.426  67.296  1.00  0.00    -0.537 NA 
HETATM   10  H   UNL     1     -12.848  12.539  67.868  1.00  0.00     0.000 HD 
BRANCH   9  11
HETATM   11  C   UNL     1     -11.325  11.269  67.463  1.00  0.00    -0.288 A  
HETATM   12  N   UNL     1     -11.562  10.298  68.293  1.00  0.00    -0.680 NA 
HETATM   13  C   UNL     1     -10.571   9.248  67.961  1.00  0.00    -0.208 A  
HETATM   14  H   UNL     1     -12.278  10.265  69.019  1.00  0.00     0.000 HD 
HETATM   15  C   UNL     1      -9.690   9.810  66.846  1.00  0.00    -0.192 A  
HETATM   16  N   UNL     1     -10.259  11.123  66.621  1.00  0.00    -0.224 NA 
ENDBRANCH   9  11
ENDBRANCH   8   9
TORSDOF 2
ENDMDL
MODEL       44
REMARK 921   NORMALIZED FREE ENERGY PREDICTED BY IDOCK:   -4.44 KCAL/MOL
REMARK 922        TOTAL FREE ENERGY PREDICTED BY IDOCK:   -5.22 KCAL/MOL
REMARK 923 INTER-LIGAND FREE ENERGY PREDICTED BY IDOCK:   -4.94 KCAL/MOL
REMARK 924 INTRA-LIGAND FREE ENERGY PREDICTED BY IDOCK:   -0.27 KCAL/MOL
REMARK 927      BINDING AFFINITY PREDICTED BY RF-SCORE:    0.00 PKD
ROOT
HETATM    1 CL   UNL     1     -12.244  14.433  67.131  1.00  0.00    -0.366 Cl 
HETATM    2  C   UNL     1     -11.727  13.472  65.783  1.00  0.00    -0.345 A  
HETATM    3  C   UNL     1     -12.279  13.836  64.544  1.00  0.00    -0.441 A  
HETATM    4  C   UNL     1     -12.105  13.033  63.423  1.00  0.00    -0.591 A  
HETATM    5  C   UNL     1     -11.385  11.850  63.535  1.00  0.00    -0.516 A  
HETATM    6  C   UNL     1     -10.815  11.493  64.763  1.00  0.00    -0.297 A  
HETATM    7 CL   UNL     1      -9.944   9.993  64.832  1.00  0.00    -0.369 Cl 
HETATM    8  C   UNL     1     -10.952  12.298  65.918  1.00  0.00    -0.302 A  
ENDROOT
BRANCH   8   9
HETATM    9  N   UNL     1     -10.285  11.913  67.101  1.00  0.00    -0.207 NA 
HETATM   10  H   UNL     1      -9.285  12.113  67.140  1.00  0.00     0.000 HD 
BRANCH   9  11
HETATM   11  C   UNL     1     -10.817  11.308  68.191  1.00  0.00    -0.217 A  
HETATM   12  N   UNL     1     -12.067  11.066  68.455  1.00  0.00    -0.770 NA 
HETATM   13  C   UNL     1     -12.057  10.287  69.715  1.00  0.00    -0.056 A  
HETATM   14  H   UNL     1     -12.881  11.353  67.912  1.00  0.00     0.000 HD 
HETATM   15  C   UNL     1     -10.597  10.181  70.156  1.00  0.00    -0.281 A  
HETATM   16  N   UNL     1      -9.895  10.890  69.107  1.00  0.00    -0.184 NA 
ENDBRANCH   9  11
ENDBRANCH   8   9
TORSDOF 2
ENDMDL
MODEL       45
REMARK 921   NORMALIZED FREE ENERGY PREDICTED BY IDOCK:   -4.43 KCAL/MOL
REMARK 922        TOTAL FREE ENERGY PREDICTED BY IDOCK:   -5.20 KCAL/MOL
REMARK 923 INTER-LIGAND FREE ENERGY PREDICTED BY IDOCK:   -4.89 KCAL/MOL
REMARK 924 INTRA-LIGAND FREE ENERGY PREDICTED BY IDOCK:   -0.31 KCAL/MOL
REMARK 927      BINDING AFFINITY PREDICTED BY RF-SCORE:    0.00 PKD
ROOT
HETATM    1 CL   UNL     1     -10.135  14.906  64.840  1.00  0.00    -0.317 Cl 
HETATM    2  C   UNL     1     -10.616  14.629  66.483  1.00  0.00    -0.300 A  
HETATM    3  C   UNL     1     -11.417  13.495  66.687  1.00  0.00    -0.366 A  
HETATM    4  C   UNL     1     -12.031  13.267  67.913  1.00  0.00    -0.349 A  
HETATM    5  C   UNL     1     -11.856  14.181  68.945  1.00  0.00    -0.382 A  
HETATM    6  C   UNL     1     -11.040  15.303  68.753  1.00  0.00    -0.270 A  
HETATM    7 CL   UNL     1     -10.881  16.410  70.081  1.00  0.00    -0.309 Cl 
HETATM    8  C   UNL     1     -10.382  15.553  67.527  1.00  0.00    -0.271 A  
ENDROOT
BRANCH   8   9
HETATM    9  N   UNL     1      -9.515  16.663  67.432  1.00  0.00    -0.230 NA 
HETATM   10  H   UNL     1      -8.552  16.510  67.735  1.00  0.00     0.000 HD 
BRANCH   9  11
HETATM   11  C   UNL     1      -9.811  17.908  66.986  1.00  0.00    -0.314 A  
HETATM   12  N   UNL     1     -10.436  18.253  65.899  1.00  0.00    -0.585 NA 
HETATM   13  C   UNL     1     -10.578  19.725  65.981  1.00  0.00    -0.468 A  
HETATM   14  H   UNL     1     -10.760  17.641  65.150  1.00  0.00     0.000 HD 
HETATM   15  C   UNL     1      -9.873  20.167  67.263  1.00  0.00    -0.441 A  
HETATM   16  N   UNL     1      -9.404  18.913  67.816  1.00  0.00    -0.289 NA 
ENDBRANCH   9  11
ENDBRANCH   8   9
TORSDOF 2
ENDMDL
MODEL       46
REMARK 921   NORMALIZED FREE ENERGY PREDICTED BY IDOCK:   -4.42 KCAL/MOL
REMARK 922        TOTAL FREE ENERGY PREDICTED BY IDOCK:   -5.19 KCAL/MOL
REMARK 923 INTER-LIGAND FREE ENERGY PREDICTED BY IDOCK:   -4.87 KCAL/MOL
REMARK 924 INTRA-LIGAND FREE ENERGY PREDICTED BY IDOCK:   -0.32 KCAL/MOL
REMARK 927      BINDING AFFINITY PREDICTED BY RF-SCORE:    0.00 PKD
ROOT
HETATM    1 CL   UNL     1     -12.612  14.353  70.404  1.00  0.00    -0.405 Cl 
HETATM    2  C   UNL     1     -11.645  15.214  69.249  1.00  0.00    -0.324 A  
HETATM    3  C   UNL     1     -10.996  16.355  69.747  1.00  0.00    -0.341 A  
HETATM    4  C   UNL     1     -10.354  17.240  68.890  1.00  0.00    -0.352 A  
HETATM    5  C   UNL     1     -10.365  16.997  67.522  1.00  0.00    -0.329 A  
HETATM    6  C   UNL     1     -10.993  15.849  67.023  1.00  0.00    -0.189 A  
HETATM    7 CL   UNL     1     -10.982  15.618  65.302  1.00  0.00    -0.380 Cl 
HETATM    8  C   UNL     1     -11.635  14.915  67.868  1.00  0.00    -0.344 A  
ENDROOT
BRANCH   8   9
HETATM    9  N   UNL     1     -12.180  13.743  67.300  1.00  0.00    -0.428 NA 
HETATM   10  H   UNL     1     -13.076  13.848  66.823  1.00  0.00     0.000 HD 
BRANCH   9  11
HETATM   11  C   UNL     1     -11.653  12.494  67.315  1.00  0.00    -0.367 A  
HETATM   12  N   UNL     1     -11.968  11.490  68.079  1.00  0.00    -0.627 NA 
HETATM   13  C   UNL     1     -11.160  10.353  67.582  1.00  0.00    -0.293 A  
HETATM   14  H   UNL     1     -12.629  11.487  68.856  1.00  0.00     0.000 HD 
HETATM   15  C   UNL     1     -10.287  10.893  66.449  1.00  0.00    -0.251 A  
HETATM   16  N   UNL     1     -10.680  12.285  66.380  1.00  0.00    -0.244 NA 
ENDBRANCH   9  11
ENDBRANCH   8   9
TORSDOF 2
ENDMDL
MODEL       47
REMARK 921   NORMALIZED FREE ENERGY PREDICTED BY IDOCK:   -4.42 KCAL/MOL
REMARK 922        TOTAL FREE ENERGY PREDICTED BY IDOCK:   -5.19 KCAL/MOL
REMARK 923 INTER-LIGAND FREE ENERGY PREDICTED BY IDOCK:   -4.88 KCAL/MOL
REMARK 924 INTRA-LIGAND FREE ENERGY PREDICTED BY IDOCK:   -0.31 KCAL/MOL
REMARK 927      BINDING AFFINITY PREDICTED BY RF-SCORE:    0.00 PKD
ROOT
HETATM    1 CL   UNL     1     -14.302   7.477  71.544  1.00  0.00    -0.592 Cl 
HETATM    2  C   UNL     1     -12.576   7.316  71.492  1.00  0.00    -0.379 A  
HETATM    3  C   UNL     1     -12.068   6.146  72.079  1.00  0.00    -0.256 A  
HETATM    4  C   UNL     1     -10.703   5.985  72.280  1.00  0.00    -0.272 A  
HETATM    5  C   UNL     1      -9.832   7.001  71.906  1.00  0.00    -0.173 A  
HETATM    6  C   UNL     1     -10.332   8.161  71.302  1.00  0.00    -0.199 A  
HETATM    7 CL   UNL     1      -9.188   9.396  70.876  1.00  0.00    -0.291 Cl 
HETATM    8  C   UNL     1     -11.712   8.348  71.060  1.00  0.00    -0.267 A  
ENDROOT
BRANCH   8   9
HETATM    9  N   UNL     1     -12.135   9.510  70.378  1.00  0.00    -0.466 NA 
HETATM   10  H   UNL     1     -12.138   9.457  69.358  1.00  0.00     0.000 HD 
BRANCH   9  11
HETATM   11  C   UNL     1     -12.535  10.687  70.917  1.00  0.00    -0.397 A  
HETATM   12  N   UNL     1     -13.281  10.887  71.963  1.00  0.00    -0.552 NA 
HETATM   13  C   UNL     1     -13.296  12.356  72.157  1.00  0.00    -0.403 A  
HETATM   14  H   UNL     1     -13.755  10.184  72.530  1.00  0.00     0.000 HD 
HETATM   15  C   UNL     1     -12.486  12.961  71.010  1.00  0.00    -0.283 A  
HETATM   16  N   UNL     1     -12.063  11.791  70.268  1.00  0.00    -0.351 NA 
ENDBRANCH   9  11
ENDBRANCH   8   9
TORSDOF 2
ENDMDL
MODEL       48
REMARK 921   NORMALIZED FREE ENERGY PREDICTED BY IDOCK:   -4.41 KCAL/MOL
REMARK 922        TOTAL FREE ENERGY PREDICTED BY IDOCK:   -5.17 KCAL/MOL
REMARK 923 INTER-LIGAND FREE ENERGY PREDICTED BY IDOCK:   -4.91 KCAL/MOL
REMARK 924 INTRA-LIGAND FREE ENERGY PREDICTED BY IDOCK:   -0.26 KCAL/MOL
REMARK 927      BINDING AFFINITY PREDICTED BY RF-SCORE:    0.00 PKD
ROOT
HETATM    1 CL   UNL     1      -9.097  12.053  66.808  1.00  0.00    -0.193 Cl 
HETATM    2  C   UNL     1     -10.318  12.458  65.644  1.00  0.00    -0.258 A  
HETATM    3  C   UNL     1     -10.600  11.455  64.703  1.00  0.00    -0.380 A  
HETATM    4  C   UNL     1     -11.409  11.717  63.604  1.00  0.00    -0.525 A  
HETATM    5  C   UNL     1     -11.935  12.992  63.431  1.00  0.00    -0.592 A  
HETATM    6  C   UNL     1     -11.673  13.989  64.378  1.00  0.00    -0.397 A  
HETATM    7 CL   UNL     1     -12.350  15.562  64.089  1.00  0.00    -0.172 Cl 
HETATM    8  C   UNL     1     -10.875  13.751  65.521  1.00  0.00    -0.299 A  
ENDROOT
BRANCH   8   9
HETATM    9  N   UNL     1     -10.718  14.782  66.471  1.00  0.00    -0.312 NA 
HETATM   10  H   UNL     1     -10.083  15.540  66.214  1.00  0.00     0.000 HD 
BRANCH   9  11
HETATM   11  C   UNL     1     -11.310  14.885  67.686  1.00  0.00    -0.337 A  
HETATM   12  N   UNL     1     -12.202  14.106  68.222  1.00  0.00    -0.573 NA 
HETATM   13  C   UNL     1     -12.401  14.626  69.595  1.00  0.00    -0.230 A  
HETATM   14  H   UNL     1     -12.666  13.307  67.790  1.00  0.00     0.000 HD 
HETATM   15  C   UNL     1     -11.522  15.869  69.728  1.00  0.00    -0.342 A  
HETATM   16  N   UNL     1     -10.881  15.946  68.431  1.00  0.00    -0.300 NA 
ENDBRANCH   9  11
ENDBRANCH   8   9
TORSDOF 2
ENDMDL
MODEL       49
REMARK 921   NORMALIZED FREE ENERGY PREDICTED BY IDOCK:   -4.38 KCAL/MOL
REMARK 922        TOTAL FREE ENERGY PREDICTED BY IDOCK:   -5.14 KCAL/MOL
REMARK 923 INTER-LIGAND FREE ENERGY PREDICTED BY IDOCK:   -4.87 KCAL/MOL
REMARK 924 INTRA-LIGAND FREE ENERGY PREDICTED BY IDOCK:   -0.27 KCAL/MOL
REMARK 927      BINDING AFFINITY PREDICTED BY RF-SCORE:    0.00 PKD
ROOT
HETATM    1 CL   UNL     1     -12.310  12.079  71.038  1.00  0.00    -0.411 Cl 
HETATM    2  C   UNL     1     -11.918  12.920  69.572  1.00  0.00    -0.285 A  
HETATM    3  C   UNL     1     -11.793  14.312  69.699  1.00  0.00    -0.370 A  
HETATM    4  C   UNL     1     -11.678  15.122  68.575  1.00  0.00    -0.347 A  
HETATM    5  C   UNL     1     -11.697  14.544  67.311  1.00  0.00    -0.429 A  
HETATM    6  C   UNL     1     -11.801  13.154  67.181  1.00  0.00    -0.369 A  
HETATM    7 CL   UNL     1     -11.836  12.504  65.572  1.00  0.00    -0.466 Cl 
HETATM    8  C   UNL     1     -11.896  12.299  68.303  1.00  0.00    -0.310 A  
ENDROOT
BRANCH   8   9
HETATM    9  N   UNL     1     -11.920  10.902  68.096  1.00  0.00    -0.796 NA 
HETATM   10  H   UNL     1     -12.751  10.530  67.635  1.00  0.00     0.000 HD 
BRANCH   9  11
HETATM   11  C   UNL     1     -10.970   9.999  68.439  1.00  0.00    -0.217 A  
HETATM   12  N   UNL     1     -11.126   8.793  68.898  1.00  0.00    -0.426 NA 
HETATM   13  C   UNL     1      -9.760   8.227  68.985  1.00  0.00    -0.167 A  
HETATM   14  H   UNL     1     -12.002   8.333  69.147  1.00  0.00     0.000 HD 
HETATM   15  C   UNL     1      -8.796   9.335  68.559  1.00  0.00    -0.129 A  
HETATM   16  N   UNL     1      -9.689  10.432  68.248  1.00  0.00    -0.148 NA 
ENDBRANCH   9  11
ENDBRANCH   8   9
TORSDOF 2
ENDMDL
MODEL       50
REMARK 921   NORMALIZED FREE ENERGY PREDICTED BY IDOCK:   -4.37 KCAL/MOL
REMARK 922        TOTAL FREE ENERGY PREDICTED BY IDOCK:   -5.13 KCAL/MOL
REMARK 923 INTER-LIGAND FREE ENERGY PREDICTED BY IDOCK:   -4.92 KCAL/MOL
REMARK 924 INTRA-LIGAND FREE ENERGY PREDICTED BY IDOCK:   -0.21 KCAL/MOL
REMARK 927      BINDING AFFINITY PREDICTED BY RF-SCORE:    0.00 PKD
ROOT
HETATM    1 CL   UNL     1     -10.680  11.186  66.080  1.00  0.00    -0.309 Cl 
HETATM    2  C   UNL     1     -11.276  12.450  67.108  1.00  0.00    -0.298 A  
HETATM    3  C   UNL     1     -11.096  13.753  66.617  1.00  0.00    -0.316 A  
HETATM    4  C   UNL     1     -11.347  14.859  67.420  1.00  0.00    -0.354 A  
HETATM    5  C   UNL     1     -11.771  14.669  68.730  1.00  0.00    -0.357 A  
HETATM    6  C   UNL     1     -11.972  13.372  69.218  1.00  0.00    -0.317 A  
HETATM    7 CL   UNL     1     -12.487  13.211  70.868  1.00  0.00    -0.440 Cl 
HETATM    8  C   UNL     1     -11.750  12.226  68.420  1.00  0.00    -0.337 A  
ENDROOT
BRANCH   8   9
HETATM    9  N   UNL     1     -12.047  10.954  68.955  1.00  0.00    -0.670 NA 
HETATM   10  H   UNL     1     -12.918  10.525  68.639  1.00  0.00     0.000 HD 
BRANCH   9  11
HETATM   11  C   UNL     1     -11.313  10.236  69.840  1.00  0.00    -0.290 A  
HETATM   12  N   UNL     1     -10.020  10.161  69.948  1.00  0.00    -0.357 NA 
HETATM   13  C   UNL     1      -9.776   9.330  71.150  1.00  0.00    -0.257 A  
HETATM   14  H   UNL     1      -9.322  10.583  69.336  1.00  0.00     0.000 HD 
HETATM   15  C   UNL     1     -11.145   8.892  71.670  1.00  0.00    -0.350 A  
HETATM   16  N   UNL     1     -12.056   9.522  70.736  1.00  0.00    -0.266 NA 
ENDBRANCH   9  11
ENDBRANCH   8   9
TORSDOF 2
ENDMDL
MODEL       51
REMARK 921   NORMALIZED FREE ENERGY PREDICTED BY IDOCK:   -4.33 KCAL/MOL
REMARK 922        TOTAL FREE ENERGY PREDICTED BY IDOCK:   -5.09 KCAL/MOL
REMARK 923 INTER-LIGAND FREE ENERGY PREDICTED BY IDOCK:   -4.82 KCAL/MOL
REMARK 924 INTRA-LIGAND FREE ENERGY PREDICTED BY IDOCK:   -0.27 KCAL/MOL
REMARK 927      BINDING AFFINITY PREDICTED BY RF-SCORE:    0.00 PKD
ROOT
HETATM    1 CL   UNL     1     -11.754  11.614  68.679  1.00  0.00    -0.364 Cl 
HETATM    2  C   UNL     1     -11.304  13.116  67.936  1.00  0.00    -0.286 A  
HETATM    3  C   UNL     1     -10.835  14.101  68.820  1.00  0.00    -0.271 A  
HETATM    4  C   UNL     1     -10.629  15.406  68.387  1.00  0.00    -0.247 A  
HETATM    5  C   UNL     1     -10.901  15.739  67.066  1.00  0.00    -0.273 A  
HETATM    6  C   UNL     1     -11.350  14.754  66.176  1.00  0.00    -0.330 A  
HETATM    7 CL   UNL     1     -11.686  15.246  64.546  1.00  0.00    -0.368 Cl 
HETATM    8  C   UNL     1     -11.547  13.413  66.576  1.00  0.00    -0.357 A  
ENDROOT
BRANCH   8   9
HETATM    9  N   UNL     1     -11.927  12.460  65.606  1.00  0.00    -0.530 NA 
HETATM   10  H   UNL     1     -12.923  12.244  65.553  1.00  0.00     0.000 HD 
BRANCH   9  11
HETATM   11  C   UNL     1     -11.124  11.798  64.738  1.00  0.00    -0.296 A  
HETATM   12  N   UNL     1     -11.010  11.961  63.453  1.00  0.00    -0.613 NA 
HETATM   13  C   UNL     1      -9.911  11.058  63.040  1.00  0.00    -0.295 A  
HETATM   14  H   UNL     1     -11.561  12.579  62.856  1.00  0.00     0.000 HD 
HETATM   15  C   UNL     1      -9.462  10.308  64.294  1.00  0.00    -0.307 A  
HETATM   16  N   UNL     1     -10.326  10.855  65.319  1.00  0.00    -0.278 NA 
ENDBRANCH   9  11
ENDBRANCH   8   9
TORSDOF 2
ENDMDL
MODEL       52
REMARK 921   NORMALIZED FREE ENERGY PREDICTED BY IDOCK:   -4.32 KCAL/MOL
REMARK 922        TOTAL FREE ENERGY PREDICTED BY IDOCK:   -5.08 KCAL/MOL
REMARK 923 INTER-LIGAND FREE ENERGY PREDICTED BY IDOCK:   -5.12 KCAL/MOL
REMARK 924 INTRA-LIGAND FREE ENERGY PREDICTED BY IDOCK:    0.03 KCAL/MOL
REMARK 927      BINDING AFFINITY PREDICTED BY RF-SCORE:    0.00 PKD
ROOT
HETATM    1 CL   UNL     1     -10.881   9.788  69.577  1.00  0.00    -0.251 Cl 
HETATM    2  C   UNL     1     -11.686  11.306  69.820  1.00  0.00    -0.349 A  
HETATM    3  C   UNL     1     -11.420  12.284  68.849  1.00  0.00    -0.355 A  
HETATM    4  C   UNL     1     -11.840  13.597  69.027  1.00  0.00    -0.393 A  
HETATM    5  C   UNL     1     -12.521  13.945  70.187  1.00  0.00    -0.355 A  
HETATM    6  C   UNL     1     -12.806  12.968  71.148  1.00  0.00    -0.245 A  
HETATM    7 CL   UNL     1     -13.646  13.479  72.580  1.00  0.00    -0.685 Cl 
HETATM    8  C   UNL     1     -12.415  11.619  70.989  1.00  0.00    -0.334 A  
ENDROOT
BRANCH   8   9
HETATM    9  N   UNL     1     -12.805  10.676  71.965  1.00  0.00    -0.374 NA 
HETATM   10  H   UNL     1     -12.857  11.017  72.925  1.00  0.00     0.000 HD 
BRANCH   9  11
HETATM   11  C   UNL     1     -13.117   9.371  71.775  1.00  0.00    -0.409 A  
HETATM   12  N   UNL     1     -14.160   8.863  71.189  1.00  0.00    -0.558 NA 
HETATM   13  C   UNL     1     -13.925   7.401  71.167  1.00  0.00    -0.138 A  
HETATM   14  H   UNL     1     -14.969   9.364  70.821  1.00  0.00     0.000 HD 
HETATM   15  C   UNL     1     -12.604   7.156  71.897  1.00  0.00    -0.293 A  
HETATM   16  N   UNL     1     -12.186   8.495  72.257  1.00  0.00    -0.379 NA 
ENDBRANCH   9  11
ENDBRANCH   8   9
TORSDOF 2
ENDMDL
MODEL       53
REMARK 921   NORMALIZED FREE ENERGY PREDICTED BY IDOCK:   -4.31 KCAL/MOL
REMARK 922        TOTAL FREE ENERGY PREDICTED BY IDOCK:   -5.06 KCAL/MOL
REMARK 923 INTER-LIGAND FREE ENERGY PREDICTED BY IDOCK:   -4.80 KCAL/MOL
REMARK 924 INTRA-LIGAND FREE ENERGY PREDICTED BY IDOCK:   -0.26 KCAL/MOL
REMARK 927      BINDING AFFINITY PREDICTED BY RF-SCORE:    0.00 PKD
ROOT
HETATM    1 CL   UNL     1     -12.847  14.112  65.366  1.00  0.00    -0.480 Cl 
HETATM    2  C   UNL     1     -11.359  13.446  65.960  1.00  0.00    -0.309 A  
HETATM    3  C   UNL     1     -11.436  12.115  66.401  1.00  0.00    -0.430 A  
HETATM    4  C   UNL     1     -10.374  11.527  67.078  1.00  0.00    -0.254 A  
HETATM    5  C   UNL     1      -9.227  12.271  67.329  1.00  0.00    -0.185 A  
HETATM    6  C   UNL     1      -9.139  13.591  66.873  1.00  0.00    -0.239 A  
HETATM    7 CL   UNL     1      -7.683  14.465  67.238  1.00  0.00    -0.205 Cl 
HETATM    8  C   UNL     1     -10.190  14.214  66.161  1.00  0.00    -0.304 A  
ENDROOT
BRANCH   8   9
HETATM    9  N   UNL     1      -9.998  15.522  65.666  1.00  0.00    -0.351 NA 
HETATM   10  H   UNL     1      -9.609  15.595  64.725  1.00  0.00     0.000 HD 
BRANCH   9  11
HETATM   11  C   UNL     1     -10.270  16.692  66.293  1.00  0.00    -0.334 A  
HETATM   12  N   UNL     1     -10.371  16.924  67.568  1.00  0.00    -0.310 NA 
HETATM   13  C   UNL     1     -10.564  18.388  67.685  1.00  0.00    -0.408 A  
HETATM   14  H   UNL     1     -10.327  16.244  68.327  1.00  0.00     0.000 HD 
HETATM   15  C   UNL     1     -10.619  18.941  66.260  1.00  0.00    -0.392 A  
HETATM   16  N   UNL     1     -10.437  17.754  65.451  1.00  0.00    -0.602 NA 
ENDBRANCH   9  11
ENDBRANCH   8   9
TORSDOF 2
ENDMDL
MODEL       54
REMARK 921   NORMALIZED FREE ENERGY PREDICTED BY IDOCK:   -4.30 KCAL/MOL
REMARK 922        TOTAL FREE ENERGY PREDICTED BY IDOCK:   -5.05 KCAL/MOL
REMARK 923 INTER-LIGAND FREE ENERGY PREDICTED BY IDOCK:   -4.76 KCAL/MOL
REMARK 924 INTRA-LIGAND FREE ENERGY PREDICTED BY IDOCK:   -0.30 KCAL/MOL
REMARK 927      BINDING AFFINITY PREDICTED BY RF-SCORE:    0.00 PKD
ROOT
HETATM    1 CL   UNL     1     -11.375  15.183  64.757  1.00  0.00    -0.408 Cl 
HETATM    2  C   UNL     1     -11.362  14.094  66.108  1.00  0.00    -0.337 A  
HETATM    3  C   UNL     1     -11.224  12.737  65.778  1.00  0.00    -0.341 A  
HETATM    4  C   UNL     1     -11.395  11.748  66.741  1.00  0.00    -0.385 A  
HETATM    5  C   UNL     1     -11.717  12.112  68.044  1.00  0.00    -0.409 A  
HETATM    6  C   UNL     1     -11.835  13.466  68.381  1.00  0.00    -0.366 A  
HETATM    7 CL   UNL     1     -12.255  13.844  70.023  1.00  0.00    -0.400 Cl 
HETATM    8  C   UNL     1     -11.644  14.497  67.433  1.00  0.00    -0.385 A  
ENDROOT
BRANCH   8   9
HETATM    9  N   UNL     1     -11.704  15.840  67.864  1.00  0.00    -0.215 NA 
HETATM   10  H   UNL     1     -12.618  16.174  68.171  1.00  0.00     0.000 HD 
BRANCH   9  11
HETATM   11  C   UNL     1     -10.690  16.737  67.918  1.00  0.00    -0.347 A  
HETATM   12  N   UNL     1     -10.646  17.943  67.432  1.00  0.00    -0.383 NA 
HETATM   13  C   UNL     1      -9.351  18.500  67.885  1.00  0.00    -0.294 A  
HETATM   14  H   UNL     1     -11.353  18.406  66.861  1.00  0.00     0.000 HD 
HETATM   15  C   UNL     1      -8.637  17.389  68.654  1.00  0.00    -0.259 A  
HETATM   16  N   UNL     1      -9.587  16.298  68.594  1.00  0.00    -0.227 NA 
ENDBRANCH   9  11
ENDBRANCH   8   9
TORSDOF 2
ENDMDL
MODEL       55
REMARK 921   NORMALIZED FREE ENERGY PREDICTED BY IDOCK:   -4.29 KCAL/MOL
REMARK 922        TOTAL FREE ENERGY PREDICTED BY IDOCK:   -5.05 KCAL/MOL
REMARK 923 INTER-LIGAND FREE ENERGY PREDICTED BY IDOCK:   -4.73 KCAL/MOL
REMARK 924 INTRA-LIGAND FREE ENERGY PREDICTED BY IDOCK:   -0.32 KCAL/MOL
REMARK 927      BINDING AFFINITY PREDICTED BY RF-SCORE:    0.00 PKD
ROOT
HETATM    1 CL   UNL     1      -9.384  10.216  63.423  1.00  0.00    -0.321 Cl 
HETATM    2  C   UNL     1     -10.589  11.094  64.311  1.00  0.00    -0.357 A  
HETATM    3  C   UNL     1     -11.444  11.888  63.530  1.00  0.00    -0.523 A  
HETATM    4  C   UNL     1     -12.320  12.789  64.124  1.00  0.00    -0.485 A  
HETATM    5  C   UNL     1     -12.340  12.911  65.509  1.00  0.00    -0.517 A  
HETATM    6  C   UNL     1     -11.504  12.106  66.292  1.00  0.00    -0.374 A  
HETATM    7 CL   UNL     1     -11.570  12.324  68.013  1.00  0.00    -0.385 Cl 
HETATM    8  C   UNL     1     -10.618  11.162  65.722  1.00  0.00    -0.227 A  
ENDROOT
BRANCH   8   9
HETATM    9  N   UNL     1      -9.862  10.333  66.577  1.00  0.00    -0.203 NA 
HETATM   10  H   UNL     1      -8.977  10.718  66.912  1.00  0.00     0.000 HD 
BRANCH   9  11
HETATM   11  C   UNL     1     -10.171   9.085  67.006  1.00  0.00    -0.266 A  
HETATM   12  N   UNL     1     -10.362   8.009  66.301  1.00  0.00    -0.374 NA 
HETATM   13  C   UNL     1     -10.554   6.923  67.289  1.00  0.00    -0.322 A  
HETATM   14  H   UNL     1     -10.377   7.930  65.284  1.00  0.00     0.000 HD 
HETATM   15  C   UNL     1     -10.504   7.571  68.673  1.00  0.00    -0.183 A  
HETATM   16  N   UNL     1     -10.270   8.966  68.363  1.00  0.00    -0.194 NA 
ENDBRANCH   9  11
ENDBRANCH   8   9
TORSDOF 2
ENDMDL
MODEL       56
REMARK 921   NORMALIZED FREE ENERGY PREDICTED BY IDOCK:   -4.29 KCAL/MOL
REMARK 922        TOTAL FREE ENERGY PREDICTED BY IDOCK:   -5.04 KCAL/MOL
REMARK 923 INTER-LIGAND FREE ENERGY PREDICTED BY IDOCK:   -4.74 KCAL/MOL
REMARK 924 INTRA-LIGAND FREE ENERGY PREDICTED BY IDOCK:   -0.30 KCAL/MOL
REMARK 927      BINDING AFFINITY PREDICTED BY RF-SCORE:    0.00 PKD
ROOT
HETATM    1 CL   UNL     1     -10.322   9.034  68.542  1.00  0.00    -0.225 Cl 
HETATM    2  C   UNL     1     -11.128   9.844  69.847  1.00  0.00    -0.275 A  
HETATM    3  C   UNL     1     -11.770   9.000  70.766  1.00  0.00    -0.286 A  
HETATM    4  C   UNL     1     -12.613   9.520  71.742  1.00  0.00    -0.490 A  
HETATM    5  C   UNL     1     -12.829  10.892  71.798  1.00  0.00    -0.509 A  
HETATM    6  C   UNL     1     -12.174  11.739  70.896  1.00  0.00    -0.276 A  
HETATM    7 CL   UNL     1     -12.505  13.439  71.014  1.00  0.00    -0.452 Cl 
HETATM    8  C   UNL     1     -11.292  11.247  69.906  1.00  0.00    -0.249 A  
ENDROOT
BRANCH   8   9
HETATM    9  N   UNL     1     -10.609  12.167  69.082  1.00  0.00    -0.427 NA 
HETATM   10  H   UNL     1      -9.749  12.561  69.464  1.00  0.00     0.000 HD 
BRANCH   9  11
HETATM   11  C   UNL     1     -10.962  12.588  67.843  1.00  0.00    -0.227 A  
HETATM   12  N   UNL     1     -11.396  11.883  66.840  1.00  0.00    -0.344 NA 
HETATM   13  C   UNL     1     -11.732  12.869  65.786  1.00  0.00    -0.390 A  
HETATM   14  H   UNL     1     -11.485  10.868  66.789  1.00  0.00     0.000 HD 
HETATM   15  C   UNL     1     -11.357  14.246  66.334  1.00  0.00    -0.343 A  
HETATM   16  N   UNL     1     -10.857  13.936  67.657  1.00  0.00    -0.252 NA 
ENDBRANCH   9  11
ENDBRANCH   8   9
TORSDOF 2
ENDMDL
MODEL       57
REMARK 921   NORMALIZED FREE ENERGY PREDICTED BY IDOCK:   -4.27 KCAL/MOL
REMARK 922        TOTAL FREE ENERGY PREDICTED BY IDOCK:   -5.03 KCAL/MOL
REMARK 923 INTER-LIGAND FREE ENERGY PREDICTED BY IDOCK:   -4.79 KCAL/MOL
REMARK 924 INTRA-LIGAND FREE ENERGY PREDICTED BY IDOCK:   -0.23 KCAL/MOL
REMARK 927      BINDING AFFINITY PREDICTED BY RF-SCORE:    0.00 PKD
ROOT
HETATM    1 CL   UNL     1     -12.060  14.217  69.255  1.00  0.00    -0.364 Cl 
HETATM    2  C   UNL     1     -11.701  12.522  69.172  1.00  0.00    -0.321 A  
HETATM    3  C   UNL     1     -12.088  11.775  70.295  1.00  0.00    -0.426 A  
HETATM    4  C   UNL     1     -11.687  10.452  70.444  1.00  0.00    -0.419 A  
HETATM    5  C   UNL     1     -10.883   9.869  69.472  1.00  0.00    -0.274 A  
HETATM    6  C   UNL     1     -10.511  10.604  68.340  1.00  0.00    -0.188 A  
HETATM    7 CL   UNL     1      -9.492   9.816  67.176  1.00  0.00    -0.178 Cl 
HETATM    8  C   UNL     1     -10.921  11.943  68.145  1.00  0.00    -0.227 A  
ENDROOT
BRANCH   8   9
HETATM    9  N   UNL     1     -10.571  12.596  66.943  1.00  0.00    -0.239 NA 
HETATM   10  H   UNL     1      -9.791  13.252  66.998  1.00  0.00     0.000 HD 
BRANCH   9  11
HETATM   11  C   UNL     1     -11.149  12.454  65.726  1.00  0.00    -0.315 A  
HETATM   12  N   UNL     1     -12.414  12.415  65.428  1.00  0.00    -0.613 NA 
HETATM   13  C   UNL     1     -12.467  12.364  63.949  1.00  0.00    -0.476 A  
HETATM   14  H   UNL     1     -13.203  12.419  66.075  1.00  0.00     0.000 HD 
HETATM   15  C   UNL     1     -11.020  12.316  63.457  1.00  0.00    -0.459 A  
HETATM   16  N   UNL     1     -10.263  12.361  64.691  1.00  0.00    -0.296 NA 
ENDBRANCH   9  11
ENDBRANCH   8   9
TORSDOF 2
ENDMDL
MODEL       58
REMARK 921   NORMALIZED FREE ENERGY PREDICTED BY IDOCK:   -4.26 KCAL/MOL
REMARK 922        TOTAL FREE ENERGY PREDICTED BY IDOCK:   -5.01 KCAL/MOL
REMARK 923 INTER-LIGAND FREE ENERGY PREDICTED BY IDOCK:   -4.86 KCAL/MOL
REMARK 924 INTRA-LIGAND FREE ENERGY PREDICTED BY IDOCK:   -0.16 KCAL/MOL
REMARK 927      BINDING AFFINITY PREDICTED BY RF-SCORE:    0.00 PKD
ROOT
HETATM    1 CL   UNL     1      -9.450   8.855  70.500  1.00  0.00    -0.220 Cl 
HETATM    2  C   UNL     1     -11.144   9.001  70.848  1.00  0.00    -0.280 A  
HETATM    3  C   UNL     1     -11.589  10.306  71.108  1.00  0.00    -0.385 A  
HETATM    4  C   UNL     1     -12.872  10.539  71.590  1.00  0.00    -0.581 A  
HETATM    5  C   UNL     1     -13.718   9.462  71.828  1.00  0.00    -0.418 A  
HETATM    6  C   UNL     1     -13.285   8.160  71.551  1.00  0.00    -0.284 A  
HETATM    7 CL   UNL     1     -14.389   6.863  71.889  1.00  0.00    -0.441 Cl 
HETATM    8  C   UNL     1     -11.995   7.889  71.038  1.00  0.00    -0.252 A  
ENDROOT
BRANCH   8   9
HETATM    9  N   UNL     1     -11.657   6.558  70.711  1.00  0.00    -0.364 NA 
HETATM   10  H   UNL     1     -11.827   5.859  71.435  1.00  0.00     0.000 HD 
BRANCH   9  11
HETATM   11  C   UNL     1     -11.132   6.099  69.549  1.00  0.00    -0.420 A  
HETATM   12  N   UNL     1     -11.328   6.538  68.341  1.00  0.00    -0.566 NA 
HETATM   13  C   UNL     1     -10.419   5.744  67.483  1.00  0.00    -0.245 A  
HETATM   14  H   UNL     1     -11.972   7.273  68.046  1.00  0.00     0.000 HD 
HETATM   15  C   UNL     1      -9.719   4.737  68.396  1.00  0.00    -0.146 A  
HETATM   16  N   UNL     1     -10.271   5.049  69.698  1.00  0.00    -0.252 NA 
ENDBRANCH   9  11
ENDBRANCH   8   9
TORSDOF 2
ENDMDL
MODEL       59
REMARK 921   NORMALIZED FREE ENERGY PREDICTED BY IDOCK:   -4.25 KCAL/MOL
REMARK 922        TOTAL FREE ENERGY PREDICTED BY IDOCK:   -5.00 KCAL/MOL
REMARK 923 INTER-LIGAND FREE ENERGY PREDICTED BY IDOCK:   -4.71 KCAL/MOL
REMARK 924 INTRA-LIGAND FREE ENERGY PREDICTED BY IDOCK:   -0.29 KCAL/MOL
REMARK 927      BINDING AFFINITY PREDICTED BY RF-SCORE:    0.00 PKD
ROOT
HETATM    1 CL   UNL     1     -11.919  12.554  67.709  1.00  0.00    -0.371 Cl 
HETATM    2  C   UNL     1     -11.502  12.472  66.026  1.00  0.00    -0.377 A  
HETATM    3  C   UNL     1     -12.254  13.306  65.185  1.00  0.00    -0.487 A  
HETATM    4  C   UNL     1     -12.159  13.195  63.802  1.00  0.00    -0.563 A  
HETATM    5  C   UNL     1     -11.318  12.237  63.250  1.00  0.00    -0.414 A  
HETATM    6  C   UNL     1     -10.551  11.417  64.086  1.00  0.00    -0.369 A  
HETATM    7 CL   UNL     1      -9.535  10.231  63.326  1.00  0.00    -0.338 Cl 
HETATM    8  C   UNL     1     -10.604  11.519  65.495  1.00  0.00    -0.281 A  
ENDROOT
BRANCH   8   9
HETATM    9  N   UNL     1      -9.745  10.711  66.271  1.00  0.00    -0.192 NA 
HETATM   10  H   UNL     1      -8.807  11.079  66.435  1.00  0.00     0.000 HD 
BRANCH   9  11
HETATM   11  C   UNL     1     -10.020   9.504  66.823  1.00  0.00    -0.233 A  
HETATM   12  N   UNL     1     -10.050   8.338  66.249  1.00  0.00    -0.466 NA 
HETATM   13  C   UNL     1     -10.287   7.369  67.344  1.00  0.00    -0.270 A  
HETATM   14  H   UNL     1      -9.936   8.133  65.256  1.00  0.00     0.000 HD 
HETATM   15  C   UNL     1     -10.449   8.184  68.627  1.00  0.00    -0.165 A  
HETATM   16  N   UNL     1     -10.275   9.545  68.164  1.00  0.00    -0.183 NA 
ENDBRANCH   9  11
ENDBRANCH   8   9
TORSDOF 2
ENDMDL
MODEL       60
REMARK 921   NORMALIZED FREE ENERGY PREDICTED BY IDOCK:   -4.24 KCAL/MOL
REMARK 922        TOTAL FREE ENERGY PREDICTED BY IDOCK:   -4.99 KCAL/MOL
REMARK 923 INTER-LIGAND FREE ENERGY PREDICTED BY IDOCK:   -4.71 KCAL/MOL
REMARK 924 INTRA-LIGAND FREE ENERGY PREDICTED BY IDOCK:   -0.28 KCAL/MOL
REMARK 927      BINDING AFFINITY PREDICTED BY RF-SCORE:    0.00 PKD
ROOT
HETATM    1 CL   UNL     1     -10.864  16.407  64.836  1.00  0.00    -0.361 Cl 
HETATM    2  C   UNL     1      -9.767  15.716  65.990  1.00  0.00    -0.346 A  
HETATM    3  C   UNL     1      -8.619  16.480  66.252  1.00  0.00    -0.367 A  
HETATM    4  C   UNL     1      -7.571  15.957  67.001  1.00  0.00    -0.264 A  
HETATM    5  C   UNL     1      -7.659  14.657  67.484  1.00  0.00    -0.215 A  
HETATM    6  C   UNL     1      -8.811  13.899  67.242  1.00  0.00    -0.221 A  
HETATM    7 CL   UNL     1      -8.844  12.277  67.862  1.00  0.00    -0.170 Cl 
HETATM    8  C   UNL     1      -9.906  14.407  66.506  1.00  0.00    -0.287 A  
ENDROOT
BRANCH   8   9
HETATM    9  N   UNL     1     -11.064  13.613  66.367  1.00  0.00    -0.301 NA 
HETATM   10  H   UNL     1     -11.653  13.527  67.197  1.00  0.00     0.000 HD 
BRANCH   9  11
HETATM   11  C   UNL     1     -11.486  12.950  65.263  1.00  0.00    -0.313 A  
HETATM   12  N   UNL     1     -12.689  12.866  64.778  1.00  0.00    -0.706 NA 
HETATM   13  C   UNL     1     -12.547  12.119  63.507  1.00  0.00    -0.506 A  
HETATM   14  H   UNL     1     -13.548  13.234  65.186  1.00  0.00     0.000 HD 
HETATM   15  C   UNL     1     -11.072  11.737  63.382  1.00  0.00    -0.365 A  
HETATM   16  N   UNL     1     -10.492  12.311  64.579  1.00  0.00    -0.293 NA 
ENDBRANCH   9  11
ENDBRANCH   8   9
TORSDOF 2
ENDMDL
MODEL       61
REMARK 921   NORMALIZED FREE ENERGY PREDICTED BY IDOCK:   -4.23 KCAL/MOL
REMARK 922        TOTAL FREE ENERGY PREDICTED BY IDOCK:   -4.98 KCAL/MOL
REMARK 923 INTER-LIGAND FREE ENERGY PREDICTED BY IDOCK:   -4.84 KCAL/MOL
REMARK 924 INTRA-LIGAND FREE ENERGY PREDICTED BY IDOCK:   -0.14 KCAL/MOL
REMARK 927      BINDING AFFINITY PREDICTED BY RF-SCORE:    0.00 PKD
ROOT
HETATM    1 CL   UNL     1     -11.645  16.208  64.255  1.00  0.00    -0.294 Cl 
HETATM    2  C   UNL     1     -11.352  14.614  64.875  1.00  0.00    -0.403 A  
HETATM    3  C   UNL     1     -12.279  13.639  64.475  1.00  0.00    -0.444 A  
HETATM    4  C   UNL     1     -12.276  12.374  65.052  1.00  0.00    -0.465 A  
HETATM    5  C   UNL     1     -11.350  12.078  66.045  1.00  0.00    -0.398 A  
HETATM    6  C   UNL     1     -10.410  13.041  66.432  1.00  0.00    -0.281 A  
HETATM    7 CL   UNL     1      -9.295  12.606  67.690  1.00  0.00    -0.184 Cl 
HETATM    8  C   UNL     1     -10.369  14.329  65.850  1.00  0.00    -0.314 A  
ENDROOT
BRANCH   8   9
HETATM    9  N   UNL     1      -9.345  15.220  66.237  1.00  0.00    -0.290 NA 
HETATM   10  H   UNL     1      -8.394  14.850  66.216  1.00  0.00     0.000 HD 
BRANCH   9  11
HETATM   11  C   UNL     1      -9.476  16.509  66.634  1.00  0.00    -0.258 A  
HETATM   12  N   UNL     1      -9.000  17.582  66.075  1.00  0.00    -0.523 NA 
HETATM   13  C   UNL     1      -9.548  18.710  66.864  1.00  0.00    -0.310 A  
HETATM   14  H   UNL     1      -8.380  17.636  65.267  1.00  0.00     0.000 HD 
HETATM   15  C   UNL     1     -10.364  18.097  68.002  1.00  0.00    -0.391 A  
HETATM   16  N   UNL     1     -10.230  16.676  67.760  1.00  0.00    -0.282 NA 
ENDBRANCH   9  11
ENDBRANCH   8   9
TORSDOF 2
ENDMDL
MODEL       62
REMARK 921   NORMALIZED FREE ENERGY PREDICTED BY IDOCK:   -4.21 KCAL/MOL
REMARK 922        TOTAL FREE ENERGY PREDICTED BY IDOCK:   -4.95 KCAL/MOL
REMARK 923 INTER-LIGAND FREE ENERGY PREDICTED BY IDOCK:   -4.75 KCAL/MOL
REMARK 924 INTRA-LIGAND FREE ENERGY PREDICTED BY IDOCK:   -0.20 KCAL/MOL
REMARK 927      BINDING AFFINITY PREDICTED BY RF-SCORE:    0.00 PKD
ROOT
HETATM    1 CL   UNL     1     -10.816  15.781  65.911  1.00  0.00    -0.303 Cl 
HETATM    2  C   UNL     1     -11.178  15.063  67.448  1.00  0.00    -0.335 A  
HETATM    3  C   UNL     1     -11.400  13.677  67.421  1.00  0.00    -0.340 A  
HETATM    4  C   UNL     1     -11.890  13.012  68.540  1.00  0.00    -0.360 A  
HETATM    5  C   UNL     1     -12.171  13.733  69.694  1.00  0.00    -0.359 A  
HETATM    6  C   UNL     1     -11.931  15.111  69.732  1.00  0.00    -0.334 A  
HETATM    7 CL   UNL     1     -12.321  15.949  71.202  1.00  0.00    -0.465 Cl 
HETATM    8  C   UNL     1     -11.411  15.816  68.621  1.00  0.00    -0.386 A  
ENDROOT
BRANCH   8   9
HETATM    9  N   UNL     1     -11.123  17.191  68.759  1.00  0.00    -0.227 NA 
HETATM   10  H   UNL     1     -11.904  17.790  69.028  1.00  0.00     0.000 HD 
BRANCH   9  11
HETATM   11  C   UNL     1      -9.931  17.808  68.575  1.00  0.00    -0.370 A  
HETATM   12  N   UNL     1      -8.736  17.300  68.637  1.00  0.00    -0.278 NA 
HETATM   13  C   UNL     1      -7.823  18.397  68.239  1.00  0.00    -0.298 A  
HETATM   14  H   UNL     1      -8.481  16.349  68.903  1.00  0.00     0.000 HD 
HETATM   15  C   UNL     1      -8.693  19.631  68.002  1.00  0.00    -0.319 A  
HETATM   16  N   UNL     1     -10.028  19.135  68.265  1.00  0.00    -0.379 NA 
ENDBRANCH   9  11
ENDBRANCH   8   9
TORSDOF 2
ENDMDL
MODEL       63
REMARK 921   NORMALIZED FREE ENERGY PREDICTED BY IDOCK:   -4.20 KCAL/MOL
REMARK 922        TOTAL FREE ENERGY PREDICTED BY IDOCK:   -4.94 KCAL/MOL
REMARK 923 INTER-LIGAND FREE ENERGY PREDICTED BY IDOCK:   -4.70 KCAL/MOL
REMARK 924 INTRA-LIGAND FREE ENERGY PREDICTED BY IDOCK:   -0.24 KCAL/MOL
REMARK 927      BINDING AFFINITY PREDICTED BY RF-SCORE:    0.00 PKD
ROOT
HETATM    1 CL   UNL     1     -10.881  19.252  67.393  1.00  0.00    -0.586 Cl 
HETATM    2  C   UNL     1      -9.472  18.571  68.143  1.00  0.00    -0.317 A  
HETATM    3  C   UNL     1      -8.393  19.456  68.298  1.00  0.00    -0.379 A  
HETATM    4  C   UNL     1      -7.145  18.994  68.700  1.00  0.00    -0.341 A  
HETATM    5  C   UNL     1      -6.963  17.637  68.941  1.00  0.00    -0.251 A  
HETATM    6  C   UNL     1      -8.042  16.755  68.806  1.00  0.00    -0.252 A  
HETATM    7 CL   UNL     1      -7.737  15.072  69.106  1.00  0.00    -0.167 Cl 
HETATM    8  C   UNL     1      -9.330  17.193  68.423  1.00  0.00    -0.273 A  
ENDROOT
BRANCH   8   9
HETATM    9  N   UNL     1     -10.386  16.257  68.383  1.00  0.00    -0.259 NA 
HETATM   10  H   UNL     1     -10.621  15.883  67.463  1.00  0.00     0.000 HD 
BRANCH   9  11
HETATM   11  C   UNL     1     -11.124  15.799  69.423  1.00  0.00    -0.314 A  
HETATM   12  N   UNL     1     -11.451  16.415  70.520  1.00  0.00    -0.509 NA 
HETATM   13  C   UNL     1     -12.354  15.485  71.237  1.00  0.00    -0.408 A  
HETATM   14  H   UNL     1     -11.149  17.341  70.823  1.00  0.00     0.000 HD 
HETATM   15  C   UNL     1     -12.436  14.212  70.395  1.00  0.00    -0.357 A  
HETATM   16  N   UNL     1     -11.590  14.525  69.261  1.00  0.00    -0.284 NA 
ENDBRANCH   9  11
ENDBRANCH   8   9
TORSDOF 2
ENDMDL
MODEL       64
REMARK 921   NORMALIZED FREE ENERGY PREDICTED BY IDOCK:   -4.18 KCAL/MOL
REMARK 922        TOTAL FREE ENERGY PREDICTED BY IDOCK:   -4.93 KCAL/MOL
REMARK 923 INTER-LIGAND FREE ENERGY PREDICTED BY IDOCK:   -4.66 KCAL/MOL
REMARK 924 INTRA-LIGAND FREE ENERGY PREDICTED BY IDOCK:   -0.27 KCAL/MOL
REMARK 927      BINDING AFFINITY PREDICTED BY RF-SCORE:    0.00 PKD
ROOT
HETATM    1 CL   UNL     1     -12.475  13.112  66.224  1.00  0.00    -0.330 Cl 
HETATM    2  C   UNL     1     -11.328  14.351  66.623  1.00  0.00    -0.353 A  
HETATM    3  C   UNL     1     -10.932  15.164  65.551  1.00  0.00    -0.370 A  
HETATM    4  C   UNL     1      -9.879  16.062  65.688  1.00  0.00    -0.309 A  
HETATM    5  C   UNL     1      -9.206  16.144  66.902  1.00  0.00    -0.246 A  
HETATM    6  C   UNL     1      -9.611  15.349  67.980  1.00  0.00    -0.206 A  
HETATM    7 CL   UNL     1      -8.713  15.492  69.459  1.00  0.00    -0.260 Cl 
HETATM    8  C   UNL     1     -10.693  14.443  67.882  1.00  0.00    -0.244 A  
ENDROOT
BRANCH   8   9
HETATM    9  N   UNL     1     -11.093  13.731  69.034  1.00  0.00    -0.256 NA 
HETATM   10  H   UNL     1     -10.635  12.832  69.189  1.00  0.00     0.000 HD 
BRANCH   9  11
HETATM   11  C   UNL     1     -12.014  14.101  69.957  1.00  0.00    -0.340 A  
HETATM   12  N   UNL     1     -12.696  15.205  70.024  1.00  0.00    -0.609 NA 
HETATM   13  C   UNL     1     -13.628  15.020  71.161  1.00  0.00    -0.427 A  
HETATM   14  H   UNL     1     -12.609  16.025  69.423  1.00  0.00     0.000 HD 
HETATM   15  C   UNL     1     -13.317  13.652  71.769  1.00  0.00    -0.388 A  
HETATM   16  N   UNL     1     -12.250  13.163  70.921  1.00  0.00    -0.320 NA 
ENDBRANCH   9  11
ENDBRANCH   8   9
TORSDOF 2
ENDMDL
MODEL       65
REMARK 921   NORMALIZED FREE ENERGY PREDICTED BY IDOCK:   -4.14 KCAL/MOL
REMARK 922        TOTAL FREE ENERGY PREDICTED BY IDOCK:   -4.88 KCAL/MOL
REMARK 923 INTER-LIGAND FREE ENERGY PREDICTED BY IDOCK:   -4.69 KCAL/MOL
REMARK 924 INTRA-LIGAND FREE ENERGY PREDICTED BY IDOCK:   -0.18 KCAL/MOL
REMARK 927      BINDING AFFINITY PREDICTED BY RF-SCORE:    0.00 PKD
ROOT
HETATM    1 CL   UNL     1      -6.901  17.792  65.699  1.00  0.00    -0.218 Cl 
HETATM    2  C   UNL     1      -8.235  18.159  66.746  1.00  0.00    -0.252 A  
HETATM    3  C   UNL     1      -8.339  19.505  67.131  1.00  0.00    -0.321 A  
HETATM    4  C   UNL     1      -9.237  19.898  68.116  1.00  0.00    -0.374 A  
HETATM    5  C   UNL     1     -10.033  18.941  68.735  1.00  0.00    -0.466 A  
HETATM    6  C   UNL     1      -9.948  17.600  68.340  1.00  0.00    -0.356 A  
HETATM    7 CL   UNL     1     -10.960  16.459  69.168  1.00  0.00    -0.321 Cl 
HETATM    8  C   UNL     1      -9.063  17.170  67.325  1.00  0.00    -0.222 A  
ENDROOT
BRANCH   8   9
HETATM    9  N   UNL     1      -9.087  15.816  66.927  1.00  0.00    -0.220 NA 
HETATM   10  H   UNL     1      -8.434  15.194  67.406  1.00  0.00     0.000 HD 
BRANCH   9  11
HETATM   11  C   UNL     1      -9.875  15.245  65.984  1.00  0.00    -0.328 A  
HETATM   12  N   UNL     1     -10.009  13.984  65.694  1.00  0.00    -0.432 NA 
HETATM   13  C   UNL     1     -11.078  13.930  64.670  1.00  0.00    -0.385 A  
HETATM   14  H   UNL     1      -9.489  13.200  66.087  1.00  0.00     0.000 HD 
HETATM   15  C   UNL     1     -11.485  15.375  64.380  1.00  0.00    -0.255 A  
HETATM   16  N   UNL     1     -10.631  16.131  65.272  1.00  0.00    -0.544 NA 
ENDBRANCH   9  11
ENDBRANCH   8   9
TORSDOF 2
ENDMDL
MODEL       66
REMARK 921   NORMALIZED FREE ENERGY PREDICTED BY IDOCK:   -4.12 KCAL/MOL
REMARK 922        TOTAL FREE ENERGY PREDICTED BY IDOCK:   -4.85 KCAL/MOL
REMARK 923 INTER-LIGAND FREE ENERGY PREDICTED BY IDOCK:   -4.56 KCAL/MOL
REMARK 924 INTRA-LIGAND FREE ENERGY PREDICTED BY IDOCK:   -0.29 KCAL/MOL
REMARK 927      BINDING AFFINITY PREDICTED BY RF-SCORE:    0.00 PKD
ROOT
HETATM    1 CL   UNL     1     -11.171  10.466  68.524  1.00  0.00    -0.317 Cl 
HETATM    2  C   UNL     1     -11.789  11.516  69.759  1.00  0.00    -0.357 A  
HETATM    3  C   UNL     1     -12.415  10.867  70.835  1.00  0.00    -0.507 A  
HETATM    4  C   UNL     1     -13.122  11.589  71.789  1.00  0.00    -0.503 A  
HETATM    5  C   UNL     1     -13.218  12.971  71.667  1.00  0.00    -0.426 A  
HETATM    6  C   UNL     1     -12.577  13.624  70.607  1.00  0.00    -0.296 A  
HETATM    7 CL   UNL     1     -12.755  15.348  70.509  1.00  0.00    -0.461 Cl 
HETATM    8  C   UNL     1     -11.830  12.923  69.633  1.00  0.00    -0.320 A  
ENDROOT
BRANCH   8   9
HETATM    9  N   UNL     1     -11.149  13.656  68.637  1.00  0.00    -0.260 NA 
HETATM   10  H   UNL     1     -11.732  14.096  67.924  1.00  0.00     0.000 HD 
BRANCH   9  11
HETATM   11  C   UNL     1      -9.813  13.844  68.516  1.00  0.00    -0.214 A  
HETATM   12  N   UNL     1      -9.029  14.582  69.245  1.00  0.00    -0.396 NA 
HETATM   13  C   UNL     1      -7.662  14.320  68.737  1.00  0.00    -0.134 A  
HETATM   14  H   UNL     1      -9.297  15.208  70.004  1.00  0.00     0.000 HD 
HETATM   15  C   UNL     1      -7.806  13.359  67.557  1.00  0.00    -0.176 A  
HETATM   16  N   UNL     1      -9.236  13.138  67.499  1.00  0.00    -0.197 NA 
ENDBRANCH   9  11
ENDBRANCH   8   9
TORSDOF 2
ENDMDL
MODEL       67
REMARK 921   NORMALIZED FREE ENERGY PREDICTED BY IDOCK:   -4.10 KCAL/MOL
REMARK 922        TOTAL FREE ENERGY PREDICTED BY IDOCK:   -4.83 KCAL/MOL
REMARK 923 INTER-LIGAND FREE ENERGY PREDICTED BY IDOCK:   -4.54 KCAL/MOL
REMARK 924 INTRA-LIGAND FREE ENERGY PREDICTED BY IDOCK:   -0.29 KCAL/MOL
REMARK 927      BINDING AFFINITY PREDICTED BY RF-SCORE:    0.00 PKD
ROOT
HETATM    1 CL   UNL     1     -12.508  14.936  64.125  1.00  0.00    -0.318 Cl 
HETATM    2  C   UNL     1     -11.506  13.558  64.455  1.00  0.00    -0.394 A  
HETATM    3  C   UNL     1     -11.507  12.569  63.460  1.00  0.00    -0.570 A  
HETATM    4  C   UNL     1     -10.908  11.334  63.682  1.00  0.00    -0.410 A  
HETATM    5  C   UNL     1     -10.311  11.076  64.910  1.00  0.00    -0.378 A  
HETATM    6  C   UNL     1     -10.290  12.068  65.898  1.00  0.00    -0.244 A  
HETATM    7 CL   UNL     1      -9.542  11.669  67.414  1.00  0.00    -0.169 Cl 
HETATM    8  C   UNL     1     -10.869  13.342  65.698  1.00  0.00    -0.283 A  
ENDROOT
BRANCH   8   9
HETATM    9  N   UNL     1     -10.741  14.317  66.711  1.00  0.00    -0.284 NA 
HETATM   10  H   UNL     1     -11.281  14.155  67.562  1.00  0.00     0.000 HD 
BRANCH   9  11
HETATM   11  C   UNL     1      -9.987  15.443  66.686  1.00  0.00    -0.260 A  
HETATM   12  N   UNL     1      -8.780  15.600  66.229  1.00  0.00    -0.358 NA 
HETATM   13  C   UNL     1      -8.502  17.050  66.351  1.00  0.00    -0.283 A  
HETATM   14  H   UNL     1      -8.157  14.880  65.865  1.00  0.00     0.000 HD 
HETATM   15  C   UNL     1      -9.728  17.681  67.012  1.00  0.00    -0.292 A  
HETATM   16  N   UNL     1     -10.609  16.546  67.196  1.00  0.00    -0.301 NA 
ENDBRANCH   9  11
ENDBRANCH   8   9
TORSDOF 2
ENDMDL
MODEL       68
REMARK 921   NORMALIZED FREE ENERGY PREDICTED BY IDOCK:   -4.09 KCAL/MOL
REMARK 922        TOTAL FREE ENERGY PREDICTED BY IDOCK:   -4.83 KCAL/MOL
REMARK 923 INTER-LIGAND FREE ENERGY PREDICTED BY IDOCK:   -4.58 KCAL/MOL
REMARK 924 INTRA-LIGAND FREE ENERGY PREDICTED BY IDOCK:   -0.25 KCAL/MOL
REMARK 927      BINDING AFFINITY PREDICTED BY RF-SCORE:    0.00 PKD
ROOT
HETATM    1 CL   UNL     1      -9.958  15.907  69.562  1.00  0.00    -0.270 Cl 
HETATM    2  C   UNL     1     -10.192  15.340  67.939  1.00  0.00    -0.235 A  
HETATM    3  C   UNL     1      -9.334  15.904  66.981  1.00  0.00    -0.230 A  
HETATM    4  C   UNL     1      -9.541  15.688  65.624  1.00  0.00    -0.319 A  
HETATM    5  C   UNL     1     -10.619  14.912  65.212  1.00  0.00    -0.421 A  
HETATM    6  C   UNL     1     -11.465  14.331  66.165  1.00  0.00    -0.355 A  
HETATM    7 CL   UNL     1     -12.800  13.390  65.577  1.00  0.00    -0.465 Cl 
HETATM    8  C   UNL     1     -11.269  14.511  67.554  1.00  0.00    -0.321 A  
ENDROOT
BRANCH   8   9
HETATM    9  N   UNL     1     -12.117  13.832  68.456  1.00  0.00    -0.427 NA 
HETATM   10  H   UNL     1     -13.036  14.247  68.610  1.00  0.00     0.000 HD 
BRANCH   9  11
HETATM   11  C   UNL     1     -11.853  12.693  69.141  1.00  0.00    -0.297 A  
HETATM   12  N   UNL     1     -12.144  12.403  70.375  1.00  0.00    -0.449 NA 
HETATM   13  C   UNL     1     -11.725  10.993  70.555  1.00  0.00    -0.318 A  
HETATM   14  H   UNL     1     -12.570  13.015  71.071  1.00  0.00     0.000 HD 
HETATM   15  C   UNL     1     -11.089  10.550  69.237  1.00  0.00    -0.246 A  
HETATM   16  N   UNL     1     -11.213  11.733  68.410  1.00  0.00    -0.229 NA 
ENDBRANCH   9  11
ENDBRANCH   8   9
TORSDOF 2
ENDMDL
MODEL       69
REMARK 921   NORMALIZED FREE ENERGY PREDICTED BY IDOCK:   -4.07 KCAL/MOL
REMARK 922        TOTAL FREE ENERGY PREDICTED BY IDOCK:   -4.80 KCAL/MOL
REMARK 923 INTER-LIGAND FREE ENERGY PREDICTED BY IDOCK:   -4.48 KCAL/MOL
REMARK 924 INTRA-LIGAND FREE ENERGY PREDICTED BY IDOCK:   -0.32 KCAL/MOL
REMARK 927      BINDING AFFINITY PREDICTED BY RF-SCORE:    0.00 PKD
ROOT
HETATM    1 CL   UNL     1      -7.438  16.121  69.243  1.00  0.00    -0.227 Cl 
HETATM    2  C   UNL     1      -8.680  16.459  68.080  1.00  0.00    -0.183 A  
HETATM    3  C   UNL     1      -9.131  15.349  67.349  1.00  0.00    -0.206 A  
HETATM    4  C   UNL     1      -9.976  15.510  66.257  1.00  0.00    -0.313 A  
HETATM    5  C   UNL     1     -10.369  16.789  65.879  1.00  0.00    -0.341 A  
HETATM    6  C   UNL     1      -9.938  17.898  66.618  1.00  0.00    -0.355 A  
HETATM    7 CL   UNL     1     -10.454  19.465  66.079  1.00  0.00    -0.590 Cl 
HETATM    8  C   UNL     1      -9.098  17.768  67.749  1.00  0.00    -0.249 A  
ENDROOT
BRANCH   8   9
HETATM    9  N   UNL     1      -8.768  18.924  68.489  1.00  0.00    -0.339 NA 
HETATM   10  H   UNL     1      -9.457  19.231  69.176  1.00  0.00     0.000 HD 
BRANCH   9  11
HETATM   11  C   UNL     1      -7.643  19.673  68.395  1.00  0.00    -0.327 A  
HETATM   12  N   UNL     1      -7.221  20.379  67.388  1.00  0.00    -0.291 NA 
HETATM   13  C   UNL     1      -6.009  21.076  67.879  1.00  0.00    -0.342 A  
HETATM   14  H   UNL     1      -7.634  20.440  66.457  1.00  0.00     0.000 HD 
HETATM   15  C   UNL     1      -5.777  20.600  69.313  1.00  0.00    -0.373 A  
HETATM   16  N   UNL     1      -6.881  19.687  69.528  1.00  0.00    -0.343 NA 
ENDBRANCH   9  11
ENDBRANCH   8   9
TORSDOF 2
ENDMDL
MODEL       70
REMARK 921   NORMALIZED FREE ENERGY PREDICTED BY IDOCK:   -4.05 KCAL/MOL
REMARK 922        TOTAL FREE ENERGY PREDICTED BY IDOCK:   -4.77 KCAL/MOL
REMARK 923 INTER-LIGAND FREE ENERGY PREDICTED BY IDOCK:   -4.48 KCAL/MOL
REMARK 924 INTRA-LIGAND FREE ENERGY PREDICTED BY IDOCK:   -0.29 KCAL/MOL
REMARK 927      BINDING AFFINITY PREDICTED BY RF-SCORE:    0.00 PKD
ROOT
HETATM    1 CL   UNL     1     -13.794   8.863  72.559  1.00  0.00    -0.494 Cl 
HETATM    2  C   UNL     1     -12.503   9.563  71.636  1.00  0.00    -0.391 A  
HETATM    3  C   UNL     1     -12.903  10.469  70.642  1.00  0.00    -0.407 A  
HETATM    4  C   UNL     1     -11.994  10.950  69.707  1.00  0.00    -0.423 A  
HETATM    5  C   UNL     1     -10.674  10.517  69.754  1.00  0.00    -0.314 A  
HETATM    6  C   UNL     1     -10.265   9.630  70.756  1.00  0.00    -0.260 A  
HETATM    7 CL   UNL     1      -8.606   9.120  70.742  1.00  0.00    -0.247 Cl 
HETATM    8  C   UNL     1     -11.158   9.140  71.737  1.00  0.00    -0.367 A  
ENDROOT
BRANCH   8   9
HETATM    9  N   UNL     1     -10.657   8.309  72.762  1.00  0.00    -0.317 NA 
HETATM   10  H   UNL     1     -10.183   8.781  73.533  1.00  0.00     0.000 HD 
BRANCH   9  11
HETATM   11  C   UNL     1     -10.731   6.958  72.842  1.00  0.00    -0.277 A  
HETATM   12  N   UNL     1     -10.944   6.099  71.890  1.00  0.00    -0.251 NA 
HETATM   13  C   UNL     1     -10.805   4.768  72.524  1.00  0.00    -0.140 A  
HETATM   14  H   UNL     1     -11.162   6.299  70.914  1.00  0.00     0.000 HD 
HETATM   15  C   UNL     1     -10.539   5.013  74.010  1.00  0.00    -0.298 A  
HETATM   16  N   UNL     1     -10.531   6.458  74.098  1.00  0.00    -0.300 NA 
ENDBRANCH   9  11
ENDBRANCH   8   9
TORSDOF 2
ENDMDL
MODEL       71
REMARK 921   NORMALIZED FREE ENERGY PREDICTED BY IDOCK:   -4.03 KCAL/MOL
REMARK 922        TOTAL FREE ENERGY PREDICTED BY IDOCK:   -4.76 KCAL/MOL
REMARK 923 INTER-LIGAND FREE ENERGY PREDICTED BY IDOCK:   -4.46 KCAL/MOL
REMARK 924 INTRA-LIGAND FREE ENERGY PREDICTED BY IDOCK:   -0.29 KCAL/MOL
REMARK 927      BINDING AFFINITY PREDICTED BY RF-SCORE:    0.00 PKD
ROOT
HETATM    1 CL   UNL     1     -10.602  12.146  68.260  1.00  0.00    -0.222 Cl 
HETATM    2  C   UNL     1     -11.678  12.054  69.618  1.00  0.00    -0.335 A  
HETATM    3  C   UNL     1     -12.055  13.291  70.164  1.00  0.00    -0.403 A  
HETATM    4  C   UNL     1     -12.750  13.357  71.367  1.00  0.00    -0.411 A  
HETATM    5  C   UNL     1     -13.064  12.182  72.040  1.00  0.00    -0.462 A  
HETATM    6  C   UNL     1     -12.707  10.946  71.488  1.00  0.00    -0.428 A  
HETATM    7 CL   UNL     1     -13.117   9.521  72.392  1.00  0.00    -0.475 Cl 
HETATM    8  C   UNL     1     -12.022  10.841  70.256  1.00  0.00    -0.351 A  
ENDROOT
BRANCH   8   9
HETATM    9  N   UNL     1     -11.764   9.559  69.725  1.00  0.00    -0.440 NA 
HETATM   10  H   UNL     1     -12.524   9.129  69.197  1.00  0.00     0.000 HD 
BRANCH   9  11
HETATM   11  C   UNL     1     -10.625   8.831  69.834  1.00  0.00    -0.224 A  
HETATM   12  N   UNL     1      -9.456   9.214  70.255  1.00  0.00    -0.201 NA 
HETATM   13  C   UNL     1      -8.626   7.987  70.271  1.00  0.00    -0.132 A  
HETATM   14  H   UNL     1      -9.171  10.157  70.518  1.00  0.00     0.000 HD 
HETATM   15  C   UNL     1      -9.499   6.856  69.729  1.00  0.00    -0.145 A  
HETATM   16  N   UNL     1     -10.757   7.523  69.465  1.00  0.00    -0.235 NA 
ENDBRANCH   9  11
ENDBRANCH   8   9
TORSDOF 2
ENDMDL
MODEL       72
REMARK 921   NORMALIZED FREE ENERGY PREDICTED BY IDOCK:   -4.02 KCAL/MOL
REMARK 922        TOTAL FREE ENERGY PREDICTED BY IDOCK:   -4.75 KCAL/MOL
REMARK 923 INTER-LIGAND FREE ENERGY PREDICTED BY IDOCK:   -4.51 KCAL/MOL
REMARK 924 INTRA-LIGAND FREE ENERGY PREDICTED BY IDOCK:   -0.24 KCAL/MOL
REMARK 927      BINDING AFFINITY PREDICTED BY RF-SCORE:    0.00 PKD
ROOT
HETATM    1 CL   UNL     1     -11.589  10.497  69.679  1.00  0.00    -0.326 Cl 
HETATM    2  C   UNL     1     -11.119  10.320  68.018  1.00  0.00    -0.274 A  
HETATM    3  C   UNL     1     -10.524   9.091  67.695  1.00  0.00    -0.324 A  
HETATM    4  C   UNL     1      -9.926   8.893  66.455  1.00  0.00    -0.358 A  
HETATM    5  C   UNL     1      -9.910   9.931  65.531  1.00  0.00    -0.381 A  
HETATM    6  C   UNL     1     -10.520  11.152  65.842  1.00  0.00    -0.253 A  
HETATM    7 CL   UNL     1     -10.445  12.408  64.646  1.00  0.00    -0.320 Cl 
HETATM    8  C   UNL     1     -11.158  11.380  67.083  1.00  0.00    -0.305 A  
ENDROOT
BRANCH   8   9
HETATM    9  N   UNL     1     -11.818  12.609  67.296  1.00  0.00    -0.419 NA 
HETATM   10  H   UNL     1     -12.713  12.727  66.820  1.00  0.00     0.000 HD 
BRANCH   9  11
HETATM   11  C   UNL     1     -11.403  13.650  68.058  1.00  0.00    -0.285 A  
HETATM   12  N   UNL     1     -10.396  13.704  68.878  1.00  0.00    -0.397 NA 
HETATM   13  C   UNL     1     -10.345  15.110  69.343  1.00  0.00    -0.255 A  
HETATM   14  H   UNL     1      -9.774  12.941  69.146  1.00  0.00     0.000 HD 
HETATM   15  C   UNL     1     -11.530  15.831  68.700  1.00  0.00    -0.386 A  
HETATM   16  N   UNL     1     -12.146  14.786  67.908  1.00  0.00    -0.225 NA 
ENDBRANCH   9  11
ENDBRANCH   8   9
TORSDOF 2
ENDMDL
MODEL       73
REMARK 921   NORMALIZED FREE ENERGY PREDICTED BY IDOCK:   -4.02 KCAL/MOL
REMARK 922        TOTAL FREE ENERGY PREDICTED BY IDOCK:   -4.75 KCAL/MOL
REMARK 923 INTER-LIGAND FREE ENERGY PREDICTED BY IDOCK:   -4.66 KCAL/MOL
REMARK 924 INTRA-LIGAND FREE ENERGY PREDICTED BY IDOCK:   -0.09 KCAL/MOL
REMARK 927      BINDING AFFINITY PREDICTED BY RF-SCORE:    0.00 PKD
ROOT
HETATM    1 CL   UNL     1     -11.756  15.390  72.279  1.00  0.00    -0.524 Cl 
HETATM    2  C   UNL     1     -11.371  15.245  70.593  1.00  0.00    -0.313 A  
HETATM    3  C   UNL     1     -10.726  16.358  70.031  1.00  0.00    -0.258 A  
HETATM    4  C   UNL     1     -10.539  16.455  68.657  1.00  0.00    -0.305 A  
HETATM    5  C   UNL     1     -11.008  15.441  67.831  1.00  0.00    -0.310 A  
HETATM    6  C   UNL     1     -11.634  14.320  68.389  1.00  0.00    -0.320 A  
HETATM    7 CL   UNL     1     -12.209  13.100  67.295  1.00  0.00    -0.318 Cl 
HETATM    8  C   UNL     1     -11.819  14.177  69.783  1.00  0.00    -0.322 A  
ENDROOT
BRANCH   8   9
HETATM    9  N   UNL     1     -12.389  12.984  70.278  1.00  0.00    -0.284 NA 
HETATM   10  H   UNL     1     -13.365  13.040  70.572  1.00  0.00     0.000 HD 
BRANCH   9  11
HETATM   11  C   UNL     1     -11.792  11.774  70.409  1.00  0.00    -0.271 A  
HETATM   12  N   UNL     1     -10.732  11.324  69.806  1.00  0.00    -0.458 NA 
HETATM   13  C   UNL     1     -10.471   9.998  70.414  1.00  0.00    -0.240 A  
HETATM   14  H   UNL     1     -10.195  11.784  69.072  1.00  0.00     0.000 HD 
HETATM   15  C   UNL     1     -11.596   9.743  71.417  1.00  0.00    -0.378 A  
HETATM   16  N   UNL     1     -12.394  10.947  71.313  1.00  0.00    -0.358 NA 
ENDBRANCH   9  11
ENDBRANCH   8   9
TORSDOF 2
ENDMDL
MODEL       74
REMARK 921   NORMALIZED FREE ENERGY PREDICTED BY IDOCK:   -4.01 KCAL/MOL
REMARK 922        TOTAL FREE ENERGY PREDICTED BY IDOCK:   -4.73 KCAL/MOL
REMARK 923 INTER-LIGAND FREE ENERGY PREDICTED BY IDOCK:   -4.45 KCAL/MOL
REMARK 924 INTRA-LIGAND FREE ENERGY PREDICTED BY IDOCK:   -0.28 KCAL/MOL
REMARK 927      BINDING AFFINITY PREDICTED BY RF-SCORE:    0.00 PKD
ROOT
HETATM    1 CL   UNL     1     -12.281  15.554  70.169  1.00  0.00    -0.398 Cl 
HETATM    2  C   UNL     1     -12.371  13.822  70.220  1.00  0.00    -0.337 A  
HETATM    3  C   UNL     1     -12.661  13.277  71.480  1.00  0.00    -0.376 A  
HETATM    4  C   UNL     1     -12.569  11.908  71.703  1.00  0.00    -0.237 A  
HETATM    5  C   UNL     1     -12.174  11.072  70.665  1.00  0.00    -0.481 A  
HETATM    6  C   UNL     1     -11.904  11.609  69.401  1.00  0.00    -0.342 A  
HETATM    7 CL   UNL     1     -11.399  10.508  68.157  1.00  0.00    -0.357 Cl 
HETATM    8  C   UNL     1     -12.011  12.993  69.133  1.00  0.00    -0.271 A  
ENDROOT
BRANCH   8   9
HETATM    9  N   UNL     1     -11.797  13.452  67.815  1.00  0.00    -0.358 NA 
HETATM   10  H   UNL     1     -12.498  13.180  67.125  1.00  0.00     0.000 HD 
BRANCH   9  11
HETATM   11  C   UNL     1     -10.771  14.211  67.359  1.00  0.00    -0.284 A  
HETATM   12  N   UNL     1     -10.816  15.377  66.787  1.00  0.00    -0.312 NA 
HETATM   13  C   UNL     1      -9.402  15.780  66.607  1.00  0.00    -0.258 A  
HETATM   14  H   UNL     1     -11.648  15.903  66.518  1.00  0.00     0.000 HD 
HETATM   15  C   UNL     1      -8.545  14.620  67.115  1.00  0.00    -0.223 A  
HETATM   16  N   UNL     1      -9.536  13.662  67.557  1.00  0.00    -0.215 NA 
ENDBRANCH   9  11
ENDBRANCH   8   9
TORSDOF 2
ENDMDL
MODEL       75
REMARK 921   NORMALIZED FREE ENERGY PREDICTED BY IDOCK:   -3.99 KCAL/MOL
REMARK 922        TOTAL FREE ENERGY PREDICTED BY IDOCK:   -4.72 KCAL/MOL
REMARK 923 INTER-LIGAND FREE ENERGY PREDICTED BY IDOCK:   -4.47 KCAL/MOL
REMARK 924 INTRA-LIGAND FREE ENERGY PREDICTED BY IDOCK:   -0.25 KCAL/MOL
REMARK 927      BINDING AFFINITY PREDICTED BY RF-SCORE:    0.00 PKD
ROOT
HETATM    1 CL   UNL     1      -9.815  12.608  67.997  1.00  0.00    -0.212 Cl 
HETATM    2  C   UNL     1     -10.818  13.140  66.685  1.00  0.00    -0.280 A  
HETATM    3  C   UNL     1     -11.444  12.115  65.959  1.00  0.00    -0.427 A  
HETATM    4  C   UNL     1     -12.112  12.389  64.771  1.00  0.00    -0.483 A  
HETATM    5  C   UNL     1     -12.150  13.694  64.293  1.00  0.00    -0.480 A  
HETATM    6  C   UNL     1     -11.544  14.723  65.025  1.00  0.00    -0.378 A  
HETATM    7 CL   UNL     1     -11.616  16.324  64.360  1.00  0.00    -0.274 Cl 
HETATM    8  C   UNL     1     -10.877  14.484  66.249  1.00  0.00    -0.317 A  
ENDROOT
BRANCH   8   9
HETATM    9  N   UNL     1     -10.358  15.581  66.969  1.00  0.00    -0.273 NA 
HETATM   10  H   UNL     1     -11.021  16.090  67.554  1.00  0.00     0.000 HD 
BRANCH   9  11
HETATM   11  C   UNL     1      -9.082  16.038  66.974  1.00  0.00    -0.214 A  
HETATM   12  N   UNL     1      -8.089  15.664  67.726  1.00  0.00    -0.140 NA 
HETATM   13  C   UNL     1      -6.913  16.410  67.222  1.00  0.00    -0.183 A  
HETATM   14  H   UNL     1      -8.115  14.998  68.499  1.00  0.00     0.000 HD 
HETATM   15  C   UNL     1      -7.415  17.319  66.100  1.00  0.00    -0.286 A  
HETATM   16  N   UNL     1      -8.828  17.004  66.043  1.00  0.00    -0.523 NA 
ENDBRANCH   9  11
ENDBRANCH   8   9
TORSDOF 2
ENDMDL
MODEL       76
REMARK 921   NORMALIZED FREE ENERGY PREDICTED BY IDOCK:   -3.99 KCAL/MOL
REMARK 922        TOTAL FREE ENERGY PREDICTED BY IDOCK:   -4.71 KCAL/MOL
REMARK 923 INTER-LIGAND FREE ENERGY PREDICTED BY IDOCK:   -4.85 KCAL/MOL
REMARK 924 INTRA-LIGAND FREE ENERGY PREDICTED BY IDOCK:    0.14 KCAL/MOL
REMARK 927      BINDING AFFINITY PREDICTED BY RF-SCORE:    0.00 PKD
ROOT
HETATM    1 CL   UNL     1     -10.394  17.304  68.628  1.00  0.00    -0.339 Cl 
HETATM    2  C   UNL     1     -11.083  15.735  68.903  1.00  0.00    -0.298 A  
HETATM    3  C   UNL     1     -11.853  15.619  70.071  1.00  0.00    -0.381 A  
HETATM    4  C   UNL     1     -12.296  14.377  70.511  1.00  0.00    -0.413 A  
HETATM    5  C   UNL     1     -11.961  13.237  69.790  1.00  0.00    -0.391 A  
HETATM    6  C   UNL     1     -11.210  13.351  68.614  1.00  0.00    -0.269 A  
HETATM    7 CL   UNL     1     -10.815  11.883  67.774  1.00  0.00    -0.238 Cl 
HETATM    8  C   UNL     1     -10.764  14.600  68.124  1.00  0.00    -0.242 A  
ENDROOT
BRANCH   8   9
HETATM    9  N   UNL     1     -10.077  14.644  66.892  1.00  0.00    -0.252 NA 
HETATM   10  H   UNL     1      -9.188  15.146  66.889  1.00  0.00     0.000 HD 
BRANCH   9  11
HETATM   11  C   UNL     1     -10.460  14.100  65.711  1.00  0.00    -0.311 A  
HETATM   12  N   UNL     1      -9.811  13.265  64.955  1.00  0.00    -0.574 NA 
HETATM   13  C   UNL     1     -10.747  12.921  63.859  1.00  0.00    -0.357 A  
HETATM   14  H   UNL     1      -8.861  12.920  65.087  1.00  0.00     0.000 HD 
HETATM   15  C   UNL     1     -12.013  13.749  64.084  1.00  0.00    -0.432 A  
HETATM   16  N   UNL     1     -11.703  14.481  65.294  1.00  0.00    -0.355 NA 
ENDBRANCH   9  11
ENDBRANCH   8   9
TORSDOF 2
ENDMDL
MODEL       77
REMARK 921   NORMALIZED FREE ENERGY PREDICTED BY IDOCK:   -3.98 KCAL/MOL
REMARK 922        TOTAL FREE ENERGY PREDICTED BY IDOCK:   -4.70 KCAL/MOL
REMARK 923 INTER-LIGAND FREE ENERGY PREDICTED BY IDOCK:   -4.41 KCAL/MOL
REMARK 924 INTRA-LIGAND FREE ENERGY PREDICTED BY IDOCK:   -0.29 KCAL/MOL
REMARK 927      BINDING AFFINITY PREDICTED BY RF-SCORE:    0.00 PKD
ROOT
HETATM    1 CL   UNL     1     -10.020  10.918  69.087  1.00  0.00    -0.211 Cl 
HETATM    2  C   UNL     1     -11.183  10.241  70.182  1.00  0.00    -0.318 A  
HETATM    3  C   UNL     1     -12.131  11.148  70.680  1.00  0.00    -0.477 A  
HETATM    4  C   UNL     1     -12.992  10.786  71.709  1.00  0.00    -0.568 A  
HETATM    5  C   UNL     1     -12.903   9.511  72.257  1.00  0.00    -0.426 A  
HETATM    6  C   UNL     1     -11.973   8.597  71.750  1.00  0.00    -0.336 A  
HETATM    7 CL   UNL     1     -11.906   7.030  72.494  1.00  0.00    -0.204 Cl 
HETATM    8  C   UNL     1     -11.098   8.924  70.688  1.00  0.00    -0.262 A  
ENDROOT
BRANCH   8   9
HETATM    9  N   UNL     1     -10.240   7.926  70.178  1.00  0.00    -0.199 NA 
HETATM   10  H   UNL     1      -9.500   7.605  70.804  1.00  0.00     0.000 HD 
BRANCH   9  11
HETATM   11  C   UNL     1     -10.283   7.344  68.955  1.00  0.00    -0.196 A  
HETATM   12  N   UNL     1     -11.280   6.741  68.378  1.00  0.00    -0.543 NA 
HETATM   13  C   UNL     1     -10.800   6.407  67.017  1.00  0.00    -0.392 A  
HETATM   14  H   UNL     1     -12.197   6.540  68.777  1.00  0.00     0.000 HD 
HETATM   15  C   UNL     1      -9.343   6.863  66.938  1.00  0.00    -0.148 A  
HETATM   16  N   UNL     1      -9.117   7.435  68.249  1.00  0.00    -0.129 NA 
ENDBRANCH   9  11
ENDBRANCH   8   9
TORSDOF 2
ENDMDL
MODEL       78
REMARK 921   NORMALIZED FREE ENERGY PREDICTED BY IDOCK:   -3.96 KCAL/MOL
REMARK 922        TOTAL FREE ENERGY PREDICTED BY IDOCK:   -4.68 KCAL/MOL
REMARK 923 INTER-LIGAND FREE ENERGY PREDICTED BY IDOCK:   -4.38 KCAL/MOL
REMARK 924 INTRA-LIGAND FREE ENERGY PREDICTED BY IDOCK:   -0.30 KCAL/MOL
REMARK 927      BINDING AFFINITY PREDICTED BY RF-SCORE:    0.00 PKD
ROOT
HETATM    1 CL   UNL     1     -10.460  11.841  68.392  1.00  0.00    -0.217 Cl 
HETATM    2  C   UNL     1     -10.825  12.321  66.765  1.00  0.00    -0.253 A  
HETATM    3  C   UNL     1     -10.615  11.332  65.790  1.00  0.00    -0.306 A  
HETATM    4  C   UNL     1     -10.678  11.642  64.437  1.00  0.00    -0.387 A  
HETATM    5  C   UNL     1     -10.943  12.949  64.046  1.00  0.00    -0.447 A  
HETATM    6  C   UNL     1     -11.173  13.933  65.015  1.00  0.00    -0.342 A  
HETATM    7 CL   UNL     1     -11.480  15.548  64.454  1.00  0.00    -0.335 Cl 
HETATM    8  C   UNL     1     -11.140  13.649  66.399  1.00  0.00    -0.303 A  
ENDROOT
BRANCH   8   9
HETATM    9  N   UNL     1     -11.458  14.675  67.315  1.00  0.00    -0.360 NA 
HETATM   10  H   UNL     1     -12.447  14.786  67.541  1.00  0.00     0.000 HD 
BRANCH   9  11
HETATM   11  C   UNL     1     -10.604  15.531  67.928  1.00  0.00    -0.274 A  
HETATM   12  N   UNL     1      -9.387  15.314  68.329  1.00  0.00    -0.190 NA 
HETATM   13  C   UNL     1      -8.897  16.623  68.818  1.00  0.00    -0.264 A  
HETATM   14  H   UNL     1      -8.877  14.430  68.311  1.00  0.00     0.000 HD 
HETATM   15  C   UNL     1     -10.060  17.607  68.687  1.00  0.00    -0.377 A  
HETATM   16  N   UNL     1     -11.109  16.785  68.120  1.00  0.00    -0.326 NA 
ENDBRANCH   9  11
ENDBRANCH   8   9
TORSDOF 2
ENDMDL
MODEL       79
REMARK 921   NORMALIZED FREE ENERGY PREDICTED BY IDOCK:   -3.96 KCAL/MOL
REMARK 922        TOTAL FREE ENERGY PREDICTED BY IDOCK:   -4.68 KCAL/MOL
REMARK 923 INTER-LIGAND FREE ENERGY PREDICTED BY IDOCK:   -4.39 KCAL/MOL
REMARK 924 INTRA-LIGAND FREE ENERGY PREDICTED BY IDOCK:   -0.29 KCAL/MOL
REMARK 927      BINDING AFFINITY PREDICTED BY RF-SCORE:    0.00 PKD
ROOT
HETATM    1 CL   UNL     1     -11.212  13.609  67.210  1.00  0.00    -0.316 Cl 
HETATM    2  C   UNL     1     -11.903  13.125  68.726  1.00  0.00    -0.324 A  
HETATM    3  C   UNL     1     -12.257  14.179  69.583  1.00  0.00    -0.376 A  
HETATM    4  C   UNL     1     -12.635  13.932  70.897  1.00  0.00    -0.431 A  
HETATM    5  C   UNL     1     -12.653  12.625  71.369  1.00  0.00    -0.304 A  
HETATM    6  C   UNL     1     -12.321  11.569  70.511  1.00  0.00    -0.342 A  
HETATM    7 CL   UNL     1     -12.349   9.964  71.174  1.00  0.00    -0.433 Cl 
HETATM    8  C   UNL     1     -11.955  11.782  69.162  1.00  0.00    -0.293 A  
ENDROOT
BRANCH   8   9
HETATM    9  N   UNL     1     -11.709  10.664  68.337  1.00  0.00    -0.701 NA 
HETATM   10  H   UNL     1     -12.527  10.234  67.904  1.00  0.00     0.000 HD 
BRANCH   9  11
HETATM   11  C   UNL     1     -10.513  10.093  68.052  1.00  0.00    -0.209 A  
HETATM   12  N   UNL     1      -9.375  10.246  68.663  1.00  0.00    -0.154 NA 
HETATM   13  C   UNL     1      -8.446   9.300  68.001  1.00  0.00    -0.120 A  
HETATM   14  H   UNL     1      -9.167  10.881  69.433  1.00  0.00     0.000 HD 
HETATM   15  C   UNL     1      -9.228   8.631  66.871  1.00  0.00    -0.159 A  
HETATM   16  N   UNL     1     -10.540   9.234  66.991  1.00  0.00    -0.227 NA 
ENDBRANCH   9  11
ENDBRANCH   8   9
TORSDOF 2
ENDMDL
MODEL       80
REMARK 921   NORMALIZED FREE ENERGY PREDICTED BY IDOCK:   -3.96 KCAL/MOL
REMARK 922        TOTAL FREE ENERGY PREDICTED BY IDOCK:   -4.67 KCAL/MOL
REMARK 923 INTER-LIGAND FREE ENERGY PREDICTED BY IDOCK:   -4.36 KCAL/MOL
REMARK 924 INTRA-LIGAND FREE ENERGY PREDICTED BY IDOCK:   -0.31 KCAL/MOL
REMARK 927      BINDING AFFINITY PREDICTED BY RF-SCORE:    0.00 PKD
ROOT
HETATM    1 CL   UNL     1      -8.415   8.621  71.811  1.00  0.00    -0.229 Cl 
HETATM    2  C   UNL     1     -10.028   9.037  71.324  1.00  0.00    -0.311 A  
HETATM    3  C   UNL     1     -10.120   9.757  70.122  1.00  0.00    -0.317 A  
HETATM    4  C   UNL     1     -11.325  10.321  69.720  1.00  0.00    -0.334 A  
HETATM    5  C   UNL     1     -12.449  10.178  70.526  1.00  0.00    -0.304 A  
HETATM    6  C   UNL     1     -12.366   9.443  71.715  1.00  0.00    -0.394 A  
HETATM    7 CL   UNL     1     -13.805   9.320  72.678  1.00  0.00    -0.460 Cl 
HETATM    8  C   UNL     1     -11.162   8.836  72.142  1.00  0.00    -0.338 A  
ENDROOT
BRANCH   8   9
HETATM    9  N   UNL     1     -11.174   8.047  73.312  1.00  0.00    -0.341 NA 
HETATM   10  H   UNL     1     -11.214   8.554  74.197  1.00  0.00     0.000 HD 
BRANCH   9  11
HETATM   11  C   UNL     1     -11.137   6.695  73.398  1.00  0.00    -0.043 A  
HETATM   12  N   UNL     1     -11.873   5.822  72.776  1.00  0.00    -0.534 NA 
HETATM   13  C   UNL     1     -11.323   4.501  73.161  1.00  0.00    -0.224 A  
HETATM   14  H   UNL     1     -12.661   6.007  72.155  1.00  0.00     0.000 HD 
HETATM   15  C   UNL     1     -10.193   4.766  74.155  1.00  0.00    -0.232 A  
HETATM   16  N   UNL     1     -10.178   6.212  74.242  1.00  0.00    -0.304 NA 
ENDBRANCH   9  11
ENDBRANCH   8   9
TORSDOF 2
ENDMDL
MODEL       81
REMARK 921   NORMALIZED FREE ENERGY PREDICTED BY IDOCK:   -3.94 KCAL/MOL
REMARK 922        TOTAL FREE ENERGY PREDICTED BY IDOCK:   -4.66 KCAL/MOL
REMARK 923 INTER-LIGAND FREE ENERGY PREDICTED BY IDOCK:   -4.35 KCAL/MOL
REMARK 924 INTRA-LIGAND FREE ENERGY PREDICTED BY IDOCK:   -0.30 KCAL/MOL
REMARK 927      BINDING AFFINITY PREDICTED BY RF-SCORE:    0.00 PKD
ROOT
HETATM    1 CL   UNL     1     -11.084   6.611  67.557  1.00  0.00    -0.398 Cl 
HETATM    2  C   UNL     1     -10.518   5.996  69.078  1.00  0.00    -0.256 A  
HETATM    3  C   UNL     1      -9.381   5.177  69.004  1.00  0.00    -0.166 A  
HETATM    4  C   UNL     1      -8.943   4.464  70.114  1.00  0.00    -0.143 A  
HETATM    5  C   UNL     1      -9.648   4.558  71.308  1.00  0.00    -0.240 A  
HETATM    6  C   UNL     1     -10.771   5.390  71.392  1.00  0.00    -0.188 A  
HETATM    7 CL   UNL     1     -11.612   5.444  72.910  1.00  0.00    -0.350 Cl 
HETATM    8  C   UNL     1     -11.230   6.147  70.289  1.00  0.00    -0.369 A  
ENDROOT
BRANCH   8   9
HETATM    9  N   UNL     1     -12.323   7.023  70.470  1.00  0.00    -0.614 NA 
HETATM   10  H   UNL     1     -13.251   6.607  70.389  1.00  0.00     0.000 HD 
BRANCH   9  11
HETATM   11  C   UNL     1     -12.283   8.350  70.738  1.00  0.00    -0.000 A  
HETATM   12  N   UNL     1     -11.584   9.276  70.151  1.00  0.00    -0.450 NA 
HETATM   13  C   UNL     1     -12.020  10.548  70.772  1.00  0.00    -0.370 A  
HETATM   14  H   UNL     1     -10.885   9.153  69.419  1.00  0.00     0.000 HD 
HETATM   15  C   UNL     1     -13.037  10.186  71.854  1.00  0.00    -0.466 A  
HETATM   16  N   UNL     1     -13.111   8.743  71.751  1.00  0.00    -0.344 NA 
ENDBRANCH   9  11
ENDBRANCH   8   9
TORSDOF 2
ENDMDL
MODEL       82
REMARK 921   NORMALIZED FREE ENERGY PREDICTED BY IDOCK:   -3.94 KCAL/MOL
REMARK 922        TOTAL FREE ENERGY PREDICTED BY IDOCK:   -4.66 KCAL/MOL
REMARK 923 INTER-LIGAND FREE ENERGY PREDICTED BY IDOCK:   -4.34 KCAL/MOL
REMARK 924 INTRA-LIGAND FREE ENERGY PREDICTED BY IDOCK:   -0.32 KCAL/MOL
REMARK 927      BINDING AFFINITY PREDICTED BY RF-SCORE:    0.00 PKD
ROOT
HETATM    1 CL   UNL     1     -10.748  10.418  67.918  1.00  0.00    -0.280 Cl 
HETATM    2  C   UNL     1     -11.348  10.468  69.545  1.00  0.00    -0.278 A  
HETATM    3  C   UNL     1     -11.220   9.270  70.265  1.00  0.00    -0.267 A  
HETATM    4  C   UNL     1     -11.833   9.114  71.503  1.00  0.00    -0.428 A  
HETATM    5  C   UNL     1     -12.590  10.155  72.027  1.00  0.00    -0.351 A  
HETATM    6  C   UNL     1     -12.703  11.359  71.321  1.00  0.00    -0.393 A  
HETATM    7 CL   UNL     1     -13.679  12.609  72.028  1.00  0.00    -0.406 Cl 
HETATM    8  C   UNL     1     -12.074  11.561  70.071  1.00  0.00    -0.331 A  
ENDROOT
BRANCH   8   9
HETATM    9  N   UNL     1     -12.169  12.827  69.455  1.00  0.00    -0.157 NA 
HETATM   10  H   UNL     1     -13.002  12.991  68.888  1.00  0.00     0.000 HD 
BRANCH   9  11
HETATM   11  C   UNL     1     -11.285  13.852  69.527  1.00  0.00    -0.184 A  
HETATM   12  N   UNL     1     -10.078  13.916  69.047  1.00  0.00    -0.427 NA 
HETATM   13  C   UNL     1      -9.623  15.300  69.319  1.00  0.00    -0.249 A  
HETATM   14  H   UNL     1      -9.555  13.173  68.583  1.00  0.00     0.000 HD 
HETATM   15  C   UNL     1     -10.748  15.991  70.089  1.00  0.00    -0.312 A  
HETATM   16  N   UNL     1     -11.756  14.955  70.178  1.00  0.00    -0.276 NA 
ENDBRANCH   9  11
ENDBRANCH   8   9
TORSDOF 2
ENDMDL
MODEL       83
REMARK 921   NORMALIZED FREE ENERGY PREDICTED BY IDOCK:   -3.92 KCAL/MOL
REMARK 922        TOTAL FREE ENERGY PREDICTED BY IDOCK:   -4.64 KCAL/MOL
REMARK 923 INTER-LIGAND FREE ENERGY PREDICTED BY IDOCK:   -4.33 KCAL/MOL
REMARK 924 INTRA-LIGAND FREE ENERGY PREDICTED BY IDOCK:   -0.30 KCAL/MOL
REMARK 927      BINDING AFFINITY PREDICTED BY RF-SCORE:    0.00 PKD
ROOT
HETATM    1 CL   UNL     1      -8.874  10.445  63.783  1.00  0.00    -0.203 Cl 
HETATM    2  C   UNL     1     -10.299  11.202  64.422  1.00  0.00    -0.344 A  
HETATM    3  C   UNL     1     -11.207  11.671  63.459  1.00  0.00    -0.462 A  
HETATM    4  C   UNL     1     -12.286  12.466  63.826  1.00  0.00    -0.625 A  
HETATM    5  C   UNL     1     -12.460  12.809  65.162  1.00  0.00    -0.565 A  
HETATM    6  C   UNL     1     -11.568  12.326  66.128  1.00  0.00    -0.390 A  
HETATM    7 CL   UNL     1     -11.837  12.808  67.774  1.00  0.00    -0.402 Cl 
HETATM    8  C   UNL     1     -10.474  11.496  65.793  1.00  0.00    -0.259 A  
ENDROOT
BRANCH   8   9
HETATM    9  N   UNL     1      -9.663  10.985  66.829  1.00  0.00    -0.190 NA 
HETATM   10  H   UNL     1      -9.989  10.126  67.275  1.00  0.00     0.000 HD 
BRANCH   9  11
HETATM   11  C   UNL     1      -8.502  11.500  67.302  1.00  0.00    -0.152 A  
HETATM   12  N   UNL     1      -7.563  12.117  66.648  1.00  0.00    -0.377 NA 
HETATM   13  C   UNL     1      -6.595  12.559  67.678  1.00  0.00    -0.136 A  
HETATM   14  H   UNL     1      -7.504  12.264  65.640  1.00  0.00     0.000 HD 
HETATM   15  C   UNL     1      -7.108  12.037  69.020  1.00  0.00    -0.077 A  
HETATM   16  N   UNL     1      -8.332  11.356  68.649  1.00  0.00    -0.154 NA 
ENDBRANCH   9  11
ENDBRANCH   8   9
TORSDOF 2
ENDMDL
MODEL       84
REMARK 921   NORMALIZED FREE ENERGY PREDICTED BY IDOCK:   -3.91 KCAL/MOL
REMARK 922        TOTAL FREE ENERGY PREDICTED BY IDOCK:   -4.62 KCAL/MOL
REMARK 923 INTER-LIGAND FREE ENERGY PREDICTED BY IDOCK:   -4.31 KCAL/MOL
REMARK 924 INTRA-LIGAND FREE ENERGY PREDICTED BY IDOCK:   -0.31 KCAL/MOL
REMARK 927      BINDING AFFINITY PREDICTED BY RF-SCORE:    0.00 PKD
ROOT
HETATM    1 CL   UNL     1     -10.941  11.523  69.124  1.00  0.00    -0.270 Cl 
HETATM    2  C   UNL     1     -10.453  10.070  68.311  1.00  0.00    -0.213 A  
HETATM    3  C   UNL     1     -10.074  10.236  66.970  1.00  0.00    -0.268 A  
HETATM    4  C   UNL     1      -9.852   9.134  66.151  1.00  0.00    -0.363 A  
HETATM    5  C   UNL     1     -10.018   7.855  66.667  1.00  0.00    -0.316 A  
HETATM    6  C   UNL     1     -10.375   7.685  68.010  1.00  0.00    -0.205 A  
HETATM    7 CL   UNL     1     -10.581   6.058  68.581  1.00  0.00    -0.291 Cl 
HETATM    8  C   UNL     1     -10.586   8.782  68.877  1.00  0.00    -0.155 A  
ENDROOT
BRANCH   8   9
HETATM    9  N   UNL     1     -10.869   8.532  70.237  1.00  0.00    -0.238 NA 
HETATM   10  H   UNL     1     -10.063   8.380  70.844  1.00  0.00     0.000 HD 
BRANCH   9  11
HETATM   11  C   UNL     1     -12.086   8.471  70.832  1.00  0.00    -0.139 A  
HETATM   12  N   UNL     1     -12.986   7.538  70.743  1.00  0.00    -0.570 NA 
HETATM   13  C   UNL     1     -14.057   7.936  71.685  1.00  0.00    -0.434 A  
HETATM   14  H   UNL     1     -12.961   6.708  70.150  1.00  0.00     0.000 HD 
HETATM   15  C   UNL     1     -13.645   9.284  72.278  1.00  0.00    -0.480 A  
HETATM   16  N   UNL     1     -12.369   9.535  71.641  1.00  0.00    -0.372 NA 
ENDBRANCH   9  11
ENDBRANCH   8   9
TORSDOF 2
ENDMDL
MODEL       85
REMARK 921   NORMALIZED FREE ENERGY PREDICTED BY IDOCK:   -3.91 KCAL/MOL
REMARK 922        TOTAL FREE ENERGY PREDICTED BY IDOCK:   -4.62 KCAL/MOL
REMARK 923 INTER-LIGAND FREE ENERGY PREDICTED BY IDOCK:   -4.31 KCAL/MOL
REMARK 924 INTRA-LIGAND FREE ENERGY PREDICTED BY IDOCK:   -0.31 KCAL/MOL
REMARK 927      BINDING AFFINITY PREDICTED BY RF-SCORE:    0.00 PKD
ROOT
HETATM    1 CL   UNL     1     -11.173   5.648  73.070  1.00  0.00    -0.326 Cl 
HETATM    2  C   UNL     1     -10.785   5.378  71.401  1.00  0.00    -0.188 A  
HETATM    3  C   UNL     1      -9.764   4.443  71.170  1.00  0.00    -0.256 A  
HETATM    4  C   UNL     1      -9.222   4.278  69.900  1.00  0.00    -0.208 A  
HETATM    5  C   UNL     1      -9.693   5.057  68.850  1.00  0.00    -0.234 A  
HETATM    6  C   UNL     1     -10.726   5.976  69.072  1.00  0.00    -0.324 A  
HETATM    7 CL   UNL     1     -11.251   6.927  67.718  1.00  0.00    -0.199 Cl 
HETATM    8  C   UNL     1     -11.316   6.153  70.345  1.00  0.00    -0.328 A  
ENDROOT
BRANCH   8   9
HETATM    9  N   UNL     1     -12.404   7.042  70.475  1.00  0.00    -0.614 NA 
HETATM   10  H   UNL     1     -13.325   6.662  70.256  1.00  0.00     0.000 HD 
BRANCH   9  11
HETATM   11  C   UNL     1     -12.369   8.342  70.857  1.00  0.00    -0.042 A  
HETATM   12  N   UNL     1     -11.722   9.330  70.313  1.00  0.00    -0.461 NA 
HETATM   13  C   UNL     1     -12.139  10.534  71.069  1.00  0.00    -0.387 A  
HETATM   14  H   UNL     1     -11.068   9.286  69.532  1.00  0.00     0.000 HD 
HETATM   15  C   UNL     1     -13.081  10.057  72.174  1.00  0.00    -0.386 A  
HETATM   16  N   UNL     1     -13.139   8.627  71.948  1.00  0.00    -0.353 NA 
ENDBRANCH   9  11
ENDBRANCH   8   9
TORSDOF 2
ENDMDL
MODEL       86
REMARK 921   NORMALIZED FREE ENERGY PREDICTED BY IDOCK:   -3.90 KCAL/MOL
REMARK 922        TOTAL FREE ENERGY PREDICTED BY IDOCK:   -4.61 KCAL/MOL
REMARK 923 INTER-LIGAND FREE ENERGY PREDICTED BY IDOCK:   -4.34 KCAL/MOL
REMARK 924 INTRA-LIGAND FREE ENERGY PREDICTED BY IDOCK:   -0.26 KCAL/MOL
REMARK 927      BINDING AFFINITY PREDICTED BY RF-SCORE:    0.00 PKD
ROOT
HETATM    1 CL   UNL     1     -11.779  12.422  67.850  1.00  0.00    -0.414 Cl 
HETATM    2  C   UNL     1     -11.503  12.575  66.144  1.00  0.00    -0.377 A  
HETATM    3  C   UNL     1     -12.344  13.483  65.483  1.00  0.00    -0.524 A  
HETATM    4  C   UNL     1     -12.363  13.557  64.095  1.00  0.00    -0.387 A  
HETATM    5  C   UNL     1     -11.545  12.711  63.355  1.00  0.00    -0.536 A  
HETATM    6  C   UNL     1     -10.690  11.818  64.011  1.00  0.00    -0.378 A  
HETATM    7 CL   UNL     1      -9.709  10.781  63.022  1.00  0.00    -0.362 Cl 
HETATM    8  C   UNL     1     -10.627  11.733  65.421  1.00  0.00    -0.277 A  
ENDROOT
BRANCH   8   9
HETATM    9  N   UNL     1      -9.685  10.864  66.011  1.00  0.00    -0.214 NA 
HETATM   10  H   UNL     1      -9.796   9.871  65.803  1.00  0.00     0.000 HD 
BRANCH   9  11
HETATM   11  C   UNL     1      -8.651  11.193  66.824  1.00  0.00    -0.157 A  
HETATM   12  N   UNL     1      -7.615  11.932  66.559  1.00  0.00    -0.373 NA 
HETATM   13  C   UNL     1      -6.878  12.045  67.839  1.00  0.00    -0.087 A  
HETATM   14  H   UNL     1      -7.363  12.345  65.661  1.00  0.00     0.000 HD 
HETATM   15  C   UNL     1      -7.634  11.195  68.860  1.00  0.00    -0.133 A  
HETATM   16  N   UNL     1      -8.746  10.683  68.087  1.00  0.00    -0.126 NA 
ENDBRANCH   9  11
ENDBRANCH   8   9
TORSDOF 2
ENDMDL
MODEL       87
REMARK 921   NORMALIZED FREE ENERGY PREDICTED BY IDOCK:   -3.90 KCAL/MOL
REMARK 922        TOTAL FREE ENERGY PREDICTED BY IDOCK:   -4.60 KCAL/MOL
REMARK 923 INTER-LIGAND FREE ENERGY PREDICTED BY IDOCK:   -4.29 KCAL/MOL
REMARK 924 INTRA-LIGAND FREE ENERGY PREDICTED BY IDOCK:   -0.31 KCAL/MOL
REMARK 927      BINDING AFFINITY PREDICTED BY RF-SCORE:    0.00 PKD
ROOT
HETATM    1 CL   UNL     1     -12.455  11.326  70.196  1.00  0.00    -0.322 Cl 
HETATM    2  C   UNL     1     -12.019  12.843  69.477  1.00  0.00    -0.285 A  
HETATM    3  C   UNL     1     -12.098  13.953  70.333  1.00  0.00    -0.421 A  
HETATM    4  C   UNL     1     -11.968  15.245  69.838  1.00  0.00    -0.373 A  
HETATM    5  C   UNL     1     -11.768  15.438  68.476  1.00  0.00    -0.355 A  
HETATM    6  C   UNL     1     -11.668  14.333  67.622  1.00  0.00    -0.389 A  
HETATM    7 CL   UNL     1     -11.436  14.651  65.931  1.00  0.00    -0.346 Cl 
HETATM    8  C   UNL     1     -11.772  13.005  68.095  1.00  0.00    -0.351 A  
ENDROOT
BRANCH   8   9
HETATM    9  N   UNL     1     -11.584  11.941  67.187  1.00  0.00    -0.519 NA 
HETATM   10  H   UNL     1     -12.420  11.608  66.705  1.00  0.00     0.000 HD 
BRANCH   9  11
HETATM   11  C   UNL     1     -10.425  11.308  66.881  1.00  0.00    -0.245 A  
HETATM   12  N   UNL     1      -9.617  11.533  65.888  1.00  0.00    -0.225 NA 
HETATM   13  C   UNL     1      -8.462  10.632  66.112  1.00  0.00    -0.159 A  
HETATM   14  H   UNL     1      -9.749  12.189  65.119  1.00  0.00     0.000 HD 
HETATM   15  C   UNL     1      -8.779   9.812  67.363  1.00  0.00    -0.132 A  
HETATM   16  N   UNL     1     -10.075  10.323  67.759  1.00  0.00    -0.172 NA 
ENDBRANCH   9  11
ENDBRANCH   8   9
TORSDOF 2
ENDMDL
MODEL       88
REMARK 921   NORMALIZED FREE ENERGY PREDICTED BY IDOCK:   -3.88 KCAL/MOL
REMARK 922        TOTAL FREE ENERGY PREDICTED BY IDOCK:   -4.59 KCAL/MOL
REMARK 923 INTER-LIGAND FREE ENERGY PREDICTED BY IDOCK:   -4.32 KCAL/MOL
REMARK 924 INTRA-LIGAND FREE ENERGY PREDICTED BY IDOCK:   -0.27 KCAL/MOL
REMARK 927      BINDING AFFINITY PREDICTED BY RF-SCORE:    0.00 PKD
ROOT
HETATM    1 CL   UNL     1     -12.307  12.082  63.347  1.00  0.00    -0.670 Cl 
HETATM    2  C   UNL     1     -11.716  12.680  64.865  1.00  0.00    -0.353 A  
HETATM    3  C   UNL     1     -12.625  13.467  65.590  1.00  0.00    -0.512 A  
HETATM    4  C   UNL     1     -12.217  14.168  66.719  1.00  0.00    -0.429 A  
HETATM    5  C   UNL     1     -10.891  14.095  67.127  1.00  0.00    -0.291 A  
HETATM    6  C   UNL     1      -9.986  13.295  66.419  1.00  0.00    -0.288 A  
HETATM    7 CL   UNL     1      -8.342  13.265  66.976  1.00  0.00    -0.141 Cl 
HETATM    8  C   UNL     1     -10.371  12.550  65.280  1.00  0.00    -0.287 A  
ENDROOT
BRANCH   8   9
HETATM    9  N   UNL     1      -9.423  11.706  64.663  1.00  0.00    -0.414 NA 
HETATM   10  H   UNL     1      -8.922  12.099  63.865  1.00  0.00     0.000 HD 
BRANCH   9  11
HETATM   11  C   UNL     1      -9.099  10.436  65.006  1.00  0.00    -0.203 A  
HETATM   12  N   UNL     1      -9.891   9.453  65.317  1.00  0.00    -0.438 NA 
HETATM   13  C   UNL     1      -9.007   8.276  65.486  1.00  0.00    -0.064 A  
HETATM   14  H   UNL     1     -10.905   9.484  65.423  1.00  0.00     0.000 HD 
HETATM   15  C   UNL     1      -7.574   8.768  65.282  1.00  0.00    -0.091 A  
HETATM   16  N   UNL     1      -7.758  10.176  64.996  1.00  0.00    -0.139 NA 
ENDBRANCH   9  11
ENDBRANCH   8   9
TORSDOF 2
ENDMDL
MODEL       89
REMARK 921   NORMALIZED FREE ENERGY PREDICTED BY IDOCK:   -3.88 KCAL/MOL
REMARK 922        TOTAL FREE ENERGY PREDICTED BY IDOCK:   -4.59 KCAL/MOL
REMARK 923 INTER-LIGAND FREE ENERGY PREDICTED BY IDOCK:   -4.40 KCAL/MOL
REMARK 924 INTRA-LIGAND FREE ENERGY PREDICTED BY IDOCK:   -0.19 KCAL/MOL
REMARK 927      BINDING AFFINITY PREDICTED BY RF-SCORE:    0.00 PKD
ROOT
HETATM    1 CL   UNL     1      -6.083  16.393  67.013  1.00  0.00    -0.181 Cl 
HETATM    2  C   UNL     1      -7.774  16.776  66.963  1.00  0.00    -0.195 A  
HETATM    3  C   UNL     1      -8.638  15.684  67.142  1.00  0.00    -0.235 A  
HETATM    4  C   UNL     1     -10.005  15.815  66.930  1.00  0.00    -0.247 A  
HETATM    5  C   UNL     1     -10.520  17.042  66.527  1.00  0.00    -0.250 A  
HETATM    6  C   UNL     1      -9.664  18.139  66.368  1.00  0.00    -0.327 A  
HETATM    7 CL   UNL     1     -10.374  19.635  65.846  1.00  0.00    -0.586 Cl 
HETATM    8  C   UNL     1      -8.272  18.047  66.598  1.00  0.00    -0.261 A  
ENDROOT
BRANCH   8   9
HETATM    9  N   UNL     1      -7.484  19.214  66.492  1.00  0.00    -0.235 NA 
HETATM   10  H   UNL     1      -7.342  19.741  67.354  1.00  0.00     0.000 HD 
BRANCH   9  11
HETATM   11  C   UNL     1      -6.895  19.716  65.380  1.00  0.00    -0.273 A  
HETATM   12  N   UNL     1      -6.822  20.954  64.990  1.00  0.00    -0.532 NA 
HETATM   13  C   UNL     1      -5.971  20.933  63.778  1.00  0.00    -0.309 A  
HETATM   14  H   UNL     1      -7.258  21.767  65.425  1.00  0.00     0.000 HD 
HETATM   15  C   UNL     1      -5.625  19.469  63.507  1.00  0.00    -0.320 A  
HETATM   16  N   UNL     1      -6.289  18.779  64.593  1.00  0.00    -0.450 NA 
ENDBRANCH   9  11
ENDBRANCH   8   9
TORSDOF 2
ENDMDL
MODEL       90
REMARK 921   NORMALIZED FREE ENERGY PREDICTED BY IDOCK:   -3.88 KCAL/MOL
REMARK 922        TOTAL FREE ENERGY PREDICTED BY IDOCK:   -4.59 KCAL/MOL
REMARK 923 INTER-LIGAND FREE ENERGY PREDICTED BY IDOCK:   -4.32 KCAL/MOL
REMARK 924 INTRA-LIGAND FREE ENERGY PREDICTED BY IDOCK:   -0.26 KCAL/MOL
REMARK 927      BINDING AFFINITY PREDICTED BY RF-SCORE:    0.00 PKD
ROOT
HETATM    1 CL   UNL     1      -9.916  16.926  69.426  1.00  0.00    -0.172 Cl 
HETATM    2  C   UNL     1     -10.710  15.890  68.283  1.00  0.00    -0.291 A  
HETATM    3  C   UNL     1     -11.210  14.690  68.812  1.00  0.00    -0.285 A  
HETATM    4  C   UNL     1     -11.691  13.688  67.977  1.00  0.00    -0.387 A  
HETATM    5  C   UNL     1     -11.664  13.875  66.600  1.00  0.00    -0.417 A  
HETATM    6  C   UNL     1     -11.185  15.078  66.069  1.00  0.00    -0.310 A  
HETATM    7 CL   UNL     1     -11.166  15.235  64.340  1.00  0.00    -0.258 Cl 
HETATM    8  C   UNL     1     -10.712  16.128  66.889  1.00  0.00    -0.247 A  
ENDROOT
BRANCH   8   9
HETATM    9  N   UNL     1     -10.316  17.341  66.286  1.00  0.00    -0.339 NA 
HETATM   10  H   UNL     1     -11.066  17.919  65.904  1.00  0.00     0.000 HD 
BRANCH   9  11
HETATM   11  C   UNL     1      -9.059  17.828  66.154  1.00  0.00    -0.102 A  
HETATM   12  N   UNL     1      -7.949  17.173  65.980  1.00  0.00    -0.497 NA 
HETATM   13  C   UNL     1      -6.909  18.210  65.785  1.00  0.00    -0.270 A  
HETATM   14  H   UNL     1      -7.821  16.161  65.979  1.00  0.00     0.000 HD 
HETATM   15  C   UNL     1      -7.601  19.564  65.941  1.00  0.00    -0.292 A  
HETATM   16  N   UNL     1      -8.978  19.191  66.193  1.00  0.00    -0.455 NA 
ENDBRANCH   9  11
ENDBRANCH   8   9
TORSDOF 2
ENDMDL
MODEL       91
REMARK 921   NORMALIZED FREE ENERGY PREDICTED BY IDOCK:   -3.87 KCAL/MOL
REMARK 922        TOTAL FREE ENERGY PREDICTED BY IDOCK:   -4.58 KCAL/MOL
REMARK 923 INTER-LIGAND FREE ENERGY PREDICTED BY IDOCK:   -4.33 KCAL/MOL
REMARK 924 INTRA-LIGAND FREE ENERGY PREDICTED BY IDOCK:   -0.25 KCAL/MOL
REMARK 927      BINDING AFFINITY PREDICTED BY RF-SCORE:    0.00 PKD
ROOT
HETATM    1 CL   UNL     1     -13.854   9.682  72.357  1.00  0.00    -0.367 Cl 
HETATM    2  C   UNL     1     -12.522   9.596  71.249  1.00  0.00    -0.355 A  
HETATM    3  C   UNL     1     -11.798   8.394  71.279  1.00  0.00    -0.327 A  
HETATM    4  C   UNL     1     -10.597   8.268  70.591  1.00  0.00    -0.235 A  
HETATM    5  C   UNL     1     -10.104   9.352  69.872  1.00  0.00    -0.243 A  
HETATM    6  C   UNL     1     -10.834  10.546  69.823  1.00  0.00    -0.281 A  
HETATM    7 CL   UNL     1     -10.149  11.862  68.921  1.00  0.00    -0.123 Cl 
HETATM    8  C   UNL     1     -12.070  10.701  70.492  1.00  0.00    -0.355 A  
ENDROOT
BRANCH   8   9
HETATM    9  N   UNL     1     -12.786  11.907  70.333  1.00  0.00    -0.034 NA 
HETATM   10  H   UNL     1     -13.373  11.976  69.501  1.00  0.00     0.000 HD 
BRANCH   9  11
HETATM   11  C   UNL     1     -12.784  12.984  71.155  1.00  0.00    -0.283 A  
HETATM   12  N   UNL     1     -13.456  13.168  72.253  1.00  0.00    -0.567 NA 
HETATM   13  C   UNL     1     -12.980  14.463  72.791  1.00  0.00    -0.465 A  
HETATM   14  H   UNL     1     -14.162  12.552  72.657  1.00  0.00     0.000 HD 
HETATM   15  C   UNL     1     -11.972  15.016  71.784  1.00  0.00    -0.375 A  
HETATM   16  N   UNL     1     -11.941  13.986  70.766  1.00  0.00    -0.318 NA 
ENDBRANCH   9  11
ENDBRANCH   8   9
TORSDOF 2
ENDMDL
MODEL       92
REMARK 921   NORMALIZED FREE ENERGY PREDICTED BY IDOCK:   -3.85 KCAL/MOL
REMARK 922        TOTAL FREE ENERGY PREDICTED BY IDOCK:   -4.56 KCAL/MOL
REMARK 923 INTER-LIGAND FREE ENERGY PREDICTED BY IDOCK:   -4.27 KCAL/MOL
REMARK 924 INTRA-LIGAND FREE ENERGY PREDICTED BY IDOCK:   -0.29 KCAL/MOL
REMARK 927      BINDING AFFINITY PREDICTED BY RF-SCORE:    0.00 PKD
ROOT
HETATM    1 CL   UNL     1     -10.353  19.791  68.199  1.00  0.00    -0.572 Cl 
HETATM    2  C   UNL     1      -8.938  19.044  67.528  1.00  0.00    -0.292 A  
HETATM    3  C   UNL     1      -8.296  19.781  66.521  1.00  0.00    -0.373 A  
HETATM    4  C   UNL     1      -7.274  19.216  65.766  1.00  0.00    -0.277 A  
HETATM    5  C   UNL     1      -6.893  17.902  66.008  1.00  0.00    -0.336 A  
HETATM    6  C   UNL     1      -7.516  17.171  67.026  1.00  0.00    -0.188 A  
HETATM    7 CL   UNL     1      -7.000  15.530  67.261  1.00  0.00    -0.233 Cl 
HETATM    8  C   UNL     1      -8.542  17.721  67.828  1.00  0.00    -0.237 A  
ENDROOT
BRANCH   8   9
HETATM    9  N   UNL     1      -9.071  16.950  68.886  1.00  0.00    -0.252 NA 
HETATM   10  H   UNL     1      -8.574  17.006  69.776  1.00  0.00     0.000 HD 
BRANCH   9  11
HETATM   11  C   UNL     1     -10.160  16.143  68.858  1.00  0.00    -0.238 A  
HETATM   12  N   UNL     1     -10.463  15.220  67.995  1.00  0.00    -0.244 NA 
HETATM   13  C   UNL     1     -11.695  14.586  68.518  1.00  0.00    -0.318 A  
HETATM   14  H   UNL     1      -9.960  14.982  67.140  1.00  0.00     0.000 HD 
HETATM   15  C   UNL     1     -12.078  15.345  69.788  1.00  0.00    -0.347 A  
HETATM   16  N   UNL     1     -11.026  16.335  69.896  1.00  0.00    -0.358 NA 
ENDBRANCH   9  11
ENDBRANCH   8   9
TORSDOF 2
ENDMDL
MODEL       93
REMARK 921   NORMALIZED FREE ENERGY PREDICTED BY IDOCK:   -3.83 KCAL/MOL
REMARK 922        TOTAL FREE ENERGY PREDICTED BY IDOCK:   -4.53 KCAL/MOL
REMARK 923 INTER-LIGAND FREE ENERGY PREDICTED BY IDOCK:   -4.33 KCAL/MOL
REMARK 924 INTRA-LIGAND FREE ENERGY PREDICTED BY IDOCK:   -0.20 KCAL/MOL
REMARK 927      BINDING AFFINITY PREDICTED BY RF-SCORE:    0.00 PKD
ROOT
HETATM    1 CL   UNL     1      -7.374  17.764  68.665  1.00  0.00    -0.262 Cl 
HETATM    2  C   UNL     1      -8.563  18.328  67.535  1.00  0.00    -0.250 A  
HETATM    3  C   UNL     1      -9.022  19.636  67.756  1.00  0.00    -0.385 A  
HETATM    4  C   UNL     1     -10.109  20.139  67.051  1.00  0.00    -0.599 A  
HETATM    5  C   UNL     1     -10.755  19.330  66.123  1.00  0.00    -0.478 A  
HETATM    6  C   UNL     1     -10.288  18.031  65.885  1.00  0.00    -0.271 A  
HETATM    7 CL   UNL     1     -11.154  17.072  64.726  1.00  0.00    -0.053 Cl 
HETATM    8  C   UNL     1      -9.171  17.496  66.567  1.00  0.00    -0.267 A  
ENDROOT
BRANCH   8   9
HETATM    9  N   UNL     1      -8.711  16.208  66.219  1.00  0.00    -0.322 NA 
HETATM   10  H   UNL     1      -7.906  16.171  65.593  1.00  0.00     0.000 HD 
BRANCH   9  11
HETATM   11  C   UNL     1      -9.213  15.014  66.619  1.00  0.00    -0.276 A  
HETATM   12  N   UNL     1      -9.106  13.855  66.041  1.00  0.00    -0.472 NA 
HETATM   13  C   UNL     1      -9.743  12.894  66.971  1.00  0.00    -0.230 A  
HETATM   14  H   UNL     1      -8.677  13.650  65.139  1.00  0.00     0.000 HD 
HETATM   15  C   UNL     1     -10.286  13.709  68.145  1.00  0.00    -0.247 A  
HETATM   16  N   UNL     1      -9.900  15.061  67.799  1.00  0.00    -0.219 NA 
ENDBRANCH   9  11
ENDBRANCH   8   9
TORSDOF 2
ENDMDL
MODEL       94
REMARK 921   NORMALIZED FREE ENERGY PREDICTED BY IDOCK:   -3.83 KCAL/MOL
REMARK 922        TOTAL FREE ENERGY PREDICTED BY IDOCK:   -4.53 KCAL/MOL
REMARK 923 INTER-LIGAND FREE ENERGY PREDICTED BY IDOCK:   -4.25 KCAL/MOL
REMARK 924 INTRA-LIGAND FREE ENERGY PREDICTED BY IDOCK:   -0.28 KCAL/MOL
REMARK 927      BINDING AFFINITY PREDICTED BY RF-SCORE:    0.00 PKD
ROOT
HETATM    1 CL   UNL     1     -10.757   6.574  68.897  1.00  0.00    -0.282 Cl 
HETATM    2  C   UNL     1     -10.108   5.950  70.380  1.00  0.00    -0.201 A  
HETATM    3  C   UNL     1      -9.703   4.607  70.336  1.00  0.00    -0.292 A  
HETATM    4  C   UNL     1      -9.351   3.930  71.498  1.00  0.00    -0.203 A  
HETATM    5  C   UNL     1      -9.412   4.592  72.719  1.00  0.00    -0.159 A  
HETATM    6  C   UNL     1      -9.795   5.938  72.765  1.00  0.00    -0.166 A  
HETATM    7 CL   UNL     1      -9.864   6.694  74.326  1.00  0.00    -0.322 Cl 
HETATM    8  C   UNL     1     -10.136   6.663  71.600  1.00  0.00    -0.184 A  
ENDROOT
BRANCH   8   9
HETATM    9  N   UNL     1     -10.438   8.037  71.716  1.00  0.00    -0.219 NA 
HETATM   10  H   UNL     1      -9.645   8.678  71.667  1.00  0.00     0.000 HD 
BRANCH   9  11
HETATM   11  C   UNL     1     -11.656   8.606  71.884  1.00  0.00    -0.350 A  
HETATM   12  N   UNL     1     -12.720   8.096  72.431  1.00  0.00    -0.552 NA 
HETATM   13  C   UNL     1     -13.715   9.194  72.449  1.00  0.00    -0.480 A  
HETATM   14  H   UNL     1     -12.845   7.143  72.773  1.00  0.00     0.000 HD 
HETATM   15  C   UNL     1     -13.060  10.394  71.764  1.00  0.00    -0.462 A  
HETATM   16  N   UNL     1     -11.744   9.890  71.428  1.00  0.00    -0.381 NA 
ENDBRANCH   9  11
ENDBRANCH   8   9
TORSDOF 2
ENDMDL
MODEL       95
REMARK 921   NORMALIZED FREE ENERGY PREDICTED BY IDOCK:   -3.83 KCAL/MOL
REMARK 922        TOTAL FREE ENERGY PREDICTED BY IDOCK:   -4.53 KCAL/MOL
REMARK 923 INTER-LIGAND FREE ENERGY PREDICTED BY IDOCK:   -4.30 KCAL/MOL
REMARK 924 INTRA-LIGAND FREE ENERGY PREDICTED BY IDOCK:   -0.23 KCAL/MOL
REMARK 927      BINDING AFFINITY PREDICTED BY RF-SCORE:    0.00 PKD
ROOT
HETATM    1 CL   UNL     1      -7.624  15.431  69.010  1.00  0.00    -0.160 Cl 
HETATM    2  C   UNL     1      -7.986  17.048  68.497  1.00  0.00    -0.249 A  
HETATM    3  C   UNL     1      -7.058  18.022  68.896  1.00  0.00    -0.268 A  
HETATM    4  C   UNL     1      -7.326  19.375  68.723  1.00  0.00    -0.390 A  
HETATM    5  C   UNL     1      -8.534  19.766  68.156  1.00  0.00    -0.327 A  
HETATM    6  C   UNL     1      -9.453  18.797  67.738  1.00  0.00    -0.301 A  
HETATM    7 CL   UNL     1     -10.947  19.358  67.054  1.00  0.00    -0.529 Cl 
HETATM    8  C   UNL     1      -9.203  17.412  67.877  1.00  0.00    -0.256 A  
ENDROOT
BRANCH   8   9
HETATM    9  N   UNL     1     -10.143  16.494  67.361  1.00  0.00    -0.272 NA 
HETATM   10  H   UNL     1     -10.273  16.502  66.349  1.00  0.00     0.000 HD 
BRANCH   9  11
HETATM   11  C   UNL     1     -10.893  15.602  68.053  1.00  0.00    -0.308 A  
HETATM   12  N   UNL     1     -11.508  15.766  69.187  1.00  0.00    -0.355 NA 
HETATM   13  C   UNL     1     -12.260  14.509  69.409  1.00  0.00    -0.247 A  
HETATM   14  H   UNL     1     -11.478  16.584  69.794  1.00  0.00     0.000 HD 
HETATM   15  C   UNL     1     -11.920  13.579  68.244  1.00  0.00    -0.342 A  
HETATM   16  N   UNL     1     -11.019  14.385  67.446  1.00  0.00    -0.292 NA 
ENDBRANCH   9  11
ENDBRANCH   8   9
TORSDOF 2
ENDMDL
MODEL       96
REMARK 921   NORMALIZED FREE ENERGY PREDICTED BY IDOCK:   -3.82 KCAL/MOL
REMARK 922        TOTAL FREE ENERGY PREDICTED BY IDOCK:   -4.52 KCAL/MOL
REMARK 923 INTER-LIGAND FREE ENERGY PREDICTED BY IDOCK:   -4.21 KCAL/MOL
REMARK 924 INTRA-LIGAND FREE ENERGY PREDICTED BY IDOCK:   -0.30 KCAL/MOL
REMARK 927      BINDING AFFINITY PREDICTED BY RF-SCORE:    0.00 PKD
ROOT
HETATM    1 CL   UNL     1     -10.591  11.535  64.547  1.00  0.00    -0.363 Cl 
HETATM    2  C   UNL     1     -10.486  10.745  66.088  1.00  0.00    -0.214 A  
HETATM    3  C   UNL     1      -9.796   9.522  66.085  1.00  0.00    -0.343 A  
HETATM    4  C   UNL     1      -9.808   8.695  67.202  1.00  0.00    -0.269 A  
HETATM    5  C   UNL     1     -10.521   9.081  68.331  1.00  0.00    -0.234 A  
HETATM    6  C   UNL     1     -11.193  10.309  68.345  1.00  0.00    -0.224 A  
HETATM    7 CL   UNL     1     -12.077  10.718  69.783  1.00  0.00    -0.387 Cl 
HETATM    8  C   UNL     1     -11.183  11.186  67.236  1.00  0.00    -0.277 A  
ENDROOT
BRANCH   8   9
HETATM    9  N   UNL     1     -11.819  12.441  67.351  1.00  0.00    -0.505 NA 
HETATM   10  H   UNL     1     -12.830  12.448  67.211  1.00  0.00     0.000 HD 
BRANCH   9  11
HETATM   11  C   UNL     1     -11.245  13.637  67.626  1.00  0.00    -0.279 A  
HETATM   12  N   UNL     1     -10.372  13.926  68.545  1.00  0.00    -0.241 NA 
HETATM   13  C   UNL     1     -10.013  15.344  68.312  1.00  0.00    -0.214 A  
HETATM   14  H   UNL     1     -10.012  13.308  69.273  1.00  0.00     0.000 HD 
HETATM   15  C   UNL     1     -10.875  15.832  67.147  1.00  0.00    -0.289 A  
HETATM   16  N   UNL     1     -11.638  14.651  66.800  1.00  0.00    -0.371 NA 
ENDBRANCH   9  11
ENDBRANCH   8   9
TORSDOF 2
ENDMDL
MODEL       97
REMARK 921   NORMALIZED FREE ENERGY PREDICTED BY IDOCK:   -3.81 KCAL/MOL
REMARK 922        TOTAL FREE ENERGY PREDICTED BY IDOCK:   -4.51 KCAL/MOL
REMARK 923 INTER-LIGAND FREE ENERGY PREDICTED BY IDOCK:   -4.23 KCAL/MOL
REMARK 924 INTRA-LIGAND FREE ENERGY PREDICTED BY IDOCK:   -0.28 KCAL/MOL
REMARK 927      BINDING AFFINITY PREDICTED BY RF-SCORE:    0.00 PKD
ROOT
HETATM    1 CL   UNL     1     -12.375  12.471  65.303  1.00  0.00    -0.520 Cl 
HETATM    2  C   UNL     1     -11.427  13.868  65.703  1.00  0.00    -0.318 A  
HETATM    3  C   UNL     1     -11.614  14.976  64.862  1.00  0.00    -0.374 A  
HETATM    4  C   UNL     1     -10.781  16.085  64.949  1.00  0.00    -0.339 A  
HETATM    5  C   UNL     1      -9.743  16.090  65.874  1.00  0.00    -0.378 A  
HETATM    6  C   UNL     1      -9.566  14.995  66.729  1.00  0.00    -0.245 A  
HETATM    7 CL   UNL     1      -8.239  15.062  67.847  1.00  0.00    -0.136 Cl 
HETATM    8  C   UNL     1     -10.410  13.861  66.684  1.00  0.00    -0.278 A  
ENDROOT
BRANCH   8   9
HETATM    9  N   UNL     1     -10.218  12.830  67.629  1.00  0.00    -0.216 NA 
HETATM   10  H   UNL     1      -9.352  12.296  67.542  1.00  0.00     0.000 HD 
BRANCH   9  11
HETATM   11  C   UNL     1     -11.047  12.465  68.636  1.00  0.00    -0.257 A  
HETATM   12  N   UNL     1     -11.352  11.268  69.043  1.00  0.00    -0.250 NA 
HETATM   13  C   UNL     1     -12.202  11.467  70.239  1.00  0.00    -0.349 A  
HETATM   14  H   UNL     1     -11.066  10.382  68.627  1.00  0.00     0.000 HD 
HETATM   15  C   UNL     1     -12.384  12.975  70.407  1.00  0.00    -0.277 A  
HETATM   16  N   UNL     1     -11.609  13.513  69.307  1.00  0.00    -0.297 NA 
ENDBRANCH   9  11
ENDBRANCH   8   9
TORSDOF 2
ENDMDL
MODEL       98
REMARK 921   NORMALIZED FREE ENERGY PREDICTED BY IDOCK:   -3.81 KCAL/MOL
REMARK 922        TOTAL FREE ENERGY PREDICTED BY IDOCK:   -4.51 KCAL/MOL
REMARK 923 INTER-LIGAND FREE ENERGY PREDICTED BY IDOCK:   -4.20 KCAL/MOL
REMARK 924 INTRA-LIGAND FREE ENERGY PREDICTED BY IDOCK:   -0.32 KCAL/MOL
REMARK 927      BINDING AFFINITY PREDICTED BY RF-SCORE:    0.00 PKD
ROOT
HETATM    1 CL   UNL     1      -9.509  16.162  65.960  1.00  0.00    -0.362 Cl 
HETATM    2  C   UNL     1      -9.441  17.767  66.614  1.00  0.00    -0.292 A  
HETATM    3  C   UNL     1     -10.687  18.355  66.882  1.00  0.00    -0.303 A  
HETATM    4  C   UNL     1     -10.782  19.700  67.220  1.00  0.00    -0.583 A  
HETATM    5  C   UNL     1      -9.628  20.472  67.282  1.00  0.00    -0.580 A  
HETATM    6  C   UNL     1      -8.381  19.884  67.035  1.00  0.00    -0.319 A  
HETATM    7 CL   UNL     1      -6.985  20.914  67.114  1.00  0.00    -0.411 Cl 
HETATM    8  C   UNL     1      -8.245  18.515  66.712  1.00  0.00    -0.257 A  
ENDROOT
BRANCH   8   9
HETATM    9  N   UNL     1      -6.951  17.976  66.552  1.00  0.00    -0.202 NA 
HETATM   10  H   UNL     1      -6.510  18.125  65.644  1.00  0.00     0.000 HD 
BRANCH   9  11
HETATM   11  C   UNL     1      -6.224  17.284  67.463  1.00  0.00    -0.149 A  
HETATM   12  N   UNL     1      -5.907  17.626  68.677  1.00  0.00    -0.169 NA 
HETATM   13  C   UNL     1      -5.211  16.448  69.245  1.00  0.00    -0.120 A  
HETATM   14  H   UNL     1      -6.096  18.515  69.139  1.00  0.00     0.000 HD 
HETATM   15  C   UNL     1      -5.129  15.403  68.132  1.00  0.00    -0.120 A  
HETATM   16  N   UNL     1      -5.798  16.061  67.029  1.00  0.00    -0.331 NA 
ENDBRANCH   9  11
ENDBRANCH   8   9
TORSDOF 2
ENDMDL
MODEL       99
REMARK 921   NORMALIZED FREE ENERGY PREDICTED BY IDOCK:   -3.80 KCAL/MOL
REMARK 922        TOTAL FREE ENERGY PREDICTED BY IDOCK:   -4.50 KCAL/MOL
REMARK 923 INTER-LIGAND FREE ENERGY PREDICTED BY IDOCK:   -4.24 KCAL/MOL
REMARK 924 INTRA-LIGAND FREE ENERGY PREDICTED BY IDOCK:   -0.26 KCAL/MOL
REMARK 927      BINDING AFFINITY PREDICTED BY RF-SCORE:    0.00 PKD
ROOT
HETATM    1 CL   UNL     1     -13.246  10.019  71.411  1.00  0.00    -0.479 Cl 
HETATM    2  C   UNL     1     -11.811   9.072  71.647  1.00  0.00    -0.360 A  
HETATM    3  C   UNL     1     -11.945   7.998  72.541  1.00  0.00    -0.384 A  
HETATM    4  C   UNL     1     -10.832   7.284  72.968  1.00  0.00    -0.399 A  
HETATM    5  C   UNL     1      -9.571   7.646  72.511  1.00  0.00    -0.230 A  
HETATM    6  C   UNL     1      -9.435   8.703  71.603  1.00  0.00    -0.269 A  
HETATM    7 CL   UNL     1      -7.827   9.111  71.089  1.00  0.00    -0.156 Cl 
HETATM    8  C   UNL     1     -10.547   9.436  71.129  1.00  0.00    -0.333 A  
ENDROOT
BRANCH   8   9
HETATM    9  N   UNL     1     -10.341  10.438  70.156  1.00  0.00    -0.438 NA 
HETATM   10  H   UNL     1     -10.132  11.372  70.510  1.00  0.00     0.000 HD 
BRANCH   9  11
HETATM   11  C   UNL     1     -10.387  10.304  68.809  1.00  0.00    -0.195 A  
HETATM   12  N   UNL     1     -11.429  10.259  68.033  1.00  0.00    -0.654 NA 
HETATM   13  C   UNL     1     -10.890  10.223  66.654  1.00  0.00    -0.045 A  
HETATM   14  H   UNL     1     -12.410  10.251  68.314  1.00  0.00     0.000 HD 
HETATM   15  C   UNL     1      -9.366  10.190  66.777  1.00  0.00    -0.160 A  
HETATM   16  N   UNL     1      -9.161  10.228  68.210  1.00  0.00    -0.136 NA 
ENDBRANCH   9  11
ENDBRANCH   8   9
TORSDOF 2
ENDMDL
MODEL      100
REMARK 921   NORMALIZED FREE ENERGY PREDICTED BY IDOCK:   -3.77 KCAL/MOL
REMARK 922        TOTAL FREE ENERGY PREDICTED BY IDOCK:   -4.46 KCAL/MOL
REMARK 923 INTER-LIGAND FREE ENERGY PREDICTED BY IDOCK:   -4.17 KCAL/MOL
REMARK 924 INTRA-LIGAND FREE ENERGY PREDICTED BY IDOCK:   -0.29 KCAL/MOL
REMARK 927      BINDING AFFINITY PREDICTED BY RF-SCORE:    0.00 PKD
ROOT
HETATM    1 CL   UNL     1      -9.821   9.980  68.750  1.00  0.00    -0.163 Cl 
HETATM    2  C   UNL     1     -11.183  10.390  69.743  1.00  0.00    -0.293 A  
HETATM    3  C   UNL     1     -11.466  11.762  69.831  1.00  0.00    -0.285 A  
HETATM    4  C   UNL     1     -12.401  12.240  70.743  1.00  0.00    -0.383 A  
HETATM    5  C   UNL     1     -13.054  11.346  71.583  1.00  0.00    -0.498 A  
HETATM    6  C   UNL     1     -12.790   9.975  71.484  1.00  0.00    -0.432 A  
HETATM    7 CL   UNL     1     -13.631   8.920  72.577  1.00  0.00    -0.479 Cl 
HETATM    8  C   UNL     1     -11.864   9.452  70.553  1.00  0.00    -0.151 A  
ENDROOT
BRANCH   8   9
HETATM    9  N   UNL     1     -11.707   8.052  70.458  1.00  0.00    -0.459 NA 
HETATM   10  H   UNL     1     -12.295   7.579  69.771  1.00  0.00     0.000 HD 
BRANCH   9  11
HETATM   11  C   UNL     1     -10.867   7.264  71.172  1.00  0.00    -0.242 A  
HETATM   12  N   UNL     1      -9.668   7.531  71.596  1.00  0.00    -0.161 NA 
HETATM   13  C   UNL     1      -9.272   6.361  72.413  1.00  0.00    -0.137 A  
HETATM   14  H   UNL     1      -9.116   8.368  71.407  1.00  0.00     0.000 HD 
HETATM   15  C   UNL     1     -10.421   5.356  72.330  1.00  0.00    -0.217 A  
HETATM   16  N   UNL     1     -11.382   6.040  71.491  1.00  0.00    -0.275 NA 
ENDBRANCH   9  11
ENDBRANCH   8   9
TORSDOF 2
ENDMDL
MODEL      101
REMARK 921   NORMALIZED FREE ENERGY PREDICTED BY IDOCK:   -3.77 KCAL/MOL
REMARK 922        TOTAL FREE ENERGY PREDICTED BY IDOCK:   -4.46 KCAL/MOL
REMARK 923 INTER-LIGAND FREE ENERGY PREDICTED BY IDOCK:   -4.17 KCAL/MOL
REMARK 924 INTRA-LIGAND FREE ENERGY PREDICTED BY IDOCK:   -0.29 KCAL/MOL
REMARK 927      BINDING AFFINITY PREDICTED BY RF-SCORE:    0.00 PKD
ROOT
HETATM    1 CL   UNL     1     -11.302   6.375  71.418  1.00  0.00    -0.340 Cl 
HETATM    2  C   UNL     1     -11.819   8.029  71.508  1.00  0.00    -0.292 A  
HETATM    3  C   UNL     1     -12.901   8.269  72.369  1.00  0.00    -0.261 A  
HETATM    4  C   UNL     1     -13.538   9.505  72.385  1.00  0.00    -0.459 A  
HETATM    5  C   UNL     1     -13.102  10.510  71.529  1.00  0.00    -0.532 A  
HETATM    6  C   UNL     1     -12.010  10.280  70.684  1.00  0.00    -0.342 A  
HETATM    7 CL   UNL     1     -11.531  11.575  69.630  1.00  0.00    -0.362 Cl 
HETATM    8  C   UNL     1     -11.324   9.044  70.658  1.00  0.00    -0.265 A  
ENDROOT
BRANCH   8   9
HETATM    9  N   UNL     1     -10.184   8.912  69.836  1.00  0.00    -0.194 NA 
HETATM   10  H   UNL     1      -9.307   9.265  70.222  1.00  0.00     0.000 HD 
BRANCH   9  11
HETATM   11  C   UNL     1     -10.117   8.373  68.595  1.00  0.00    -0.193 A  
HETATM   12  N   UNL     1     -10.824   7.404  68.093  1.00  0.00    -0.435 NA 
HETATM   13  C   UNL     1     -10.409   7.312  66.674  1.00  0.00    -0.158 A  
HETATM   14  H   UNL     1     -11.517   6.829  68.573  1.00  0.00     0.000 HD 
HETATM   15  C   UNL     1      -9.303   8.347  66.469  1.00  0.00    -0.201 A  
HETATM   16  N   UNL     1      -9.190   8.955  67.779  1.00  0.00    -0.140 NA 
ENDBRANCH   9  11
ENDBRANCH   8   9
TORSDOF 2
ENDMDL
MODEL      102
REMARK 921   NORMALIZED FREE ENERGY PREDICTED BY IDOCK:   -3.74 KCAL/MOL
REMARK 922        TOTAL FREE ENERGY PREDICTED BY IDOCK:   -4.43 KCAL/MOL
REMARK 923 INTER-LIGAND FREE ENERGY PREDICTED BY IDOCK:   -4.16 KCAL/MOL
REMARK 924 INTRA-LIGAND FREE ENERGY PREDICTED BY IDOCK:   -0.27 KCAL/MOL
REMARK 927      BINDING AFFINITY PREDICTED BY RF-SCORE:    0.00 PKD
ROOT
HETATM    1 CL   UNL     1      -7.409  17.695  68.979  1.00  0.00    -0.233 Cl 
HETATM    2  C   UNL     1      -8.501  18.260  67.755  1.00  0.00    -0.249 A  
HETATM    3  C   UNL     1      -8.824  19.624  67.826  1.00  0.00    -0.379 A  
HETATM    4  C   UNL     1      -9.832  20.160  67.034  1.00  0.00    -0.595 A  
HETATM    5  C   UNL     1     -10.535  19.331  66.168  1.00  0.00    -0.577 A  
HETATM    6  C   UNL     1     -10.203  17.974  66.079  1.00  0.00    -0.303 A  
HETATM    7 CL   UNL     1     -11.135  16.995  64.989  1.00  0.00    -0.109 Cl 
HETATM    8  C   UNL     1      -9.167  17.400  66.852  1.00  0.00    -0.256 A  
ENDROOT
BRANCH   8   9
HETATM    9  N   UNL     1      -8.838  16.042  66.652  1.00  0.00    -0.243 NA 
HETATM   10  H   UNL     1      -8.066  15.855  66.012  1.00  0.00     0.000 HD 
BRANCH   9  11
HETATM   11  C   UNL     1      -9.428  14.957  67.210  1.00  0.00    -0.213 A  
HETATM   12  N   UNL     1      -9.720  14.745  68.459  1.00  0.00    -0.213 NA 
HETATM   13  C   UNL     1     -10.451  13.457  68.477  1.00  0.00    -0.252 A  
HETATM   14  H   UNL     1      -9.493  15.338  69.257  1.00  0.00     0.000 HD 
HETATM   15  C   UNL     1     -10.470  12.940  67.038  1.00  0.00    -0.238 A  
HETATM   16  N   UNL     1      -9.767  13.981  66.317  1.00  0.00    -0.297 NA 
ENDBRANCH   9  11
ENDBRANCH   8   9
TORSDOF 2
ENDMDL
MODEL      103
REMARK 921   NORMALIZED FREE ENERGY PREDICTED BY IDOCK:   -3.73 KCAL/MOL
REMARK 922        TOTAL FREE ENERGY PREDICTED BY IDOCK:   -4.42 KCAL/MOL
REMARK 923 INTER-LIGAND FREE ENERGY PREDICTED BY IDOCK:   -4.22 KCAL/MOL
REMARK 924 INTRA-LIGAND FREE ENERGY PREDICTED BY IDOCK:   -0.21 KCAL/MOL
REMARK 927      BINDING AFFINITY PREDICTED BY RF-SCORE:    0.00 PKD
ROOT
HETATM    1 CL   UNL     1     -11.174  10.601  69.785  1.00  0.00    -0.330 Cl 
HETATM    2  C   UNL     1     -11.334  11.977  68.741  1.00  0.00    -0.278 A  
HETATM    3  C   UNL     1     -11.463  13.211  69.397  1.00  0.00    -0.321 A  
HETATM    4  C   UNL     1     -11.794  14.362  68.691  1.00  0.00    -0.366 A  
HETATM    5  C   UNL     1     -12.010  14.284  67.320  1.00  0.00    -0.439 A  
HETATM    6  C   UNL     1     -11.863  13.059  66.659  1.00  0.00    -0.393 A  
HETATM    7 CL   UNL     1     -12.165  13.034  64.949  1.00  0.00    -0.459 Cl 
HETATM    8  C   UNL     1     -11.504  11.874  67.342  1.00  0.00    -0.323 A  
ENDROOT
BRANCH   8   9
HETATM    9  N   UNL     1     -11.299  10.692  66.597  1.00  0.00    -0.082 NA 
HETATM   10  H   UNL     1     -12.133  10.144  66.383  1.00  0.00     0.000 HD 
BRANCH   9  11
HETATM   11  C   UNL     1     -10.124  10.200  66.133  1.00  0.00    -0.246 A  
HETATM   12  N   UNL     1      -9.869   9.012  65.671  1.00  0.00    -0.465 NA 
HETATM   13  C   UNL     1      -8.465   9.068  65.203  1.00  0.00    -0.167 A  
HETATM   14  H   UNL     1     -10.500   8.211  65.639  1.00  0.00     0.000 HD 
HETATM   15  C   UNL     1      -7.945  10.467  65.533  1.00  0.00    -0.153 A  
HETATM   16  N   UNL     1      -9.096  11.098  66.144  1.00  0.00    -0.195 NA 
ENDBRANCH   9  11
ENDBRANCH   8   9
TORSDOF 2
ENDMDL
MODEL      104
REMARK 921   NORMALIZED FREE ENERGY PREDICTED BY IDOCK:   -3.70 KCAL/MOL
REMARK 922        TOTAL FREE ENERGY PREDICTED BY IDOCK:   -4.39 KCAL/MOL
REMARK 923 INTER-LIGAND FREE ENERGY PREDICTED BY IDOCK:   -4.08 KCAL/MOL
REMARK 924 INTRA-LIGAND FREE ENERGY PREDICTED BY IDOCK:   -0.31 KCAL/MOL
REMARK 927      BINDING AFFINITY PREDICTED BY RF-SCORE:    0.00 PKD
ROOT
HETATM    1 CL   UNL     1      -6.439  19.528  68.047  1.00  0.00    -0.252 Cl 
HETATM    2  C   UNL     1      -7.971  19.248  67.281  1.00  0.00    -0.260 A  
HETATM    3  C   UNL     1      -8.907  20.284  67.425  1.00  0.00    -0.442 A  
HETATM    4  C   UNL     1     -10.229  20.108  67.032  1.00  0.00    -0.558 A  
HETATM    5  C   UNL     1     -10.628  18.887  66.501  1.00  0.00    -0.462 A  
HETATM    6  C   UNL     1      -9.692  17.859  66.337  1.00  0.00    -0.316 A  
HETATM    7 CL   UNL     1     -10.266  16.356  65.683  1.00  0.00    -0.368 Cl 
HETATM    8  C   UNL     1      -8.335  18.011  66.703  1.00  0.00    -0.262 A  
ENDROOT
BRANCH   8   9
HETATM    9  N   UNL     1      -7.434  16.957  66.437  1.00  0.00    -0.286 NA 
HETATM   10  H   UNL     1      -7.074  16.903  65.483  1.00  0.00     0.000 HD 
BRANCH   9  11
HETATM   11  C   UNL     1      -6.991  16.009  67.299  1.00  0.00    -0.205 A  
HETATM   12  N   UNL     1      -7.686  15.230  68.074  1.00  0.00    -0.120 NA 
HETATM   13  C   UNL     1      -6.698  14.322  68.702  1.00  0.00    -0.092 A  
HETATM   14  H   UNL     1      -8.695  15.242  68.219  1.00  0.00     0.000 HD 
HETATM   15  C   UNL     1      -5.320  14.757  68.203  1.00  0.00    -0.120 A  
HETATM   16  N   UNL     1      -5.634  15.861  67.321  1.00  0.00    -0.336 NA 
ENDBRANCH   9  11
ENDBRANCH   8   9
TORSDOF 2
ENDMDL
MODEL      105
REMARK 921   NORMALIZED FREE ENERGY PREDICTED BY IDOCK:   -3.67 KCAL/MOL
REMARK 922        TOTAL FREE ENERGY PREDICTED BY IDOCK:   -4.36 KCAL/MOL
REMARK 923 INTER-LIGAND FREE ENERGY PREDICTED BY IDOCK:   -4.04 KCAL/MOL
REMARK 924 INTRA-LIGAND FREE ENERGY PREDICTED BY IDOCK:   -0.32 KCAL/MOL
REMARK 927      BINDING AFFINITY PREDICTED BY RF-SCORE:    0.00 PKD
ROOT
HETATM    1 CL   UNL     1      -6.426  16.304  68.337  1.00  0.00    -0.127 Cl 
HETATM    2  C   UNL     1      -7.902  15.561  67.809  1.00  0.00    -0.143 A  
HETATM    3  C   UNL     1      -8.230  14.361  68.457  1.00  0.00    -0.151 A  
HETATM    4  C   UNL     1      -9.274  13.565  67.998  1.00  0.00    -0.209 A  
HETATM    5  C   UNL     1      -9.993  13.962  66.876  1.00  0.00    -0.264 A  
HETATM    6  C   UNL     1      -9.682  15.169  66.239  1.00  0.00    -0.290 A  
HETATM    7 CL   UNL     1     -10.610  15.592  64.834  1.00  0.00    -0.430 Cl 
HETATM    8  C   UNL     1      -8.643  16.014  66.693  1.00  0.00    -0.281 A  
ENDROOT
BRANCH   8   9
HETATM    9  N   UNL     1      -8.438  17.252  66.047  1.00  0.00    -0.529 NA 
HETATM   10  H   UNL     1      -7.946  17.217  65.153  1.00  0.00     0.000 HD 
BRANCH   9  11
HETATM   11  C   UNL     1      -8.816  18.481  66.474  1.00  0.00    -0.293 A  
HETATM   12  N   UNL     1     -10.013  18.913  66.742  1.00  0.00    -0.337 NA 
HETATM   13  C   UNL     1      -9.824  20.283  67.274  1.00  0.00    -0.452 A  
HETATM   14  H   UNL     1     -10.894  18.416  66.614  1.00  0.00     0.000 HD 
HETATM   15  C   UNL     1      -8.326  20.581  67.204  1.00  0.00    -0.276 A  
HETATM   16  N   UNL     1      -7.783  19.355  66.656  1.00  0.00    -0.255 NA 
ENDBRANCH   9  11
ENDBRANCH   8   9
TORSDOF 2
ENDMDL
MODEL      106
REMARK 921   NORMALIZED FREE ENERGY PREDICTED BY IDOCK:   -3.66 KCAL/MOL
REMARK 922        TOTAL FREE ENERGY PREDICTED BY IDOCK:   -4.34 KCAL/MOL
REMARK 923 INTER-LIGAND FREE ENERGY PREDICTED BY IDOCK:   -4.02 KCAL/MOL
REMARK 924 INTRA-LIGAND FREE ENERGY PREDICTED BY IDOCK:   -0.33 KCAL/MOL
REMARK 927      BINDING AFFINITY PREDICTED BY RF-SCORE:    0.00 PKD
ROOT
HETATM    1 CL   UNL     1     -10.422   8.713  71.115  1.00  0.00    -0.269 Cl 
HETATM    2  C   UNL     1     -10.627   8.194  69.472  1.00  0.00    -0.213 A  
HETATM    3  C   UNL     1     -11.123   6.890  69.316  1.00  0.00    -0.229 A  
HETATM    4  C   UNL     1     -11.148   6.282  68.066  1.00  0.00    -0.365 A  
HETATM    5  C   UNL     1     -10.666   6.973  66.960  1.00  0.00    -0.423 A  
HETATM    6  C   UNL     1     -10.190   8.281  67.108  1.00  0.00    -0.295 A  
HETATM    7 CL   UNL     1      -9.587   9.076  65.687  1.00  0.00    -0.293 Cl 
HETATM    8  C   UNL     1     -10.171   8.938  68.360  1.00  0.00    -0.199 A  
ENDROOT
BRANCH   8   9
HETATM    9  N   UNL     1      -9.748  10.284  68.419  1.00  0.00    -0.152 NA 
HETATM   10  H   UNL     1      -8.740  10.441  68.384  1.00  0.00     0.000 HD 
BRANCH   9  11
HETATM   11  C   UNL     1     -10.523  11.391  68.516  1.00  0.00    -0.203 A  
HETATM   12  N   UNL     1     -10.993  11.961  69.586  1.00  0.00    -0.467 NA 
HETATM   13  C   UNL     1     -11.669  13.190  69.110  1.00  0.00    -0.325 A  
HETATM   14  H   UNL     1     -10.914  11.632  70.548  1.00  0.00     0.000 HD 
HETATM   15  C   UNL     1     -11.560  13.191  67.585  1.00  0.00    -0.349 A  
HETATM   16  N   UNL     1     -10.818  11.976  67.318  1.00  0.00    -0.235 NA 
ENDBRANCH   9  11
ENDBRANCH   8   9
TORSDOF 2
ENDMDL
MODEL      107
REMARK 921   NORMALIZED FREE ENERGY PREDICTED BY IDOCK:   -3.62 KCAL/MOL
REMARK 922        TOTAL FREE ENERGY PREDICTED BY IDOCK:   -4.30 KCAL/MOL
REMARK 923 INTER-LIGAND FREE ENERGY PREDICTED BY IDOCK:   -3.99 KCAL/MOL
REMARK 924 INTRA-LIGAND FREE ENERGY PREDICTED BY IDOCK:   -0.31 KCAL/MOL
REMARK 927      BINDING AFFINITY PREDICTED BY RF-SCORE:    0.00 PKD
ROOT
HETATM    1 CL   UNL     1      -8.087   9.527  67.156  1.00  0.00    -0.106 Cl 
HETATM    2  C   UNL     1      -9.459  10.507  66.748  1.00  0.00    -0.163 A  
HETATM    3  C   UNL     1      -9.713  10.635  65.373  1.00  0.00    -0.306 A  
HETATM    4  C   UNL     1     -10.655  11.543  64.904  1.00  0.00    -0.360 A  
HETATM    5  C   UNL     1     -11.344  12.342  65.809  1.00  0.00    -0.400 A  
HETATM    6  C   UNL     1     -11.109  12.203  67.182  1.00  0.00    -0.291 A  
HETATM    7 CL   UNL     1     -11.994  13.246  68.252  1.00  0.00    -0.374 Cl 
HETATM    8  C   UNL     1     -10.176  11.273  67.696  1.00  0.00    -0.181 A  
ENDROOT
BRANCH   8   9
HETATM    9  N   UNL     1     -10.048  11.136  69.095  1.00  0.00    -0.383 NA 
HETATM   10  H   UNL     1      -9.341  11.720  69.542  1.00  0.00     0.000 HD 
BRANCH   9  11
HETATM   11  C   UNL     1     -10.754  10.319  69.914  1.00  0.00    -0.294 A  
HETATM   12  N   UNL     1     -11.813  10.593  70.616  1.00  0.00    -0.339 NA 
HETATM   13  C   UNL     1     -12.223   9.306  71.224  1.00  0.00    -0.334 A  
HETATM   14  H   UNL     1     -12.265  11.500  70.726  1.00  0.00     0.000 HD 
HETATM   15  C   UNL     1     -11.183   8.267  70.802  1.00  0.00    -0.264 A  
HETATM   16  N   UNL     1     -10.279   9.040  69.976  1.00  0.00    -0.194 NA 
ENDBRANCH   9  11
ENDBRANCH   8   9
TORSDOF 2
ENDMDL
MODEL      108
REMARK 921   NORMALIZED FREE ENERGY PREDICTED BY IDOCK:   -3.62 KCAL/MOL
REMARK 922        TOTAL FREE ENERGY PREDICTED BY IDOCK:   -4.30 KCAL/MOL
REMARK 923 INTER-LIGAND FREE ENERGY PREDICTED BY IDOCK:   -4.22 KCAL/MOL
REMARK 924 INTRA-LIGAND FREE ENERGY PREDICTED BY IDOCK:   -0.08 KCAL/MOL
REMARK 927      BINDING AFFINITY PREDICTED BY RF-SCORE:    0.00 PKD
ROOT
HETATM    1 CL   UNL     1      -9.839   9.287  66.251  1.00  0.00    -0.341 Cl 
HETATM    2  C   UNL     1      -9.953   9.239  67.981  1.00  0.00    -0.182 A  
HETATM    3  C   UNL     1      -9.210   8.221  68.599  1.00  0.00    -0.143 A  
HETATM    4  C   UNL     1      -9.366   7.947  69.953  1.00  0.00    -0.156 A  
HETATM    5  C   UNL     1     -10.277   8.686  70.699  1.00  0.00    -0.237 A  
HETATM    6  C   UNL     1     -11.005   9.715  70.091  1.00  0.00    -0.275 A  
HETATM    7 CL   UNL     1     -12.138  10.583  71.080  1.00  0.00    -0.470 Cl 
HETATM    8  C   UNL     1     -10.854  10.036  68.722  1.00  0.00    -0.219 A  
ENDROOT
BRANCH   8   9
HETATM    9  N   UNL     1     -11.565  11.137  68.197  1.00  0.00    -0.477 NA 
HETATM   10  H   UNL     1     -12.525  11.251  68.525  1.00  0.00     0.000 HD 
BRANCH   9  11
HETATM   11  C   UNL     1     -11.123  12.059  67.308  1.00  0.00    -0.285 A  
HETATM   12  N   UNL     1      -9.981  12.680  67.284  1.00  0.00    -0.210 NA 
HETATM   13  C   UNL     1      -9.996  13.478  66.036  1.00  0.00    -0.299 A  
HETATM   14  H   UNL     1      -9.234  12.630  67.976  1.00  0.00     0.000 HD 
HETATM   15  C   UNL     1     -11.362  13.257  65.386  1.00  0.00    -0.295 A  
HETATM   16  N   UNL     1     -12.006  12.340  66.304  1.00  0.00    -0.626 NA 
ENDBRANCH   9  11
ENDBRANCH   8   9
TORSDOF 2
ENDMDL
MODEL      109
REMARK 921   NORMALIZED FREE ENERGY PREDICTED BY IDOCK:   -3.59 KCAL/MOL
REMARK 922        TOTAL FREE ENERGY PREDICTED BY IDOCK:   -4.26 KCAL/MOL
REMARK 923 INTER-LIGAND FREE ENERGY PREDICTED BY IDOCK:   -3.95 KCAL/MOL
REMARK 924 INTRA-LIGAND FREE ENERGY PREDICTED BY IDOCK:   -0.31 KCAL/MOL
REMARK 927      BINDING AFFINITY PREDICTED BY RF-SCORE:    0.00 PKD
ROOT
HETATM    1 CL   UNL     1     -10.571   5.544  67.951  1.00  0.00    -0.247 Cl 
HETATM    2  C   UNL     1     -10.423   5.736  69.669  1.00  0.00    -0.293 A  
HETATM    3  C   UNL     1      -9.902   4.624  70.350  1.00  0.00    -0.306 A  
HETATM    4  C   UNL     1      -9.914   4.569  71.739  1.00  0.00    -0.264 A  
HETATM    5  C   UNL     1     -10.459   5.626  72.460  1.00  0.00    -0.255 A  
HETATM    6  C   UNL     1     -10.960   6.745  71.785  1.00  0.00    -0.235 A  
HETATM    7 CL   UNL     1     -11.641   8.019  72.749  1.00  0.00    -0.451 Cl 
HETATM    8  C   UNL     1     -10.943   6.845  70.375  1.00  0.00    -0.274 A  
ENDROOT
BRANCH   8   9
HETATM    9  N   UNL     1     -11.395   8.036  69.768  1.00  0.00    -0.452 NA 
HETATM   10  H   UNL     1     -12.394   8.231  69.849  1.00  0.00     0.000 HD 
BRANCH   9  11
HETATM   11  C   UNL     1     -10.660   8.952  69.092  1.00  0.00    -0.195 A  
HETATM   12  N   UNL     1     -10.764   9.317  67.849  1.00  0.00    -0.420 NA 
HETATM   13  C   UNL     1      -9.792  10.423  67.683  1.00  0.00    -0.170 A  
HETATM   14  H   UNL     1     -11.382   8.926  67.138  1.00  0.00     0.000 HD 
HETATM   15  C   UNL     1      -9.072  10.582  69.023  1.00  0.00    -0.181 A  
HETATM   16  N   UNL     1      -9.703   9.570  69.845  1.00  0.00    -0.209 NA 
ENDBRANCH   9  11
ENDBRANCH   8   9
TORSDOF 2
ENDMDL
MODEL      110
REMARK 921   NORMALIZED FREE ENERGY PREDICTED BY IDOCK:   -3.58 KCAL/MOL
REMARK 922        TOTAL FREE ENERGY PREDICTED BY IDOCK:   -4.25 KCAL/MOL
REMARK 923 INTER-LIGAND FREE ENERGY PREDICTED BY IDOCK:   -3.92 KCAL/MOL
REMARK 924 INTRA-LIGAND FREE ENERGY PREDICTED BY IDOCK:   -0.33 KCAL/MOL
REMARK 927      BINDING AFFINITY PREDICTED BY RF-SCORE:    0.00 PKD
ROOT
HETATM    1 CL   UNL     1      -9.679  13.268  68.035  1.00  0.00    -0.217 Cl 
HETATM    2  C   UNL     1      -9.620  11.559  67.743  1.00  0.00    -0.175 A  
HETATM    3  C   UNL     1      -9.670  10.756  68.893  1.00  0.00    -0.207 A  
HETATM    4  C   UNL     1      -9.434   9.388  68.818  1.00  0.00    -0.150 A  
HETATM    5  C   UNL     1      -9.134   8.813  67.588  1.00  0.00    -0.145 A  
HETATM    6  C   UNL     1      -9.104   9.607  66.435  1.00  0.00    -0.156 A  
HETATM    7 CL   UNL     1      -8.706   8.824  64.938  1.00  0.00    -0.192 Cl 
HETATM    8  C   UNL     1      -9.362  10.997  66.472  1.00  0.00    -0.180 A  
ENDROOT
BRANCH   8   9
HETATM    9  N   UNL     1      -9.389  11.719  65.259  1.00  0.00    -0.410 NA 
HETATM   10  H   UNL     1      -8.485  12.019  64.894  1.00  0.00     0.000 HD 
BRANCH   9  11
HETATM   11  C   UNL     1     -10.475  12.060  64.524  1.00  0.00    -0.299 A  
HETATM   12  N   UNL     1     -11.240  11.294  63.804  1.00  0.00    -0.529 NA 
HETATM   13  C   UNL     1     -12.331  12.173  63.321  1.00  0.00    -0.436 A  
HETATM   14  H   UNL     1     -11.117  10.300  63.612  1.00  0.00     0.000 HD 
HETATM   15  C   UNL     1     -12.022  13.580  63.833  1.00  0.00    -0.440 A  
HETATM   16  N   UNL     1     -10.796  13.386  64.579  1.00  0.00    -0.387 NA 
ENDBRANCH   9  11
ENDBRANCH   8   9
TORSDOF 2
ENDMDL
MODEL      111
REMARK 921   NORMALIZED FREE ENERGY PREDICTED BY IDOCK:   -3.58 KCAL/MOL
REMARK 922        TOTAL FREE ENERGY PREDICTED BY IDOCK:   -4.25 KCAL/MOL
REMARK 923 INTER-LIGAND FREE ENERGY PREDICTED BY IDOCK:   -3.99 KCAL/MOL
REMARK 924 INTRA-LIGAND FREE ENERGY PREDICTED BY IDOCK:   -0.26 KCAL/MOL
REMARK 927      BINDING AFFINITY PREDICTED BY RF-SCORE:    0.00 PKD
ROOT
HETATM    1 CL   UNL     1      -7.668  11.680  66.547  1.00  0.00    -0.064 Cl 
HETATM    2  C   UNL     1      -9.317  11.899  67.040  1.00  0.00    -0.188 A  
HETATM    3  C   UNL     1      -9.781  10.977  67.992  1.00  0.00    -0.181 A  
HETATM    4  C   UNL     1     -11.130  10.916  68.325  1.00  0.00    -0.324 A  
HETATM    5  C   UNL     1     -12.028  11.773  67.700  1.00  0.00    -0.106 A  
HETATM    6  C   UNL     1     -11.565  12.708  66.766  1.00  0.00    -0.374 A  
HETATM    7 CL   UNL     1     -12.746  13.734  66.012  1.00  0.00    -0.459 Cl 
HETATM    8  C   UNL     1     -10.198  12.813  66.420  1.00  0.00    -0.253 A  
ENDROOT
BRANCH   8   9
HETATM    9  N   UNL     1      -9.795  13.831  65.528  1.00  0.00    -0.504 NA 
HETATM   10  H   UNL     1      -9.663  13.550  64.556  1.00  0.00     0.000 HD 
BRANCH   9  11
HETATM   11  C   UNL     1      -9.564  15.135  65.812  1.00  0.00    -0.309 A  
HETATM   12  N   UNL     1     -10.236  16.180  65.428  1.00  0.00    -0.538 NA 
HETATM   13  C   UNL     1      -9.607  17.327  66.125  1.00  0.00    -0.202 A  
HETATM   14  H   UNL     1     -11.027  16.206  64.785  1.00  0.00     0.000 HD 
HETATM   15  C   UNL     1      -8.426  16.767  66.918  1.00  0.00    -0.212 A  
HETATM   16  N   UNL     1      -8.488  15.351  66.625  1.00  0.00    -0.275 NA 
ENDBRANCH   9  11
ENDBRANCH   8   9
TORSDOF 2
ENDMDL
MODEL      112
REMARK 921   NORMALIZED FREE ENERGY PREDICTED BY IDOCK:   -3.57 KCAL/MOL
REMARK 922        TOTAL FREE ENERGY PREDICTED BY IDOCK:   -4.24 KCAL/MOL
REMARK 923 INTER-LIGAND FREE ENERGY PREDICTED BY IDOCK:   -3.93 KCAL/MOL
REMARK 924 INTRA-LIGAND FREE ENERGY PREDICTED BY IDOCK:   -0.30 KCAL/MOL
REMARK 927      BINDING AFFINITY PREDICTED BY RF-SCORE:    0.00 PKD
ROOT
HETATM    1 CL   UNL     1     -13.706   7.303  71.511  1.00  0.00    -0.475 Cl 
HETATM    2  C   UNL     1     -12.185   6.816  72.189  1.00  0.00    -0.222 A  
HETATM    3  C   UNL     1     -12.118   5.475  72.600  1.00  0.00    -0.019 A  
HETATM    4  C   UNL     1     -11.034   5.009  73.335  1.00  0.00    -0.393 A  
HETATM    5  C   UNL     1     -10.010   5.886  73.674  1.00  0.00    -0.193 A  
HETATM    6  C   UNL     1     -10.064   7.219  73.248  1.00  0.00    -0.295 A  
HETATM    7 CL   UNL     1      -8.759   8.261  73.723  1.00  0.00    -0.287 Cl 
HETATM    8  C   UNL     1     -11.139   7.721  72.479  1.00  0.00    -0.346 A  
ENDROOT
BRANCH   8   9
HETATM    9  N   UNL     1     -11.087   9.055  72.021  1.00  0.00    -0.355 NA 
HETATM   10  H   UNL     1     -11.101   9.779  72.740  1.00  0.00     0.000 HD 
BRANCH   9  11
HETATM   11  C   UNL     1     -11.020   9.487  70.738  1.00  0.00    -0.321 A  
HETATM   12  N   UNL     1     -11.888  10.190  70.073  1.00  0.00    -0.413 NA 
HETATM   13  C   UNL     1     -11.248  10.467  68.766  1.00  0.00    -0.262 A  
HETATM   14  H   UNL     1     -12.813  10.488  70.385  1.00  0.00     0.000 HD 
HETATM   15  C   UNL     1      -9.898   9.750  68.775  1.00  0.00    -0.169 A  
HETATM   16  N   UNL     1      -9.870   9.140  70.088  1.00  0.00    -0.185 NA 
ENDBRANCH   9  11
ENDBRANCH   8   9
TORSDOF 2
ENDMDL
MODEL      113
REMARK 921   NORMALIZED FREE ENERGY PREDICTED BY IDOCK:   -3.57 KCAL/MOL
REMARK 922        TOTAL FREE ENERGY PREDICTED BY IDOCK:   -4.24 KCAL/MOL
REMARK 923 INTER-LIGAND FREE ENERGY PREDICTED BY IDOCK:   -3.91 KCAL/MOL
REMARK 924 INTRA-LIGAND FREE ENERGY PREDICTED BY IDOCK:   -0.33 KCAL/MOL
REMARK 927      BINDING AFFINITY PREDICTED BY RF-SCORE:    0.00 PKD
ROOT
HETATM    1 CL   UNL     1     -12.573  10.894  71.110  1.00  0.00    -0.502 Cl 
HETATM    2  C   UNL     1     -11.776  11.325  69.630  1.00  0.00    -0.350 A  
HETATM    3  C   UNL     1     -11.839  12.687  69.294  1.00  0.00    -0.358 A  
HETATM    4  C   UNL     1     -11.416  13.133  68.048  1.00  0.00    -0.346 A  
HETATM    5  C   UNL     1     -10.934  12.216  67.121  1.00  0.00    -0.316 A  
HETATM    6  C   UNL     1     -10.850  10.860  67.460  1.00  0.00    -0.272 A  
HETATM    7 CL   UNL     1     -10.254   9.770  66.247  1.00  0.00    -0.308 Cl 
HETATM    8  C   UNL     1     -11.249  10.375  68.727  1.00  0.00    -0.241 A  
ENDROOT
BRANCH   8   9
HETATM    9  N   UNL     1     -11.063   9.008  69.024  1.00  0.00    -0.436 NA 
HETATM   10  H   UNL     1     -11.778   8.369  68.672  1.00  0.00     0.000 HD 
BRANCH   9  11
HETATM   11  C   UNL     1     -10.047   8.443  69.720  1.00  0.00    -0.197 A  
HETATM   12  N   UNL     1      -8.820   8.239  69.343  1.00  0.00    -0.145 NA 
HETATM   13  C   UNL     1      -8.127   7.703  70.538  1.00  0.00    -0.105 A  
HETATM   14  H   UNL     1      -8.419   8.410  68.421  1.00  0.00     0.000 HD 
HETATM   15  C   UNL     1      -9.180   7.577  71.639  1.00  0.00    -0.134 A  
HETATM   16  N   UNL     1     -10.379   8.066  70.990  1.00  0.00    -0.201 NA 
ENDBRANCH   9  11
ENDBRANCH   8   9
TORSDOF 2
ENDMDL
MODEL      114
REMARK 921   NORMALIZED FREE ENERGY PREDICTED BY IDOCK:   -3.56 KCAL/MOL
REMARK 922        TOTAL FREE ENERGY PREDICTED BY IDOCK:   -4.23 KCAL/MOL
REMARK 923 INTER-LIGAND FREE ENERGY PREDICTED BY IDOCK:   -4.03 KCAL/MOL
REMARK 924 INTRA-LIGAND FREE ENERGY PREDICTED BY IDOCK:   -0.20 KCAL/MOL
REMARK 927      BINDING AFFINITY PREDICTED BY RF-SCORE:    0.00 PKD
ROOT
HETATM    1 CL   UNL     1     -10.532  13.217  68.189  1.00  0.00    -0.241 Cl 
HETATM    2  C   UNL     1     -10.946  13.365  66.511  1.00  0.00    -0.290 A  
HETATM    3  C   UNL     1     -12.097  14.123  66.245  1.00  0.00    -0.463 A  
HETATM    4  C   UNL     1     -12.649  14.157  64.970  1.00  0.00    -0.399 A  
HETATM    5  C   UNL     1     -12.058  13.421  63.950  1.00  0.00    -0.514 A  
HETATM    6  C   UNL     1     -10.898  12.680  64.206  1.00  0.00    -0.379 A  
HETATM    7 CL   UNL     1     -10.225  11.772  62.888  1.00  0.00    -0.223 Cl 
HETATM    8  C   UNL     1     -10.297  12.642  65.484  1.00  0.00    -0.286 A  
ENDROOT
BRANCH   8   9
HETATM    9  N   UNL     1      -9.086  11.935  65.648  1.00  0.00    -0.422 NA 
HETATM   10  H   UNL     1      -8.239  12.502  65.710  1.00  0.00     0.000 HD 
BRANCH   9  11
HETATM   11  C   UNL     1      -8.916  10.593  65.733  1.00  0.00    -0.182 A  
HETATM   12  N   UNL     1      -9.746   9.697  66.177  1.00  0.00    -0.232 NA 
HETATM   13  C   UNL     1      -9.086   8.395  65.927  1.00  0.00    -0.171 A  
HETATM   14  H   UNL     1     -10.658   9.856  66.606  1.00  0.00     0.000 HD 
HETATM   15  C   UNL     1      -7.715   8.703  65.325  1.00  0.00    -0.092 A  
HETATM   16  N   UNL     1      -7.712  10.150  65.264  1.00  0.00    -0.140 NA 
ENDBRANCH   9  11
ENDBRANCH   8   9
TORSDOF 2
ENDMDL
MODEL      115
REMARK 921   NORMALIZED FREE ENERGY PREDICTED BY IDOCK:   -3.56 KCAL/MOL
REMARK 922        TOTAL FREE ENERGY PREDICTED BY IDOCK:   -4.23 KCAL/MOL
REMARK 923 INTER-LIGAND FREE ENERGY PREDICTED BY IDOCK:   -3.97 KCAL/MOL
REMARK 924 INTRA-LIGAND FREE ENERGY PREDICTED BY IDOCK:   -0.26 KCAL/MOL
REMARK 927      BINDING AFFINITY PREDICTED BY RF-SCORE:    0.00 PKD
ROOT
HETATM    1 CL   UNL     1     -11.557   9.587  71.638  1.00  0.00    -0.463 Cl 
HETATM    2  C   UNL     1     -11.256   7.880  71.720  1.00  0.00    -0.260 A  
HETATM    3  C   UNL     1     -11.131   7.359  73.018  1.00  0.00    -0.390 A  
HETATM    4  C   UNL     1     -10.696   6.054  73.222  1.00  0.00    -0.284 A  
HETATM    5  C   UNL     1     -10.372   5.262  72.127  1.00  0.00    -0.268 A  
HETATM    6  C   UNL     1     -10.515   5.772  70.831  1.00  0.00    -0.252 A  
HETATM    7 CL   UNL     1     -10.075   4.732  69.512  1.00  0.00    -0.291 Cl 
HETATM    8  C   UNL     1     -10.977   7.086  70.585  1.00  0.00    -0.260 A  
ENDROOT
BRANCH   8   9
HETATM    9  N   UNL     1     -11.168   7.504  69.251  1.00  0.00    -0.438 NA 
HETATM   10  H   UNL     1     -11.966   7.097  68.762  1.00  0.00     0.000 HD 
BRANCH   9  11
HETATM   11  C   UNL     1     -10.417   8.382  68.543  1.00  0.00    -0.164 A  
HETATM   12  N   UNL     1     -10.791   9.187  67.592  1.00  0.00    -0.475 NA 
HETATM   13  C   UNL     1      -9.590   9.990  67.265  1.00  0.00    -0.156 A  
HETATM   14  H   UNL     1     -11.714   9.251  67.162  1.00  0.00     0.000 HD 
HETATM   15  C   UNL     1      -8.455   9.465  68.144  1.00  0.00    -0.120 A  
HETATM   16  N   UNL     1      -9.103   8.420  68.911  1.00  0.00    -0.146 NA 
ENDBRANCH   9  11
ENDBRANCH   8   9
TORSDOF 2
ENDMDL
MODEL      116
REMARK 921   NORMALIZED FREE ENERGY PREDICTED BY IDOCK:   -3.55 KCAL/MOL
REMARK 922        TOTAL FREE ENERGY PREDICTED BY IDOCK:   -4.22 KCAL/MOL
REMARK 923 INTER-LIGAND FREE ENERGY PREDICTED BY IDOCK:   -3.95 KCAL/MOL
REMARK 924 INTRA-LIGAND FREE ENERGY PREDICTED BY IDOCK:   -0.26 KCAL/MOL
REMARK 927      BINDING AFFINITY PREDICTED BY RF-SCORE:    0.00 PKD
ROOT
HETATM    1 CL   UNL     1     -11.904  12.672  69.743  1.00  0.00    -0.396 Cl 
HETATM    2  C   UNL     1     -11.096  11.764  68.504  1.00  0.00    -0.239 A  
HETATM    3  C   UNL     1     -10.635  12.521  67.416  1.00  0.00    -0.242 A  
HETATM    4  C   UNL     1     -10.148  11.900  66.271  1.00  0.00    -0.249 A  
HETATM    5  C   UNL     1     -10.131  10.512  66.202  1.00  0.00    -0.306 A  
HETATM    6  C   UNL     1     -10.571   9.753  67.294  1.00  0.00    -0.255 A  
HETATM    7 CL   UNL     1     -10.537   8.025  67.130  1.00  0.00    -0.399 Cl 
HETATM    8  C   UNL     1     -11.050  10.352  68.482  1.00  0.00    -0.266 A  
ENDROOT
BRANCH   8   9
HETATM    9  N   UNL     1     -11.404   9.524  69.569  1.00  0.00    -0.438 NA 
HETATM   10  H   UNL     1     -12.397   9.306  69.664  1.00  0.00     0.000 HD 
BRANCH   9  11
HETATM   11  C   UNL     1     -10.582   8.984  70.501  1.00  0.00    -0.227 A  
HETATM   12  N   UNL     1      -9.557   9.526  71.090  1.00  0.00    -0.287 NA 
HETATM   13  C   UNL     1      -9.110   8.529  72.091  1.00  0.00    -0.249 A  
HETATM   14  H   UNL     1      -9.149  10.441  70.903  1.00  0.00     0.000 HD 
HETATM   15  C   UNL     1     -10.010   7.305  71.928  1.00  0.00    -0.166 A  
HETATM   16  N   UNL     1     -10.907   7.708  70.865  1.00  0.00    -0.237 NA 
ENDBRANCH   9  11
ENDBRANCH   8   9
TORSDOF 2
ENDMDL
MODEL      117
REMARK 921   NORMALIZED FREE ENERGY PREDICTED BY IDOCK:   -3.55 KCAL/MOL
REMARK 922        TOTAL FREE ENERGY PREDICTED BY IDOCK:   -4.21 KCAL/MOL
REMARK 923 INTER-LIGAND FREE ENERGY PREDICTED BY IDOCK:   -4.26 KCAL/MOL
REMARK 924 INTRA-LIGAND FREE ENERGY PREDICTED BY IDOCK:    0.04 KCAL/MOL
REMARK 927      BINDING AFFINITY PREDICTED BY RF-SCORE:    0.00 PKD
ROOT
HETATM    1 CL   UNL     1     -12.176  13.533  65.627  1.00  0.00    -0.463 Cl 
HETATM    2  C   UNL     1     -11.051  12.246  65.329  1.00  0.00    -0.316 A  
HETATM    3  C   UNL     1     -10.800  11.975  63.975  1.00  0.00    -0.433 A  
HETATM    4  C   UNL     1     -10.077  10.850  63.596  1.00  0.00    -0.414 A  
HETATM    5  C   UNL     1      -9.606   9.979  64.572  1.00  0.00    -0.346 A  
HETATM    6  C   UNL     1      -9.836  10.257  65.925  1.00  0.00    -0.237 A  
HETATM    7 CL   UNL     1      -9.234   9.117  67.087  1.00  0.00    -0.153 Cl 
HETATM    8  C   UNL     1     -10.547  11.404  66.347  1.00  0.00    -0.263 A  
ENDROOT
BRANCH   8   9
HETATM    9  N   UNL     1     -10.674  11.659  67.730  1.00  0.00    -0.196 NA 
HETATM   10  H   UNL     1     -10.842  10.846  68.323  1.00  0.00     0.000 HD 
BRANCH   9  11
HETATM   11  C   UNL     1     -10.597  12.856  68.361  1.00  0.00    -0.253 A  
HETATM   12  N   UNL     1      -9.545  13.581  68.599  1.00  0.00    -0.385 NA 
HETATM   13  C   UNL     1     -10.061  14.829  69.208  1.00  0.00    -0.157 A  
HETATM   14  H   UNL     1      -8.572  13.343  68.408  1.00  0.00     0.000 HD 
HETATM   15  C   UNL     1     -11.576  14.666  69.335  1.00  0.00    -0.305 A  
HETATM   16  N   UNL     1     -11.802  13.350  68.774  1.00  0.00    -0.338 NA 
ENDBRANCH   9  11
ENDBRANCH   8   9
TORSDOF 2
ENDMDL
MODEL      118
REMARK 921   NORMALIZED FREE ENERGY PREDICTED BY IDOCK:   -3.54 KCAL/MOL
REMARK 922        TOTAL FREE ENERGY PREDICTED BY IDOCK:   -4.21 KCAL/MOL
REMARK 923 INTER-LIGAND FREE ENERGY PREDICTED BY IDOCK:   -3.94 KCAL/MOL
REMARK 924 INTRA-LIGAND FREE ENERGY PREDICTED BY IDOCK:   -0.27 KCAL/MOL
REMARK 927      BINDING AFFINITY PREDICTED BY RF-SCORE:    0.00 PKD
ROOT
HETATM    1 CL   UNL     1     -10.994   9.601  67.414  1.00  0.00    -0.246 Cl 
HETATM    2  C   UNL     1     -10.682   7.994  67.990  1.00  0.00    -0.047 A  
HETATM    3  C   UNL     1     -10.687   6.996  67.003  1.00  0.00    -0.423 A  
HETATM    4  C   UNL     1     -10.647   5.651  67.350  1.00  0.00    -0.312 A  
HETATM    5  C   UNL     1     -10.613   5.292  68.693  1.00  0.00    -0.096 A  
HETATM    6  C   UNL     1     -10.587   6.285  69.679  1.00  0.00    -0.264 A  
HETATM    7 CL   UNL     1     -10.562   5.764  71.335  1.00  0.00    -0.301 Cl 
HETATM    8  C   UNL     1     -10.602   7.663  69.361  1.00  0.00    -0.215 A  
ENDROOT
BRANCH   8   9
HETATM    9  N   UNL     1     -10.497   8.606  70.406  1.00  0.00    -0.202 NA 
HETATM   10  H   UNL     1      -9.576   8.698  70.838  1.00  0.00     0.000 HD 
BRANCH   9  11
HETATM   11  C   UNL     1     -11.473   9.403  70.903  1.00  0.00    -0.316 A  
HETATM   12  N   UNL     1     -11.729  10.646  70.620  1.00  0.00    -0.342 NA 
HETATM   13  C   UNL     1     -12.968  10.970  71.364  1.00  0.00    -0.414 A  
HETATM   14  H   UNL     1     -11.191  11.266  70.015  1.00  0.00     0.000 HD 
HETATM   15  C   UNL     1     -13.339   9.724  72.168  1.00  0.00    -0.431 A  
HETATM   16  N   UNL     1     -12.295   8.788  71.804  1.00  0.00    -0.328 NA 
ENDBRANCH   9  11
ENDBRANCH   8   9
TORSDOF 2
ENDMDL
MODEL      119
REMARK 921   NORMALIZED FREE ENERGY PREDICTED BY IDOCK:   -3.54 KCAL/MOL
REMARK 922        TOTAL FREE ENERGY PREDICTED BY IDOCK:   -4.21 KCAL/MOL
REMARK 923 INTER-LIGAND FREE ENERGY PREDICTED BY IDOCK:   -3.88 KCAL/MOL
REMARK 924 INTRA-LIGAND FREE ENERGY PREDICTED BY IDOCK:   -0.32 KCAL/MOL
REMARK 927      BINDING AFFINITY PREDICTED BY RF-SCORE:    0.00 PKD
ROOT
HETATM    1 CL   UNL     1      -8.964  11.720  67.972  1.00  0.00    -0.169 Cl 
HETATM    2  C   UNL     1      -9.027  10.251  67.052  1.00  0.00    -0.136 A  
HETATM    3  C   UNL     1      -8.980   9.071  67.809  1.00  0.00    -0.132 A  
HETATM    4  C   UNL     1      -8.825   7.834  67.192  1.00  0.00    -0.130 A  
HETATM    5  C   UNL     1      -8.705   7.771  65.809  1.00  0.00    -0.160 A  
HETATM    6  C   UNL     1      -8.772   8.945  65.048  1.00  0.00    -0.166 A  
HETATM    7 CL   UNL     1      -8.597   8.791  63.328  1.00  0.00    -0.125 Cl 
HETATM    8  C   UNL     1      -8.953  10.216  65.641  1.00  0.00    -0.171 A  
ENDROOT
BRANCH   8   9
HETATM    9  N   UNL     1      -9.088  11.345  64.805  1.00  0.00    -0.402 NA 
HETATM   10  H   UNL     1      -8.221  11.809  64.531  1.00  0.00     0.000 HD 
BRANCH   9  11
HETATM   11  C   UNL     1     -10.234  11.886  64.324  1.00  0.00    -0.311 A  
HETATM   12  N   UNL     1     -11.016  11.431  63.390  1.00  0.00    -0.731 NA 
HETATM   13  C   UNL     1     -12.170  12.359  63.360  1.00  0.00    -0.523 A  
HETATM   14  H   UNL     1     -10.867  10.610  62.803  1.00  0.00     0.000 HD 
HETATM   15  C   UNL     1     -11.884  13.453  64.388  1.00  0.00    -0.408 A  
HETATM   16  N   UNL     1     -10.603  13.052  64.932  1.00  0.00    -0.320 NA 
ENDBRANCH   9  11
ENDBRANCH   8   9
TORSDOF 2
ENDMDL
MODEL      120
REMARK 921   NORMALIZED FREE ENERGY PREDICTED BY IDOCK:   -3.53 KCAL/MOL
REMARK 922        TOTAL FREE ENERGY PREDICTED BY IDOCK:   -4.20 KCAL/MOL
REMARK 923 INTER-LIGAND FREE ENERGY PREDICTED BY IDOCK:   -3.91 KCAL/MOL
REMARK 924 INTRA-LIGAND FREE ENERGY PREDICTED BY IDOCK:   -0.29 KCAL/MOL
REMARK 927      BINDING AFFINITY PREDICTED BY RF-SCORE:    0.00 PKD
ROOT
HETATM    1 CL   UNL     1     -11.483   8.195  70.655  1.00  0.00    -0.264 Cl 
HETATM    2  C   UNL     1     -10.987   6.597  70.198  1.00  0.00    -0.305 A  
HETATM    3  C   UNL     1     -10.625   5.758  71.263  1.00  0.00    -0.319 A  
HETATM    4  C   UNL     1     -10.025   4.526  71.028  1.00  0.00    -0.257 A  
HETATM    5  C   UNL     1      -9.772   4.128  69.720  1.00  0.00    -0.278 A  
HETATM    6  C   UNL     1     -10.150   4.953  68.654  1.00  0.00    -0.088 A  
HETATM    7 CL   UNL     1      -9.787   4.399  67.049  1.00  0.00    -0.233 Cl 
HETATM    8  C   UNL     1     -10.784   6.201  68.856  1.00  0.00    -0.312 A  
ENDROOT
BRANCH   8   9
HETATM    9  N   UNL     1     -11.205   6.942  67.732  1.00  0.00    -0.570 NA 
HETATM   10  H   UNL     1     -12.033   6.593  67.246  1.00  0.00     0.000 HD 
BRANCH   9  11
HETATM   11  C   UNL     1     -10.640   8.063  67.221  1.00  0.00    -0.290 A  
HETATM   12  N   UNL     1     -11.027   9.298  67.349  1.00  0.00    -0.404 NA 
HETATM   13  C   UNL     1      -9.979  10.107  66.685  1.00  0.00    -0.216 A  
HETATM   14  H   UNL     1     -11.873   9.637  67.808  1.00  0.00     0.000 HD 
HETATM   15  C   UNL     1      -8.964   9.124  66.103  1.00  0.00    -0.173 A  
HETATM   16  N   UNL     1      -9.505   7.839  66.496  1.00  0.00    -0.200 NA 
ENDBRANCH   9  11
ENDBRANCH   8   9
TORSDOF 2
ENDMDL
MODEL      121
REMARK 921   NORMALIZED FREE ENERGY PREDICTED BY IDOCK:   -3.52 KCAL/MOL
REMARK 922        TOTAL FREE ENERGY PREDICTED BY IDOCK:   -4.19 KCAL/MOL
REMARK 923 INTER-LIGAND FREE ENERGY PREDICTED BY IDOCK:   -4.09 KCAL/MOL
REMARK 924 INTRA-LIGAND FREE ENERGY PREDICTED BY IDOCK:   -0.09 KCAL/MOL
REMARK 927      BINDING AFFINITY PREDICTED BY RF-SCORE:    0.00 PKD
ROOT
HETATM    1 CL   UNL     1      -8.082   8.912  69.948  1.00  0.00    -0.105 Cl 
HETATM    2  C   UNL     1      -9.241   8.530  71.181  1.00  0.00    -0.197 A  
HETATM    3  C   UNL     1      -8.697   8.258  72.447  1.00  0.00    -0.279 A  
HETATM    4  C   UNL     1      -9.490   7.750  73.469  1.00  0.00    -0.346 A  
HETATM    5  C   UNL     1     -10.836   7.498  73.228  1.00  0.00    -0.409 A  
HETATM    6  C   UNL     1     -11.387   7.787  71.974  1.00  0.00    -0.284 A  
HETATM    7 CL   UNL     1     -13.070   7.431  71.741  1.00  0.00    -0.376 Cl 
HETATM    8  C   UNL     1     -10.615   8.327  70.920  1.00  0.00    -0.207 A  
ENDROOT
BRANCH   8   9
HETATM    9  N   UNL     1     -11.256   8.664  69.708  1.00  0.00    -0.447 NA 
HETATM   10  H   UNL     1     -11.702   7.896  69.205  1.00  0.00     0.000 HD 
BRANCH   9  11
HETATM   11  C   UNL     1     -11.347   9.888  69.133  1.00  0.00    -0.039 A  
HETATM   12  N   UNL     1     -11.642  10.186  67.902  1.00  0.00    -0.629 NA 
HETATM   13  C   UNL     1     -11.711  11.665  67.864  1.00  0.00    -0.259 A  
HETATM   14  H   UNL     1     -11.793   9.540  67.128  1.00  0.00     0.000 HD 
HETATM   15  C   UNL     1     -11.344  12.161  69.263  1.00  0.00    -0.266 A  
HETATM   16  N   UNL     1     -11.114  10.928  69.987  1.00  0.00    -0.250 NA 
ENDBRANCH   9  11
ENDBRANCH   8   9
TORSDOF 2
ENDMDL
MODEL      122
REMARK 921   NORMALIZED FREE ENERGY PREDICTED BY IDOCK:   -3.51 KCAL/MOL
REMARK 922        TOTAL FREE ENERGY PREDICTED BY IDOCK:   -4.17 KCAL/MOL
REMARK 923 INTER-LIGAND FREE ENERGY PREDICTED BY IDOCK:   -3.86 KCAL/MOL
REMARK 924 INTRA-LIGAND FREE ENERGY PREDICTED BY IDOCK:   -0.31 KCAL/MOL
REMARK 927      BINDING AFFINITY PREDICTED BY RF-SCORE:    0.00 PKD
ROOT
HETATM    1 CL   UNL     1     -10.908   9.732  67.248  1.00  0.00    -0.305 Cl 
HETATM    2  C   UNL     1      -9.958   8.363  66.769  1.00  0.00    -0.284 A  
HETATM    3  C   UNL     1      -8.891   8.651  65.903  1.00  0.00    -0.221 A  
HETATM    4  C   UNL     1      -8.175   7.629  65.290  1.00  0.00    -0.136 A  
HETATM    5  C   UNL     1      -8.529   6.307  65.531  1.00  0.00    -0.145 A  
HETATM    6  C   UNL     1      -9.579   6.015  66.410  1.00  0.00    -0.137 A  
HETATM    7 CL   UNL     1      -9.977   4.342  66.649  1.00  0.00    -0.241 Cl 
HETATM    8  C   UNL     1     -10.313   7.028  67.069  1.00  0.00    -0.290 A  
ENDROOT
BRANCH   8   9
HETATM    9  N   UNL     1     -11.307   6.655  67.999  1.00  0.00    -0.568 NA 
HETATM   10  H   UNL     1     -12.147   6.224  67.612  1.00  0.00     0.000 HD 
BRANCH   9  11
HETATM   11  C   UNL     1     -11.277   6.804  69.346  1.00  0.00    -0.234 A  
HETATM   12  N   UNL     1     -11.672   7.817  70.059  1.00  0.00    -0.456 NA 
HETATM   13  C   UNL     1     -11.513   7.389  71.468  1.00  0.00    -0.263 A  
HETATM   14  H   UNL     1     -12.017   8.715  69.721  1.00  0.00     0.000 HD 
HETATM   15  C   UNL     1     -10.902   5.988  71.438  1.00  0.00    -0.270 A  
HETATM   16  N   UNL     1     -10.780   5.725  70.019  1.00  0.00    -0.313 NA 
ENDBRANCH   9  11
ENDBRANCH   8   9
TORSDOF 2
ENDMDL
MODEL      123
REMARK 921   NORMALIZED FREE ENERGY PREDICTED BY IDOCK:   -3.50 KCAL/MOL
REMARK 922        TOTAL FREE ENERGY PREDICTED BY IDOCK:   -4.16 KCAL/MOL
REMARK 923 INTER-LIGAND FREE ENERGY PREDICTED BY IDOCK:   -3.86 KCAL/MOL
REMARK 924 INTRA-LIGAND FREE ENERGY PREDICTED BY IDOCK:   -0.30 KCAL/MOL
REMARK 927      BINDING AFFINITY PREDICTED BY RF-SCORE:    0.00 PKD
ROOT
HETATM    1 CL   UNL     1     -10.730   7.481  67.921  1.00  0.00    -0.238 Cl 
HETATM    2  C   UNL     1      -9.762   8.356  69.064  1.00  0.00    -0.171 A  
HETATM    3  C   UNL     1      -8.784   9.191  68.500  1.00  0.00    -0.129 A  
HETATM    4  C   UNL     1      -7.817   9.793  69.297  1.00  0.00    -0.105 A  
HETATM    5  C   UNL     1      -7.815   9.556  70.666  1.00  0.00    -0.149 A  
HETATM    6  C   UNL     1      -8.801   8.741  71.235  1.00  0.00    -0.226 A  
HETATM    7 CL   UNL     1      -8.726   8.475  72.949  1.00  0.00    -0.231 Cl 
HETATM    8  C   UNL     1      -9.813   8.131  70.458  1.00  0.00    -0.186 A  
ENDROOT
BRANCH   8   9
HETATM    9  N   UNL     1     -10.819   7.386  71.111  1.00  0.00    -0.239 NA 
HETATM   10  H   UNL     1     -10.546   6.461  71.448  1.00  0.00     0.000 HD 
BRANCH   9  11
HETATM   11  C   UNL     1     -12.103   7.752  71.341  1.00  0.00    -0.311 A  
HETATM   12  N   UNL     1     -13.196   7.150  70.977  1.00  0.00    -0.548 NA 
HETATM   13  C   UNL     1     -14.295   7.926  71.596  1.00  0.00    -0.479 A  
HETATM   14  H   UNL     1     -13.280   6.321  70.389  1.00  0.00     0.000 HD 
HETATM   15  C   UNL     1     -13.648   9.106  72.322  1.00  0.00    -0.489 A  
HETATM   16  N   UNL     1     -12.236   8.898  72.072  1.00  0.00    -0.361 NA 
ENDBRANCH   9  11
ENDBRANCH   8   9
TORSDOF 2
ENDMDL
MODEL      124
REMARK 921   NORMALIZED FREE ENERGY PREDICTED BY IDOCK:   -3.49 KCAL/MOL
REMARK 922        TOTAL FREE ENERGY PREDICTED BY IDOCK:   -4.15 KCAL/MOL
REMARK 923 INTER-LIGAND FREE ENERGY PREDICTED BY IDOCK:   -3.83 KCAL/MOL
REMARK 924 INTRA-LIGAND FREE ENERGY PREDICTED BY IDOCK:   -0.32 KCAL/MOL
REMARK 927      BINDING AFFINITY PREDICTED BY RF-SCORE:    0.00 PKD
ROOT
HETATM    1 CL   UNL     1     -10.997  11.611  68.441  1.00  0.00    -0.243 Cl 
HETATM    2  C   UNL     1      -9.965  12.903  67.917  1.00  0.00    -0.233 A  
HETATM    3  C   UNL     1      -8.664  12.879  68.445  1.00  0.00    -0.119 A  
HETATM    4  C   UNL     1      -7.802  13.955  68.265  1.00  0.00    -0.146 A  
HETATM    5  C   UNL     1      -8.240  15.071  67.562  1.00  0.00    -0.199 A  
HETATM    6  C   UNL     1      -9.529  15.090  67.016  1.00  0.00    -0.229 A  
HETATM    7 CL   UNL     1     -10.013  16.524  66.165  1.00  0.00    -0.341 Cl 
HETATM    8  C   UNL     1     -10.423  14.005  67.159  1.00  0.00    -0.270 A  
ENDROOT
BRANCH   8   9
HETATM    9  N   UNL     1     -11.678  14.065  66.516  1.00  0.00    -0.374 NA 
HETATM   10  H   UNL     1     -12.389  14.642  66.968  1.00  0.00     0.000 HD 
BRANCH   9  11
HETATM   11  C   UNL     1     -12.051  13.445  65.370  1.00  0.00    -0.421 A  
HETATM   12  N   UNL     1     -12.630  12.291  65.223  1.00  0.00    -0.496 NA 
HETATM   13  C   UNL     1     -12.905  12.172  63.772  1.00  0.00    -0.333 A  
HETATM   14  H   UNL     1     -12.849  11.611  65.951  1.00  0.00     0.000 HD 
HETATM   15  C   UNL     1     -12.328  13.424  63.110  1.00  0.00    -0.003 A  
HETATM   16  N   UNL     1     -11.790  14.159  64.235  1.00  0.00    -0.418 NA 
ENDBRANCH   9  11
ENDBRANCH   8   9
TORSDOF 2
ENDMDL
MODEL      125
REMARK 921   NORMALIZED FREE ENERGY PREDICTED BY IDOCK:   -3.48 KCAL/MOL
REMARK 922        TOTAL FREE ENERGY PREDICTED BY IDOCK:   -4.14 KCAL/MOL
REMARK 923 INTER-LIGAND FREE ENERGY PREDICTED BY IDOCK:   -3.83 KCAL/MOL
REMARK 924 INTRA-LIGAND FREE ENERGY PREDICTED BY IDOCK:   -0.30 KCAL/MOL
REMARK 927      BINDING AFFINITY PREDICTED BY RF-SCORE:    0.00 PKD
ROOT
HETATM    1 CL   UNL     1      -7.516  13.239  67.145  1.00  0.00    -0.050 Cl 
HETATM    2  C   UNL     1      -8.031  14.896  67.174  1.00  0.00    -0.195 A  
HETATM    3  C   UNL     1      -7.542  15.654  68.249  1.00  0.00    -0.119 A  
HETATM    4  C   UNL     1      -8.030  16.931  68.501  1.00  0.00    -0.242 A  
HETATM    5  C   UNL     1      -9.022  17.457  67.681  1.00  0.00    -0.233 A  
HETATM    6  C   UNL     1      -9.497  16.712  66.595  1.00  0.00    -0.252 A  
HETATM    7 CL   UNL     1     -10.748  17.426  65.625  1.00  0.00    -0.228 Cl 
HETATM    8  C   UNL     1      -9.007  15.420  66.296  1.00  0.00    -0.306 A  
ENDROOT
BRANCH   8   9
HETATM    9  N   UNL     1      -9.478  14.762  65.140  1.00  0.00    -0.270 NA 
HETATM   10  H   UNL     1      -8.999  14.986  64.267  1.00  0.00     0.000 HD 
BRANCH   9  11
HETATM   11  C   UNL     1     -10.493  13.867  65.053  1.00  0.00    -0.410 A  
HETATM   12  N   UNL     1     -11.716  13.985  65.478  1.00  0.00    -0.338 NA 
HETATM   13  C   UNL     1     -12.410  12.761  65.014  1.00  0.00    -0.499 A  
HETATM   14  H   UNL     1     -12.113  14.755  66.016  1.00  0.00     0.000 HD 
HETATM   15  C   UNL     1     -11.362  11.899  64.310  1.00  0.00    -0.353 A  
HETATM   16  N   UNL     1     -10.164  12.706  64.414  1.00  0.00    -0.337 NA 
ENDBRANCH   9  11
ENDBRANCH   8   9
TORSDOF 2
ENDMDL
MODEL      126
REMARK 921   NORMALIZED FREE ENERGY PREDICTED BY IDOCK:   -3.47 KCAL/MOL
REMARK 922        TOTAL FREE ENERGY PREDICTED BY IDOCK:   -4.12 KCAL/MOL
REMARK 923 INTER-LIGAND FREE ENERGY PREDICTED BY IDOCK:   -3.81 KCAL/MOL
REMARK 924 INTRA-LIGAND FREE ENERGY PREDICTED BY IDOCK:   -0.31 KCAL/MOL
REMARK 927      BINDING AFFINITY PREDICTED BY RF-SCORE:    0.00 PKD
ROOT
HETATM    1 CL   UNL     1      -7.619   8.898  70.631  1.00  0.00    -0.085 Cl 
HETATM    2  C   UNL     1      -8.926   8.424  71.668  1.00  0.00    -0.199 A  
HETATM    3  C   UNL     1      -8.556   8.093  72.981  1.00  0.00    -0.284 A  
HETATM    4  C   UNL     1      -9.469   7.512  73.854  1.00  0.00    -0.286 A  
HETATM    5  C   UNL     1     -10.760   7.246  73.414  1.00  0.00    -0.415 A  
HETATM    6  C   UNL     1     -11.140   7.593  72.112  1.00  0.00    -0.267 A  
HETATM    7 CL   UNL     1     -12.763   7.216  71.627  1.00  0.00    -0.404 Cl 
HETATM    8  C   UNL     1     -10.244   8.207  71.206  1.00  0.00    -0.195 A  
ENDROOT
BRANCH   8   9
HETATM    9  N   UNL     1     -10.720   8.599  69.936  1.00  0.00    -0.229 NA 
HETATM   10  H   UNL     1     -11.177   9.510  69.887  1.00  0.00     0.000 HD 
BRANCH   9  11
HETATM   11  C   UNL     1     -10.641   7.906  68.774  1.00  0.00    -0.127 A  
HETATM   12  N   UNL     1     -11.235   6.795  68.450  1.00  0.00    -0.543 NA 
HETATM   13  C   UNL     1     -10.880   6.562  67.030  1.00  0.00    -0.395 A  
HETATM   14  H   UNL     1     -11.819   6.209  69.045  1.00  0.00     0.000 HD 
HETATM   15  C   UNL     1      -9.935   7.691  66.620  1.00  0.00    -0.214 A  
HETATM   16  N   UNL     1      -9.842   8.484  67.829  1.00  0.00    -0.166 NA 
ENDBRANCH   9  11
ENDBRANCH   8   9
TORSDOF 2
ENDMDL
MODEL      127
REMARK 921   NORMALIZED FREE ENERGY PREDICTED BY IDOCK:   -3.43 KCAL/MOL
REMARK 922        TOTAL FREE ENERGY PREDICTED BY IDOCK:   -4.09 KCAL/MOL
REMARK 923 INTER-LIGAND FREE ENERGY PREDICTED BY IDOCK:   -3.78 KCAL/MOL
REMARK 924 INTRA-LIGAND FREE ENERGY PREDICTED BY IDOCK:   -0.31 KCAL/MOL
REMARK 927      BINDING AFFINITY PREDICTED BY RF-SCORE:    0.00 PKD
ROOT
HETATM    1 CL   UNL     1     -11.977  11.830  68.851  1.00  0.00    -0.360 Cl 
HETATM    2  C   UNL     1     -11.920  13.346  69.692  1.00  0.00    -0.324 A  
HETATM    3  C   UNL     1     -12.833  13.476  70.750  1.00  0.00    -0.243 A  
HETATM    4  C   UNL     1     -13.029  14.701  71.376  1.00  0.00    -0.404 A  
HETATM    5  C   UNL     1     -12.318  15.813  70.940  1.00  0.00    -0.451 A  
HETATM    6  C   UNL     1     -11.391  15.683  69.898  1.00  0.00    -0.337 A  
HETATM    7 CL   UNL     1     -10.552  17.118  69.395  1.00  0.00    -0.268 Cl 
HETATM    8  C   UNL     1     -11.150  14.448  69.255  1.00  0.00    -0.271 A  
ENDROOT
BRANCH   8   9
HETATM    9  N   UNL     1     -10.146  14.378  68.265  1.00  0.00    -0.232 NA 
HETATM   10  H   UNL     1     -10.357  14.834  67.377  1.00  0.00     0.000 HD 
BRANCH   9  11
HETATM   11  C   UNL     1      -8.935  13.776  68.356  1.00  0.00    -0.166 A  
HETATM   12  N   UNL     1      -7.933  14.080  69.127  1.00  0.00    -0.339 NA 
HETATM   13  C   UNL     1      -6.922  13.024  68.890  1.00  0.00    -0.088 A  
HETATM   14  H   UNL     1      -7.859  14.877  69.759  1.00  0.00     0.000 HD 
HETATM   15  C   UNL     1      -7.490  12.103  67.809  1.00  0.00    -0.122 A  
HETATM   16  N   UNL     1      -8.782  12.697  67.532  1.00  0.00    -0.173 NA 
ENDBRANCH   9  11
ENDBRANCH   8   9
TORSDOF 2
ENDMDL
MODEL      128
REMARK 921   NORMALIZED FREE ENERGY PREDICTED BY IDOCK:   -3.42 KCAL/MOL
REMARK 922        TOTAL FREE ENERGY PREDICTED BY IDOCK:   -4.07 KCAL/MOL
REMARK 923 INTER-LIGAND FREE ENERGY PREDICTED BY IDOCK:   -3.75 KCAL/MOL
REMARK 924 INTRA-LIGAND FREE ENERGY PREDICTED BY IDOCK:   -0.32 KCAL/MOL
REMARK 927      BINDING AFFINITY PREDICTED BY RF-SCORE:    0.00 PKD
ROOT
HETATM    1 CL   UNL     1     -10.757  17.540  67.822  1.00  0.00    -0.372 Cl 
HETATM    2  C   UNL     1      -9.183  17.319  68.517  1.00  0.00    -0.273 A  
HETATM    3  C   UNL     1      -8.318  18.418  68.395  1.00  0.00    -0.328 A  
HETATM    4  C   UNL     1      -6.974  18.307  68.730  1.00  0.00    -0.280 A  
HETATM    5  C   UNL     1      -6.481  17.088  69.182  1.00  0.00    -0.221 A  
HETATM    6  C   UNL     1      -7.345  15.996  69.325  1.00  0.00    -0.231 A  
HETATM    7 CL   UNL     1      -6.655  14.501  69.879  1.00  0.00    -0.158 Cl 
HETATM    8  C   UNL     1      -8.722  16.080  69.016  1.00  0.00    -0.245 A  
ENDROOT
BRANCH   8   9
HETATM    9  N   UNL     1      -9.545  14.959  69.259  1.00  0.00    -0.361 NA 
HETATM   10  H   UNL     1      -9.880  14.845  70.217  1.00  0.00     0.000 HD 
BRANCH   9  11
HETATM   11  C   UNL     1      -9.944  14.017  68.370  1.00  0.00    -0.236 A  
HETATM   12  N   UNL     1      -9.223  13.128  67.753  1.00  0.00    -0.194 NA 
HETATM   13  C   UNL     1     -10.190  12.296  67.000  1.00  0.00    -0.215 A  
HETATM   14  H   UNL     1      -8.209  13.025  67.781  1.00  0.00     0.000 HD 
HETATM   15  C   UNL     1     -11.574  12.899  67.241  1.00  0.00    -0.360 A  
HETATM   16  N   UNL     1     -11.287  14.012  68.122  1.00  0.00    -0.276 NA 
ENDBRANCH   9  11
ENDBRANCH   8   9
TORSDOF 2
ENDMDL
MODEL      129
REMARK 921   NORMALIZED FREE ENERGY PREDICTED BY IDOCK:   -3.41 KCAL/MOL
REMARK 922        TOTAL FREE ENERGY PREDICTED BY IDOCK:   -4.06 KCAL/MOL
REMARK 923 INTER-LIGAND FREE ENERGY PREDICTED BY IDOCK:   -3.74 KCAL/MOL
REMARK 924 INTRA-LIGAND FREE ENERGY PREDICTED BY IDOCK:   -0.33 KCAL/MOL
REMARK 927      BINDING AFFINITY PREDICTED BY RF-SCORE:    0.00 PKD
ROOT
HETATM    1 CL   UNL     1      -7.485  15.195  69.013  1.00  0.00    -0.147 Cl 
HETATM    2  C   UNL     1      -8.348  13.891  68.262  1.00  0.00    -0.163 A  
HETATM    3  C   UNL     1      -7.569  12.771  67.935  1.00  0.00    -0.138 A  
HETATM    4  C   UNL     1      -8.090  11.743  67.157  1.00  0.00    -0.169 A  
HETATM    5  C   UNL     1      -9.396  11.834  66.690  1.00  0.00    -0.205 A  
HETATM    6  C   UNL     1     -10.183  12.940  67.032  1.00  0.00    -0.243 A  
HETATM    7 CL   UNL     1     -11.799  12.994  66.399  1.00  0.00    -0.442 Cl 
HETATM    8  C   UNL     1      -9.693  13.992  67.840  1.00  0.00    -0.229 A  
ENDROOT
BRANCH   8   9
HETATM    9  N   UNL     1     -10.570  15.036  68.206  1.00  0.00    -0.242 NA 
HETATM   10  H   UNL     1     -10.775  15.726  67.482  1.00  0.00     0.000 HD 
BRANCH   9  11
HETATM   11  C   UNL     1     -11.170  15.231  69.405  1.00  0.00    -0.285 A  
HETATM   12  N   UNL     1     -10.840  16.059  70.352  1.00  0.00    -0.317 NA 
HETATM   13  C   UNL     1     -11.905  15.929  71.373  1.00  0.00    -0.463 A  
HETATM   14  H   UNL     1     -10.022  16.667  70.385  1.00  0.00     0.000 HD 
HETATM   15  C   UNL     1     -12.861  14.843  70.878  1.00  0.00    -0.373 A  
HETATM   16  N   UNL     1     -12.275  14.457  69.612  1.00  0.00    -0.323 NA 
ENDBRANCH   9  11
ENDBRANCH   8   9
TORSDOF 2
ENDMDL
MODEL      130
REMARK 921   NORMALIZED FREE ENERGY PREDICTED BY IDOCK:   -3.41 KCAL/MOL
REMARK 922        TOTAL FREE ENERGY PREDICTED BY IDOCK:   -4.06 KCAL/MOL
REMARK 923 INTER-LIGAND FREE ENERGY PREDICTED BY IDOCK:   -3.83 KCAL/MOL
REMARK 924 INTRA-LIGAND FREE ENERGY PREDICTED BY IDOCK:   -0.23 KCAL/MOL
REMARK 927      BINDING AFFINITY PREDICTED BY RF-SCORE:    0.00 PKD
ROOT
HETATM    1 CL   UNL     1     -12.597  12.683  64.937  1.00  0.00    -0.571 Cl 
HETATM    2  C   UNL     1     -11.464  13.876  65.486  1.00  0.00    -0.316 A  
HETATM    3  C   UNL     1     -11.573  15.131  64.866  1.00  0.00    -0.336 A  
HETATM    4  C   UNL     1     -10.608  16.112  65.068  1.00  0.00    -0.301 A  
HETATM    5  C   UNL     1      -9.518  15.840  65.886  1.00  0.00    -0.377 A  
HETATM    6  C   UNL     1      -9.416  14.597  66.522  1.00  0.00    -0.297 A  
HETATM    7 CL   UNL     1      -8.019  14.321  67.516  1.00  0.00    -0.187 Cl 
HETATM    8  C   UNL     1     -10.391  13.585  66.358  1.00  0.00    -0.289 A  
ENDROOT
BRANCH   8   9
HETATM    9  N   UNL     1     -10.261  12.387  67.092  1.00  0.00    -0.215 NA 
HETATM   10  H   UNL     1     -10.747  12.353  67.989  1.00  0.00     0.000 HD 
BRANCH   9  11
HETATM   11  C   UNL     1      -9.566  11.276  66.746  1.00  0.00    -0.193 A  
HETATM   12  N   UNL     1      -8.376  10.913  67.125  1.00  0.00    -0.123 NA 
HETATM   13  C   UNL     1      -8.171   9.570  66.534  1.00  0.00    -0.119 A  
HETATM   14  H   UNL     1      -7.723  11.440  67.704  1.00  0.00     0.000 HD 
HETATM   15  C   UNL     1      -9.417   9.257  65.704  1.00  0.00    -0.256 A  
HETATM   16  N   UNL     1     -10.235  10.435  65.903  1.00  0.00    -0.251 NA 
ENDBRANCH   9  11
ENDBRANCH   8   9
TORSDOF 2
ENDMDL
MODEL      131
REMARK 921   NORMALIZED FREE ENERGY PREDICTED BY IDOCK:   -3.39 KCAL/MOL
REMARK 922        TOTAL FREE ENERGY PREDICTED BY IDOCK:   -4.04 KCAL/MOL
REMARK 923 INTER-LIGAND FREE ENERGY PREDICTED BY IDOCK:   -3.76 KCAL/MOL
REMARK 924 INTRA-LIGAND FREE ENERGY PREDICTED BY IDOCK:   -0.28 KCAL/MOL
REMARK 927      BINDING AFFINITY PREDICTED BY RF-SCORE:    0.00 PKD
ROOT
HETATM    1 CL   UNL     1     -10.460   5.083  69.504  1.00  0.00    -0.238 Cl 
HETATM    2  C   UNL     1     -10.611   6.321  70.710  1.00  0.00    -0.243 A  
HETATM    3  C   UNL     1     -10.445   5.887  72.035  1.00  0.00    -0.259 A  
HETATM    4  C   UNL     1     -10.733   6.729  73.102  1.00  0.00    -0.326 A  
HETATM    5  C   UNL     1     -11.201   8.014  72.852  1.00  0.00    -0.389 A  
HETATM    6  C   UNL     1     -11.348   8.458  71.532  1.00  0.00    -0.276 A  
HETATM    7 CL   UNL     1     -11.953  10.068  71.296  1.00  0.00    -0.461 Cl 
HETATM    8  C   UNL     1     -11.042   7.636  70.423  1.00  0.00    -0.258 A  
ENDROOT
BRANCH   8   9
HETATM    9  N   UNL     1     -11.142   8.179  69.124  1.00  0.00    -0.424 NA 
HETATM   10  H   UNL     1     -12.019   8.007  68.630  1.00  0.00     0.000 HD 
BRANCH   9  11
HETATM   11  C   UNL     1     -10.210   8.900  68.454  1.00  0.00    -0.199 A  
HETATM   12  N   UNL     1      -8.942   8.650  68.308  1.00  0.00    -0.142 NA 
HETATM   13  C   UNL     1      -8.439   9.701  67.393  1.00  0.00    -0.125 A  
HETATM   14  H   UNL     1      -8.407   7.893  68.733  1.00  0.00     0.000 HD 
HETATM   15  C   UNL     1      -9.619  10.627  67.095  1.00  0.00    -0.164 A  
HETATM   16  N   UNL     1     -10.698  10.021  67.846  1.00  0.00    -0.255 NA 
ENDBRANCH   9  11
ENDBRANCH   8   9
TORSDOF 2
ENDMDL
MODEL      132
REMARK 921   NORMALIZED FREE ENERGY PREDICTED BY IDOCK:   -3.38 KCAL/MOL
REMARK 922        TOTAL FREE ENERGY PREDICTED BY IDOCK:   -4.03 KCAL/MOL
REMARK 923 INTER-LIGAND FREE ENERGY PREDICTED BY IDOCK:   -3.81 KCAL/MOL
REMARK 924 INTRA-LIGAND FREE ENERGY PREDICTED BY IDOCK:   -0.22 KCAL/MOL
REMARK 927      BINDING AFFINITY PREDICTED BY RF-SCORE:    0.00 PKD
ROOT
HETATM    1 CL   UNL     1      -9.328   8.760  71.721  1.00  0.00    -0.346 Cl 
HETATM    2  C   UNL     1      -9.762   7.461  70.656  1.00  0.00    -0.175 A  
HETATM    3  C   UNL     1      -9.230   6.208  70.997  1.00  0.00    -0.166 A  
HETATM    4  C   UNL     1      -9.336   5.129  70.127  1.00  0.00    -0.208 A  
HETATM    5  C   UNL     1      -9.969   5.299  68.901  1.00  0.00    -0.250 A  
HETATM    6  C   UNL     1     -10.519   6.542  68.566  1.00  0.00    -0.220 A  
HETATM    7 CL   UNL     1     -11.279   6.686  67.012  1.00  0.00    -0.417 Cl 
HETATM    8  C   UNL     1     -10.450   7.654  69.437  1.00  0.00    -0.220 A  
ENDROOT
BRANCH   8   9
HETATM    9  N   UNL     1     -11.095   8.854  69.064  1.00  0.00    -0.428 NA 
HETATM   10  H   UNL     1     -12.013   9.019  69.480  1.00  0.00     0.000 HD 
BRANCH   9  11
HETATM   11  C   UNL     1     -10.639   9.811  68.220  1.00  0.00    -0.229 A  
HETATM   12  N   UNL     1      -9.445   9.953  67.725  1.00  0.00    -0.140 NA 
HETATM   13  C   UNL     1      -9.547  11.091  66.782  1.00  0.00    -0.190 A  
HETATM   14  H   UNL     1      -8.616   9.401  67.940  1.00  0.00     0.000 HD 
HETATM   15  C   UNL     1     -10.981  11.612  66.870  1.00  0.00    -0.292 A  
HETATM   16  N   UNL     1     -11.584  10.721  67.840  1.00  0.00    -0.532 NA 
ENDBRANCH   9  11
ENDBRANCH   8   9
TORSDOF 2
ENDMDL
MODEL      133
REMARK 921   NORMALIZED FREE ENERGY PREDICTED BY IDOCK:   -3.38 KCAL/MOL
REMARK 922        TOTAL FREE ENERGY PREDICTED BY IDOCK:   -4.03 KCAL/MOL
REMARK 923 INTER-LIGAND FREE ENERGY PREDICTED BY IDOCK:   -3.81 KCAL/MOL
REMARK 924 INTRA-LIGAND FREE ENERGY PREDICTED BY IDOCK:   -0.22 KCAL/MOL
REMARK 927      BINDING AFFINITY PREDICTED BY RF-SCORE:    0.00 PKD
ROOT
HETATM    1 CL   UNL     1     -13.235   7.103  71.263  1.00  0.00    -0.400 Cl 
HETATM    2  C   UNL     1     -11.552   6.697  71.154  1.00  0.00    -0.332 A  
HETATM    3  C   UNL     1     -11.086   5.817  72.143  1.00  0.00    -0.327 A  
HETATM    4  C   UNL     1      -9.726   5.566  72.290  1.00  0.00    -0.181 A  
HETATM    5  C   UNL     1      -8.819   6.204  71.452  1.00  0.00    -0.139 A  
HETATM    6  C   UNL     1      -9.282   7.066  70.451  1.00  0.00    -0.156 A  
HETATM    7 CL   UNL     1      -8.090   7.841  69.453  1.00  0.00    -0.124 Cl 
HETATM    8  C   UNL     1     -10.658   7.326  70.258  1.00  0.00    -0.229 A  
ENDROOT
BRANCH   8   9
HETATM    9  N   UNL     1     -11.053   8.147  69.179  1.00  0.00    -0.424 NA 
HETATM   10  H   UNL     1     -11.126   7.690  68.269  1.00  0.00     0.000 HD 
BRANCH   9  11
HETATM   11  C   UNL     1     -11.346   9.469  69.210  1.00  0.00     0.095 A  
HETATM   12  N   UNL     1     -11.675  10.250  68.224  1.00  0.00    -0.719 NA 
HETATM   13  C   UNL     1     -11.994  11.555  68.848  1.00  0.00    -0.299 A  
HETATM   14  H   UNL     1     -11.706  10.015  67.232  1.00  0.00     0.000 HD 
HETATM   15  C   UNL     1     -11.730  11.404  70.346  1.00  0.00    -0.268 A  
HETATM   16  N   UNL     1     -11.301  10.025  70.456  1.00  0.00    -0.310 NA 
ENDBRANCH   9  11
ENDBRANCH   8   9
TORSDOF 2
ENDMDL
MODEL      134
REMARK 921   NORMALIZED FREE ENERGY PREDICTED BY IDOCK:   -3.37 KCAL/MOL
REMARK 922        TOTAL FREE ENERGY PREDICTED BY IDOCK:   -4.02 KCAL/MOL
REMARK 923 INTER-LIGAND FREE ENERGY PREDICTED BY IDOCK:   -3.71 KCAL/MOL
REMARK 924 INTRA-LIGAND FREE ENERGY PREDICTED BY IDOCK:   -0.31 KCAL/MOL
REMARK 927      BINDING AFFINITY PREDICTED BY RF-SCORE:    0.00 PKD
ROOT
HETATM    1 CL   UNL     1      -9.906  11.120  66.182  1.00  0.00    -0.251 Cl 
HETATM    2  C   UNL     1      -9.451  10.482  67.729  1.00  0.00    -0.149 A  
HETATM    3  C   UNL     1      -8.209   9.828  67.763  1.00  0.00    -0.114 A  
HETATM    4  C   UNL     1      -7.815   9.105  68.882  1.00  0.00    -0.094 A  
HETATM    5  C   UNL     1      -8.668   9.021  69.977  1.00  0.00    -0.164 A  
HETATM    6  C   UNL     1      -9.898   9.689  69.955  1.00  0.00    -0.246 A  
HETATM    7 CL   UNL     1     -10.918   9.525  71.351  1.00  0.00    -0.435 Cl 
HETATM    8  C   UNL     1     -10.320  10.453  68.843  1.00  0.00    -0.209 A  
ENDROOT
BRANCH   8   9
HETATM    9  N   UNL     1     -11.539  11.161  68.925  1.00  0.00    -0.290 NA 
HETATM   10  H   UNL     1     -12.370  10.666  68.597  1.00  0.00     0.000 HD 
BRANCH   9  11
HETATM   11  C   UNL     1     -11.735  12.420  69.386  1.00  0.00    -0.322 A  
HETATM   12  N   UNL     1     -12.103  12.801  70.573  1.00  0.00    -0.508 NA 
HETATM   13  C   UNL     1     -12.043  14.281  70.546  1.00  0.00    -0.343 A  
HETATM   14  H   UNL     1     -12.376  12.208  71.357  1.00  0.00     0.000 HD 
HETATM   15  C   UNL     1     -11.640  14.680  69.126  1.00  0.00    -0.301 A  
HETATM   16  N   UNL     1     -11.487  13.399  68.467  1.00  0.00    -0.287 NA 
ENDBRANCH   9  11
ENDBRANCH   8   9
TORSDOF 2
ENDMDL
MODEL      135
REMARK 921   NORMALIZED FREE ENERGY PREDICTED BY IDOCK:   -3.37 KCAL/MOL
REMARK 922        TOTAL FREE ENERGY PREDICTED BY IDOCK:   -4.02 KCAL/MOL
REMARK 923 INTER-LIGAND FREE ENERGY PREDICTED BY IDOCK:   -3.87 KCAL/MOL
REMARK 924 INTRA-LIGAND FREE ENERGY PREDICTED BY IDOCK:   -0.15 KCAL/MOL
REMARK 927      BINDING AFFINITY PREDICTED BY RF-SCORE:    0.00 PKD
ROOT
HETATM    1 CL   UNL     1     -10.099   8.680  68.534  1.00  0.00    -0.202 Cl 
HETATM    2  C   UNL     1     -10.963   9.710  69.631  1.00  0.00    -0.229 A  
HETATM    3  C   UNL     1     -11.738   9.041  70.591  1.00  0.00    -0.237 A  
HETATM    4  C   UNL     1     -12.628   9.738  71.400  1.00  0.00    -0.482 A  
HETATM    5  C   UNL     1     -12.758  11.114  71.246  1.00  0.00    -0.531 A  
HETATM    6  C   UNL     1     -11.972  11.787  70.303  1.00  0.00    -0.343 A  
HETATM    7 CL   UNL     1     -12.200  13.502  70.154  1.00  0.00    -0.408 Cl 
HETATM    8  C   UNL     1     -11.040  11.113  69.481  1.00  0.00    -0.252 A  
ENDROOT
BRANCH   8   9
HETATM    9  N   UNL     1     -10.228  11.869  68.608  1.00  0.00    -0.283 NA 
HETATM   10  H   UNL     1     -10.706  12.571  68.042  1.00  0.00     0.000 HD 
BRANCH   9  11
HETATM   11  C   UNL     1      -8.887  11.772  68.433  1.00  0.00    -0.161 A  
HETATM   12  N   UNL     1      -7.964  11.580  69.328  1.00  0.00    -0.361 NA 
HETATM   13  C   UNL     1      -6.702  11.442  68.564  1.00  0.00    -0.069 A  
HETATM   14  H   UNL     1      -8.083  11.534  70.340  1.00  0.00     0.000 HD 
HETATM   15  C   UNL     1      -7.052  11.651  67.091  1.00  0.00    -0.143 A  
HETATM   16  N   UNL     1      -8.483  11.872  67.132  1.00  0.00    -0.167 NA 
ENDBRANCH   9  11
ENDBRANCH   8   9
TORSDOF 2
ENDMDL
MODEL      136
REMARK 921   NORMALIZED FREE ENERGY PREDICTED BY IDOCK:   -3.36 KCAL/MOL
REMARK 922        TOTAL FREE ENERGY PREDICTED BY IDOCK:   -4.01 KCAL/MOL
REMARK 923 INTER-LIGAND FREE ENERGY PREDICTED BY IDOCK:   -3.78 KCAL/MOL
REMARK 924 INTRA-LIGAND FREE ENERGY PREDICTED BY IDOCK:   -0.23 KCAL/MOL
REMARK 927      BINDING AFFINITY PREDICTED BY RF-SCORE:    0.00 PKD
ROOT
HETATM    1 CL   UNL     1     -10.101   5.389  68.647  1.00  0.00    -0.235 Cl 
HETATM    2  C   UNL     1     -10.507   7.075  68.613  1.00  0.00    -0.204 A  
HETATM    3  C   UNL     1     -10.181   7.743  67.423  1.00  0.00    -0.320 A  
HETATM    4  C   UNL     1     -10.271   9.128  67.335  1.00  0.00    -0.310 A  
HETATM    5  C   UNL     1     -10.679   9.858  68.445  1.00  0.00    -0.271 A  
HETATM    6  C   UNL     1     -11.025   9.193  69.628  1.00  0.00    -0.153 A  
HETATM    7 CL   UNL     1     -11.510  10.170  70.979  1.00  0.00    -0.445 Cl 
HETATM    8  C   UNL     1     -10.968   7.785  69.745  1.00  0.00    -0.158 A  
ENDROOT
BRANCH   8   9
HETATM    9  N   UNL     1     -11.406   7.181  70.943  1.00  0.00    -0.275 NA 
HETATM   10  H   UNL     1     -12.360   6.819  70.942  1.00  0.00     0.000 HD 
BRANCH   9  11
HETATM   11  C   UNL     1     -10.708   7.026  72.094  1.00  0.00    -0.218 A  
HETATM   12  N   UNL     1     -11.082   7.290  73.311  1.00  0.00    -0.569 NA 
HETATM   13  C   UNL     1      -9.972   6.820  74.172  1.00  0.00    -0.342 A  
HETATM   14  H   UNL     1     -11.954   7.727  73.610  1.00  0.00     0.000 HD 
HETATM   15  C   UNL     1      -8.877   6.304  73.238  1.00  0.00    -0.125 A  
HETATM   16  N   UNL     1      -9.458   6.504  71.927  1.00  0.00    -0.152 NA 
ENDBRANCH   9  11
ENDBRANCH   8   9
TORSDOF 2
ENDMDL
MODEL      137
REMARK 921   NORMALIZED FREE ENERGY PREDICTED BY IDOCK:   -3.35 KCAL/MOL
REMARK 922        TOTAL FREE ENERGY PREDICTED BY IDOCK:   -4.00 KCAL/MOL
REMARK 923 INTER-LIGAND FREE ENERGY PREDICTED BY IDOCK:   -4.07 KCAL/MOL
REMARK 924 INTRA-LIGAND FREE ENERGY PREDICTED BY IDOCK:    0.07 KCAL/MOL
REMARK 927      BINDING AFFINITY PREDICTED BY RF-SCORE:    0.00 PKD
ROOT
HETATM    1 CL   UNL     1      -8.289  11.091  67.045  1.00  0.00    -0.132 Cl 
HETATM    2  C   UNL     1      -9.749  11.914  66.599  1.00  0.00    -0.205 A  
HETATM    3  C   UNL     1     -10.554  12.325  67.673  1.00  0.00    -0.238 A  
HETATM    4  C   UNL     1     -11.836  12.817  67.455  1.00  0.00    -0.404 A  
HETATM    5  C   UNL     1     -12.328  12.891  66.157  1.00  0.00    -0.266 A  
HETATM    6  C   UNL     1     -11.521  12.501  65.081  1.00  0.00    -0.328 A  
HETATM    7 CL   UNL     1     -12.208  12.605  63.490  1.00  0.00    -0.622 Cl 
HETATM    8  C   UNL     1     -10.204  12.020  65.265  1.00  0.00    -0.271 A  
ENDROOT
BRANCH   8   9
HETATM    9  N   UNL     1      -9.423  11.719  64.128  1.00  0.00    -0.456 NA 
HETATM   10  H   UNL     1      -9.078  12.517  63.594  1.00  0.00     0.000 HD 
BRANCH   9  11
HETATM   11  C   UNL     1      -9.078  10.494  63.662  1.00  0.00    -0.239 A  
HETATM   12  N   UNL     1      -9.630   9.803  62.709  1.00  0.00    -0.555 NA 
HETATM   13  C   UNL     1      -8.777   8.603  62.551  1.00  0.00    -0.075 A  
HETATM   14  H   UNL     1     -10.472  10.037  62.183  1.00  0.00     0.000 HD 
HETATM   15  C   UNL     1      -7.683   8.695  63.615  1.00  0.00    -0.136 A  
HETATM   16  N   UNL     1      -7.991   9.944  64.280  1.00  0.00    -0.140 NA 
ENDBRANCH   9  11
ENDBRANCH   8   9
TORSDOF 2
ENDMDL
MODEL      138
REMARK 921   NORMALIZED FREE ENERGY PREDICTED BY IDOCK:   -3.35 KCAL/MOL
REMARK 922        TOTAL FREE ENERGY PREDICTED BY IDOCK:   -3.99 KCAL/MOL
REMARK 923 INTER-LIGAND FREE ENERGY PREDICTED BY IDOCK:   -3.71 KCAL/MOL
REMARK 924 INTRA-LIGAND FREE ENERGY PREDICTED BY IDOCK:   -0.29 KCAL/MOL
REMARK 927      BINDING AFFINITY PREDICTED BY RF-SCORE:    0.00 PKD
ROOT
HETATM    1 CL   UNL     1     -10.700   9.323  67.614  1.00  0.00    -0.318 Cl 
HETATM    2  C   UNL     1      -9.722   7.952  68.031  1.00  0.00    -0.159 A  
HETATM    3  C   UNL     1      -8.441   7.937  67.459  1.00  0.00    -0.123 A  
HETATM    4  C   UNL     1      -7.632   6.810  67.550  1.00  0.00    -0.106 A  
HETATM    5  C   UNL     1      -8.106   5.681  68.207  1.00  0.00    -0.103 A  
HETATM    6  C   UNL     1      -9.376   5.698  68.797  1.00  0.00    -0.123 A  
HETATM    7 CL   UNL     1      -9.908   4.247  69.587  1.00  0.00    -0.283 Cl 
HETATM    8  C   UNL     1     -10.215   6.835  68.744  1.00  0.00    -0.175 A  
ENDROOT
BRANCH   8   9
HETATM    9  N   UNL     1     -11.449   6.805  69.428  1.00  0.00    -0.598 NA 
HETATM   10  H   UNL     1     -12.192   6.257  68.992  1.00  0.00     0.000 HD 
BRANCH   9  11
HETATM   11  C   UNL     1     -11.764   7.419  70.594  1.00  0.00    -0.242 A  
HETATM   12  N   UNL     1     -12.788   8.174  70.863  1.00  0.00    -0.497 NA 
HETATM   13  C   UNL     1     -12.686   8.470  72.311  1.00  0.00    -0.367 A  
HETATM   14  H   UNL     1     -13.508   8.494  70.215  1.00  0.00     0.000 HD 
HETATM   15  C   UNL     1     -11.400   7.811  72.807  1.00  0.00    -0.389 A  
HETATM   16  N   UNL     1     -10.884   7.179  71.610  1.00  0.00    -0.224 NA 
ENDBRANCH   9  11
ENDBRANCH   8   9
TORSDOF 2
ENDMDL
MODEL      139
REMARK 921   NORMALIZED FREE ENERGY PREDICTED BY IDOCK:   -3.34 KCAL/MOL
REMARK 922        TOTAL FREE ENERGY PREDICTED BY IDOCK:   -3.98 KCAL/MOL
REMARK 923 INTER-LIGAND FREE ENERGY PREDICTED BY IDOCK:   -3.71 KCAL/MOL
REMARK 924 INTRA-LIGAND FREE ENERGY PREDICTED BY IDOCK:   -0.27 KCAL/MOL
REMARK 927      BINDING AFFINITY PREDICTED BY RF-SCORE:    0.00 PKD
ROOT
HETATM    1 CL   UNL     1     -10.085  17.051  68.441  1.00  0.00    -0.283 Cl 
HETATM    2  C   UNL     1      -8.973  15.720  68.399  1.00  0.00    -0.187 A  
HETATM    3  C   UNL     1      -7.645  16.042  68.717  1.00  0.00    -0.184 A  
HETATM    4  C   UNL     1      -6.623  15.118  68.531  1.00  0.00    -0.099 A  
HETATM    5  C   UNL     1      -6.923  13.863  68.014  1.00  0.00    -0.142 A  
HETATM    6  C   UNL     1      -8.250  13.531  67.715  1.00  0.00    -0.176 A  
HETATM    7 CL   UNL     1      -8.547  11.952  67.056  1.00  0.00    -0.171 Cl 
HETATM    8  C   UNL     1      -9.316  14.438  67.913  1.00  0.00    -0.203 A  
ENDROOT
BRANCH   8   9
HETATM    9  N   UNL     1     -10.636  14.005  67.662  1.00  0.00    -0.248 NA 
HETATM   10  H   UNL     1     -11.162  13.670  68.470  1.00  0.00     0.000 HD 
BRANCH   9  11
HETATM   11  C   UNL     1     -11.286  13.982  66.473  1.00  0.00    -0.336 A  
HETATM   12  N   UNL     1     -11.271  14.869  65.523  1.00  0.00    -0.342 NA 
HETATM   13  C   UNL     1     -12.062  14.275  64.420  1.00  0.00    -0.468 A  
HETATM   14  H   UNL     1     -10.812  15.780  65.533  1.00  0.00     0.000 HD 
HETATM   15  C   UNL     1     -12.584  12.930  64.926  1.00  0.00    -0.458 A  
HETATM   16  N   UNL     1     -12.034  12.859  66.264  1.00  0.00    -0.413 NA 
ENDBRANCH   9  11
ENDBRANCH   8   9
TORSDOF 2
ENDMDL
MODEL      140
REMARK 921   NORMALIZED FREE ENERGY PREDICTED BY IDOCK:   -3.33 KCAL/MOL
REMARK 922        TOTAL FREE ENERGY PREDICTED BY IDOCK:   -3.98 KCAL/MOL
REMARK 923 INTER-LIGAND FREE ENERGY PREDICTED BY IDOCK:   -3.69 KCAL/MOL
REMARK 924 INTRA-LIGAND FREE ENERGY PREDICTED BY IDOCK:   -0.28 KCAL/MOL
REMARK 927      BINDING AFFINITY PREDICTED BY RF-SCORE:    0.00 PKD
ROOT
HETATM    1 CL   UNL     1      -9.402  12.099  66.350  1.00  0.00    -0.224 Cl 
HETATM    2  C   UNL     1      -9.175  10.385  66.493  1.00  0.00    -0.160 A  
HETATM    3  C   UNL     1      -7.973   9.896  65.958  1.00  0.00    -0.114 A  
HETATM    4  C   UNL     1      -7.754   8.529  65.829  1.00  0.00    -0.098 A  
HETATM    5  C   UNL     1      -8.744   7.638  66.227  1.00  0.00    -0.170 A  
HETATM    6  C   UNL     1      -9.937   8.121  66.780  1.00  0.00    -0.279 A  
HETATM    7 CL   UNL     1     -11.135   6.951  67.237  1.00  0.00    -0.398 Cl 
HETATM    8  C   UNL     1     -10.183   9.503  66.947  1.00  0.00    -0.249 A  
ENDROOT
BRANCH   8   9
HETATM    9  N   UNL     1     -11.375   9.913  67.583  1.00  0.00    -0.494 NA 
HETATM   10  H   UNL     1     -12.175  10.080  66.972  1.00  0.00     0.000 HD 
BRANCH   9  11
HETATM   11  C   UNL     1     -11.581  10.109  68.908  1.00  0.00     0.009 A  
HETATM   12  N   UNL     1     -11.409   9.272  69.888  1.00  0.00    -0.423 NA 
HETATM   13  C   UNL     1     -11.673  10.052  71.119  1.00  0.00    -0.387 A  
HETATM   14  H   UNL     1     -11.149   8.288  69.823  1.00  0.00     0.000 HD 
HETATM   15  C   UNL     1     -12.085  11.455  70.673  1.00  0.00    -0.372 A  
HETATM   16  N   UNL     1     -12.006  11.366  69.229  1.00  0.00    -0.334 NA 
ENDBRANCH   9  11
ENDBRANCH   8   9
TORSDOF 2
ENDMDL
MODEL      141
REMARK 921   NORMALIZED FREE ENERGY PREDICTED BY IDOCK:   -3.32 KCAL/MOL
REMARK 922        TOTAL FREE ENERGY PREDICTED BY IDOCK:   -3.97 KCAL/MOL
REMARK 923 INTER-LIGAND FREE ENERGY PREDICTED BY IDOCK:   -3.82 KCAL/MOL
REMARK 924 INTRA-LIGAND FREE ENERGY PREDICTED BY IDOCK:   -0.15 KCAL/MOL
REMARK 927      BINDING AFFINITY PREDICTED BY RF-SCORE:    0.00 PKD
ROOT
HETATM    1 CL   UNL     1      -9.804  11.125  68.589  1.00  0.00    -0.199 Cl 
HETATM    2  C   UNL     1      -9.799  10.491  66.974  1.00  0.00    -0.183 A  
HETATM    3  C   UNL     1      -9.001   9.352  66.783  1.00  0.00    -0.152 A  
HETATM    4  C   UNL     1      -8.753   8.862  65.506  1.00  0.00    -0.215 A  
HETATM    5  C   UNL     1      -9.294   9.517  64.406  1.00  0.00    -0.120 A  
HETATM    6  C   UNL     1     -10.107  10.641  64.593  1.00  0.00    -0.349 A  
HETATM    7 CL   UNL     1     -10.735  11.417  63.172  1.00  0.00    -0.315 Cl 
HETATM    8  C   UNL     1     -10.400  11.152  65.878  1.00  0.00    -0.259 A  
ENDROOT
BRANCH   8   9
HETATM    9  N   UNL     1     -11.290  12.242  65.993  1.00  0.00    -0.334 NA 
HETATM   10  H   UNL     1     -12.198  12.040  66.413  1.00  0.00     0.000 HD 
BRANCH   9  11
HETATM   11  C   UNL     1     -11.080  13.525  65.611  1.00  0.00    -0.289 A  
HETATM   12  N   UNL     1     -11.886  14.325  64.978  1.00  0.00    -0.377 NA 
HETATM   13  C   UNL     1     -11.185  15.629  64.930  1.00  0.00    -0.369 A  
HETATM   14  H   UNL     1     -12.804  14.102  64.594  1.00  0.00     0.000 HD 
HETATM   15  C   UNL     1      -9.820  15.421  65.586  1.00  0.00    -0.352 A  
HETATM   16  N   UNL     1      -9.860  14.025  65.969  1.00  0.00    -0.307 NA 
ENDBRANCH   9  11
ENDBRANCH   8   9
TORSDOF 2
ENDMDL
MODEL      142
REMARK 921   NORMALIZED FREE ENERGY PREDICTED BY IDOCK:   -3.31 KCAL/MOL
REMARK 922        TOTAL FREE ENERGY PREDICTED BY IDOCK:   -3.96 KCAL/MOL
REMARK 923 INTER-LIGAND FREE ENERGY PREDICTED BY IDOCK:   -3.81 KCAL/MOL
REMARK 924 INTRA-LIGAND FREE ENERGY PREDICTED BY IDOCK:   -0.14 KCAL/MOL
REMARK 927      BINDING AFFINITY PREDICTED BY RF-SCORE:    0.00 PKD
ROOT
HETATM    1 CL   UNL     1     -11.292   6.394  71.502  1.00  0.00    -0.331 Cl 
HETATM    2  C   UNL     1     -11.776   8.060  71.502  1.00  0.00    -0.284 A  
HETATM    3  C   UNL     1     -12.903   8.353  72.286  1.00  0.00    -0.359 A  
HETATM    4  C   UNL     1     -13.512   9.601  72.220  1.00  0.00    -0.488 A  
HETATM    5  C   UNL     1     -13.003  10.565  71.357  1.00  0.00    -0.542 A  
HETATM    6  C   UNL     1     -11.867  10.283  70.589  1.00  0.00    -0.347 A  
HETATM    7 CL   UNL     1     -11.297  11.529  69.522  1.00  0.00    -0.335 Cl 
HETATM    8  C   UNL     1     -11.208   9.034  70.649  1.00  0.00    -0.270 A  
ENDROOT
BRANCH   8   9
HETATM    9  N   UNL     1     -10.024   8.849  69.903  1.00  0.00    -0.183 NA 
HETATM   10  H   UNL     1     -10.036   9.201  68.945  1.00  0.00     0.000 HD 
BRANCH   9  11
HETATM   11  C   UNL     1      -8.874   8.259  70.309  1.00  0.00    -0.141 A  
HETATM   12  N   UNL     1      -8.291   7.201  69.828  1.00  0.00    -0.131 NA 
HETATM   13  C   UNL     1      -7.018   7.082  70.575  1.00  0.00    -0.062 A  
HETATM   14  H   UNL     1      -8.637   6.584  69.093  1.00  0.00     0.000 HD 
HETATM   15  C   UNL     1      -7.003   8.211  71.605  1.00  0.00    -0.072 A  
HETATM   16  N   UNL     1      -8.257   8.891  71.351  1.00  0.00    -0.268 NA 
ENDBRANCH   9  11
ENDBRANCH   8   9
TORSDOF 2
ENDMDL
MODEL      143
REMARK 921   NORMALIZED FREE ENERGY PREDICTED BY IDOCK:   -3.31 KCAL/MOL
REMARK 922        TOTAL FREE ENERGY PREDICTED BY IDOCK:   -3.95 KCAL/MOL
REMARK 923 INTER-LIGAND FREE ENERGY PREDICTED BY IDOCK:   -3.68 KCAL/MOL
REMARK 924 INTRA-LIGAND FREE ENERGY PREDICTED BY IDOCK:   -0.27 KCAL/MOL
REMARK 927      BINDING AFFINITY PREDICTED BY RF-SCORE:    0.00 PKD
ROOT
HETATM    1 CL   UNL     1      -9.961  11.523  65.892  1.00  0.00    -0.253 Cl 
HETATM    2  C   UNL     1     -10.551  11.625  67.520  1.00  0.00    -0.209 A  
HETATM    3  C   UNL     1     -10.521  10.421  68.241  1.00  0.00    -0.221 A  
HETATM    4  C   UNL     1     -11.142  10.317  69.481  1.00  0.00    -0.310 A  
HETATM    5  C   UNL     1     -11.809  11.418  70.005  1.00  0.00    -0.440 A  
HETATM    6  C   UNL     1     -11.824  12.626  69.298  1.00  0.00    -0.302 A  
HETATM    7 CL   UNL     1     -12.691  13.953  70.006  1.00  0.00    -0.216 Cl 
HETATM    8  C   UNL     1     -11.183  12.774  68.046  1.00  0.00    -0.270 A  
ENDROOT
BRANCH   8   9
HETATM    9  N   UNL     1     -11.175  14.044  67.429  1.00  0.00    -0.300 NA 
HETATM   10  H   UNL     1     -12.071  14.374  67.068  1.00  0.00     0.000 HD 
BRANCH   9  11
HETATM   11  C   UNL     1     -10.118  14.875  67.260  1.00  0.00    -0.235 A  
HETATM   12  N   UNL     1      -9.056  14.997  68.000  1.00  0.00    -0.176 NA 
HETATM   13  C   UNL     1      -8.190  15.962  67.284  1.00  0.00    -0.185 A  
HETATM   14  H   UNL     1      -8.860  14.528  68.884  1.00  0.00     0.000 HD 
HETATM   15  C   UNL     1      -8.964  16.417  66.047  1.00  0.00    -0.272 A  
HETATM   16  N   UNL     1     -10.197  15.663  66.148  1.00  0.00    -0.291 NA 
ENDBRANCH   9  11
ENDBRANCH   8   9
TORSDOF 2
ENDMDL
MODEL      144
REMARK 921   NORMALIZED FREE ENERGY PREDICTED BY IDOCK:   -3.31 KCAL/MOL
REMARK 922        TOTAL FREE ENERGY PREDICTED BY IDOCK:   -3.95 KCAL/MOL
REMARK 923 INTER-LIGAND FREE ENERGY PREDICTED BY IDOCK:   -3.69 KCAL/MOL
REMARK 924 INTRA-LIGAND FREE ENERGY PREDICTED BY IDOCK:   -0.26 KCAL/MOL
REMARK 927      BINDING AFFINITY PREDICTED BY RF-SCORE:    0.00 PKD
ROOT
HETATM    1 CL   UNL     1     -10.973   7.874  73.087  1.00  0.00    -0.400 Cl 
HETATM    2  C   UNL     1      -9.648   8.290  72.048  1.00  0.00    -0.248 A  
HETATM    3  C   UNL     1      -8.388   7.851  72.485  1.00  0.00    -0.191 A  
HETATM    4  C   UNL     1      -7.226   8.282  71.855  1.00  0.00    -0.100 A  
HETATM    5  C   UNL     1      -7.315   9.167  70.787  1.00  0.00    -0.120 A  
HETATM    6  C   UNL     1      -8.571   9.591  70.335  1.00  0.00    -0.206 A  
HETATM    7 CL   UNL     1      -8.605  10.709  69.008  1.00  0.00    -0.155 Cl 
HETATM    8  C   UNL     1      -9.774   9.154  70.937  1.00  0.00    -0.284 A  
ENDROOT
BRANCH   8   9
HETATM    9  N   UNL     1     -11.004   9.563  70.379  1.00  0.00    -0.257 NA 
HETATM   10  H   UNL     1     -11.316   9.051  69.553  1.00  0.00     0.000 HD 
BRANCH   9  11
HETATM   11  C   UNL     1     -11.818  10.557  70.810  1.00  0.00    -0.365 A  
HETATM   12  N   UNL     1     -12.691  10.529  71.774  1.00  0.00    -0.428 NA 
HETATM   13  C   UNL     1     -13.203  11.915  71.878  1.00  0.00    -0.362 A  
HETATM   14  H   UNL     1     -12.965   9.725  72.338  1.00  0.00     0.000 HD 
HETATM   15  C   UNL     1     -12.523  12.721  70.770  1.00  0.00    -0.271 A  
HETATM   16  N   UNL     1     -11.668  11.737  70.139  1.00  0.00    -0.304 NA 
ENDBRANCH   9  11
ENDBRANCH   8   9
TORSDOF 2
ENDMDL
MODEL      145
REMARK 921   NORMALIZED FREE ENERGY PREDICTED BY IDOCK:   -3.30 KCAL/MOL
REMARK 922        TOTAL FREE ENERGY PREDICTED BY IDOCK:   -3.94 KCAL/MOL
REMARK 923 INTER-LIGAND FREE ENERGY PREDICTED BY IDOCK:   -3.69 KCAL/MOL
REMARK 924 INTRA-LIGAND FREE ENERGY PREDICTED BY IDOCK:   -0.25 KCAL/MOL
REMARK 927      BINDING AFFINITY PREDICTED BY RF-SCORE:    0.00 PKD
ROOT
HETATM    1 CL   UNL     1     -12.683  10.190  71.485  1.00  0.00    -0.500 Cl 
HETATM    2  C   UNL     1     -11.584  10.798  70.288  1.00  0.00    -0.338 A  
HETATM    3  C   UNL     1     -12.063  11.879  69.532  1.00  0.00    -0.288 A  
HETATM    4  C   UNL     1     -11.368  12.332  68.417  1.00  0.00    -0.340 A  
HETATM    5  C   UNL     1     -10.190  11.698  68.042  1.00  0.00    -0.202 A  
HETATM    6  C   UNL     1      -9.698  10.632  68.805  1.00  0.00    -0.189 A  
HETATM    7 CL   UNL     1      -8.230   9.877  68.266  1.00  0.00    -0.108 Cl 
HETATM    8  C   UNL     1     -10.366  10.161  69.958  1.00  0.00    -0.250 A  
ENDROOT
BRANCH   8   9
HETATM    9  N   UNL     1      -9.770   9.133  70.721  1.00  0.00    -0.250 NA 
HETATM   10  H   UNL     1      -9.052   9.425  71.385  1.00  0.00     0.000 HD 
BRANCH   9  11
HETATM   11  C   UNL     1     -10.038   7.806  70.673  1.00  0.00    -0.191 A  
HETATM   12  N   UNL     1      -9.790   6.896  71.568  1.00  0.00    -0.170 NA 
HETATM   13  C   UNL     1     -10.399   5.653  71.041  1.00  0.00    -0.233 A  
HETATM   14  H   UNL     1      -9.284   7.013  72.446  1.00  0.00     0.000 HD 
HETATM   15  C   UNL     1     -10.978   5.993  69.668  1.00  0.00    -0.400 A  
HETATM   16  N   UNL     1     -10.670   7.402  69.532  1.00  0.00    -0.237 NA 
ENDBRANCH   9  11
ENDBRANCH   8   9
TORSDOF 2
ENDMDL
MODEL      146
REMARK 921   NORMALIZED FREE ENERGY PREDICTED BY IDOCK:   -3.30 KCAL/MOL
REMARK 922        TOTAL FREE ENERGY PREDICTED BY IDOCK:   -3.94 KCAL/MOL
REMARK 923 INTER-LIGAND FREE ENERGY PREDICTED BY IDOCK:   -3.64 KCAL/MOL
REMARK 924 INTRA-LIGAND FREE ENERGY PREDICTED BY IDOCK:   -0.30 KCAL/MOL
REMARK 927      BINDING AFFINITY PREDICTED BY RF-SCORE:    0.00 PKD
ROOT
HETATM    1 CL   UNL     1      -8.296  11.172  66.075  1.00  0.00    -0.150 Cl 
HETATM    2  C   UNL     1      -9.882  11.875  66.046  1.00  0.00    -0.235 A  
HETATM    3  C   UNL     1     -10.678  11.506  64.950  1.00  0.00    -0.357 A  
HETATM    4  C   UNL     1     -11.887  12.145  64.701  1.00  0.00    -0.400 A  
HETATM    5  C   UNL     1     -12.306  13.168  65.543  1.00  0.00    -0.529 A  
HETATM    6  C   UNL     1     -11.524  13.526  66.649  1.00  0.00    -0.339 A  
HETATM    7 CL   UNL     1     -12.101  14.824  67.647  1.00  0.00    -0.249 Cl 
HETATM    8  C   UNL     1     -10.301  12.881  66.946  1.00  0.00    -0.243 A  
ENDROOT
BRANCH   8   9
HETATM    9  N   UNL     1      -9.606  13.243  68.120  1.00  0.00    -0.223 NA 
HETATM   10  H   UNL     1      -9.897  12.772  68.978  1.00  0.00     0.000 HD 
BRANCH   9  11
HETATM   11  C   UNL     1      -8.600  14.142  68.242  1.00  0.00    -0.175 A  
HETATM   12  N   UNL     1      -7.510  14.240  67.540  1.00  0.00    -0.179 NA 
HETATM   13  C   UNL     1      -6.837  15.464  68.031  1.00  0.00    -0.140 A  
HETATM   14  H   UNL     1      -7.187  13.609  66.806  1.00  0.00     0.000 HD 
HETATM   15  C   UNL     1      -7.693  16.010  69.174  1.00  0.00    -0.231 A  
HETATM   16  N   UNL     1      -8.790  15.067  69.229  1.00  0.00    -0.189 NA 
ENDBRANCH   9  11
ENDBRANCH   8   9
TORSDOF 2
ENDMDL
MODEL      147
REMARK 921   NORMALIZED FREE ENERGY PREDICTED BY IDOCK:   -3.29 KCAL/MOL
REMARK 922        TOTAL FREE ENERGY PREDICTED BY IDOCK:   -3.93 KCAL/MOL
REMARK 923 INTER-LIGAND FREE ENERGY PREDICTED BY IDOCK:   -3.71 KCAL/MOL
REMARK 924 INTRA-LIGAND FREE ENERGY PREDICTED BY IDOCK:   -0.22 KCAL/MOL
REMARK 927      BINDING AFFINITY PREDICTED BY RF-SCORE:    0.00 PKD
ROOT
HETATM    1 CL   UNL     1      -7.989   9.871  70.184  1.00  0.00    -0.197 Cl 
HETATM    2  C   UNL     1      -8.522   9.222  68.666  1.00  0.00    -0.123 A  
HETATM    3  C   UNL     1      -8.114   9.944  67.534  1.00  0.00    -0.110 A  
HETATM    4  C   UNL     1      -8.630   9.650  66.277  1.00  0.00    -0.137 A  
HETATM    5  C   UNL     1      -9.571   8.636  66.145  1.00  0.00    -0.305 A  
HETATM    6  C   UNL     1      -9.966   7.900  67.269  1.00  0.00    -0.215 A  
HETATM    7 CL   UNL     1     -11.158   6.660  67.032  1.00  0.00    -0.473 Cl 
HETATM    8  C   UNL     1      -9.444   8.156  68.558  1.00  0.00    -0.143 A  
ENDROOT
BRANCH   8   9
HETATM    9  N   UNL     1      -9.831   7.323  69.630  1.00  0.00    -0.163 NA 
HETATM   10  H   UNL     1      -9.221   6.529  69.826  1.00  0.00     0.000 HD 
BRANCH   9  11
HETATM   11  C   UNL     1     -10.919   7.454  70.428  1.00  0.00    -0.251 A  
HETATM   12  N   UNL     1     -12.129   7.025  70.227  1.00  0.00    -0.618 NA 
HETATM   13  C   UNL     1     -12.869   7.346  71.469  1.00  0.00    -0.375 A  
HETATM   14  H   UNL     1     -12.492   6.565  69.392  1.00  0.00     0.000 HD 
HETATM   15  C   UNL     1     -11.895   8.086  72.385  1.00  0.00    -0.372 A  
HETATM   16  N   UNL     1     -10.678   8.112  71.601  1.00  0.00    -0.230 NA 
ENDBRANCH   9  11
ENDBRANCH   8   9
TORSDOF 2
ENDMDL
MODEL      148
REMARK 921   NORMALIZED FREE ENERGY PREDICTED BY IDOCK:   -3.28 KCAL/MOL
REMARK 922        TOTAL FREE ENERGY PREDICTED BY IDOCK:   -3.91 KCAL/MOL
REMARK 923 INTER-LIGAND FREE ENERGY PREDICTED BY IDOCK:   -3.62 KCAL/MOL
REMARK 924 INTRA-LIGAND FREE ENERGY PREDICTED BY IDOCK:   -0.29 KCAL/MOL
REMARK 927      BINDING AFFINITY PREDICTED BY RF-SCORE:    0.00 PKD
ROOT
HETATM    1 CL   UNL     1     -11.854  10.394  71.057  1.00  0.00    -0.454 Cl 
HETATM    2  C   UNL     1     -10.974   9.704  69.730  1.00  0.00    -0.240 A  
HETATM    3  C   UNL     1     -10.181  10.608  69.007  1.00  0.00    -0.231 A  
HETATM    4  C   UNL     1      -9.582  10.231  67.810  1.00  0.00    -0.171 A  
HETATM    5  C   UNL     1      -9.783   8.946  67.321  1.00  0.00    -0.235 A  
HETATM    6  C   UNL     1     -10.557   8.035  68.050  1.00  0.00    -0.128 A  
HETATM    7 CL   UNL     1     -10.778   6.453  67.369  1.00  0.00    -0.356 Cl 
HETATM    8  C   UNL     1     -11.160   8.376  69.282  1.00  0.00     0.162 A  
ENDROOT
BRANCH   8   9
HETATM    9  N   UNL     1     -11.862   7.382  69.997  1.00  0.00    -0.502 NA 
HETATM   10  H   UNL     1     -12.786   7.138  69.639  1.00  0.00     0.000 HD 
BRANCH   9  11
HETATM   11  C   UNL     1     -11.454   6.715  71.104  1.00  0.00    -0.320 A  
HETATM   12  N   UNL     1     -12.050   6.610  72.254  1.00  0.00    -0.497 NA 
HETATM   13  C   UNL     1     -11.215   5.677  73.044  1.00  0.00    -0.270 A  
HETATM   14  H   UNL     1     -12.910   7.072  72.550  1.00  0.00     0.000 HD 
HETATM   15  C   UNL     1     -10.010   5.318  72.174  1.00  0.00    -0.184 A  
HETATM   16  N   UNL     1     -10.265   6.060  70.957  1.00  0.00    -0.195 NA 
ENDBRANCH   9  11
ENDBRANCH   8   9
TORSDOF 2
ENDMDL
MODEL      149
REMARK 921   NORMALIZED FREE ENERGY PREDICTED BY IDOCK:   -3.27 KCAL/MOL
REMARK 922        TOTAL FREE ENERGY PREDICTED BY IDOCK:   -3.91 KCAL/MOL
REMARK 923 INTER-LIGAND FREE ENERGY PREDICTED BY IDOCK:   -3.65 KCAL/MOL
REMARK 924 INTRA-LIGAND FREE ENERGY PREDICTED BY IDOCK:   -0.26 KCAL/MOL
REMARK 927      BINDING AFFINITY PREDICTED BY RF-SCORE:    0.00 PKD
ROOT
HETATM    1 CL   UNL     1      -6.629  16.199  67.065  1.00  0.00    -0.207 Cl 
HETATM    2  C   UNL     1      -8.085  16.908  67.686  1.00  0.00    -0.182 A  
HETATM    3  C   UNL     1      -8.139  18.309  67.624  1.00  0.00    -0.249 A  
HETATM    4  C   UNL     1      -9.154  19.012  68.262  1.00  0.00    -0.371 A  
HETATM    5  C   UNL     1     -10.121  18.317  68.979  1.00  0.00    -0.283 A  
HETATM    6  C   UNL     1     -10.082  16.918  69.026  1.00  0.00    -0.292 A  
HETATM    7 CL   UNL     1     -11.312  16.118  69.955  1.00  0.00    -0.330 Cl 
HETATM    8  C   UNL     1      -9.078  16.170  68.370  1.00  0.00    -0.199 A  
ENDROOT
BRANCH   8   9
HETATM    9  N   UNL     1      -9.147  14.761  68.399  1.00  0.00    -0.182 NA 
HETATM   10  H   UNL     1      -8.560  14.295  69.092  1.00  0.00     0.000 HD 
BRANCH   9  11
HETATM   11  C   UNL     1      -9.902  13.953  67.614  1.00  0.00    -0.236 A  
HETATM   12  N   UNL     1     -10.019  13.960  66.319  1.00  0.00    -0.298 NA 
HETATM   13  C   UNL     1     -10.876  12.795  65.998  1.00  0.00    -0.276 A  
HETATM   14  H   UNL     1      -9.609  14.625  65.664  1.00  0.00     0.000 HD 
HETATM   15  C   UNL     1     -11.279  12.163  67.331  1.00  0.00    -0.302 A  
HETATM   16  N   UNL     1     -10.607  13.005  68.299  1.00  0.00    -0.241 NA 
ENDBRANCH   9  11
ENDBRANCH   8   9
TORSDOF 2
ENDMDL
MODEL      150
REMARK 921   NORMALIZED FREE ENERGY PREDICTED BY IDOCK:   -3.25 KCAL/MOL
REMARK 922        TOTAL FREE ENERGY PREDICTED BY IDOCK:   -3.88 KCAL/MOL
REMARK 923 INTER-LIGAND FREE ENERGY PREDICTED BY IDOCK:   -3.70 KCAL/MOL
REMARK 924 INTRA-LIGAND FREE ENERGY PREDICTED BY IDOCK:   -0.18 KCAL/MOL
REMARK 927      BINDING AFFINITY PREDICTED BY RF-SCORE:    0.00 PKD
ROOT
HETATM    1 CL   UNL     1      -7.042  12.261  67.304  1.00  0.00    -0.148 Cl 
HETATM    2  C   UNL     1      -8.518  11.735  66.559  1.00  0.00    -0.125 A  
HETATM    3  C   UNL     1      -8.431  10.527  65.851  1.00  0.00    -0.164 A  
HETATM    4  C   UNL     1      -9.480  10.094  65.047  1.00  0.00    -0.330 A  
HETATM    5  C   UNL     1     -10.624  10.876  64.938  1.00  0.00    -0.304 A  
HETATM    6  C   UNL     1     -10.723  12.072  65.660  1.00  0.00    -0.272 A  
HETATM    7 CL   UNL     1     -12.174  13.005  65.461  1.00  0.00    -0.495 Cl 
HETATM    8  C   UNL     1      -9.685  12.530  66.504  1.00  0.00    -0.246 A  
ENDROOT
BRANCH   8   9
HETATM    9  N   UNL     1      -9.888  13.705  67.259  1.00  0.00    -0.236 NA 
HETATM   10  H   UNL     1     -10.246  13.576  68.206  1.00  0.00     0.000 HD 
BRANCH   9  11
HETATM   11  C   UNL     1      -9.663  14.985  66.874  1.00  0.00    -0.238 A  
HETATM   12  N   UNL     1      -8.527  15.584  66.675  1.00  0.00    -0.275 NA 
HETATM   13  C   UNL     1      -8.878  16.927  66.158  1.00  0.00    -0.244 A  
HETATM   14  H   UNL     1      -7.592  15.210  66.839  1.00  0.00     0.000 HD 
HETATM   15  C   UNL     1     -10.404  17.015  66.157  1.00  0.00    -0.319 A  
HETATM   16  N   UNL     1     -10.798  15.713  66.654  1.00  0.00    -0.299 NA 
ENDBRANCH   9  11
ENDBRANCH   8   9
TORSDOF 2
ENDMDL
MODEL      151
REMARK 921   NORMALIZED FREE ENERGY PREDICTED BY IDOCK:   -3.24 KCAL/MOL
REMARK 922        TOTAL FREE ENERGY PREDICTED BY IDOCK:   -3.87 KCAL/MOL
REMARK 923 INTER-LIGAND FREE ENERGY PREDICTED BY IDOCK:   -3.86 KCAL/MOL
REMARK 924 INTRA-LIGAND FREE ENERGY PREDICTED BY IDOCK:   -0.02 KCAL/MOL
REMARK 927      BINDING AFFINITY PREDICTED BY RF-SCORE:    0.00 PKD
ROOT
HETATM    1 CL   UNL     1     -11.688  14.937  67.484  1.00  0.00    -0.367 Cl 
HETATM    2  C   UNL     1     -10.413  16.097  67.681  1.00  0.00    -0.292 A  
HETATM    3  C   UNL     1     -10.706  17.165  68.544  1.00  0.00    -0.326 A  
HETATM    4  C   UNL     1      -9.855  18.260  68.637  1.00  0.00    -0.400 A  
HETATM    5  C   UNL     1      -8.705  18.299  67.858  1.00  0.00    -0.274 A  
HETATM    6  C   UNL     1      -8.398  17.227  67.012  1.00  0.00    -0.208 A  
HETATM    7 CL   UNL     1      -6.954  17.353  66.056  1.00  0.00    -0.292 Cl 
HETATM    8  C   UNL     1      -9.229  16.087  66.910  1.00  0.00    -0.224 A  
ENDROOT
BRANCH   8   9
HETATM    9  N   UNL     1      -8.815  15.012  66.094  1.00  0.00    -0.472 NA 
HETATM   10  H   UNL     1      -8.287  15.259  65.256  1.00  0.00     0.000 HD 
BRANCH   9  11
HETATM   11  C   UNL     1      -9.038  13.690  66.292  1.00  0.00     0.028 A  
HETATM   12  N   UNL     1      -9.691  12.856  65.539  1.00  0.00    -0.459 NA 
HETATM   13  C   UNL     1      -9.516  11.531  66.179  1.00  0.00    -0.220 A  
HETATM   14  H   UNL     1     -10.213  13.067  64.689  1.00  0.00     0.000 HD 
HETATM   15  C   UNL     1      -8.709  11.761  67.456  1.00  0.00    -0.159 A  
HETATM   16  N   UNL     1      -8.474  13.190  67.431  1.00  0.00    -0.191 NA 
ENDBRANCH   9  11
ENDBRANCH   8   9
TORSDOF 2
ENDMDL
MODEL      152
REMARK 921   NORMALIZED FREE ENERGY PREDICTED BY IDOCK:   -3.21 KCAL/MOL
REMARK 922        TOTAL FREE ENERGY PREDICTED BY IDOCK:   -3.84 KCAL/MOL
REMARK 923 INTER-LIGAND FREE ENERGY PREDICTED BY IDOCK:   -3.59 KCAL/MOL
REMARK 924 INTRA-LIGAND FREE ENERGY PREDICTED BY IDOCK:   -0.25 KCAL/MOL
REMARK 927      BINDING AFFINITY PREDICTED BY RF-SCORE:    0.00 PKD
ROOT
HETATM    1 CL   UNL     1      -8.308  13.386  68.305  1.00  0.00    -0.159 Cl 
HETATM    2  C   UNL     1      -7.792  12.078  67.290  1.00  0.00    -0.170 A  
HETATM    3  C   UNL     1      -6.402  11.916  67.187  1.00  0.00    -0.151 A  
HETATM    4  C   UNL     1      -5.854  11.038  66.259  1.00  0.00    -0.148 A  
HETATM    5  C   UNL     1      -6.695  10.321  65.416  1.00  0.00    -0.123 A  
HETATM    6  C   UNL     1      -8.083  10.465  65.530  1.00  0.00    -0.156 A  
HETATM    7 CL   UNL     1      -9.072   9.551  64.433  1.00  0.00    -0.262 Cl 
HETATM    8  C   UNL     1      -8.675  11.330  66.478  1.00  0.00    -0.178 A  
ENDROOT
BRANCH   8   9
HETATM    9  N   UNL     1     -10.082  11.364  66.586  1.00  0.00    -0.207 NA 
HETATM   10  H   UNL     1     -10.514  10.595  67.101  1.00  0.00     0.000 HD 
BRANCH   9  11
HETATM   11  C   UNL     1     -10.928  12.298  66.087  1.00  0.00    -0.293 A  
HETATM   12  N   UNL     1     -12.168  12.523  66.406  1.00  0.00    -0.555 NA 
HETATM   13  C   UNL     1     -12.558  13.726  65.634  1.00  0.00    -0.509 A  
HETATM   14  H   UNL     1     -12.749  11.986  67.050  1.00  0.00     0.000 HD 
HETATM   15  C   UNL     1     -11.354  14.109  64.775  1.00  0.00    -0.371 A  
HETATM   16  N   UNL     1     -10.372  13.109  65.138  1.00  0.00    -0.309 NA 
ENDBRANCH   9  11
ENDBRANCH   8   9
TORSDOF 2
ENDMDL
MODEL      153
REMARK 921   NORMALIZED FREE ENERGY PREDICTED BY IDOCK:   -3.19 KCAL/MOL
REMARK 922        TOTAL FREE ENERGY PREDICTED BY IDOCK:   -3.81 KCAL/MOL
REMARK 923 INTER-LIGAND FREE ENERGY PREDICTED BY IDOCK:   -3.55 KCAL/MOL
REMARK 924 INTRA-LIGAND FREE ENERGY PREDICTED BY IDOCK:   -0.26 KCAL/MOL
REMARK 927      BINDING AFFINITY PREDICTED BY RF-SCORE:    0.00 PKD
ROOT
HETATM    1 CL   UNL     1      -9.442   8.110  72.813  1.00  0.00    -0.331 Cl 
HETATM    2  C   UNL     1      -9.073   8.368  71.138  1.00  0.00    -0.174 A  
HETATM    3  C   UNL     1      -7.725   8.642  70.859  1.00  0.00    -0.104 A  
HETATM    4  C   UNL     1      -7.329   9.060  69.594  1.00  0.00    -0.064 A  
HETATM    5  C   UNL     1      -8.285   9.217  68.597  1.00  0.00    -0.113 A  
HETATM    6  C   UNL     1      -9.628   8.925  68.865  1.00  0.00    -0.160 A  
HETATM    7 CL   UNL     1     -10.768   9.161  67.576  1.00  0.00    -0.313 Cl 
HETATM    8  C   UNL     1     -10.061   8.476  70.133  1.00  0.00    -0.190 A  
ENDROOT
BRANCH   8   9
HETATM    9  N   UNL     1     -11.418   8.127  70.307  1.00  0.00    -0.457 NA 
HETATM   10  H   UNL     1     -11.754   7.337  69.755  1.00  0.00     0.000 HD 
BRANCH   9  11
HETATM   11  C   UNL     1     -12.327   8.719  71.120  1.00  0.00    -0.219 A  
HETATM   12  N   UNL     1     -13.056   8.178  72.050  1.00  0.00    -0.424 NA 
HETATM   13  C   UNL     1     -13.775   9.305  72.689  1.00  0.00    -0.319 A  
HETATM   14  H   UNL     1     -13.121   7.188  72.289  1.00  0.00     0.000 HD 
HETATM   15  C   UNL     1     -13.381  10.569  71.925  1.00  0.00    -0.355 A  
HETATM   16  N   UNL     1     -12.459  10.065  70.928  1.00  0.00    -0.329 NA 
ENDBRANCH   9  11
ENDBRANCH   8   9
TORSDOF 2
ENDMDL
MODEL      154
REMARK 921   NORMALIZED FREE ENERGY PREDICTED BY IDOCK:   -3.18 KCAL/MOL
REMARK 922        TOTAL FREE ENERGY PREDICTED BY IDOCK:   -3.81 KCAL/MOL
REMARK 923 INTER-LIGAND FREE ENERGY PREDICTED BY IDOCK:   -3.57 KCAL/MOL
REMARK 924 INTRA-LIGAND FREE ENERGY PREDICTED BY IDOCK:   -0.24 KCAL/MOL
REMARK 927      BINDING AFFINITY PREDICTED BY RF-SCORE:    0.00 PKD
ROOT
HETATM    1 CL   UNL     1     -10.208  10.543  66.497  1.00  0.00    -0.279 Cl 
HETATM    2  C   UNL     1     -10.819  10.316  68.105  1.00  0.00    -0.265 A  
HETATM    3  C   UNL     1     -11.782  11.252  68.514  1.00  0.00    -0.378 A  
HETATM    4  C   UNL     1     -12.207  11.305  69.837  1.00  0.00    -0.358 A  
HETATM    5  C   UNL     1     -11.662  10.425  70.765  1.00  0.00    -0.464 A  
HETATM    6  C   UNL     1     -10.717   9.477  70.356  1.00  0.00    -0.284 A  
HETATM    7 CL   UNL     1     -10.067   8.423  71.574  1.00  0.00    -0.269 Cl 
HETATM    8  C   UNL     1     -10.280   9.379  69.015  1.00  0.00    -0.205 A  
ENDROOT
BRANCH   8   9
HETATM    9  N   UNL     1      -9.382   8.348  68.663  1.00  0.00    -0.143 NA 
HETATM   10  H   UNL     1      -8.493   8.334  69.165  1.00  0.00     0.000 HD 
BRANCH   9  11
HETATM   11  C   UNL     1      -9.562   7.375  67.737  1.00  0.00    -0.140 A  
HETATM   12  N   UNL     1      -8.734   6.960  66.825  1.00  0.00    -0.118 NA 
HETATM   13  C   UNL     1      -9.407   5.810  66.178  1.00  0.00    -0.144 A  
HETATM   14  H   UNL     1      -7.816   7.345  66.602  1.00  0.00     0.000 HD 
HETATM   15  C   UNL     1     -10.783   5.681  66.831  1.00  0.00    -0.272 A  
HETATM   16  N   UNL     1     -10.775   6.752  67.806  1.00  0.00    -0.248 NA 
ENDBRANCH   9  11
ENDBRANCH   8   9
TORSDOF 2
ENDMDL
MODEL      155
REMARK 921   NORMALIZED FREE ENERGY PREDICTED BY IDOCK:   -3.18 KCAL/MOL
REMARK 922        TOTAL FREE ENERGY PREDICTED BY IDOCK:   -3.81 KCAL/MOL
REMARK 923 INTER-LIGAND FREE ENERGY PREDICTED BY IDOCK:   -3.61 KCAL/MOL
REMARK 924 INTRA-LIGAND FREE ENERGY PREDICTED BY IDOCK:   -0.19 KCAL/MOL
REMARK 927      BINDING AFFINITY PREDICTED BY RF-SCORE:    0.00 PKD
ROOT
HETATM    1 CL   UNL     1      -8.440  15.106  68.594  1.00  0.00    -0.160 Cl 
HETATM    2  C   UNL     1      -9.149  16.022  67.302  1.00  0.00    -0.204 A  
HETATM    3  C   UNL     1      -9.104  17.416  67.465  1.00  0.00    -0.232 A  
HETATM    4  C   UNL     1      -9.805  18.256  66.608  1.00  0.00    -0.354 A  
HETATM    5  C   UNL     1     -10.568  17.707  65.585  1.00  0.00    -0.137 A  
HETATM    6  C   UNL     1     -10.600  16.318  65.407  1.00  0.00    -0.352 A  
HETATM    7 CL   UNL     1     -11.588  15.702  64.119  1.00  0.00    -0.215 Cl 
HETATM    8  C   UNL     1      -9.880  15.435  66.245  1.00  0.00    -0.297 A  
ENDROOT
BRANCH   8   9
HETATM    9  N   UNL     1      -9.899  14.054  65.957  1.00  0.00    -0.359 NA 
HETATM   10  H   UNL     1      -9.336  13.752  65.161  1.00  0.00     0.000 HD 
BRANCH   9  11
HETATM   11  C   UNL     1     -10.578  13.081  66.613  1.00  0.00    -0.266 A  
HETATM   12  N   UNL     1     -10.490  11.792  66.467  1.00  0.00    -0.223 NA 
HETATM   13  C   UNL     1     -11.368  11.220  67.515  1.00  0.00    -0.288 A  
HETATM   14  H   UNL     1      -9.937  11.283  65.778  1.00  0.00     0.000 HD 
HETATM   15  C   UNL     1     -12.017  12.399  68.239  1.00  0.00    -0.214 A  
HETATM   16  N   UNL     1     -11.446  13.544  67.560  1.00  0.00    -0.311 NA 
ENDBRANCH   9  11
ENDBRANCH   8   9
TORSDOF 2
ENDMDL
MODEL      156
REMARK 921   NORMALIZED FREE ENERGY PREDICTED BY IDOCK:   -3.16 KCAL/MOL
REMARK 922        TOTAL FREE ENERGY PREDICTED BY IDOCK:   -3.78 KCAL/MOL
REMARK 923 INTER-LIGAND FREE ENERGY PREDICTED BY IDOCK:   -3.50 KCAL/MOL
REMARK 924 INTRA-LIGAND FREE ENERGY PREDICTED BY IDOCK:   -0.28 KCAL/MOL
REMARK 927      BINDING AFFINITY PREDICTED BY RF-SCORE:    0.00 PKD
ROOT
HETATM    1 CL   UNL     1     -10.661   5.783  71.075  1.00  0.00    -0.323 Cl 
HETATM    2  C   UNL     1     -10.812   7.470  70.698  1.00  0.00    -0.240 A  
HETATM    3  C   UNL     1     -11.568   8.220  71.613  1.00  0.00    -0.337 A  
HETATM    4  C   UNL     1     -11.931   9.532  71.330  1.00  0.00    -0.464 A  
HETATM    5  C   UNL     1     -11.547  10.102  70.122  1.00  0.00    -0.350 A  
HETATM    6  C   UNL     1     -10.775   9.364  69.217  1.00  0.00    -0.211 A  
HETATM    7 CL   UNL     1     -10.347  10.135  67.721  1.00  0.00    -0.235 Cl 
HETATM    8  C   UNL     1     -10.368   8.036  69.482  1.00  0.00    -0.221 A  
ENDROOT
BRANCH   8   9
HETATM    9  N   UNL     1      -9.527   7.382  68.556  1.00  0.00    -0.144 NA 
HETATM   10  H   UNL     1      -8.537   7.630  68.594  1.00  0.00     0.000 HD 
BRANCH   9  11
HETATM   11  C   UNL     1      -9.878   6.464  67.623  1.00  0.00    -0.121 A  
HETATM   12  N   UNL     1     -11.055   5.970  67.375  1.00  0.00    -0.482 NA 
HETATM   13  C   UNL     1     -10.873   5.106  66.185  1.00  0.00    -0.097 A  
HETATM   14  H   UNL     1     -11.919   6.140  67.889  1.00  0.00     0.000 HD 
HETATM   15  C   UNL     1      -9.384   5.141  65.838  1.00  0.00    -0.159 A  
HETATM   16  N   UNL     1      -8.844   6.033  66.843  1.00  0.00    -0.115 NA 
ENDBRANCH   9  11
ENDBRANCH   8   9
TORSDOF 2
ENDMDL
MODEL      157
REMARK 921   NORMALIZED FREE ENERGY PREDICTED BY IDOCK:   -3.16 KCAL/MOL
REMARK 922        TOTAL FREE ENERGY PREDICTED BY IDOCK:   -3.78 KCAL/MOL
REMARK 923 INTER-LIGAND FREE ENERGY PREDICTED BY IDOCK:   -3.50 KCAL/MOL
REMARK 924 INTRA-LIGAND FREE ENERGY PREDICTED BY IDOCK:   -0.28 KCAL/MOL
REMARK 927      BINDING AFFINITY PREDICTED BY RF-SCORE:    0.00 PKD
ROOT
HETATM    1 CL   UNL     1     -11.138  14.833  65.670  1.00  0.00    -0.332 Cl 
HETATM    2  C   UNL     1     -10.068  14.140  66.847  1.00  0.00    -0.258 A  
HETATM    3  C   UNL     1      -9.483  15.058  67.734  1.00  0.00    -0.195 A  
HETATM    4  C   UNL     1      -8.463  14.667  68.593  1.00  0.00    -0.164 A  
HETATM    5  C   UNL     1      -8.011  13.353  68.564  1.00  0.00    -0.107 A  
HETATM    6  C   UNL     1      -8.605  12.430  67.695  1.00  0.00    -0.172 A  
HETATM    7 CL   UNL     1      -7.978  10.811  67.701  1.00  0.00    -0.109 Cl 
HETATM    8  C   UNL     1      -9.661  12.787  66.825  1.00  0.00    -0.244 A  
ENDROOT
BRANCH   8   9
HETATM    9  N   UNL     1     -10.262  11.785  66.034  1.00  0.00    -0.222 NA 
HETATM   10  H   UNL     1     -11.077  11.321  66.438  1.00  0.00     0.000 HD 
BRANCH   9  11
HETATM   11  C   UNL     1      -9.884  11.366  64.802  1.00  0.00    -0.259 A  
HETATM   12  N   UNL     1      -9.746  12.065  63.714  1.00  0.00    -0.555 NA 
HETATM   13  C   UNL     1      -9.205  11.121  62.709  1.00  0.00    -0.348 A  
HETATM   14  H   UNL     1      -9.965  13.052  63.581  1.00  0.00     0.000 HD 
HETATM   15  C   UNL     1      -9.118   9.754  63.388  1.00  0.00    -0.229 A  
HETATM   16  N   UNL     1      -9.598  10.032  64.726  1.00  0.00    -0.303 NA 
ENDBRANCH   9  11
ENDBRANCH   8   9
TORSDOF 2
ENDMDL
MODEL      158
REMARK 921   NORMALIZED FREE ENERGY PREDICTED BY IDOCK:   -3.14 KCAL/MOL
REMARK 922        TOTAL FREE ENERGY PREDICTED BY IDOCK:   -3.76 KCAL/MOL
REMARK 923 INTER-LIGAND FREE ENERGY PREDICTED BY IDOCK:   -3.50 KCAL/MOL
REMARK 924 INTRA-LIGAND FREE ENERGY PREDICTED BY IDOCK:   -0.26 KCAL/MOL
REMARK 927      BINDING AFFINITY PREDICTED BY RF-SCORE:    0.00 PKD
ROOT
HETATM    1 CL   UNL     1     -10.677   6.371  68.004  1.00  0.00    -0.317 Cl 
HETATM    2  C   UNL     1     -10.552   7.550  69.271  1.00  0.00    -0.210 A  
HETATM    3  C   UNL     1     -10.440   7.023  70.567  1.00  0.00    -0.227 A  
HETATM    4  C   UNL     1     -10.530   7.848  71.682  1.00  0.00    -0.255 A  
HETATM    5  C   UNL     1     -10.744   9.210  71.509  1.00  0.00    -0.437 A  
HETATM    6  C   UNL     1     -10.835   9.743  70.218  1.00  0.00    -0.301 A  
HETATM    7 CL   UNL     1     -11.120  11.450  70.078  1.00  0.00    -0.156 Cl 
HETATM    8  C   UNL     1     -10.725   8.937  69.061  1.00  0.00    -0.126 A  
ENDROOT
BRANCH   8   9
HETATM    9  N   UNL     1     -10.750   9.556  67.793  1.00  0.00    -0.375 NA 
HETATM   10  H   UNL     1     -11.582  10.106  67.577  1.00  0.00     0.000 HD 
BRANCH   9  11
HETATM   11  C   UNL     1      -9.800   9.504  66.828  1.00  0.00    -0.216 A  
HETATM   12  N   UNL     1      -9.884   8.998  65.633  1.00  0.00    -0.465 NA 
HETATM   13  C   UNL     1      -8.595   9.323  64.979  1.00  0.00    -0.177 A  
HETATM   14  H   UNL     1     -10.669   8.485  65.232  1.00  0.00     0.000 HD 
HETATM   15  C   UNL     1      -7.740  10.044  66.022  1.00  0.00    -0.110 A  
HETATM   16  N   UNL     1      -8.615  10.086  67.176  1.00  0.00    -0.128 NA 
ENDBRANCH   9  11
ENDBRANCH   8   9
TORSDOF 2
ENDMDL
MODEL      159
REMARK 921   NORMALIZED FREE ENERGY PREDICTED BY IDOCK:   -3.14 KCAL/MOL
REMARK 922        TOTAL FREE ENERGY PREDICTED BY IDOCK:   -3.76 KCAL/MOL
REMARK 923 INTER-LIGAND FREE ENERGY PREDICTED BY IDOCK:   -3.48 KCAL/MOL
REMARK 924 INTRA-LIGAND FREE ENERGY PREDICTED BY IDOCK:   -0.28 KCAL/MOL
REMARK 927      BINDING AFFINITY PREDICTED BY RF-SCORE:    0.00 PKD
ROOT
HETATM    1 CL   UNL     1      -7.183  14.907  68.350  1.00  0.00    -0.110 Cl 
HETATM    2  C   UNL     1      -8.822  15.399  68.063  1.00  0.00    -0.165 A  
HETATM    3  C   UNL     1      -9.251  16.507  68.809  1.00  0.00    -0.252 A  
HETATM    4  C   UNL     1     -10.590  16.882  68.823  1.00  0.00    -0.355 A  
HETATM    5  C   UNL     1     -11.514  16.141  68.095  1.00  0.00    -0.220 A  
HETATM    6  C   UNL     1     -11.086  15.048  67.332  1.00  0.00    -0.324 A  
HETATM    7 CL   UNL     1     -12.298  14.160  66.462  1.00  0.00    -0.472 Cl 
HETATM    8  C   UNL     1      -9.729  14.653  67.277  1.00  0.00    -0.231 A  
ENDROOT
BRANCH   8   9
HETATM    9  N   UNL     1      -9.362  13.589  66.426  1.00  0.00    -0.421 NA 
HETATM   10  H   UNL     1      -9.111  13.843  65.470  1.00  0.00     0.000 HD 
BRANCH   9  11
HETATM   11  C   UNL     1      -9.305  12.269  66.729  1.00  0.00    -0.218 A  
HETATM   12  N   UNL     1      -9.236  11.709  67.900  1.00  0.00    -0.165 NA 
HETATM   13  C   UNL     1      -9.316  10.252  67.642  1.00  0.00    -0.144 A  
HETATM   14  H   UNL     1      -9.146  12.172  68.804  1.00  0.00     0.000 HD 
HETATM   15  C   UNL     1      -9.377  10.076  66.124  1.00  0.00    -0.173 A  
HETATM   16  N   UNL     1      -9.346  11.442  65.644  1.00  0.00    -0.227 NA 
ENDBRANCH   9  11
ENDBRANCH   8   9
TORSDOF 2
ENDMDL
MODEL      160
REMARK 921   NORMALIZED FREE ENERGY PREDICTED BY IDOCK:   -3.10 KCAL/MOL
REMARK 922        TOTAL FREE ENERGY PREDICTED BY IDOCK:   -3.72 KCAL/MOL
REMARK 923 INTER-LIGAND FREE ENERGY PREDICTED BY IDOCK:   -3.51 KCAL/MOL
REMARK 924 INTRA-LIGAND FREE ENERGY PREDICTED BY IDOCK:   -0.21 KCAL/MOL
REMARK 927      BINDING AFFINITY PREDICTED BY RF-SCORE:    0.00 PKD
ROOT
HETATM    1 CL   UNL     1      -8.308  16.863  68.938  1.00  0.00    -0.238 Cl 
HETATM    2  C   UNL     1      -9.759  15.912  68.945  1.00  0.00    -0.230 A  
HETATM    3  C   UNL     1     -10.718  16.294  69.897  1.00  0.00    -0.322 A  
HETATM    4  C   UNL     1     -11.833  15.501  70.142  1.00  0.00    -0.378 A  
HETATM    5  C   UNL     1     -11.993  14.311  69.442  1.00  0.00    -0.381 A  
HETATM    6  C   UNL     1     -11.050  13.937  68.477  1.00  0.00    -0.265 A  
HETATM    7 CL   UNL     1     -11.306  12.430  67.655  1.00  0.00    -0.343 Cl 
HETATM    8  C   UNL     1      -9.917  14.730  68.185  1.00  0.00    -0.221 A  
ENDROOT
BRANCH   8   9
HETATM    9  N   UNL     1      -9.051  14.327  67.146  1.00  0.00    -0.218 NA 
HETATM   10  H   UNL     1      -9.265  14.688  66.216  1.00  0.00     0.000 HD 
BRANCH   9  11
HETATM   11  C   UNL     1      -7.968  13.517  67.239  1.00  0.00    -0.112 A  
HETATM   12  N   UNL     1      -7.852  12.274  66.876  1.00  0.00    -0.359 NA 
HETATM   13  C   UNL     1      -6.429  11.932  67.102  1.00  0.00    -0.146 A  
HETATM   14  H   UNL     1      -8.585  11.664  66.515  1.00  0.00     0.000 HD 
HETATM   15  C   UNL     1      -5.769  13.168  67.712  1.00  0.00    -0.129 A  
HETATM   16  N   UNL     1      -6.862  14.117  67.769  1.00  0.00    -0.164 NA 
ENDBRANCH   9  11
ENDBRANCH   8   9
TORSDOF 2
ENDMDL
MODEL      161
REMARK 921   NORMALIZED FREE ENERGY PREDICTED BY IDOCK:   -3.09 KCAL/MOL
REMARK 922        TOTAL FREE ENERGY PREDICTED BY IDOCK:   -3.70 KCAL/MOL
REMARK 923 INTER-LIGAND FREE ENERGY PREDICTED BY IDOCK:   -3.37 KCAL/MOL
REMARK 924 INTRA-LIGAND FREE ENERGY PREDICTED BY IDOCK:   -0.33 KCAL/MOL
REMARK 927      BINDING AFFINITY PREDICTED BY RF-SCORE:    0.00 PKD
ROOT
HETATM    1 CL   UNL     1     -12.673  10.026  71.679  1.00  0.00    -0.498 Cl 
HETATM    2  C   UNL     1     -11.644  10.355  70.321  1.00  0.00    -0.327 A  
HETATM    3  C   UNL     1     -11.930  11.543  69.631  1.00  0.00    -0.407 A  
HETATM    4  C   UNL     1     -11.316  11.827  68.417  1.00  0.00    -0.328 A  
HETATM    5  C   UNL     1     -10.417  10.916  67.876  1.00  0.00    -0.227 A  
HETATM    6  C   UNL     1     -10.113   9.739  68.571  1.00  0.00    -0.166 A  
HETATM    7 CL   UNL     1      -8.994   8.640  67.828  1.00  0.00    -0.137 Cl 
HETATM    8  C   UNL     1     -10.701   9.430  69.820  1.00  0.00    -0.234 A  
ENDROOT
BRANCH   8   9
HETATM    9  N   UNL     1     -10.289   8.262  70.497  1.00  0.00    -0.199 NA 
HETATM   10  H   UNL     1     -10.653   7.380  70.136  1.00  0.00     0.000 HD 
BRANCH   9  11
HETATM   11  C   UNL     1      -9.467   8.176  71.571  1.00  0.00    -0.171 A  
HETATM   12  N   UNL     1      -9.774   8.220  72.834  1.00  0.00    -0.265 NA 
HETATM   13  C   UNL     1      -8.506   7.961  73.555  1.00  0.00    -0.228 A  
HETATM   14  H   UNL     1     -10.692   8.397  73.241  1.00  0.00     0.000 HD 
HETATM   15  C   UNL     1      -7.415   7.825  72.493  1.00  0.00    -0.086 A  
HETATM   16  N   UNL     1      -8.149   7.999  71.257  1.00  0.00    -0.098 NA 
ENDBRANCH   9  11
ENDBRANCH   8   9
TORSDOF 2
ENDMDL
MODEL      162
REMARK 921   NORMALIZED FREE ENERGY PREDICTED BY IDOCK:   -3.06 KCAL/MOL
REMARK 922        TOTAL FREE ENERGY PREDICTED BY IDOCK:   -3.67 KCAL/MOL
REMARK 923 INTER-LIGAND FREE ENERGY PREDICTED BY IDOCK:   -3.82 KCAL/MOL
REMARK 924 INTRA-LIGAND FREE ENERGY PREDICTED BY IDOCK:    0.15 KCAL/MOL
REMARK 927      BINDING AFFINITY PREDICTED BY RF-SCORE:    0.00 PKD
ROOT
HETATM    1 CL   UNL     1     -10.304  10.653  68.118  1.00  0.00    -0.192 Cl 
HETATM    2  C   UNL     1     -10.462   8.940  68.337  1.00  0.00    -0.187 A  
HETATM    3  C   UNL     1     -10.472   8.186  67.152  1.00  0.00    -0.396 A  
HETATM    4  C   UNL     1     -10.788   6.833  67.172  1.00  0.00    -0.462 A  
HETATM    5  C   UNL     1     -11.108   6.223  68.379  1.00  0.00    -0.371 A  
HETATM    6  C   UNL     1     -11.079   6.966  69.565  1.00  0.00    -0.228 A  
HETATM    7 CL   UNL     1     -11.506   6.143  71.033  1.00  0.00    -0.357 Cl 
HETATM    8  C   UNL     1     -10.739   8.338  69.585  1.00  0.00    -0.194 A  
ENDROOT
BRANCH   8   9
HETATM    9  N   UNL     1     -10.656   9.003  70.828  1.00  0.00    -0.221 NA 
HETATM   10  H   UNL     1     -11.270   9.809  70.949  1.00  0.00     0.000 HD 
BRANCH   9  11
HETATM   11  C   UNL     1      -9.856   8.696  71.878  1.00  0.00    -0.314 A  
HETATM   12  N   UNL     1     -10.185   8.176  73.023  1.00  0.00    -0.281 NA 
HETATM   13  C   UNL     1      -8.905   7.954  73.735  1.00  0.00    -0.271 A  
HETATM   14  H   UNL     1     -11.125   7.965  73.361  1.00  0.00     0.000 HD 
HETATM   15  C   UNL     1      -7.798   8.494  72.830  1.00  0.00    -0.011 A  
HETATM   16  N   UNL     1      -8.533   8.962  71.672  1.00  0.00    -0.336 NA 
ENDBRANCH   9  11
ENDBRANCH   8   9
TORSDOF 2
ENDMDL
MODEL      163
REMARK 921   NORMALIZED FREE ENERGY PREDICTED BY IDOCK:   -3.04 KCAL/MOL
REMARK 922        TOTAL FREE ENERGY PREDICTED BY IDOCK:   -3.65 KCAL/MOL
REMARK 923 INTER-LIGAND FREE ENERGY PREDICTED BY IDOCK:   -3.34 KCAL/MOL
REMARK 924 INTRA-LIGAND FREE ENERGY PREDICTED BY IDOCK:   -0.31 KCAL/MOL
REMARK 927      BINDING AFFINITY PREDICTED BY RF-SCORE:    0.00 PKD
ROOT
HETATM    1 CL   UNL     1      -9.396  10.949  67.960  1.00  0.00    -0.155 Cl 
HETATM    2  C   UNL     1     -10.064  12.489  67.523  1.00  0.00    -0.207 A  
HETATM    3  C   UNL     1     -11.465  12.532  67.449  1.00  0.00    -0.404 A  
HETATM    4  C   UNL     1     -12.117  13.641  66.922  1.00  0.00    -0.431 A  
HETATM    5  C   UNL     1     -11.369  14.715  66.453  1.00  0.00    -0.348 A  
HETATM    6  C   UNL     1      -9.972  14.684  66.543  1.00  0.00    -0.281 A  
HETATM    7 CL   UNL     1      -9.103  16.053  65.922  1.00  0.00    -0.350 Cl 
HETATM    8  C   UNL     1      -9.278  13.583  67.095  1.00  0.00    -0.236 A  
ENDROOT
BRANCH   8   9
HETATM    9  N   UNL     1      -7.874  13.657  67.224  1.00  0.00    -0.318 NA 
HETATM   10  H   UNL     1      -7.335  13.498  66.372  1.00  0.00     0.000 HD 
BRANCH   9  11
HETATM   11  C   UNL     1      -7.158  13.913  68.346  1.00  0.00    -0.104 A  
HETATM   12  N   UNL     1      -7.297  14.892  69.190  1.00  0.00    -0.146 NA 
HETATM   13  C   UNL     1      -6.330  14.611  70.277  1.00  0.00    -0.171 A  
HETATM   14  H   UNL     1      -7.935  15.685  69.120  1.00  0.00     0.000 HD 
HETATM   15  C   UNL     1      -5.574  13.343  69.878  1.00  0.00    -0.110 A  
HETATM   16  N   UNL     1      -6.181  12.996  68.610  1.00  0.00    -0.073 NA 
ENDBRANCH   9  11
ENDBRANCH   8   9
TORSDOF 2
ENDMDL
MODEL      164
REMARK 921   NORMALIZED FREE ENERGY PREDICTED BY IDOCK:   -2.98 KCAL/MOL
REMARK 922        TOTAL FREE ENERGY PREDICTED BY IDOCK:   -3.58 KCAL/MOL
REMARK 923 INTER-LIGAND FREE ENERGY PREDICTED BY IDOCK:   -3.29 KCAL/MOL
REMARK 924 INTRA-LIGAND FREE ENERGY PREDICTED BY IDOCK:   -0.30 KCAL/MOL
REMARK 927      BINDING AFFINITY PREDICTED BY RF-SCORE:    0.00 PKD
ROOT
HETATM    1 CL   UNL     1     -10.400  16.085  66.019  1.00  0.00    -0.345 Cl 
HETATM    2  C   UNL     1     -10.329  14.524  66.774  1.00  0.00    -0.269 A  
HETATM    3  C   UNL     1     -11.574  13.946  67.065  1.00  0.00    -0.394 A  
HETATM    4  C   UNL     1     -11.662  12.796  67.842  1.00  0.00    -0.408 A  
HETATM    5  C   UNL     1     -10.501  12.221  68.345  1.00  0.00    -0.244 A  
HETATM    6  C   UNL     1      -9.255  12.784  68.040  1.00  0.00    -0.208 A  
HETATM    7 CL   UNL     1      -7.849  12.022  68.716  1.00  0.00    -0.081 Cl 
HETATM    8  C   UNL     1      -9.128  13.938  67.233  1.00  0.00    -0.228 A  
ENDROOT
BRANCH   8   9
HETATM    9  N   UNL     1      -7.836  14.403  66.905  1.00  0.00    -0.323 NA 
HETATM   10  H   UNL     1      -7.361  13.913  66.146  1.00  0.00     0.000 HD 
BRANCH   9  11
HETATM   11  C   UNL     1      -7.152  15.422  67.480  1.00  0.00    -0.192 A  
HETATM   12  N   UNL     1      -7.127  15.777  68.731  1.00  0.00    -0.123 NA 
HETATM   13  C   UNL     1      -6.131  16.871  68.806  1.00  0.00    -0.153 A  
HETATM   14  H   UNL     1      -7.676  15.387  69.497  1.00  0.00     0.000 HD 
HETATM   15  C   UNL     1      -5.641  17.121  67.379  1.00  0.00    -0.140 A  
HETATM   16  N   UNL     1      -6.382  16.141  66.612  1.00  0.00    -0.178 NA 
ENDBRANCH   9  11
ENDBRANCH   8   9
TORSDOF 2
ENDMDL
MODEL      165
REMARK 921   NORMALIZED FREE ENERGY PREDICTED BY IDOCK:   -2.96 KCAL/MOL
REMARK 922        TOTAL FREE ENERGY PREDICTED BY IDOCK:   -3.56 KCAL/MOL
REMARK 923 INTER-LIGAND FREE ENERGY PREDICTED BY IDOCK:   -3.30 KCAL/MOL
REMARK 924 INTRA-LIGAND FREE ENERGY PREDICTED BY IDOCK:   -0.26 KCAL/MOL
REMARK 927      BINDING AFFINITY PREDICTED BY RF-SCORE:    0.00 PKD
ROOT
HETATM    1 CL   UNL     1      -9.825  13.103  66.040  1.00  0.00    -0.281 Cl 
HETATM    2  C   UNL     1     -10.384  11.802  67.043  1.00  0.00    -0.214 A  
HETATM    3  C   UNL     1     -10.661  12.153  68.374  1.00  0.00    -0.252 A  
HETATM    4  C   UNL     1     -10.925  11.177  69.328  1.00  0.00    -0.300 A  
HETATM    5  C   UNL     1     -10.902   9.837  68.959  1.00  0.00    -0.223 A  
HETATM    6  C   UNL     1     -10.647   9.484  67.628  1.00  0.00    -0.269 A  
HETATM    7 CL   UNL     1     -10.618   7.791  67.244  1.00  0.00    -0.382 Cl 
HETATM    8  C   UNL     1     -10.398  10.452  66.627  1.00  0.00    -0.231 A  
ENDROOT
BRANCH   8   9
HETATM    9  N   UNL     1     -10.224  10.025  65.293  1.00  0.00    -0.244 NA 
HETATM   10  H   UNL     1     -11.075   9.791  64.781  1.00  0.00     0.000 HD 
BRANCH   9  11
HETATM   11  C   UNL     1      -9.060   9.888  64.613  1.00  0.00    -0.242 A  
HETATM   12  N   UNL     1      -8.574  10.647  63.677  1.00  0.00    -0.287 NA 
HETATM   13  C   UNL     1      -7.232  10.093  63.381  1.00  0.00    -0.121 A  
HETATM   14  H   UNL     1      -9.021  11.453  63.238  1.00  0.00     0.000 HD 
HETATM   15  C   UNL     1      -7.063   8.854  64.260  1.00  0.00    -0.090 A  
HETATM   16  N   UNL     1      -8.309   8.813  64.996  1.00  0.00    -0.162 NA 
ENDBRANCH   9  11
ENDBRANCH   8   9
TORSDOF 2
ENDMDL
MODEL      166
REMARK 921   NORMALIZED FREE ENERGY PREDICTED BY IDOCK:   -2.94 KCAL/MOL
REMARK 922        TOTAL FREE ENERGY PREDICTED BY IDOCK:   -3.54 KCAL/MOL
REMARK 923 INTER-LIGAND FREE ENERGY PREDICTED BY IDOCK:   -3.26 KCAL/MOL
REMARK 924 INTRA-LIGAND FREE ENERGY PREDICTED BY IDOCK:   -0.28 KCAL/MOL
REMARK 927      BINDING AFFINITY PREDICTED BY RF-SCORE:    0.00 PKD
ROOT
HETATM    1 CL   UNL     1      -6.066  16.952  69.996  1.00  0.00    -0.199 Cl 
HETATM    2  C   UNL     1      -7.070  15.671  69.394  1.00  0.00    -0.198 A  
HETATM    3  C   UNL     1      -6.467  14.403  69.369  1.00  0.00    -0.132 A  
HETATM    4  C   UNL     1      -7.085  13.333  68.732  1.00  0.00    -0.100 A  
HETATM    5  C   UNL     1      -8.309  13.527  68.103  1.00  0.00    -0.167 A  
HETATM    6  C   UNL     1      -8.923  14.785  68.143  1.00  0.00    -0.179 A  
HETATM    7 CL   UNL     1     -10.443  14.957  67.321  1.00  0.00    -0.259 Cl 
HETATM    8  C   UNL     1      -8.335  15.889  68.802  1.00  0.00    -0.206 A  
ENDROOT
BRANCH   8   9
HETATM    9  N   UNL     1      -9.048  17.105  68.866  1.00  0.00    -0.235 NA 
HETATM   10  H   UNL     1      -9.842  17.128  69.508  1.00  0.00     0.000 HD 
BRANCH   9  11
HETATM   11  C   UNL     1      -8.803  18.245  68.176  1.00  0.00    -0.295 A  
HETATM   12  N   UNL     1      -8.658  19.454  68.632  1.00  0.00    -0.363 NA 
HETATM   13  C   UNL     1      -8.296  20.276  67.454  1.00  0.00    -0.340 A  
HETATM   14  H   UNL     1      -8.770  19.770  69.596  1.00  0.00     0.000 HD 
HETATM   15  C   UNL     1      -8.322  19.345  66.242  1.00  0.00    -0.336 A  
HETATM   16  N   UNL     1      -8.678  18.069  66.828  1.00  0.00    -0.249 NA 
ENDBRANCH   9  11
ENDBRANCH   8   9
TORSDOF 2
ENDMDL
MODEL      167
REMARK 921   NORMALIZED FREE ENERGY PREDICTED BY IDOCK:   -2.94 KCAL/MOL
REMARK 922        TOTAL FREE ENERGY PREDICTED BY IDOCK:   -3.54 KCAL/MOL
REMARK 923 INTER-LIGAND FREE ENERGY PREDICTED BY IDOCK:   -3.21 KCAL/MOL
REMARK 924 INTRA-LIGAND FREE ENERGY PREDICTED BY IDOCK:   -0.33 KCAL/MOL
REMARK 927      BINDING AFFINITY PREDICTED BY RF-SCORE:    0.00 PKD
ROOT
HETATM    1 CL   UNL     1      -8.634   8.187  70.836  1.00  0.00    -0.132 Cl 
HETATM    2  C   UNL     1      -9.535   9.418  70.009  1.00  0.00    -0.228 A  
HETATM    3  C   UNL     1      -8.959   9.877  68.814  1.00  0.00    -0.140 A  
HETATM    4  C   UNL     1      -9.470  10.991  68.158  1.00  0.00    -0.172 A  
HETATM    5  C   UNL     1     -10.560  11.662  68.700  1.00  0.00    -0.236 A  
HETATM    6  C   UNL     1     -11.151  11.194  69.880  1.00  0.00    -0.162 A  
HETATM    7 CL   UNL     1     -12.498  12.093  70.508  1.00  0.00    -0.329 Cl 
HETATM    8  C   UNL     1     -10.672  10.051  70.561  1.00  0.00    -0.285 A  
ENDROOT
BRANCH   8   9
HETATM    9  N   UNL     1     -11.365   9.595  71.702  1.00  0.00    -0.347 NA 
HETATM   10  H   UNL     1     -11.283  10.172  72.540  1.00  0.00     0.000 HD 
BRANCH   9  11
HETATM   11  C   UNL     1     -12.128   8.480  71.816  1.00  0.00    -0.333 A  
HETATM   12  N   UNL     1     -11.835   7.353  72.393  1.00  0.00    -0.445 NA 
HETATM   13  C   UNL     1     -13.072   6.542  72.317  1.00  0.00     0.212 A  
HETATM   14  H   UNL     1     -10.943   7.083  72.808  1.00  0.00     0.000 HD 
HETATM   15  C   UNL     1     -14.097   7.372  71.545  1.00  0.00    -0.409 A  
HETATM   16  N   UNL     1     -13.370   8.591  71.260  1.00  0.00    -0.203 NA 
ENDBRANCH   9  11
ENDBRANCH   8   9
TORSDOF 2
ENDMDL
MODEL      168
REMARK 921   NORMALIZED FREE ENERGY PREDICTED BY IDOCK:   -2.93 KCAL/MOL
REMARK 922        TOTAL FREE ENERGY PREDICTED BY IDOCK:   -3.53 KCAL/MOL
REMARK 923 INTER-LIGAND FREE ENERGY PREDICTED BY IDOCK:   -3.35 KCAL/MOL
REMARK 924 INTRA-LIGAND FREE ENERGY PREDICTED BY IDOCK:   -0.18 KCAL/MOL
REMARK 927      BINDING AFFINITY PREDICTED BY RF-SCORE:    0.00 PKD
ROOT
HETATM    1 CL   UNL     1      -8.118   9.834  68.014  1.00  0.00    -0.105 Cl 
HETATM    2  C   UNL     1      -9.628  10.681  68.118  1.00  0.00    -0.157 A  
HETATM    3  C   UNL     1      -9.638  11.956  67.529  1.00  0.00    -0.175 A  
HETATM    4  C   UNL     1     -10.715  12.816  67.710  1.00  0.00    -0.237 A  
HETATM    5  C   UNL     1     -11.789  12.411  68.494  1.00  0.00    -0.352 A  
HETATM    6  C   UNL     1     -11.792  11.133  69.066  1.00  0.00    -0.348 A  
HETATM    7 CL   UNL     1     -13.159  10.702  70.047  1.00  0.00    -0.004 Cl 
HETATM    8  C   UNL     1     -10.725  10.224  68.883  1.00  0.00    -0.227 A  
ENDROOT
BRANCH   8   9
HETATM    9  N   UNL     1     -10.833   8.925  69.426  1.00  0.00    -0.376 NA 
HETATM   10  H   UNL     1     -11.038   8.176  68.764  1.00  0.00     0.000 HD 
BRANCH   9  11
HETATM   11  C   UNL     1     -10.698   8.558  70.724  1.00  0.00    -0.217 A  
HETATM   12  N   UNL     1     -11.587   8.035  71.515  1.00  0.00    -0.266 NA 
HETATM   13  C   UNL     1     -10.862   7.732  72.771  1.00  0.00    -0.379 A  
HETATM   14  H   UNL     1     -12.573   7.869  71.315  1.00  0.00     0.000 HD 
HETATM   15  C   UNL     1      -9.429   8.228  72.584  1.00  0.00    -0.284 A  
HETATM   16  N   UNL     1      -9.447   8.755  71.235  1.00  0.00    -0.225 NA 
ENDBRANCH   9  11
ENDBRANCH   8   9
TORSDOF 2
ENDMDL
MODEL      169
REMARK 921   NORMALIZED FREE ENERGY PREDICTED BY IDOCK:   -2.92 KCAL/MOL
REMARK 922        TOTAL FREE ENERGY PREDICTED BY IDOCK:   -3.52 KCAL/MOL
REMARK 923 INTER-LIGAND FREE ENERGY PREDICTED BY IDOCK:   -3.38 KCAL/MOL
REMARK 924 INTRA-LIGAND FREE ENERGY PREDICTED BY IDOCK:   -0.14 KCAL/MOL
REMARK 927      BINDING AFFINITY PREDICTED BY RF-SCORE:    0.00 PKD
ROOT
HETATM    1 CL   UNL     1      -9.190   7.224  67.891  1.00  0.00    -0.131 Cl 
HETATM    2  C   UNL     1      -9.128   7.967  66.325  1.00  0.00    -0.186 A  
HETATM    3  C   UNL     1      -8.189   7.414  65.440  1.00  0.00    -0.135 A  
HETATM    4  C   UNL     1      -7.898   8.034  64.231  1.00  0.00    -0.137 A  
HETATM    5  C   UNL     1      -8.539   9.223  63.901  1.00  0.00    -0.208 A  
HETATM    6  C   UNL     1      -9.490   9.768  64.772  1.00  0.00    -0.251 A  
HETATM    7 CL   UNL     1     -10.237  11.263  64.304  1.00  0.00    -0.351 Cl 
HETATM    8  C   UNL     1      -9.828   9.151  65.999  1.00  0.00    -0.272 A  
ENDROOT
BRANCH   8   9
HETATM    9  N   UNL     1     -10.852   9.717  66.789  1.00  0.00    -0.063 NA 
HETATM   10  H   UNL     1     -11.723   9.188  66.842  1.00  0.00     0.000 HD 
BRANCH   9  11
HETATM   11  C   UNL     1     -10.813  10.879  67.485  1.00  0.00    -0.272 A  
HETATM   12  N   UNL     1      -9.802  11.429  68.090  1.00  0.00    -0.184 NA 
HETATM   13  C   UNL     1     -10.303  12.734  68.579  1.00  0.00    -0.221 A  
HETATM   14  H   UNL     1      -8.865  11.044  68.204  1.00  0.00     0.000 HD 
HETATM   15  C   UNL     1     -11.783  12.807  68.207  1.00  0.00    -0.344 A  
HETATM   16  N   UNL     1     -12.002  11.550  67.522  1.00  0.00    -0.622 NA 
ENDBRANCH   9  11
ENDBRANCH   8   9
TORSDOF 2
ENDMDL
MODEL      170
REMARK 921   NORMALIZED FREE ENERGY PREDICTED BY IDOCK:   -2.92 KCAL/MOL
REMARK 922        TOTAL FREE ENERGY PREDICTED BY IDOCK:   -3.51 KCAL/MOL
REMARK 923 INTER-LIGAND FREE ENERGY PREDICTED BY IDOCK:   -3.20 KCAL/MOL
REMARK 924 INTRA-LIGAND FREE ENERGY PREDICTED BY IDOCK:   -0.31 KCAL/MOL
REMARK 927      BINDING AFFINITY PREDICTED BY RF-SCORE:    0.00 PKD
ROOT
HETATM    1 CL   UNL     1      -8.311   8.165  72.424  1.00  0.00    -0.208 Cl 
HETATM    2  C   UNL     1      -9.586   8.942  71.540  1.00  0.00    -0.292 A  
HETATM    3  C   UNL     1     -10.862   8.835  72.116  1.00  0.00    -0.400 A  
HETATM    4  C   UNL     1     -11.995   9.238  71.419  1.00  0.00    -0.424 A  
HETATM    5  C   UNL     1     -11.860   9.743  70.131  1.00  0.00    -0.141 A  
HETATM    6  C   UNL     1     -10.588   9.871  69.561  1.00  0.00    -0.242 A  
HETATM    7 CL   UNL     1     -10.498  10.494  67.943  1.00  0.00    -0.229 Cl 
HETATM    8  C   UNL     1      -9.413   9.493  70.251  1.00  0.00    -0.259 A  
ENDROOT
BRANCH   8   9
HETATM    9  N   UNL     1      -8.160   9.723  69.642  1.00  0.00    -0.137 NA 
HETATM   10  H   UNL     1      -7.795   8.965  69.064  1.00  0.00     0.000 HD 
BRANCH   9  11
HETATM   11  C   UNL     1      -7.386  10.831  69.735  1.00  0.00    -0.064 A  
HETATM   12  N   UNL     1      -7.545  11.983  69.153  1.00  0.00    -0.331 NA 
HETATM   13  C   UNL     1      -6.477  12.850  69.703  1.00  0.00    -0.044 A  
HETATM   14  H   UNL     1      -8.253  12.236  68.464  1.00  0.00     0.000 HD 
HETATM   15  C   UNL     1      -5.645  11.981  70.647  1.00  0.00    -0.153 A  
HETATM   16  N   UNL     1      -6.315  10.699  70.572  1.00  0.00    -0.281 NA 
ENDBRANCH   9  11
ENDBRANCH   8   9
TORSDOF 2
ENDMDL
MODEL      171
REMARK 921   NORMALIZED FREE ENERGY PREDICTED BY IDOCK:   -2.89 KCAL/MOL
REMARK 922        TOTAL FREE ENERGY PREDICTED BY IDOCK:   -3.48 KCAL/MOL
REMARK 923 INTER-LIGAND FREE ENERGY PREDICTED BY IDOCK:   -3.17 KCAL/MOL
REMARK 924 INTRA-LIGAND FREE ENERGY PREDICTED BY IDOCK:   -0.31 KCAL/MOL
REMARK 927      BINDING AFFINITY PREDICTED BY RF-SCORE:    0.00 PKD
ROOT
HETATM    1 CL   UNL     1     -11.988  11.982  68.630  1.00  0.00    -0.351 Cl 
HETATM    2  C   UNL     1     -11.088  13.454  68.450  1.00  0.00    -0.273 A  
HETATM    3  C   UNL     1     -11.844  14.632  68.560  1.00  0.00    -0.346 A  
HETATM    4  C   UNL     1     -11.290  15.867  68.244  1.00  0.00    -0.342 A  
HETATM    5  C   UNL     1      -9.973  15.932  67.803  1.00  0.00    -0.229 A  
HETATM    6  C   UNL     1      -9.210  14.762  67.711  1.00  0.00    -0.194 A  
HETATM    7 CL   UNL     1      -7.579  14.917  67.137  1.00  0.00    -0.206 Cl 
HETATM    8  C   UNL     1      -9.734  13.493  68.048  1.00  0.00    -0.228 A  
ENDROOT
BRANCH   8   9
HETATM    9  N   UNL     1      -8.881  12.368  68.004  1.00  0.00    -0.181 NA 
HETATM   10  H   UNL     1      -8.352  12.171  68.854  1.00  0.00     0.000 HD 
BRANCH   9  11
HETATM   11  C   UNL     1      -8.683  11.521  66.966  1.00  0.00    -0.169 A  
HETATM   12  N   UNL     1      -9.564  10.995  66.168  1.00  0.00    -0.200 NA 
HETATM   13  C   UNL     1      -8.781  10.249  65.156  1.00  0.00    -0.175 A  
HETATM   14  H   UNL     1     -10.579  11.078  66.226  1.00  0.00     0.000 HD 
HETATM   15  C   UNL     1      -7.310  10.385  65.549  1.00  0.00    -0.139 A  
HETATM   16  N   UNL     1      -7.373  11.210  66.738  1.00  0.00    -0.140 NA 
ENDBRANCH   9  11
ENDBRANCH   8   9
TORSDOF 2
ENDMDL
MODEL      172
REMARK 921   NORMALIZED FREE ENERGY PREDICTED BY IDOCK:   -2.85 KCAL/MOL
REMARK 922        TOTAL FREE ENERGY PREDICTED BY IDOCK:   -3.44 KCAL/MOL
REMARK 923 INTER-LIGAND FREE ENERGY PREDICTED BY IDOCK:   -3.18 KCAL/MOL
REMARK 924 INTRA-LIGAND FREE ENERGY PREDICTED BY IDOCK:   -0.26 KCAL/MOL
REMARK 927      BINDING AFFINITY PREDICTED BY RF-SCORE:    0.00 PKD
ROOT
HETATM    1 CL   UNL     1      -7.679   7.656  71.335  1.00  0.00    -0.080 Cl 
HETATM    2  C   UNL     1      -9.328   8.088  71.016  1.00  0.00    -0.149 A  
HETATM    3  C   UNL     1      -9.527   9.412  70.593  1.00  0.00    -0.325 A  
HETATM    4  C   UNL     1     -10.807   9.943  70.493  1.00  0.00    -0.391 A  
HETATM    5  C   UNL     1     -11.902   9.156  70.827  1.00  0.00    -0.280 A  
HETATM    6  C   UNL     1     -11.710   7.828  71.230  1.00  0.00    -0.288 A  
HETATM    7 CL   UNL     1     -13.122   6.910  71.649  1.00  0.00    -0.389 Cl 
HETATM    8  C   UNL     1     -10.424   7.248  71.320  1.00  0.00    -0.201 A  
ENDROOT
BRANCH   8   9
HETATM    9  N   UNL     1     -10.313   5.883  71.659  1.00  0.00    -0.212 NA 
HETATM   10  H   UNL     1     -10.489   5.646  72.637  1.00  0.00     0.000 HD 
BRANCH   9  11
HETATM   11  C   UNL     1     -10.000   4.849  70.840  1.00  0.00    -0.217 A  
HETATM   12  N   UNL     1      -9.778   4.868  69.559  1.00  0.00    -0.177 NA 
HETATM   13  C   UNL     1      -9.370   3.487  69.213  1.00  0.00    -0.172 A  
HETATM   14  H   UNL     1      -9.866   5.664  68.927  1.00  0.00     0.000 HD 
HETATM   15  C   UNL     1      -9.458   2.665  70.498  1.00  0.00    -0.125 A  
HETATM   16  N   UNL     1      -9.891   3.644  71.474  1.00  0.00    -0.175 NA 
ENDBRANCH   9  11
ENDBRANCH   8   9
TORSDOF 2
ENDMDL
MODEL      173
REMARK 921   NORMALIZED FREE ENERGY PREDICTED BY IDOCK:   -2.84 KCAL/MOL
REMARK 922        TOTAL FREE ENERGY PREDICTED BY IDOCK:   -3.43 KCAL/MOL
REMARK 923 INTER-LIGAND FREE ENERGY PREDICTED BY IDOCK:   -3.14 KCAL/MOL
REMARK 924 INTRA-LIGAND FREE ENERGY PREDICTED BY IDOCK:   -0.29 KCAL/MOL
REMARK 927      BINDING AFFINITY PREDICTED BY RF-SCORE:    0.00 PKD
ROOT
HETATM    1 CL   UNL     1      -9.108   9.478  64.043  1.00  0.00    -0.240 Cl 
HETATM    2  C   UNL     1      -9.949   9.748  65.536  1.00  0.00    -0.259 A  
HETATM    3  C   UNL     1     -10.313  11.081  65.784  1.00  0.00    -0.316 A  
HETATM    4  C   UNL     1     -10.813  11.465  67.023  1.00  0.00    -0.331 A  
HETATM    5  C   UNL     1     -10.943  10.517  68.031  1.00  0.00    -0.345 A  
HETATM    6  C   UNL     1     -10.601   9.182  67.781  1.00  0.00    -0.227 A  
HETATM    7 CL   UNL     1     -10.774   8.057  69.092  1.00  0.00    -0.172 Cl 
HETATM    8  C   UNL     1     -10.112   8.752  66.526  1.00  0.00    -0.279 A  
ENDROOT
BRANCH   8   9
HETATM    9  N   UNL     1      -9.862   7.378  66.326  1.00  0.00    -0.442 NA 
HETATM   10  H   UNL     1     -10.674   6.798  66.110  1.00  0.00     0.000 HD 
BRANCH   9  11
HETATM   11  C   UNL     1      -8.669   6.737  66.386  1.00  0.00    -0.138 A  
HETATM   12  N   UNL     1      -7.632   7.020  67.117  1.00  0.00    -0.105 NA 
HETATM   13  C   UNL     1      -6.665   5.927  66.865  1.00  0.00    -0.058 A  
HETATM   14  H   UNL     1      -7.510   7.824  67.733  1.00  0.00     0.000 HD 
HETATM   15  C   UNL     1      -7.300   5.008  65.821  1.00  0.00    -0.077 A  
HETATM   16  N   UNL     1      -8.579   5.641  65.577  1.00  0.00    -0.149 NA 
ENDBRANCH   9  11
ENDBRANCH   8   9
TORSDOF 2
ENDMDL
MODEL      174
REMARK 921   NORMALIZED FREE ENERGY PREDICTED BY IDOCK:   -2.83 KCAL/MOL
REMARK 922        TOTAL FREE ENERGY PREDICTED BY IDOCK:   -3.41 KCAL/MOL
REMARK 923 INTER-LIGAND FREE ENERGY PREDICTED BY IDOCK:   -3.35 KCAL/MOL
REMARK 924 INTRA-LIGAND FREE ENERGY PREDICTED BY IDOCK:   -0.06 KCAL/MOL
REMARK 927      BINDING AFFINITY PREDICTED BY RF-SCORE:    0.00 PKD
ROOT
HETATM    1 CL   UNL     1     -11.518  13.317  65.655  1.00  0.00    -0.331 Cl 
HETATM    2  C   UNL     1      -9.929  12.763  66.079  1.00  0.00    -0.271 A  
HETATM    3  C   UNL     1      -9.579  11.505  65.562  1.00  0.00    -0.252 A  
HETATM    4  C   UNL     1      -8.422  10.860  65.982  1.00  0.00    -0.167 A  
HETATM    5  C   UNL     1      -7.609  11.465  66.933  1.00  0.00    -0.151 A  
HETATM    6  C   UNL     1      -7.944  12.728  67.436  1.00  0.00    -0.179 A  
HETATM    7 CL   UNL     1      -6.891  13.415  68.633  1.00  0.00    -0.092 Cl 
HETATM    8  C   UNL     1      -9.100  13.423  67.013  1.00  0.00    -0.243 A  
ENDROOT
BRANCH   8   9
HETATM    9  N   UNL     1      -9.331  14.726  67.506  1.00  0.00    -0.191 NA 
HETATM   10  H   UNL     1      -8.714  15.458  67.152  1.00  0.00     0.000 HD 
BRANCH   9  11
HETATM   11  C   UNL     1     -10.277  15.118  68.394  1.00  0.00    -0.221 A  
HETATM   12  N   UNL     1     -11.569  15.009  68.304  1.00  0.00    -0.329 NA 
HETATM   13  C   UNL     1     -12.094  15.494  69.602  1.00  0.00    -0.328 A  
HETATM   14  H   UNL     1     -12.108  14.664  67.510  1.00  0.00     0.000 HD 
HETATM   15  C   UNL     1     -10.888  15.956  70.421  1.00  0.00    -0.313 A  
HETATM   16  N   UNL     1      -9.777  15.682  69.533  1.00  0.00    -0.278 NA 
ENDBRANCH   9  11
ENDBRANCH   8   9
TORSDOF 2
ENDMDL
MODEL      175
REMARK 921   NORMALIZED FREE ENERGY PREDICTED BY IDOCK:   -2.81 KCAL/MOL
REMARK 922        TOTAL FREE ENERGY PREDICTED BY IDOCK:   -3.39 KCAL/MOL
REMARK 923 INTER-LIGAND FREE ENERGY PREDICTED BY IDOCK:   -3.07 KCAL/MOL
REMARK 924 INTRA-LIGAND FREE ENERGY PREDICTED BY IDOCK:   -0.32 KCAL/MOL
REMARK 927      BINDING AFFINITY PREDICTED BY RF-SCORE:    0.00 PKD
ROOT
HETATM    1 CL   UNL     1      -7.337  11.324  68.381  1.00  0.00    -0.090 Cl 
HETATM    2  C   UNL     1      -9.062  11.407  68.217  1.00  0.00    -0.179 A  
HETATM    3  C   UNL     1      -9.523  12.225  67.173  1.00  0.00    -0.196 A  
HETATM    4  C   UNL     1     -10.873  12.534  67.054  1.00  0.00    -0.287 A  
HETATM    5  C   UNL     1     -11.774  12.035  67.988  1.00  0.00    -0.398 A  
HETATM    6  C   UNL     1     -11.320  11.201  69.018  1.00  0.00    -0.276 A  
HETATM    7 CL   UNL     1     -12.499  10.628  70.156  1.00  0.00    -0.374 Cl 
HETATM    8  C   UNL     1      -9.959  10.847  69.155  1.00  0.00    -0.161 A  
ENDROOT
BRANCH   8   9
HETATM    9  N   UNL     1      -9.588   9.941  70.172  1.00  0.00    -0.361 NA 
HETATM   10  H   UNL     1      -9.592  10.308  71.125  1.00  0.00     0.000 HD 
BRANCH   9  11
HETATM   11  C   UNL     1      -9.228   8.642  70.032  1.00  0.00    -0.157 A  
HETATM   12  N   UNL     1      -8.077   8.089  70.278  1.00  0.00    -0.111 NA 
HETATM   13  C   UNL     1      -8.286   6.639  70.060  1.00  0.00    -0.130 A  
HETATM   14  H   UNL     1      -7.214   8.554  70.561  1.00  0.00     0.000 HD 
HETATM   15  C   UNL     1      -9.729   6.467  69.587  1.00  0.00    -0.152 A  
HETATM   16  N   UNL     1     -10.230   7.826  69.592  1.00  0.00    -0.201 NA 
ENDBRANCH   9  11
ENDBRANCH   8   9
TORSDOF 2
ENDMDL
MODEL      176
REMARK 921   NORMALIZED FREE ENERGY PREDICTED BY IDOCK:   -2.80 KCAL/MOL
REMARK 922        TOTAL FREE ENERGY PREDICTED BY IDOCK:   -3.38 KCAL/MOL
REMARK 923 INTER-LIGAND FREE ENERGY PREDICTED BY IDOCK:   -3.15 KCAL/MOL
REMARK 924 INTRA-LIGAND FREE ENERGY PREDICTED BY IDOCK:   -0.24 KCAL/MOL
REMARK 927      BINDING AFFINITY PREDICTED BY RF-SCORE:    0.00 PKD
ROOT
HETATM    1 CL   UNL     1      -9.854   8.919  71.374  1.00  0.00    -0.349 Cl 
HETATM    2  C   UNL     1     -10.318   8.238  69.847  1.00  0.00    -0.218 A  
HETATM    3  C   UNL     1     -10.897   6.961  69.915  1.00  0.00    -0.294 A  
HETATM    4  C   UNL     1     -11.132   6.223  68.761  1.00  0.00    -0.424 A  
HETATM    5  C   UNL     1     -10.779   6.754  67.526  1.00  0.00    -0.381 A  
HETATM    6  C   UNL     1     -10.220   8.036  67.453  1.00  0.00    -0.261 A  
HETATM    7 CL   UNL     1      -9.787   8.628  65.879  1.00  0.00    -0.190 Cl 
HETATM    8  C   UNL     1      -9.989   8.824  68.604  1.00  0.00    -0.182 A  
ENDROOT
BRANCH   8   9
HETATM    9  N   UNL     1      -9.494  10.136  68.445  1.00  0.00    -0.141 NA 
HETATM   10  H   UNL     1     -10.180  10.848  68.192  1.00  0.00     0.000 HD 
BRANCH   9  11
HETATM   11  C   UNL     1      -8.215  10.561  68.589  1.00  0.00    -0.130 A  
HETATM   12  N   UNL     1      -7.686  11.218  69.579  1.00  0.00    -0.367 NA 
HETATM   13  C   UNL     1      -6.242  11.311  69.258  1.00  0.00    -0.073 A  
HETATM   14  H   UNL     1      -8.162  11.590  70.400  1.00  0.00     0.000 HD 
HETATM   15  C   UNL     1      -6.051  10.654  67.891  1.00  0.00    -0.050 A  
HETATM   16  N   UNL     1      -7.392  10.225  67.553  1.00  0.00    -0.088 NA 
ENDBRANCH   9  11
ENDBRANCH   8   9
TORSDOF 2
ENDMDL
MODEL      177
REMARK 921   NORMALIZED FREE ENERGY PREDICTED BY IDOCK:   -2.80 KCAL/MOL
REMARK 922        TOTAL FREE ENERGY PREDICTED BY IDOCK:   -3.38 KCAL/MOL
REMARK 923 INTER-LIGAND FREE ENERGY PREDICTED BY IDOCK:   -3.06 KCAL/MOL
REMARK 924 INTRA-LIGAND FREE ENERGY PREDICTED BY IDOCK:   -0.32 KCAL/MOL
REMARK 927      BINDING AFFINITY PREDICTED BY RF-SCORE:    0.00 PKD
ROOT
HETATM    1 CL   UNL     1      -8.513   8.484  72.510  1.00  0.00    -0.220 Cl 
HETATM    2  C   UNL     1      -9.906   7.906  71.652  1.00  0.00    -0.167 A  
HETATM    3  C   UNL     1     -11.051   7.710  72.439  1.00  0.00    -0.362 A  
HETATM    4  C   UNL     1     -12.170   7.069  71.921  1.00  0.00    -0.362 A  
HETATM    5  C   UNL     1     -12.148   6.606  70.611  1.00  0.00    -0.342 A  
HETATM    6  C   UNL     1     -11.014   6.818  69.816  1.00  0.00    -0.297 A  
HETATM    7 CL   UNL     1     -11.051   6.198  68.194  1.00  0.00    -0.400 Cl 
HETATM    8  C   UNL     1      -9.868   7.488  70.303  1.00  0.00    -0.183 A  
ENDROOT
BRANCH   8   9
HETATM    9  N   UNL     1      -8.794   7.732  69.420  1.00  0.00    -0.139 NA 
HETATM   10  H   UNL     1      -8.084   7.001  69.362  1.00  0.00     0.000 HD 
BRANCH   9  11
HETATM   11  C   UNL     1      -8.594   8.823  68.642  1.00  0.00    -0.134 A  
HETATM   12  N   UNL     1      -9.088   9.083  67.468  1.00  0.00    -0.132 NA 
HETATM   13  C   UNL     1      -8.629  10.454  67.145  1.00  0.00    -0.130 A  
HETATM   14  H   UNL     1      -9.669   8.474  66.891  1.00  0.00     0.000 HD 
HETATM   15  C   UNL     1      -7.738  10.905  68.303  1.00  0.00    -0.111 A  
HETATM   16  N   UNL     1      -7.777   9.766  69.197  1.00  0.00    -0.086 NA 
ENDBRANCH   9  11
ENDBRANCH   8   9
TORSDOF 2
ENDMDL
MODEL      178
REMARK 921   NORMALIZED FREE ENERGY PREDICTED BY IDOCK:   -2.79 KCAL/MOL
REMARK 922        TOTAL FREE ENERGY PREDICTED BY IDOCK:   -3.37 KCAL/MOL
REMARK 923 INTER-LIGAND FREE ENERGY PREDICTED BY IDOCK:   -3.10 KCAL/MOL
REMARK 924 INTRA-LIGAND FREE ENERGY PREDICTED BY IDOCK:   -0.27 KCAL/MOL
REMARK 927      BINDING AFFINITY PREDICTED BY RF-SCORE:    0.00 PKD
ROOT
HETATM    1 CL   UNL     1      -7.624  15.024  69.810  1.00  0.00    -0.151 Cl 
HETATM    2  C   UNL     1      -9.086  15.676  69.140  1.00  0.00    -0.256 A  
HETATM    3  C   UNL     1     -10.265  15.296  69.800  1.00  0.00    -0.241 A  
HETATM    4  C   UNL     1     -11.511  15.584  69.255  1.00  0.00    -0.349 A  
HETATM    5  C   UNL     1     -11.587  16.247  68.036  1.00  0.00    -0.012 A  
HETATM    6  C   UNL     1     -10.413  16.646  67.384  1.00  0.00    -0.314 A  
HETATM    7 CL   UNL     1     -10.584  17.454  65.857  1.00  0.00    -0.283 Cl 
HETATM    8  C   UNL     1      -9.130  16.390  67.921  1.00  0.00    -0.201 A  
ENDROOT
BRANCH   8   9
HETATM    9  N   UNL     1      -7.996  16.890  67.246  1.00  0.00    -0.168 NA 
HETATM   10  H   UNL     1      -7.576  16.270  66.552  1.00  0.00     0.000 HD 
BRANCH   9  11
HETATM   11  C   UNL     1      -7.398  18.095  67.411  1.00  0.00    -0.210 A  
HETATM   12  N   UNL     1      -7.411  18.870  68.455  1.00  0.00    -0.287 NA 
HETATM   13  C   UNL     1      -6.504  19.992  68.120  1.00  0.00    -0.266 A  
HETATM   14  H   UNL     1      -7.934  18.735  69.320  1.00  0.00     0.000 HD 
HETATM   15  C   UNL     1      -6.023  19.759  66.688  1.00  0.00    -0.167 A  
HETATM   16  N   UNL     1      -6.679  18.518  66.330  1.00  0.00    -0.195 NA 
ENDBRANCH   9  11
ENDBRANCH   8   9
TORSDOF 2
ENDMDL
MODEL      179
REMARK 921   NORMALIZED FREE ENERGY PREDICTED BY IDOCK:   -2.77 KCAL/MOL
REMARK 922        TOTAL FREE ENERGY PREDICTED BY IDOCK:   -3.35 KCAL/MOL
REMARK 923 INTER-LIGAND FREE ENERGY PREDICTED BY IDOCK:   -3.10 KCAL/MOL
REMARK 924 INTRA-LIGAND FREE ENERGY PREDICTED BY IDOCK:   -0.25 KCAL/MOL
REMARK 927      BINDING AFFINITY PREDICTED BY RF-SCORE:    0.00 PKD
ROOT
HETATM    1 CL   UNL     1     -11.542  11.077  68.428  1.00  0.00    -0.380 Cl 
HETATM    2  C   UNL     1      -9.820  11.063  68.638  1.00  0.00    -0.193 A  
HETATM    3  C   UNL     1      -9.106  11.893  67.760  1.00  0.00    -0.180 A  
HETATM    4  C   UNL     1      -7.719  11.829  67.689  1.00  0.00    -0.137 A  
HETATM    5  C   UNL     1      -7.035  10.923  68.491  1.00  0.00    -0.072 A  
HETATM    6  C   UNL     1      -7.742  10.108  69.383  1.00  0.00    -0.138 A  
HETATM    7 CL   UNL     1      -6.824   8.988  70.340  1.00  0.00    -0.048 Cl 
HETATM    8  C   UNL     1      -9.151  10.164  69.498  1.00  0.00    -0.195 A  
ENDROOT
BRANCH   8   9
HETATM    9  N   UNL     1      -9.788   9.367  70.474  1.00  0.00    -0.253 NA 
HETATM   10  H   UNL     1      -9.742   9.708  71.434  1.00  0.00     0.000 HD 
BRANCH   9  11
HETATM   11  C   UNL     1     -10.453   8.201  70.284  1.00  0.00    -0.219 A  
HETATM   12  N   UNL     1     -10.950   7.721  69.183  1.00  0.00    -0.427 NA 
HETATM   13  C   UNL     1     -11.457   6.375  69.537  1.00  0.00    -0.343 A  
HETATM   14  H   UNL     1     -10.985   8.174  68.270  1.00  0.00     0.000 HD 
HETATM   15  C   UNL     1     -11.222   6.195  71.037  1.00  0.00    -0.296 A  
HETATM   16  N   UNL     1     -10.586   7.442  71.411  1.00  0.00    -0.215 NA 
ENDBRANCH   9  11
ENDBRANCH   8   9
TORSDOF 2
ENDMDL
MODEL      180
REMARK 921   NORMALIZED FREE ENERGY PREDICTED BY IDOCK:   -2.76 KCAL/MOL
REMARK 922        TOTAL FREE ENERGY PREDICTED BY IDOCK:   -3.34 KCAL/MOL
REMARK 923 INTER-LIGAND FREE ENERGY PREDICTED BY IDOCK:   -3.04 KCAL/MOL
REMARK 924 INTRA-LIGAND FREE ENERGY PREDICTED BY IDOCK:   -0.30 KCAL/MOL
REMARK 927      BINDING AFFINITY PREDICTED BY RF-SCORE:    0.00 PKD
ROOT
HETATM    1 CL   UNL     1     -12.011  12.120  64.511  1.00  0.00    -0.429 Cl 
HETATM    2  C   UNL     1     -10.437  11.397  64.411  1.00  0.00    -0.330 A  
HETATM    3  C   UNL     1     -10.131  10.803  63.177  1.00  0.00    -0.268 A  
HETATM    4  C   UNL     1      -8.990  10.023  63.025  1.00  0.00    -0.272 A  
HETATM    5  C   UNL     1      -8.151   9.821  64.114  1.00  0.00    -0.153 A  
HETATM    6  C   UNL     1      -8.442  10.428  65.342  1.00  0.00    -0.168 A  
HETATM    7 CL   UNL     1      -7.358  10.118  66.662  1.00  0.00    -0.103 Cl 
HETATM    8  C   UNL     1      -9.580  11.247  65.525  1.00  0.00    -0.228 A  
ENDROOT
BRANCH   8   9
HETATM    9  N   UNL     1      -9.767  11.888  66.769  1.00  0.00    -0.200 NA 
HETATM   10  H   UNL     1      -9.294  12.784  66.889  1.00  0.00     0.000 HD 
BRANCH   9  11
HETATM   11  C   UNL     1     -10.500  11.452  67.822  1.00  0.00    -0.185 A  
HETATM   12  N   UNL     1     -11.641  10.829  67.813  1.00  0.00    -0.637 NA 
HETATM   13  C   UNL     1     -11.916  10.497  69.230  1.00  0.00    -0.122 A  
HETATM   14  H   UNL     1     -12.223  10.614  67.004  1.00  0.00     0.000 HD 
HETATM   15  C   UNL     1     -10.773  11.092  70.053  1.00  0.00     0.116 A  
HETATM   16  N   UNL     1      -9.933  11.696  69.040  1.00  0.00    -0.059 NA 
ENDBRANCH   9  11
ENDBRANCH   8   9
TORSDOF 2
ENDMDL
MODEL      181
REMARK 921   NORMALIZED FREE ENERGY PREDICTED BY IDOCK:   -2.71 KCAL/MOL
REMARK 922        TOTAL FREE ENERGY PREDICTED BY IDOCK:   -3.28 KCAL/MOL
REMARK 923 INTER-LIGAND FREE ENERGY PREDICTED BY IDOCK:   -2.98 KCAL/MOL
REMARK 924 INTRA-LIGAND FREE ENERGY PREDICTED BY IDOCK:   -0.29 KCAL/MOL
REMARK 927      BINDING AFFINITY PREDICTED BY RF-SCORE:    0.00 PKD
ROOT
HETATM    1 CL   UNL     1      -8.363  15.974  66.456  1.00  0.00    -0.330 Cl 
HETATM    2  C   UNL     1      -7.541  15.485  67.903  1.00  0.00    -0.133 A  
HETATM    3  C   UNL     1      -6.767  16.484  68.516  1.00  0.00    -0.145 A  
HETATM    4  C   UNL     1      -5.906  16.176  69.563  1.00  0.00    -0.150 A  
HETATM    5  C   UNL     1      -5.804  14.861  70.000  1.00  0.00    -0.134 A  
HETATM    6  C   UNL     1      -6.590  13.866  69.406  1.00  0.00    -0.114 A  
HETATM    7 CL   UNL     1      -6.398  12.243  69.992  1.00  0.00    -0.080 Cl 
HETATM    8  C   UNL     1      -7.493  14.147  68.355  1.00  0.00    -0.124 A  
ENDROOT
BRANCH   8   9
HETATM    9  N   UNL     1      -8.307  13.106  67.858  1.00  0.00    -0.157 NA 
HETATM   10  H   UNL     1      -7.828  12.367  67.343  1.00  0.00     0.000 HD 
BRANCH   9  11
HETATM   11  C   UNL     1      -9.650  12.975  67.983  1.00  0.00    -0.224 A  
HETATM   12  N   UNL     1     -10.347  12.760  69.060  1.00  0.00    -0.437 NA 
HETATM   13  C   UNL     1     -11.763  12.822  68.628  1.00  0.00    -0.324 A  
HETATM   14  H   UNL     1      -9.994  12.585  70.001  1.00  0.00     0.000 HD 
HETATM   15  C   UNL     1     -11.754  13.045  67.116  1.00  0.00    -0.382 A  
HETATM   16  N   UNL     1     -10.339  13.109  66.812  1.00  0.00    -0.250 NA 
ENDBRANCH   9  11
ENDBRANCH   8   9
TORSDOF 2
ENDMDL
MODEL      182
REMARK 921   NORMALIZED FREE ENERGY PREDICTED BY IDOCK:   -2.69 KCAL/MOL
REMARK 922        TOTAL FREE ENERGY PREDICTED BY IDOCK:   -3.26 KCAL/MOL
REMARK 923 INTER-LIGAND FREE ENERGY PREDICTED BY IDOCK:   -3.03 KCAL/MOL
REMARK 924 INTRA-LIGAND FREE ENERGY PREDICTED BY IDOCK:   -0.23 KCAL/MOL
REMARK 927      BINDING AFFINITY PREDICTED BY RF-SCORE:    0.00 PKD
ROOT
HETATM    1 CL   UNL     1      -7.076   8.799  68.434  1.00  0.00    -0.076 Cl 
HETATM    2  C   UNL     1      -8.253   8.147  69.529  1.00  0.00    -0.121 A  
HETATM    3  C   UNL     1      -8.166   6.762  69.743  1.00  0.00    -0.127 A  
HETATM    4  C   UNL     1      -9.162   6.084  70.437  1.00  0.00    -0.167 A  
HETATM    5  C   UNL     1     -10.261   6.787  70.915  1.00  0.00    -0.215 A  
HETATM    6  C   UNL     1     -10.342   8.172  70.722  1.00  0.00    -0.196 A  
HETATM    7 CL   UNL     1     -11.752   8.981  71.332  1.00  0.00    -0.366 Cl 
HETATM    8  C   UNL     1      -9.336   8.897  70.042  1.00  0.00    -0.174 A  
ENDROOT
BRANCH   8   9
HETATM    9  N   UNL     1      -9.448  10.301  69.953  1.00  0.00    -0.409 NA 
HETATM   10  H   UNL     1      -9.372  10.815  70.832  1.00  0.00     0.000 HD 
BRANCH   9  11
HETATM   11  C   UNL     1      -9.647  11.046  68.839  1.00  0.00    -0.163 A  
HETATM   12  N   UNL     1      -9.238  12.255  68.588  1.00  0.00    -0.394 NA 
HETATM   13  C   UNL     1      -9.640  12.521  67.187  1.00  0.00    -0.208 A  
HETATM   14  H   UNL     1      -8.747  12.886  69.221  1.00  0.00     0.000 HD 
HETATM   15  C   UNL     1     -10.400  11.286  66.704  1.00  0.00    -0.237 A  
HETATM   16  N   UNL     1     -10.355  10.412  67.859  1.00  0.00    -0.179 NA 
ENDBRANCH   9  11
ENDBRANCH   8   9
TORSDOF 2
ENDMDL
MODEL      183
REMARK 921   NORMALIZED FREE ENERGY PREDICTED BY IDOCK:   -2.69 KCAL/MOL
REMARK 922        TOTAL FREE ENERGY PREDICTED BY IDOCK:   -3.26 KCAL/MOL
REMARK 923 INTER-LIGAND FREE ENERGY PREDICTED BY IDOCK:   -3.00 KCAL/MOL
REMARK 924 INTRA-LIGAND FREE ENERGY PREDICTED BY IDOCK:   -0.26 KCAL/MOL
REMARK 927      BINDING AFFINITY PREDICTED BY RF-SCORE:    0.00 PKD
ROOT
HETATM    1 CL   UNL     1      -9.953  10.922  69.058  1.00  0.00    -0.219 Cl 
HETATM    2  C   UNL     1     -10.345   9.772  70.297  1.00  0.00    -0.291 A  
HETATM    3  C   UNL     1     -11.718   9.553  70.495  1.00  0.00    -0.285 A  
HETATM    4  C   UNL     1     -12.172   8.812  71.579  1.00  0.00    -0.382 A  
HETATM    5  C   UNL     1     -11.254   8.290  72.482  1.00  0.00    -0.446 A  
HETATM    6  C   UNL     1      -9.883   8.488  72.277  1.00  0.00    -0.313 A  
HETATM    7 CL   UNL     1      -8.796   7.822  73.456  1.00  0.00    -0.281 Cl 
HETATM    8  C   UNL     1      -9.385   9.217  71.173  1.00  0.00    -0.243 A  
ENDROOT
BRANCH   8   9
HETATM    9  N   UNL     1      -7.989   9.309  70.990  1.00  0.00    -0.309 NA 
HETATM   10  H   UNL     1      -7.530  10.114  71.420  1.00  0.00     0.000 HD 
BRANCH   9  11
HETATM   11  C   UNL     1      -7.185   8.457  70.309  1.00  0.00    -0.044 A  
HETATM   12  N   UNL     1      -6.208   7.728  70.761  1.00  0.00    -0.034 NA 
HETATM   13  C   UNL     1      -5.763   6.911  69.608  1.00  0.00    -0.015 A  
HETATM   14  H   UNL     1      -5.828   7.720  71.708  1.00  0.00     0.000 HD 
HETATM   15  C   UNL     1      -6.607   7.344  68.409  1.00  0.00    -0.046 A  
HETATM   16  N   UNL     1      -7.474   8.355  68.978  1.00  0.00    -0.091 NA 
ENDBRANCH   9  11
ENDBRANCH   8   9
TORSDOF 2
ENDMDL
MODEL      184
REMARK 921   NORMALIZED FREE ENERGY PREDICTED BY IDOCK:   -2.65 KCAL/MOL
REMARK 922        TOTAL FREE ENERGY PREDICTED BY IDOCK:   -3.21 KCAL/MOL
REMARK 923 INTER-LIGAND FREE ENERGY PREDICTED BY IDOCK:   -2.90 KCAL/MOL
REMARK 924 INTRA-LIGAND FREE ENERGY PREDICTED BY IDOCK:   -0.31 KCAL/MOL
REMARK 927      BINDING AFFINITY PREDICTED BY RF-SCORE:    0.00 PKD
ROOT
HETATM    1 CL   UNL     1      -8.981  12.456  68.301  1.00  0.00    -0.192 Cl 
HETATM    2  C   UNL     1      -9.284  10.748  68.289  1.00  0.00    -0.157 A  
HETATM    3  C   UNL     1      -9.813  10.227  69.480  1.00  0.00    -0.244 A  
HETATM    4  C   UNL     1      -9.918   8.855  69.673  1.00  0.00    -0.193 A  
HETATM    5  C   UNL     1      -9.482   7.989  68.676  1.00  0.00    -0.147 A  
HETATM    6  C   UNL     1      -8.973   8.505  67.479  1.00  0.00    -0.135 A  
HETATM    7 CL   UNL     1      -8.432   7.364  66.286  1.00  0.00    -0.130 Cl 
HETATM    8  C   UNL     1      -8.874   9.894  67.239  1.00  0.00    -0.132 A  
ENDROOT
BRANCH   8   9
HETATM    9  N   UNL     1      -8.422  10.339  65.978  1.00  0.00    -0.136 NA 
HETATM   10  H   UNL     1      -7.419  10.259  65.805  1.00  0.00     0.000 HD 
BRANCH   9  11
HETATM   11  C   UNL     1      -9.163  10.861  64.970  1.00  0.00    -0.207 A  
HETATM   12  N   UNL     1      -9.703  12.041  64.888  1.00  0.00    -0.423 NA 
HETATM   13  C   UNL     1     -10.291  12.108  63.530  1.00  0.00    -0.441 A  
HETATM   14  H   UNL     1      -9.719  12.766  65.604  1.00  0.00     0.000 HD 
HETATM   15  C   UNL     1     -10.051  10.746  62.878  1.00  0.00    -0.085 A  
HETATM   16  N   UNL     1      -9.333  10.023  63.906  1.00  0.00    -0.277 NA 
ENDBRANCH   9  11
ENDBRANCH   8   9
TORSDOF 2
ENDMDL
MODEL      185
REMARK 921   NORMALIZED FREE ENERGY PREDICTED BY IDOCK:   -2.63 KCAL/MOL
REMARK 922        TOTAL FREE ENERGY PREDICTED BY IDOCK:   -3.19 KCAL/MOL
REMARK 923 INTER-LIGAND FREE ENERGY PREDICTED BY IDOCK:   -2.98 KCAL/MOL
REMARK 924 INTRA-LIGAND FREE ENERGY PREDICTED BY IDOCK:   -0.21 KCAL/MOL
REMARK 927      BINDING AFFINITY PREDICTED BY RF-SCORE:    0.00 PKD
ROOT
HETATM    1 CL   UNL     1     -11.799   6.651  72.151  1.00  0.00    -0.343 Cl 
HETATM    2  C   UNL     1     -10.694   5.400  71.678  1.00  0.00    -0.198 A  
HETATM    3  C   UNL     1     -10.086   4.709  72.738  1.00  0.00    -0.220 A  
HETATM    4  C   UNL     1      -9.040   3.824  72.505  1.00  0.00    -0.135 A  
HETATM    5  C   UNL     1      -8.585   3.631  71.206  1.00  0.00    -0.113 A  
HETATM    6  C   UNL     1      -9.202   4.303  70.144  1.00  0.00    -0.135 A  
HETATM    7 CL   UNL     1      -8.570   4.026  68.550  1.00  0.00    -0.106 Cl 
HETATM    8  C   UNL     1     -10.283   5.192  70.342  1.00  0.00    -0.264 A  
ENDROOT
BRANCH   8   9
HETATM    9  N   UNL     1     -10.904   5.773  69.216  1.00  0.00    -0.320 NA 
HETATM   10  H   UNL     1     -11.712   5.276  68.840  1.00  0.00     0.000 HD 
BRANCH   9  11
HETATM   11  C   UNL     1     -10.553   6.915  68.575  1.00  0.00    -0.212 A  
HETATM   12  N   UNL     1     -10.630   7.188  67.306  1.00  0.00    -0.296 NA 
HETATM   13  C   UNL     1     -10.223   8.608  67.187  1.00  0.00    -0.283 A  
HETATM   14  H   UNL     1     -10.909   6.560  66.553  1.00  0.00     0.000 HD 
HETATM   15  C   UNL     1      -9.842   9.077  68.591  1.00  0.00    -0.165 A  
HETATM   16  N   UNL     1     -10.079   7.897  69.396  1.00  0.00    -0.191 NA 
ENDBRANCH   9  11
ENDBRANCH   8   9
TORSDOF 2
ENDMDL
MODEL      186
REMARK 921   NORMALIZED FREE ENERGY PREDICTED BY IDOCK:   -2.57 KCAL/MOL
REMARK 922        TOTAL FREE ENERGY PREDICTED BY IDOCK:   -3.13 KCAL/MOL
REMARK 923 INTER-LIGAND FREE ENERGY PREDICTED BY IDOCK:   -2.94 KCAL/MOL
REMARK 924 INTRA-LIGAND FREE ENERGY PREDICTED BY IDOCK:   -0.18 KCAL/MOL
REMARK 927      BINDING AFFINITY PREDICTED BY RF-SCORE:    0.00 PKD
ROOT
HETATM    1 CL   UNL     1     -10.888  10.122  68.983  1.00  0.00    -0.238 Cl 
HETATM    2  C   UNL     1      -9.271   9.927  69.580  1.00  0.00    -0.223 A  
HETATM    3  C   UNL     1      -8.255  10.246  68.665  1.00  0.00    -0.116 A  
HETATM    4  C   UNL     1      -6.926   9.950  68.944  1.00  0.00    -0.062 A  
HETATM    5  C   UNL     1      -6.603   9.320  70.140  1.00  0.00    -0.052 A  
HETATM    6  C   UNL     1      -7.610   9.019  71.064  1.00  0.00    -0.115 A  
HETATM    7 CL   UNL     1      -7.134   8.217  72.529  1.00  0.00    -0.114 Cl 
HETATM    8  C   UNL     1      -8.969   9.327  70.824  1.00  0.00    -0.232 A  
ENDROOT
BRANCH   8   9
HETATM    9  N   UNL     1      -9.918   9.063  71.835  1.00  0.00    -0.310 NA 
HETATM   10  H   UNL     1      -9.741   9.496  72.742  1.00  0.00     0.000 HD 
BRANCH   9  11
HETATM   11  C   UNL     1     -11.036   8.303  71.742  1.00  0.00    -0.278 A  
HETATM   12  N   UNL     1     -12.234   8.568  72.171  1.00  0.00    -0.358 NA 
HETATM   13  C   UNL     1     -13.076   7.445  71.697  1.00  0.00    -0.364 A  
HETATM   14  H   UNL     1     -12.532   9.375  72.719  1.00  0.00     0.000 HD 
HETATM   15  C   UNL     1     -12.145   6.467  70.980  1.00  0.00    -0.243 A  
HETATM   16  N   UNL     1     -10.856   7.118  71.089  1.00  0.00    -0.237 NA 
ENDBRANCH   9  11
ENDBRANCH   8   9
TORSDOF 2
ENDMDL
MODEL      187
REMARK 921   NORMALIZED FREE ENERGY PREDICTED BY IDOCK:   -2.52 KCAL/MOL
REMARK 922        TOTAL FREE ENERGY PREDICTED BY IDOCK:   -3.07 KCAL/MOL
REMARK 923 INTER-LIGAND FREE ENERGY PREDICTED BY IDOCK:   -2.78 KCAL/MOL
REMARK 924 INTRA-LIGAND FREE ENERGY PREDICTED BY IDOCK:   -0.28 KCAL/MOL
REMARK 927      BINDING AFFINITY PREDICTED BY RF-SCORE:    0.00 PKD
ROOT
HETATM    1 CL   UNL     1      -8.984  11.484  68.174  1.00  0.00    -0.166 Cl 
HETATM    2  C   UNL     1      -7.981  12.893  68.034  1.00  0.00    -0.158 A  
HETATM    3  C   UNL     1      -6.599  12.649  68.088  1.00  0.00    -0.081 A  
HETATM    4  C   UNL     1      -5.694  13.699  68.185  1.00  0.00    -0.116 A  
HETATM    5  C   UNL     1      -6.165  15.005  68.240  1.00  0.00    -0.124 A  
HETATM    6  C   UNL     1      -7.541  15.254  68.165  1.00  0.00    -0.115 A  
HETATM    7 CL   UNL     1      -8.059  16.909  68.256  1.00  0.00    -0.208 Cl 
HETATM    8  C   UNL     1      -8.489  14.211  68.041  1.00  0.00    -0.171 A  
ENDROOT
BRANCH   8   9
HETATM    9  N   UNL     1      -9.853  14.543  67.894  1.00  0.00    -0.219 NA 
HETATM   10  H   UNL     1     -10.179  14.693  66.938  1.00  0.00     0.000 HD 
BRANCH   9  11
HETATM   11  C   UNL     1     -10.780  14.686  68.872  1.00  0.00    -0.248 A  
HETATM   12  N   UNL     1     -10.930  15.668  69.711  1.00  0.00    -0.276 NA 
HETATM   13  C   UNL     1     -12.162  15.351  70.468  1.00  0.00    -0.394 A  
HETATM   14  H   UNL     1     -10.327  16.482  69.824  1.00  0.00     0.000 HD 
HETATM   15  C   UNL     1     -12.654  13.994  69.964  1.00  0.00    -0.194 A  
HETATM   16  N   UNL     1     -11.675  13.657  68.952  1.00  0.00    -0.315 NA 
ENDBRANCH   9  11
ENDBRANCH   8   9
TORSDOF 2
ENDMDL
MODEL      188
REMARK 921   NORMALIZED FREE ENERGY PREDICTED BY IDOCK:   -2.50 KCAL/MOL
REMARK 922        TOTAL FREE ENERGY PREDICTED BY IDOCK:   -3.05 KCAL/MOL
REMARK 923 INTER-LIGAND FREE ENERGY PREDICTED BY IDOCK:   -2.84 KCAL/MOL
REMARK 924 INTRA-LIGAND FREE ENERGY PREDICTED BY IDOCK:   -0.20 KCAL/MOL
REMARK 927      BINDING AFFINITY PREDICTED BY RF-SCORE:    0.00 PKD
ROOT
HETATM    1 CL   UNL     1     -10.965  11.875  64.635  1.00  0.00    -0.355 Cl 
HETATM    2  C   UNL     1      -9.466  11.418  65.378  1.00  0.00    -0.216 A  
HETATM    3  C   UNL     1      -8.616  10.639  64.577  1.00  0.00    -0.115 A  
HETATM    4  C   UNL     1      -7.480  10.043  65.112  1.00  0.00    -0.139 A  
HETATM    5  C   UNL     1      -7.190  10.214  66.461  1.00  0.00    -0.104 A  
HETATM    6  C   UNL     1      -8.024  11.007  67.259  1.00  0.00    -0.126 A  
HETATM    7 CL   UNL     1      -7.609  11.162  68.938  1.00  0.00    -0.128 Cl 
HETATM    8  C   UNL     1      -9.174  11.647  66.742  1.00  0.00    -0.186 A  
ENDROOT
BRANCH   8   9
HETATM    9  N   UNL     1      -9.923  12.493  67.588  1.00  0.00    -0.198 NA 
HETATM   10  H   UNL     1     -10.800  12.110  67.945  1.00  0.00     0.000 HD 
BRANCH   9  11
HETATM   11  C   UNL     1      -9.615  13.752  67.982  1.00  0.00    -0.214 A  
HETATM   12  N   UNL     1      -9.798  14.305  69.145  1.00  0.00    -0.419 NA 
HETATM   13  C   UNL     1      -9.173  15.645  69.042  1.00  0.00    -0.243 A  
HETATM   14  H   UNL     1     -10.270  13.904  69.954  1.00  0.00     0.000 HD 
HETATM   15  C   UNL     1      -8.661  15.785  67.609  1.00  0.00    -0.170 A  
HETATM   16  N   UNL     1      -9.019  14.512  67.017  1.00  0.00    -0.229 NA 
ENDBRANCH   9  11
ENDBRANCH   8   9
TORSDOF 2
ENDMDL
MODEL      189
REMARK 921   NORMALIZED FREE ENERGY PREDICTED BY IDOCK:   -2.47 KCAL/MOL
REMARK 922        TOTAL FREE ENERGY PREDICTED BY IDOCK:   -3.02 KCAL/MOL
REMARK 923 INTER-LIGAND FREE ENERGY PREDICTED BY IDOCK:   -2.69 KCAL/MOL
REMARK 924 INTRA-LIGAND FREE ENERGY PREDICTED BY IDOCK:   -0.33 KCAL/MOL
REMARK 927      BINDING AFFINITY PREDICTED BY RF-SCORE:    0.00 PKD
ROOT
HETATM    1 CL   UNL     1     -10.694   5.345  66.482  1.00  0.00    -0.358 Cl 
HETATM    2  C   UNL     1      -9.652   5.153  67.855  1.00  0.00    -0.135 A  
HETATM    3  C   UNL     1      -8.668   4.162  67.723  1.00  0.00    -0.120 A  
HETATM    4  C   UNL     1      -7.899   3.771  68.813  1.00  0.00    -0.055 A  
HETATM    5  C   UNL     1      -8.117   4.364  70.051  1.00  0.00    -0.060 A  
HETATM    6  C   UNL     1      -9.084   5.368  70.183  1.00  0.00    -0.135 A  
HETATM    7 CL   UNL     1      -9.314   6.052  71.762  1.00  0.00    -0.155 Cl 
HETATM    8  C   UNL     1      -9.867   5.807  69.090  1.00  0.00    -0.162 A  
ENDROOT
BRANCH   8   9
HETATM    9  N   UNL     1     -10.768   6.876  69.282  1.00  0.00    -0.229 NA 
HETATM   10  H   UNL     1     -11.644   6.648  69.753  1.00  0.00     0.000 HD 
BRANCH   9  11
HETATM   11  C   UNL     1     -10.607   8.170  68.913  1.00  0.00    -0.140 A  
HETATM   12  N   UNL     1     -10.920   8.737  67.785  1.00  0.00    -0.485 NA 
HETATM   13  C   UNL     1     -10.630  10.177  67.978  1.00  0.00    -0.231 A  
HETATM   14  H   UNL     1     -11.285   8.287  66.946  1.00  0.00     0.000 HD 
HETATM   15  C   UNL     1     -10.041  10.325  69.381  1.00  0.00    -0.235 A  
HETATM   16  N   UNL     1     -10.059   8.965  69.879  1.00  0.00    -0.189 NA 
ENDBRANCH   9  11
ENDBRANCH   8   9
TORSDOF 2
ENDMDL
MODEL      190
REMARK 921   NORMALIZED FREE ENERGY PREDICTED BY IDOCK:   -2.39 KCAL/MOL
REMARK 922        TOTAL FREE ENERGY PREDICTED BY IDOCK:   -2.92 KCAL/MOL
REMARK 923 INTER-LIGAND FREE ENERGY PREDICTED BY IDOCK:   -2.61 KCAL/MOL
REMARK 924 INTRA-LIGAND FREE ENERGY PREDICTED BY IDOCK:   -0.31 KCAL/MOL
REMARK 927      BINDING AFFINITY PREDICTED BY RF-SCORE:    0.00 PKD
ROOT
HETATM    1 CL   UNL     1      -7.176   9.213  68.553  1.00  0.00    -0.072 Cl 
HETATM    2  C   UNL     1      -7.453   7.672  67.807  1.00  0.00    -0.108 A  
HETATM    3  C   UNL     1      -6.303   7.029  67.322  1.00  0.00    -0.052 A  
HETATM    4  C   UNL     1      -6.403   5.889  66.533  1.00  0.00    -0.038 A  
HETATM    5  C   UNL     1      -7.660   5.388  66.213  1.00  0.00    -0.087 A  
HETATM    6  C   UNL     1      -8.808   6.014  66.712  1.00  0.00    -0.120 A  
HETATM    7 CL   UNL     1     -10.344   5.343  66.257  1.00  0.00    -0.254 Cl 
HETATM    8  C   UNL     1      -8.742   7.161  67.537  1.00  0.00    -0.121 A  
ENDROOT
BRANCH   8   9
HETATM    9  N   UNL     1      -9.939   7.692  68.065  1.00  0.00    -0.168 NA 
HETATM   10  H   UNL     1     -10.408   8.397  67.495  1.00  0.00     0.000 HD 
BRANCH   9  11
HETATM   11  C   UNL     1     -10.537   7.375  69.239  1.00  0.00    -0.213 A  
HETATM   12  N   UNL     1     -11.462   6.489  69.465  1.00  0.00    -0.606 NA 
HETATM   13  C   UNL     1     -11.653   6.490  70.934  1.00  0.00    -0.359 A  
HETATM   14  H   UNL     1     -11.951   5.916  68.778  1.00  0.00     0.000 HD 
HETATM   15  C   UNL     1     -10.730   7.569  71.499  1.00  0.00    -0.218 A  
HETATM   16  N   UNL     1     -10.076   8.082  70.312  1.00  0.00    -0.191 NA 
ENDBRANCH   9  11
ENDBRANCH   8   9
TORSDOF 2
ENDMDL
MODEL      191
REMARK 921   NORMALIZED FREE ENERGY PREDICTED BY IDOCK:   -2.35 KCAL/MOL
REMARK 922        TOTAL FREE ENERGY PREDICTED BY IDOCK:   -2.88 KCAL/MOL
REMARK 923 INTER-LIGAND FREE ENERGY PREDICTED BY IDOCK:   -2.60 KCAL/MOL
REMARK 924 INTRA-LIGAND FREE ENERGY PREDICTED BY IDOCK:   -0.27 KCAL/MOL
REMARK 927      BINDING AFFINITY PREDICTED BY RF-SCORE:    0.00 PKD
ROOT
HETATM    1 CL   UNL     1      -6.520  10.260  67.677  1.00  0.00    -0.058 Cl 
HETATM    2  C   UNL     1      -8.098  10.871  67.296  1.00  0.00    -0.123 A  
HETATM    3  C   UNL     1      -8.895  11.196  68.405  1.00  0.00    -0.157 A  
HETATM    4  C   UNL     1     -10.241  11.508  68.248  1.00  0.00    -0.205 A  
HETATM    5  C   UNL     1     -10.804  11.486  66.978  1.00  0.00    -0.320 A  
HETATM    6  C   UNL     1     -10.008  11.182  65.867  1.00  0.00    -0.239 A  
HETATM    7 CL   UNL     1     -10.782  11.156  64.313  1.00  0.00    -0.425 Cl 
HETATM    8  C   UNL     1      -8.631  10.884  65.987  1.00  0.00    -0.177 A  
ENDROOT
BRANCH   8   9
HETATM    9  N   UNL     1      -7.875  10.663  64.815  1.00  0.00    -0.347 NA 
HETATM   10  H   UNL     1      -7.526  11.496  64.341  1.00  0.00     0.000 HD 
BRANCH   9  11
HETATM   11  C   UNL     1      -7.560   9.474  64.246  1.00  0.00    -0.122 A  
HETATM   12  N   UNL     1      -6.722   8.572  64.663  1.00  0.00    -0.068 NA 
HETATM   13  C   UNL     1      -6.866   7.439  63.719  1.00  0.00    -0.053 A  
HETATM   14  H   UNL     1      -6.098   8.631  65.467  1.00  0.00     0.000 HD 
HETATM   15  C   UNL     1      -7.879   7.872  62.660  1.00  0.00    -0.142 A  
HETATM   16  N   UNL     1      -8.243   9.205  63.094  1.00  0.00    -0.166 NA 
ENDBRANCH   9  11
ENDBRANCH   8   9
TORSDOF 2
ENDMDL
MODEL      192
REMARK 921   NORMALIZED FREE ENERGY PREDICTED BY IDOCK:   -2.27 KCAL/MOL
REMARK 922        TOTAL FREE ENERGY PREDICTED BY IDOCK:   -2.79 KCAL/MOL
REMARK 923 INTER-LIGAND FREE ENERGY PREDICTED BY IDOCK:   -2.55 KCAL/MOL
REMARK 924 INTRA-LIGAND FREE ENERGY PREDICTED BY IDOCK:   -0.25 KCAL/MOL
REMARK 927      BINDING AFFINITY PREDICTED BY RF-SCORE:    0.00 PKD
ROOT
HETATM    1 CL   UNL     1      -8.797  11.399  68.348  1.00  0.00    -0.164 Cl 
HETATM    2  C   UNL     1      -7.389  12.204  68.962  1.00  0.00     0.000 A  
HETATM    3  C   UNL     1      -6.434  11.364  69.557  1.00  0.00    -0.122 A  
HETATM    4  C   UNL     1      -5.358  11.894  70.260  1.00  0.00    -0.113 A  
HETATM    5  C   UNL     1      -5.235  13.273  70.382  1.00  0.00    -0.115 A  
HETATM    6  C   UNL     1      -6.173  14.114  69.773  1.00  0.00    -0.138 A  
HETATM    7 CL   UNL     1      -5.965  15.825  69.983  1.00  0.00    -0.164 Cl 
HETATM    8  C   UNL     1      -7.266  13.610  69.031  1.00  0.00    -0.049 A  
ENDROOT
BRANCH   8   9
HETATM    9  N   UNL     1      -8.128  14.520  68.381  1.00  0.00    -0.136 NA 
HETATM   10  H   UNL     1      -7.930  14.702  67.396  1.00  0.00     0.000 HD 
BRANCH   9  11
HETATM   11  C   UNL     1      -9.186  15.180  68.911  1.00  0.00    -0.209 A  
HETATM   12  N   UNL     1      -9.818  14.941  70.022  1.00  0.00    -0.455 NA 
HETATM   13  C   UNL     1     -10.805  16.037  70.155  1.00  0.00    -0.346 A  
HETATM   14  H   UNL     1      -9.666  14.163  70.665  1.00  0.00     0.000 HD 
HETATM   15  C   UNL     1     -10.672  16.904  68.903  1.00  0.00    -0.321 A  
HETATM   16  N   UNL     1      -9.613  16.244  68.169  1.00  0.00    -0.217 NA 
ENDBRANCH   9  11
ENDBRANCH   8   9
TORSDOF 2
ENDMDL
MODEL      193
REMARK 921   NORMALIZED FREE ENERGY PREDICTED BY IDOCK:   -2.23 KCAL/MOL
REMARK 922        TOTAL FREE ENERGY PREDICTED BY IDOCK:   -2.75 KCAL/MOL
REMARK 923 INTER-LIGAND FREE ENERGY PREDICTED BY IDOCK:   -2.67 KCAL/MOL
REMARK 924 INTRA-LIGAND FREE ENERGY PREDICTED BY IDOCK:   -0.08 KCAL/MOL
REMARK 927      BINDING AFFINITY PREDICTED BY RF-SCORE:    0.00 PKD
ROOT
HETATM    1 CL   UNL     1      -8.413   9.141  65.945  1.00  0.00    -0.140 Cl 
HETATM    2  C   UNL     1      -9.390   9.578  67.310  1.00  0.00    -0.134 A  
HETATM    3  C   UNL     1     -10.275  10.646  67.091  1.00  0.00    -0.261 A  
HETATM    4  C   UNL     1     -10.970  11.223  68.148  1.00  0.00    -0.284 A  
HETATM    5  C   UNL     1     -10.776  10.742  69.438  1.00  0.00    -0.272 A  
HETATM    6  C   UNL     1      -9.909   9.664  69.657  1.00  0.00    -0.215 A  
HETATM    7 CL   UNL     1      -9.703   9.128  71.295  1.00  0.00    -0.364 Cl 
HETATM    8  C   UNL     1      -9.205   9.038  68.603  1.00  0.00    -0.136 A  
ENDROOT
BRANCH   8   9
HETATM    9  N   UNL     1      -8.409   7.908  68.890  1.00  0.00    -0.126 NA 
HETATM   10  H   UNL     1      -7.400   8.060  68.905  1.00  0.00     0.000 HD 
BRANCH   9  11
HETATM   11  C   UNL     1      -8.828   6.645  69.147  1.00  0.00    -0.129 A  
HETATM   12  N   UNL     1      -9.173   6.121  70.286  1.00  0.00    -0.155 NA 
HETATM   13  C   UNL     1      -9.649   4.757  69.960  1.00  0.00    -0.190 A  
HETATM   14  H   UNL     1      -9.126   6.556  71.207  1.00  0.00     0.000 HD 
HETATM   15  C   UNL     1      -9.457   4.570  68.455  1.00  0.00    -0.152 A  
HETATM   16  N   UNL     1      -8.906   5.844  68.044  1.00  0.00    -0.110 NA 
ENDBRANCH   9  11
ENDBRANCH   8   9
TORSDOF 2
ENDMDL
MODEL      194
REMARK 921   NORMALIZED FREE ENERGY PREDICTED BY IDOCK:   -2.18 KCAL/MOL
REMARK 922        TOTAL FREE ENERGY PREDICTED BY IDOCK:   -2.69 KCAL/MOL
REMARK 923 INTER-LIGAND FREE ENERGY PREDICTED BY IDOCK:   -2.41 KCAL/MOL
REMARK 924 INTRA-LIGAND FREE ENERGY PREDICTED BY IDOCK:   -0.28 KCAL/MOL
REMARK 927      BINDING AFFINITY PREDICTED BY RF-SCORE:    0.00 PKD
ROOT
HETATM    1 CL   UNL     1      -6.511   7.815  72.462  1.00  0.00    -0.060 Cl 
HETATM    2  C   UNL     1      -8.214   7.506  72.576  1.00  0.00    -0.108 A  
HETATM    3  C   UNL     1      -8.744   7.561  73.875  1.00  0.00    -0.280 A  
HETATM    4  C   UNL     1     -10.045   7.144  74.131  1.00  0.00    -0.214 A  
HETATM    5  C   UNL     1     -10.824   6.655  73.089  1.00  0.00    -0.298 A  
HETATM    6  C   UNL     1     -10.306   6.618  71.789  1.00  0.00    -0.196 A  
HETATM    7 CL   UNL     1     -11.330   5.980  70.540  1.00  0.00    -0.370 Cl 
HETATM    8  C   UNL     1      -8.996   7.057  71.488  1.00  0.00    -0.139 A  
ENDROOT
BRANCH   8   9
HETATM    9  N   UNL     1      -8.570   7.061  70.142  1.00  0.00    -0.139 NA 
HETATM   10  H   UNL     1      -8.333   6.152  69.742  1.00  0.00     0.000 HD 
BRANCH   9  11
HETATM   11  C   UNL     1      -8.437   8.129  69.319  1.00  0.00    -0.134 A  
HETATM   12  N   UNL     1      -7.445   8.430  68.535  1.00  0.00    -0.093 NA 
HETATM   13  C   UNL     1      -7.886   9.633  67.791  1.00  0.00    -0.094 A  
HETATM   14  H   UNL     1      -6.553   7.943  68.449  1.00  0.00     0.000 HD 
HETATM   15  C   UNL     1      -9.268  10.003  68.330  1.00  0.00    -0.129 A  
HETATM   16  N   UNL     1      -9.510   8.975  69.320  1.00  0.00    -0.155 NA 
ENDBRANCH   9  11
ENDBRANCH   8   9
TORSDOF 2
ENDMDL
MODEL      195
REMARK 921   NORMALIZED FREE ENERGY PREDICTED BY IDOCK:   -2.08 KCAL/MOL
REMARK 922        TOTAL FREE ENERGY PREDICTED BY IDOCK:   -2.58 KCAL/MOL
REMARK 923 INTER-LIGAND FREE ENERGY PREDICTED BY IDOCK:   -2.96 KCAL/MOL
REMARK 924 INTRA-LIGAND FREE ENERGY PREDICTED BY IDOCK:    0.38 KCAL/MOL
REMARK 927      BINDING AFFINITY PREDICTED BY RF-SCORE:    0.00 PKD
ROOT
HETATM    1 CL   UNL     1      -9.557   9.891  67.837  1.00  0.00    -0.153 Cl 
HETATM    2  C   UNL     1     -10.427   8.955  69.010  1.00  0.00    -0.214 A  
HETATM    3  C   UNL     1     -11.115   9.703  69.978  1.00  0.00    -0.293 A  
HETATM    4  C   UNL     1     -11.686   9.084  71.083  1.00  0.00    -0.366 A  
HETATM    5  C   UNL     1     -11.564   7.707  71.235  1.00  0.00    -0.302 A  
HETATM    6  C   UNL     1     -10.897   6.955  70.261  1.00  0.00    -0.257 A  
HETATM    7 CL   UNL     1     -10.768   5.244  70.524  1.00  0.00    -0.270 Cl 
HETATM    8  C   UNL     1     -10.325   7.549  69.112  1.00  0.00    -0.212 A  
ENDROOT
BRANCH   8   9
HETATM    9  N   UNL     1      -9.735   6.718  68.136  1.00  0.00    -0.128 NA 
HETATM   10  H   UNL     1      -9.790   5.713  68.307  1.00  0.00     0.000 HD 
BRANCH   9  11
HETATM   11  C   UNL     1      -9.103   7.097  66.998  1.00  0.00    -0.134 A  
HETATM   12  N   UNL     1      -9.624   7.441  65.858  1.00  0.00    -0.397 NA 
HETATM   13  C   UNL     1      -8.480   7.866  65.018  1.00  0.00    -0.055 A  
HETATM   14  H   UNL     1     -10.609   7.422  65.596  1.00  0.00     0.000 HD 
HETATM   15  C   UNL     1      -7.216   7.646  65.849  1.00  0.00    -0.069 A  
HETATM   16  N   UNL     1      -7.742   7.132  67.097  1.00  0.00    -0.106 NA 
ENDBRANCH   9  11
ENDBRANCH   8   9
TORSDOF 2
ENDMDL
MODEL      196
REMARK 921   NORMALIZED FREE ENERGY PREDICTED BY IDOCK:   -2.03 KCAL/MOL
REMARK 922        TOTAL FREE ENERGY PREDICTED BY IDOCK:   -2.52 KCAL/MOL
REMARK 923 INTER-LIGAND FREE ENERGY PREDICTED BY IDOCK:   -2.26 KCAL/MOL
REMARK 924 INTRA-LIGAND FREE ENERGY PREDICTED BY IDOCK:   -0.25 KCAL/MOL
REMARK 927      BINDING AFFINITY PREDICTED BY RF-SCORE:    0.00 PKD
ROOT
HETATM    1 CL   UNL     1      -7.494   7.735  71.469  1.00  0.00    -0.074 Cl 
HETATM    2  C   UNL     1      -9.111   7.109  71.416  1.00  0.00    -0.143 A  
HETATM    3  C   UNL     1     -10.003   7.829  70.606  1.00  0.00    -0.186 A  
HETATM    4  C   UNL     1     -11.366   7.556  70.629  1.00  0.00    -0.301 A  
HETATM    5  C   UNL     1     -11.849   6.563  71.473  1.00  0.00    -0.386 A  
HETATM    6  C   UNL     1     -10.961   5.828  72.267  1.00  0.00    -0.262 A  
HETATM    7 CL   UNL     1     -11.638   4.615  73.309  1.00  0.00    -0.362 Cl 
HETATM    8  C   UNL     1      -9.566   6.063  72.251  1.00  0.00    -0.150 A  
ENDROOT
BRANCH   8   9
HETATM    9  N   UNL     1      -8.725   5.232  73.021  1.00  0.00    -0.118 NA 
HETATM   10  H   UNL     1      -8.492   5.569  73.956  1.00  0.00     0.000 HD 
BRANCH   9  11
HETATM   11  C   UNL     1      -8.190   4.039  72.664  1.00  0.00    -0.095 A  
HETATM   12  N   UNL     1      -8.217   3.452  71.504  1.00  0.00    -0.061 NA 
HETATM   13  C   UNL     1      -7.382   2.238  71.660  1.00  0.00    -0.039 A  
HETATM   14  H   UNL     1      -8.709   3.761  70.666  1.00  0.00     0.000 HD 
HETATM   15  C   UNL     1      -6.928   2.200  73.120  1.00  0.00    -0.027 A  
HETATM   16  N   UNL     1      -7.524   3.399  73.670  1.00  0.00    -0.059 NA 
ENDBRANCH   9  11
ENDBRANCH   8   9
TORSDOF 2
ENDMDL
MODEL      197
REMARK 921   NORMALIZED FREE ENERGY PREDICTED BY IDOCK:   -1.91 KCAL/MOL
REMARK 922        TOTAL FREE ENERGY PREDICTED BY IDOCK:   -2.39 KCAL/MOL
REMARK 923 INTER-LIGAND FREE ENERGY PREDICTED BY IDOCK:   -2.12 KCAL/MOL
REMARK 924 INTRA-LIGAND FREE ENERGY PREDICTED BY IDOCK:   -0.27 KCAL/MOL
REMARK 927      BINDING AFFINITY PREDICTED BY RF-SCORE:    0.00 PKD
ROOT
HETATM    1 CL   UNL     1      -8.447   6.231  66.770  1.00  0.00    -0.110 Cl 
HETATM    2  C   UNL     1      -8.286   6.586  65.080  1.00  0.00    -0.115 A  
HETATM    3  C   UNL     1      -8.322   5.470  64.229  1.00  0.00    -0.107 A  
HETATM    4  C   UNL     1      -8.009   5.591  62.880  1.00  0.00    -0.098 A  
HETATM    5  C   UNL     1      -7.646   6.832  62.372  1.00  0.00    -0.090 A  
HETATM    6  C   UNL     1      -7.629   7.952  63.212  1.00  0.00    -0.130 A  
HETATM    7 CL   UNL     1      -7.149   9.467  62.512  1.00  0.00    -0.100 Cl 
HETATM    8  C   UNL     1      -7.964   7.870  64.583  1.00  0.00    -0.143 A  
ENDROOT
BRANCH   8   9
HETATM    9  N   UNL     1      -7.999   9.054  65.350  1.00  0.00    -0.107 NA 
HETATM   10  H   UNL     1      -7.101   9.388  65.704  1.00  0.00     0.000 HD 
BRANCH   9  11
HETATM   11  C   UNL     1      -9.083   9.800  65.672  1.00  0.00    -0.178 A  
HETATM   12  N   UNL     1      -9.752   9.820  66.787  1.00  0.00    -0.183 NA 
HETATM   13  C   UNL     1     -10.756  10.896  66.622  1.00  0.00    -0.230 A  
HETATM   14  H   UNL     1      -9.615   9.221  67.602  1.00  0.00     0.000 HD 
HETATM   15  C   UNL     1     -10.589  11.442  65.204  1.00  0.00    -0.293 A  
HETATM   16  N   UNL     1      -9.495  10.648  64.684  1.00  0.00    -0.235 NA 
ENDBRANCH   9  11
ENDBRANCH   8   9
TORSDOF 2
ENDMDL
MODEL      198
REMARK 921   NORMALIZED FREE ENERGY PREDICTED BY IDOCK:   -1.87 KCAL/MOL
REMARK 922        TOTAL FREE ENERGY PREDICTED BY IDOCK:   -2.34 KCAL/MOL
REMARK 923 INTER-LIGAND FREE ENERGY PREDICTED BY IDOCK:   -2.04 KCAL/MOL
REMARK 924 INTRA-LIGAND FREE ENERGY PREDICTED BY IDOCK:   -0.30 KCAL/MOL
REMARK 927      BINDING AFFINITY PREDICTED BY RF-SCORE:    0.00 PKD
ROOT
HETATM    1 CL   UNL     1     -10.984   4.443  65.218  1.00  0.00    -0.171 Cl 
HETATM    2  C   UNL     1      -9.286   4.387  64.864  1.00  0.00    -0.163 A  
HETATM    3  C   UNL     1      -8.902   3.403  63.940  1.00  0.00    -0.093 A  
HETATM    4  C   UNL     1      -7.559   3.121  63.717  1.00  0.00    -0.067 A  
HETATM    5  C   UNL     1      -6.588   3.816  64.427  1.00  0.00    -0.043 A  
HETATM    6  C   UNL     1      -6.966   4.812  65.335  1.00  0.00    -0.062 A  
HETATM    7 CL   UNL     1      -5.700   5.627  66.199  1.00  0.00    -0.017 Cl 
HETATM    8  C   UNL     1      -8.321   5.142  65.569  1.00  0.00    -0.126 A  
ENDROOT
BRANCH   8   9
HETATM    9  N   UNL     1      -8.623   6.210  66.441  1.00  0.00    -0.126 NA 
HETATM   10  H   UNL     1      -8.513   6.022  67.438  1.00  0.00     0.000 HD 
BRANCH   9  11
HETATM   11  C   UNL     1      -9.043   7.455  66.109  1.00  0.00    -0.126 A  
HETATM   12  N   UNL     1     -10.148   8.054  66.443  1.00  0.00    -0.476 NA 
HETATM   13  C   UNL     1     -10.026   9.428  65.903  1.00  0.00    -0.256 A  
HETATM   14  H   UNL     1     -10.931   7.662  66.965  1.00  0.00     0.000 HD 
HETATM   15  C   UNL     1      -8.696   9.491  65.151  1.00  0.00    -0.172 A  
HETATM   16  N   UNL     1      -8.162   8.158  65.339  1.00  0.00    -0.139 NA 
ENDBRANCH   9  11
ENDBRANCH   8   9
TORSDOF 2
ENDMDL
MODEL      199
REMARK 921   NORMALIZED FREE ENERGY PREDICTED BY IDOCK:   -1.75 KCAL/MOL
REMARK 922        TOTAL FREE ENERGY PREDICTED BY IDOCK:   -2.21 KCAL/MOL
REMARK 923 INTER-LIGAND FREE ENERGY PREDICTED BY IDOCK:   -1.92 KCAL/MOL
REMARK 924 INTRA-LIGAND FREE ENERGY PREDICTED BY IDOCK:   -0.29 KCAL/MOL
REMARK 927      BINDING AFFINITY PREDICTED BY RF-SCORE:    0.00 PKD
ROOT
HETATM    1 CL   UNL     1      -6.951   8.283  70.544  1.00  0.00    -0.037 Cl 
HETATM    2  C   UNL     1      -8.258   7.188  70.868  1.00  0.00    -0.116 A  
HETATM    3  C   UNL     1      -8.979   7.452  72.043  1.00  0.00    -0.143 A  
HETATM    4  C   UNL     1      -9.917   6.545  72.522  1.00  0.00    -0.184 A  
HETATM    5  C   UNL     1     -10.135   5.358  71.831  1.00  0.00    -0.246 A  
HETATM    6  C   UNL     1      -9.432   5.101  70.648  1.00  0.00    -0.170 A  
HETATM    7 CL   UNL     1      -9.743   3.591  69.848  1.00  0.00    -0.210 Cl 
HETATM    8  C   UNL     1      -8.488   6.011  70.120  1.00  0.00    -0.127 A  
ENDROOT
BRANCH   8   9
HETATM    9  N   UNL     1      -7.876   5.719  68.882  1.00  0.00    -0.096 NA 
HETATM   10  H   UNL     1      -7.058   5.109  68.918  1.00  0.00     0.000 HD 
BRANCH   9  11
HETATM   11  C   UNL     1      -8.245   6.153  67.653  1.00  0.00    -0.113 A  
HETATM   12  N   UNL     1      -8.725   7.313  67.313  1.00  0.00    -0.120 NA 
HETATM   13  C   UNL     1      -8.838   7.272  65.836  1.00  0.00    -0.109 A  
HETATM   14  H   UNL     1      -8.971   8.086  67.930  1.00  0.00     0.000 HD 
HETATM   15  C   UNL     1      -8.403   5.873  65.399  1.00  0.00    -0.149 A  
HETATM   16  N   UNL     1      -8.062   5.238  66.656  1.00  0.00    -0.104 NA 
ENDBRANCH   9  11
ENDBRANCH   8   9
TORSDOF 2
ENDMDL
MODEL      200
REMARK 921   NORMALIZED FREE ENERGY PREDICTED BY IDOCK:   -1.72 KCAL/MOL
REMARK 922        TOTAL FREE ENERGY PREDICTED BY IDOCK:   -2.18 KCAL/MOL
REMARK 923 INTER-LIGAND FREE ENERGY PREDICTED BY IDOCK:   -1.85 KCAL/MOL
REMARK 924 INTRA-LIGAND FREE ENERGY PREDICTED BY IDOCK:   -0.33 KCAL/MOL
REMARK 927      BINDING AFFINITY PREDICTED BY RF-SCORE:    0.00 PKD
ROOT
HETATM    1 CL   UNL     1      -7.851   8.276  72.792  1.00  0.00    -0.193 Cl 
HETATM    2  C   UNL     1      -9.348   7.485  72.415  1.00  0.00    -0.148 A  
HETATM    3  C   UNL     1     -10.466   8.331  72.334  1.00  0.00    -0.404 A  
HETATM    4  C   UNL     1     -11.750   7.808  72.235  1.00  0.00    -0.390 A  
HETATM    5  C   UNL     1     -11.927   6.429  72.226  1.00  0.00    -0.289 A  
HETATM    6  C   UNL     1     -10.813   5.582  72.285  1.00  0.00    -0.241 A  
HETATM    7 CL   UNL     1     -11.112   3.872  72.287  1.00  0.00     0.310 Cl 
HETATM    8  C   UNL     1      -9.492   6.080  72.363  1.00  0.00    -0.145 A  
ENDROOT
BRANCH   8   9
HETATM    9  N   UNL     1      -8.416   5.167  72.342  1.00  0.00    -0.121 NA 
HETATM   10  H   UNL     1      -8.242   4.657  73.209  1.00  0.00     0.000 HD 
BRANCH   9  11
HETATM   11  C   UNL     1      -7.588   4.888  71.306  1.00  0.00    -0.082 A  
HETATM   12  N   UNL     1      -6.400   5.362  71.068  1.00  0.00    -0.033 NA 
HETATM   13  C   UNL     1      -5.919   4.627  69.874  1.00  0.00    -0.018 A  
HETATM   14  H   UNL     1      -5.906   6.085  71.590  1.00  0.00     0.000 HD 
HETATM   15  C   UNL     1      -7.056   3.704  69.437  1.00  0.00    -0.045 A  
HETATM   16  N   UNL     1      -8.082   3.972  70.423  1.00  0.00    -0.054 NA 
ENDBRANCH   9  11
ENDBRANCH   8   9
TORSDOF 2
ENDMDL
MODEL      201
REMARK 921   NORMALIZED FREE ENERGY PREDICTED BY IDOCK:   -1.71 KCAL/MOL
REMARK 922        TOTAL FREE ENERGY PREDICTED BY IDOCK:   -2.16 KCAL/MOL
REMARK 923 INTER-LIGAND FREE ENERGY PREDICTED BY IDOCK:   -1.89 KCAL/MOL
REMARK 924 INTRA-LIGAND FREE ENERGY PREDICTED BY IDOCK:   -0.28 KCAL/MOL
REMARK 927      BINDING AFFINITY PREDICTED BY RF-SCORE:    0.00 PKD
ROOT
HETATM    1 CL   UNL     1      -8.078   8.768  65.684  1.00  0.00    -0.103 Cl 
HETATM    2  C   UNL     1      -8.512   8.938  67.355  1.00  0.00    -0.115 A  
HETATM    3  C   UNL     1      -9.005  10.202  67.717  1.00  0.00    -0.129 A  
HETATM    4  C   UNL     1      -9.204  10.534  69.052  1.00  0.00    -0.193 A  
HETATM    5  C   UNL     1      -8.900   9.604  70.039  1.00  0.00    -0.259 A  
HETATM    6  C   UNL     1      -8.428   8.335  69.681  1.00  0.00    -0.125 A  
HETATM    7 CL   UNL     1      -8.053   7.232  70.968  1.00  0.00    -0.102 Cl 
HETATM    8  C   UNL     1      -8.237   7.956  68.333  1.00  0.00    -0.124 A  
ENDROOT
BRANCH   8   9
HETATM    9  N   UNL     1      -7.831   6.635  68.046  1.00  0.00    -0.111 NA 
HETATM   10  H   UNL     1      -6.836   6.436  68.153  1.00  0.00     0.000 HD 
BRANCH   9  11
HETATM   11  C   UNL     1      -8.608   5.600  67.644  1.00  0.00    -0.108 A  
HETATM   12  N   UNL     1      -9.624   5.615  66.832  1.00  0.00    -0.133 NA 
HETATM   13  C   UNL     1     -10.013   4.196  66.667  1.00  0.00    -0.124 A  
HETATM   14  H   UNL     1     -10.060   6.430  66.402  1.00  0.00     0.000 HD 
HETATM   15  C   UNL     1      -9.091   3.376  67.570  1.00  0.00    -0.169 A  
HETATM   16  N   UNL     1      -8.241   4.390  68.160  1.00  0.00    -0.090 NA 
ENDBRANCH   9  11
ENDBRANCH   8   9
TORSDOF 2
ENDMDL
MODEL      202
REMARK 921   NORMALIZED FREE ENERGY PREDICTED BY IDOCK:   -1.13 KCAL/MOL
REMARK 922        TOTAL FREE ENERGY PREDICTED BY IDOCK:   -1.52 KCAL/MOL
REMARK 923 INTER-LIGAND FREE ENERGY PREDICTED BY IDOCK:   -1.36 KCAL/MOL
REMARK 924 INTRA-LIGAND FREE ENERGY PREDICTED BY IDOCK:   -0.16 KCAL/MOL
REMARK 927      BINDING AFFINITY PREDICTED BY RF-SCORE:    0.00 PKD
ROOT
HETATM    1 CL   UNL     1      -8.185  11.364  66.344  1.00  0.00    -0.154 Cl 
HETATM    2  C   UNL     1      -7.910   9.708  65.904  1.00  0.00    -0.102 A  
HETATM    3  C   UNL     1      -7.555   9.500  64.562  1.00  0.00    -0.114 A  
HETATM    4  C   UNL     1      -7.498   8.216  64.031  1.00  0.00    -0.115 A  
HETATM    5  C   UNL     1      -7.808   7.128  64.839  1.00  0.00    -0.126 A  
HETATM    6  C   UNL     1      -8.143   7.331  66.184  1.00  0.00    -0.121 A  
HETATM    7 CL   UNL     1      -8.534   5.928  67.128  1.00  0.00    -0.108 Cl 
HETATM    8  C   UNL     1      -8.187   8.620  66.762  1.00  0.00    -0.108 A  
ENDROOT
BRANCH   8   9
HETATM    9  N   UNL     1      -8.457   8.740  68.143  1.00  0.00    -0.129 NA 
HETATM   10  H   UNL     1      -9.427   8.929  68.397  1.00  0.00     0.000 HD 
BRANCH   9  11
HETATM   11  C   UNL     1      -7.579   8.635  69.170  1.00  0.00    -0.089 A  
HETATM   12  N   UNL     1      -7.823   8.613  70.446  1.00  0.00    -0.083 NA 
HETATM   13  C   UNL     1      -6.512   8.367  71.091  1.00  0.00    -0.044 A  
HETATM   14  H   UNL     1      -8.725   8.739  70.907  1.00  0.00     0.000 HD 
HETATM   15  C   UNL     1      -5.472   8.316  69.972  1.00  0.00    -0.022 A  
HETATM   16  N   UNL     1      -6.274   8.519  68.783  1.00  0.00    -0.044 NA 
ENDBRANCH   9  11
ENDBRANCH   8   9
TORSDOF 2
ENDMDL
MODEL      203
REMARK 921   NORMALIZED FREE ENERGY PREDICTED BY IDOCK:   -0.75 KCAL/MOL
REMARK 922        TOTAL FREE ENERGY PREDICTED BY IDOCK:   -1.09 KCAL/MOL
REMARK 923 INTER-LIGAND FREE ENERGY PREDICTED BY IDOCK:   -1.05 KCAL/MOL
REMARK 924 INTRA-LIGAND FREE ENERGY PREDICTED BY IDOCK:   -0.04 KCAL/MOL
REMARK 927      BINDING AFFINITY PREDICTED BY RF-SCORE:    0.00 PKD
ROOT
HETATM    1 CL   UNL     1      -8.428  12.304  67.748  1.00  0.00    -0.152 Cl 
HETATM    2  C   UNL     1      -7.427  11.138  66.944  1.00  0.00    -0.138 A  
HETATM    3  C   UNL     1      -6.071  11.487  66.841  1.00  0.00    -0.146 A  
HETATM    4  C   UNL     1      -5.201  10.741  66.054  1.00  0.00    -0.107 A  
HETATM    5  C   UNL     1      -5.685   9.643  65.353  1.00  0.00    -0.060 A  
HETATM    6  C   UNL     1      -7.033   9.280  65.469  1.00  0.00    -0.082 A  
HETATM    7 CL   UNL     1      -7.571   7.908  64.550  1.00  0.00    -0.103 Cl 
HETATM    8  C   UNL     1      -7.939  10.002  66.279  1.00  0.00    -0.111 A  
ENDROOT
BRANCH   8   9
HETATM    9  N   UNL     1      -9.264   9.531  66.407  1.00  0.00    -0.157 NA 
HETATM   10  H   UNL     1      -9.988  10.096  65.961  1.00  0.00     0.000 HD 
BRANCH   9  11
HETATM   11  C   UNL     1      -9.687   8.417  67.052  1.00  0.00    -0.206 A  
HETATM   12  N   UNL     1      -8.980   7.524  67.679  1.00  0.00    -0.127 NA 
HETATM   13  C   UNL     1      -9.965   6.600  68.287  1.00  0.00    -0.144 A  
HETATM   14  H   UNL     1      -7.963   7.471  67.739  1.00  0.00     0.000 HD 
HETATM   15  C   UNL     1     -11.349   7.080  67.849  1.00  0.00     0.225 A  
HETATM   16  N   UNL     1     -11.042   8.245  67.044  1.00  0.00     0.256 NA 
ENDBRANCH   9  11
ENDBRANCH   8   9
TORSDOF 2
ENDMDL
MODEL      204
REMARK 921   NORMALIZED FREE ENERGY PREDICTED BY IDOCK:   -0.54 KCAL/MOL
REMARK 922        TOTAL FREE ENERGY PREDICTED BY IDOCK:   -0.86 KCAL/MOL
REMARK 923 INTER-LIGAND FREE ENERGY PREDICTED BY IDOCK:   -1.70 KCAL/MOL
REMARK 924 INTRA-LIGAND FREE ENERGY PREDICTED BY IDOCK:    0.84 KCAL/MOL
REMARK 927      BINDING AFFINITY PREDICTED BY RF-SCORE:    0.00 PKD
ROOT
HETATM    1 CL   UNL     1      -7.537  20.713  67.801  1.00  0.00    -0.255 Cl 
HETATM    2  C   UNL     1      -6.590  19.540  66.943  1.00  0.00    -0.193 A  
HETATM    3  C   UNL     1      -6.403  19.809  65.578  1.00  0.00    -0.265 A  
HETATM    4  C   UNL     1      -5.835  18.859  64.736  1.00  0.00    -0.309 A  
HETATM    5  C   UNL     1      -5.459  17.625  65.253  1.00  0.00     0.281 A  
HETATM    6  C   UNL     1      -5.626  17.361  66.618  1.00  0.00    -0.192 A  
HETATM    7 CL   UNL     1      -5.150  15.792  67.190  1.00  0.00     0.141 Cl 
HETATM    8  C   UNL     1      -6.177  18.312  67.507  1.00  0.00    -0.180 A  
ENDROOT
BRANCH   8   9
HETATM    9  N   UNL     1      -6.242  18.003  68.883  1.00  0.00    -0.206 NA 
HETATM   10  H   UNL     1      -6.114  18.785  69.527  1.00  0.00     0.000 HD 
BRANCH   9  11
HETATM   11  C   UNL     1      -6.455  16.790  69.449  1.00  0.00    -0.229 A  
HETATM   12  N   UNL     1      -5.727  16.167  70.328  1.00  0.00    -0.174 NA 
HETATM   13  C   UNL     1      -6.491  14.946  70.673  1.00  0.00     0.074 A  
HETATM   14  H   UNL     1      -4.823  16.457  70.701  1.00  0.00     0.000 HD 
HETATM   15  C   UNL     1      -7.744  14.946  69.796  1.00  0.00     0.009 A  
HETATM   16  N   UNL     1      -7.602  16.173  69.039  1.00  0.00    -0.202 NA 
ENDBRANCH   9  11
ENDBRANCH   8   9
TORSDOF 2
ENDMDL
MODEL      205
REMARK 921   NORMALIZED FREE ENERGY PREDICTED BY IDOCK:   -0.36 KCAL/MOL
REMARK 922        TOTAL FREE ENERGY PREDICTED BY IDOCK:   -0.66 KCAL/MOL
REMARK 923 INTER-LIGAND FREE ENERGY PREDICTED BY IDOCK:   -1.12 KCAL/MOL
REMARK 924 INTRA-LIGAND FREE ENERGY PREDICTED BY IDOCK:    0.46 KCAL/MOL
REMARK 927      BINDING AFFINITY PREDICTED BY RF-SCORE:    0.00 PKD
ROOT
HETATM    1 CL   UNL     1     -10.083  14.430  65.637  1.00  0.00    -0.360 Cl 
HETATM    2  C   UNL     1      -9.881  12.724  65.883  1.00  0.00    -0.238 A  
HETATM    3  C   UNL     1     -10.921  11.924  65.386  1.00  0.00    -0.352 A  
HETATM    4  C   UNL     1     -10.983  10.568  65.687  1.00  0.00     0.196 A  
HETATM    5  C   UNL     1     -10.006  10.003  66.498  1.00  0.00    -0.286 A  
HETATM    6  C   UNL     1      -8.955  10.794  66.979  1.00  0.00    -0.141 A  
HETATM    7 CL   UNL     1      -7.781  10.025  68.001  1.00  0.00    -0.089 Cl 
HETATM    8  C   UNL     1      -8.849  12.170  66.673  1.00  0.00    -0.182 A  
ENDROOT
BRANCH   8   9
HETATM    9  N   UNL     1      -7.721  12.886  67.130  1.00  0.00    -0.356 NA 
HETATM   10  H   UNL     1      -7.088  13.236  66.410  1.00  0.00     0.000 HD 
BRANCH   9  11
HETATM   11  C   UNL     1      -7.379  13.161  68.412  1.00  0.00    -0.116 A  
HETATM   12  N   UNL     1      -7.855  14.081  69.198  1.00  0.00    -0.335 NA 
HETATM   13  C   UNL     1      -7.205  13.849  70.509  1.00  0.00     1.203 A  
HETATM   14  H   UNL     1      -8.532  14.807  68.964  1.00  0.00     0.000 HD 
HETATM   15  C   UNL     1      -6.233  12.684  70.320  1.00  0.00     0.022 A  
HETATM   16  N   UNL     1      -6.420  12.337  68.927  1.00  0.00    -0.083 NA 
ENDBRANCH   9  11
ENDBRANCH   8   9
TORSDOF 2
ENDMDL
MODEL      206
REMARK 921   NORMALIZED FREE ENERGY PREDICTED BY IDOCK:    0.52 KCAL/MOL
REMARK 922        TOTAL FREE ENERGY PREDICTED BY IDOCK:    0.33 KCAL/MOL
REMARK 923 INTER-LIGAND FREE ENERGY PREDICTED BY IDOCK:   -1.37 KCAL/MOL
REMARK 924 INTRA-LIGAND FREE ENERGY PREDICTED BY IDOCK:    1.70 KCAL/MOL
REMARK 927      BINDING AFFINITY PREDICTED BY RF-SCORE:    0.00 PKD
ROOT
HETATM    1 CL   UNL     1      -6.588   8.444  70.688  1.00  0.00    -0.036 Cl 
HETATM    2  C   UNL     1      -7.755   7.642  71.691  1.00  0.00    -0.086 A  
HETATM    3  C   UNL     1      -8.500   8.485  72.531  1.00  0.00    -0.181 A  
HETATM    4  C   UNL     1      -9.323   7.960  73.520  1.00  0.00    -0.333 A  
HETATM    5  C   UNL     1      -9.400   6.582  73.684  1.00  0.00    -0.155 A  
HETATM    6  C   UNL     1      -8.675   5.737  72.835  1.00  0.00    -0.124 A  
HETATM    7 CL   UNL     1      -8.806   4.027  73.110  1.00  0.00    -0.098 Cl 
HETATM    8  C   UNL     1      -7.847   6.236  71.804  1.00  0.00    -0.101 A  
ENDROOT
BRANCH   8   9
HETATM    9  N   UNL     1      -7.207   5.322  70.939  1.00  0.00    -0.067 NA 
HETATM   10  H   UNL     1      -7.043   4.387  71.314  1.00  0.00     0.000 HD 
BRANCH   9  11
HETATM   11  C   UNL     1      -6.785   5.540  69.670  1.00  0.00    -0.058 A  
HETATM   12  N   UNL     1      -6.390   6.654  69.127  1.00  0.00    -0.034 NA 
HETATM   13  C   UNL     1      -5.938   6.286  67.765  1.00  0.00    -0.017 A  
HETATM   14  H   UNL     1      -6.392   7.583  69.548  1.00  0.00     0.000 HD 
HETATM   15  C   UNL     1      -6.200   4.788  67.602  1.00  0.00    -0.035 A  
HETATM   16  N   UNL     1      -6.762   4.422  68.886  1.00  0.00    -0.045 NA 
ENDBRANCH   9  11
ENDBRANCH   8   9
TORSDOF 2
ENDMDL
MODEL      207
REMARK 921   NORMALIZED FREE ENERGY PREDICTED BY IDOCK:    1.96 KCAL/MOL
REMARK 922        TOTAL FREE ENERGY PREDICTED BY IDOCK:    1.94 KCAL/MOL
REMARK 923 INTER-LIGAND FREE ENERGY PREDICTED BY IDOCK:    1.58 KCAL/MOL
REMARK 924 INTRA-LIGAND FREE ENERGY PREDICTED BY IDOCK:    0.35 KCAL/MOL
REMARK 927      BINDING AFFINITY PREDICTED BY RF-SCORE:    0.00 PKD
ROOT
HETATM    1 CL   UNL     1      -9.845   9.349  68.254  1.00  0.00    -0.172 Cl 
HETATM    2  C   UNL     1     -10.292  10.729  67.302  1.00  0.00    -0.220 A  
HETATM    3  C   UNL     1     -11.671  10.884  67.089  1.00  0.00     0.395 A  
HETATM    4  C   UNL     1     -12.150  11.827  66.187  1.00  0.00     0.467 A  
HETATM    5  C   UNL     1     -11.250  12.617  65.482  1.00  0.00    -0.337 A  
HETATM    6  C   UNL     1      -9.875  12.480  65.707  1.00  0.00    -0.234 A  
HETATM    7 CL   UNL     1      -8.809  13.488  64.778  1.00  0.00     2.450 Cl 
HETATM    8  C   UNL     1      -9.354  11.548  66.634  1.00  0.00    -0.189 A  
ENDROOT
BRANCH   8   9
HETATM    9  N   UNL     1      -7.961  11.519  66.864  1.00  0.00    -0.160 NA 
HETATM   10  H   UNL     1      -7.555  12.363  67.270  1.00  0.00     0.000 HD 
BRANCH   9  11
HETATM   11  C   UNL     1      -7.101  10.503  66.610  1.00  0.00    -0.118 A  
HETATM   12  N   UNL     1      -6.294  10.358  65.601  1.00  0.00    -0.118 NA 
HETATM   13  C   UNL     1      -5.516   9.132  65.896  1.00  0.00    -0.041 A  
HETATM   14  H   UNL     1      -6.213  10.959  64.781  1.00  0.00     0.000 HD 
HETATM   15  C   UNL     1      -6.060   8.570  67.210  1.00  0.00    -0.055 A  
HETATM   16  N   UNL     1      -7.088   9.527  67.564  1.00  0.00    -0.084 NA 
ENDBRANCH   9  11
ENDBRANCH   8   9
TORSDOF 2
ENDMDL
MODEL      208
REMARK 921   NORMALIZED FREE ENERGY PREDICTED BY IDOCK:    2.19 KCAL/MOL
REMARK 922        TOTAL FREE ENERGY PREDICTED BY IDOCK:    2.20 KCAL/MOL
REMARK 923 INTER-LIGAND FREE ENERGY PREDICTED BY IDOCK:    1.24 KCAL/MOL
REMARK 924 INTRA-LIGAND FREE ENERGY PREDICTED BY IDOCK:    0.96 KCAL/MOL
REMARK 927      BINDING AFFINITY PREDICTED BY RF-SCORE:    0.00 PKD
ROOT
HETATM    1 CL   UNL     1      -6.534  10.978  66.475  1.00  0.00    -0.123 Cl 
HETATM    2  C   UNL     1      -6.377  11.065  68.200  1.00  0.00    -0.056 A  
HETATM    3  C   UNL     1      -6.399   9.828  68.864  1.00  0.00    -0.041 A  
HETATM    4  C   UNL     1      -6.480   9.765  70.250  1.00  0.00    -0.093 A  
HETATM    5  C   UNL     1      -6.550  10.942  70.985  1.00  0.00     0.949 A  
HETATM    6  C   UNL     1      -6.507  12.178  70.328  1.00  0.00     0.289 A  
HETATM    7 CL   UNL     1      -6.617  13.607  71.309  1.00  0.00     0.941 Cl 
HETATM    8  C   UNL     1      -6.401  12.280  68.922  1.00  0.00    -0.084 A  
ENDROOT
BRANCH   8   9
HETATM    9  N   UNL     1      -6.286  13.559  68.337  1.00  0.00    -0.084 NA 
HETATM   10  H   UNL     1      -5.469  13.711  67.744  1.00  0.00     0.000 HD 
BRANCH   9  11
HETATM   11  C   UNL     1      -7.132  14.609  68.470  1.00  0.00    -0.112 A  
HETATM   12  N   UNL     1      -8.211  14.873  67.795  1.00  0.00    -0.146 NA 
HETATM   13  C   UNL     1      -8.793  16.072  68.439  1.00  0.00    -0.188 A  
HETATM   14  H   UNL     1      -8.578  14.362  66.991  1.00  0.00     0.000 HD 
HETATM   15  C   UNL     1      -7.831  16.485  69.554  1.00  0.00     0.160 A  
HETATM   16  N   UNL     1      -6.792  15.480  69.466  1.00  0.00    -0.175 NA 
ENDBRANCH   9  11
ENDBRANCH   8   9
TORSDOF 2
ENDMDL
MODEL      209
REMARK 921   NORMALIZED FREE ENERGY PREDICTED BY IDOCK:    3.51 KCAL/MOL
REMARK 922        TOTAL FREE ENERGY PREDICTED BY IDOCK:    3.67 KCAL/MOL
REMARK 923 INTER-LIGAND FREE ENERGY PREDICTED BY IDOCK:   -0.02 KCAL/MOL
REMARK 924 INTRA-LIGAND FREE ENERGY PREDICTED BY IDOCK:    3.69 KCAL/MOL
REMARK 927      BINDING AFFINITY PREDICTED BY RF-SCORE:    0.00 PKD
ROOT
HETATM    1 CL   UNL     1      -8.313  12.223  66.866  1.00  0.00    -0.168 Cl 
HETATM    2  C   UNL     1      -7.391  10.786  67.169  1.00  0.00    -0.101 A  
HETATM    3  C   UNL     1      -7.151   9.983  66.043  1.00  0.00    -0.111 A  
HETATM    4  C   UNL     1      -6.599   8.714  66.177  1.00  0.00    -0.061 A  
HETATM    5  C   UNL     1      -6.291   8.233  67.444  1.00  0.00    -0.057 A  
HETATM    6  C   UNL     1      -6.509   9.039  68.568  1.00  0.00    -0.054 A  
HETATM    7 CL   UNL     1      -6.116   8.367  70.120  1.00  0.00    -0.031 Cl 
HETATM    8  C   UNL     1      -7.046  10.343  68.466  1.00  0.00    -0.074 A  
ENDROOT
BRANCH   8   9
HETATM    9  N   UNL     1      -7.166  11.125  69.635  1.00  0.00    -0.333 NA 
HETATM   10  H   UNL     1      -7.827  11.902  69.592  1.00  0.00     0.000 HD 
BRANCH   9  11
HETATM   11  C   UNL     1      -6.506  10.966  70.808  1.00  0.00     0.356 A  
HETATM   12  N   UNL     1      -5.725  11.807  71.420  1.00  0.00    -0.378 NA 
HETATM   13  C   UNL     1      -5.378  11.156  72.704  1.00  0.00     0.674 A  
HETATM   14  H   UNL     1      -5.417  12.721  71.087  1.00  0.00     0.000 HD 
HETATM   15  C   UNL     1      -6.040   9.778  72.693  1.00  0.00     0.635 A  
HETATM   16  N   UNL     1      -6.722   9.763  71.415  1.00  0.00    -0.316 NA 
ENDBRANCH   9  11
ENDBRANCH   8   9
TORSDOF 2
ENDMDL
MODEL      210
REMARK 921   NORMALIZED FREE ENERGY PREDICTED BY IDOCK:    4.96 KCAL/MOL
REMARK 922        TOTAL FREE ENERGY PREDICTED BY IDOCK:    5.29 KCAL/MOL
REMARK 923 INTER-LIGAND FREE ENERGY PREDICTED BY IDOCK:    4.65 KCAL/MOL
REMARK 924 INTRA-LIGAND FREE ENERGY PREDICTED BY IDOCK:    0.64 KCAL/MOL
REMARK 927      BINDING AFFINITY PREDICTED BY RF-SCORE:    0.00 PKD
ROOT
HETATM    1 CL   UNL     1     -11.832  17.141  73.757  1.00  0.00    -0.080 Cl 
HETATM    2  C   UNL     1     -11.180  16.967  72.160  1.00  0.00     0.968 A  
HETATM    3  C   UNL     1     -10.855  18.170  71.513  1.00  0.00     2.932 A  
HETATM    4  C   UNL     1     -10.511  18.185  70.167  1.00  0.00     1.347 A  
HETATM    5  C   UNL     1     -10.500  16.994  69.451  1.00  0.00    -0.250 A  
HETATM    6  C   UNL     1     -10.803  15.789  70.097  1.00  0.00    -0.351 A  
HETATM    7 CL   UNL     1     -10.786  14.343  69.136  1.00  0.00    -0.259 Cl 
HETATM    8  C   UNL     1     -11.134  15.734  71.470  1.00  0.00    -0.108 A  
ENDROOT
BRANCH   8   9
HETATM    9  N   UNL     1     -11.352  14.474  72.070  1.00  0.00    -0.065 NA 
HETATM   10  H   UNL     1     -10.756  14.245  72.866  1.00  0.00     0.000 HD 
BRANCH   9  11
HETATM   11  C   UNL     1     -12.260  13.534  71.712  1.00  0.00     0.258 A  
HETATM   12  N   UNL     1     -12.138  12.581  70.836  1.00  0.00    -0.435 NA 
HETATM   13  C   UNL     1     -13.387  11.791  70.941  1.00  0.00     0.573 A  
HETATM   14  H   UNL     1     -11.352  12.413  70.209  1.00  0.00     0.000 HD 
HETATM   15  C   UNL     1     -14.266  12.491  71.978  1.00  0.00     0.657 A  
HETATM   16  N   UNL     1     -13.442  13.608  72.391  1.00  0.00    -0.544 NA 
ENDBRANCH   9  11
ENDBRANCH   8   9
TORSDOF 2
ENDMDL
