MODEL        1
REMARK 921   NORMALIZED FREE ENERGY PREDICTED BY IDOCK:   -6.17 KCAL/MOL
REMARK 922        TOTAL FREE ENERGY PREDICTED BY IDOCK:   -8.13 KCAL/MOL
REMARK 923 INTER-LIGAND FREE ENERGY PREDICTED BY IDOCK:   -7.61 KCAL/MOL
REMARK 924 INTRA-LIGAND FREE ENERGY PREDICTED BY IDOCK:   -0.53 KCAL/MOL
REMARK 927      BINDING AFFINITY PREDICTED BY RF-SCORE:    0.00 PKD
ROOT
HETATM    1  C   UNL     1     -10.311  16.268  67.661  1.00  0.00    -0.284 C  
ENDROOT
BRANCH   1   2
HETATM    2  N   UNL     1     -10.784  15.496  68.860  1.00  0.00    -0.232 NA 
HETATM    3  S   UNL     1     -13.038  13.853  72.414  1.00  0.00    -0.428 SA 
HETATM    4  C   UNL     1     -12.290  14.422  71.001  1.00  0.00    -0.357 A  
HETATM    5  C   UNL     1     -12.695  15.316  73.236  1.00  0.00    -0.511 A  
HETATM    6  C   UNL     1     -12.213  13.626  69.746  1.00  0.00    -0.350 C  
HETATM    7  C   UNL     1     -11.902  14.572  68.564  1.00  0.00    -0.320 C  
HETATM    8  C   UNL     1     -11.110  16.415  69.982  1.00  0.00    -0.294 C  
HETATM    9  C   UNL     1     -12.007  16.208  72.440  1.00  0.00    -0.649 A  
HETATM   10  C   UNL     1     -11.762  15.689  71.128  1.00  0.00    -0.461 A  
ENDBRANCH   1   2
BRANCH   1  11
HETATM   11  C   UNL     1      -9.962  15.333  66.467  1.00  0.00    -0.265 C  
HETATM   12  O   UNL     1      -9.316  14.294  66.534  1.00  0.00    -0.276 OA 
BRANCH  11  13
HETATM   13  O   UNL     1     -10.557  15.775  65.315  1.00  0.00    -0.383 OA 
HETATM   14  C   UNL     1     -11.504  14.852  64.771  1.00  0.00    -0.410 C  
ENDBRANCH  11  13
ENDBRANCH   1  11
BRANCH   1  15
HETATM   15  C   UNL     1      -9.201  17.282  68.003  1.00  0.00    -0.256 A  
HETATM   16  C   UNL     1      -6.936  17.759  68.837  1.00  0.00    -0.250 A  
HETATM   17  C   UNL     1      -8.389  19.579  68.257  1.00  0.00    -0.375 A  
HETATM   18  C   UNL     1      -7.159  19.122  68.724  1.00  0.00    -0.366 A  
HETATM   19  C   UNL     1      -7.942  16.856  68.485  1.00  0.00    -0.242 A  
HETATM   20  C   UNL     1      -9.401  18.673  67.899  1.00  0.00    -0.298 A  
HETATM   21 CL   UNL     1     -10.880  19.357  67.318  1.00  0.00    -0.599 Cl 
ENDBRANCH   1  15
TORSDOF 4
ENDMDL
MODEL        2
REMARK 921   NORMALIZED FREE ENERGY PREDICTED BY IDOCK:   -6.15 KCAL/MOL
REMARK 922        TOTAL FREE ENERGY PREDICTED BY IDOCK:   -8.11 KCAL/MOL
REMARK 923 INTER-LIGAND FREE ENERGY PREDICTED BY IDOCK:   -8.21 KCAL/MOL
REMARK 924 INTRA-LIGAND FREE ENERGY PREDICTED BY IDOCK:    0.10 KCAL/MOL
REMARK 927      BINDING AFFINITY PREDICTED BY RF-SCORE:    0.00 PKD
ROOT
HETATM    1  C   UNL     1     -10.728  14.709  65.305  1.00  0.00    -0.381 C  
ENDROOT
BRANCH   1   2
HETATM    2  N   UNL     1      -9.933  15.968  65.508  1.00  0.00    -0.459 NA 
HETATM    3  S   UNL     1      -7.921  19.675  67.123  1.00  0.00    -0.287 SA 
HETATM    4  C   UNL     1      -8.594  18.211  66.595  1.00  0.00    -0.267 A  
HETATM    5  C   UNL     1      -9.471  20.389  67.259  1.00  0.00    -0.431 A  
HETATM    6  C   UNL     1      -7.777  17.009  66.272  1.00  0.00    -0.346 C  
HETATM    7  C   UNL     1      -8.686  15.760  66.277  1.00  0.00    -0.323 C  
HETATM    8  C   UNL     1     -10.780  17.033  66.106  1.00  0.00    -0.099 C  
HETATM    9  C   UNL     1     -10.476  19.519  66.888  1.00  0.00    -0.589 A  
HETATM   10  C   UNL     1      -9.969  18.240  66.494  1.00  0.00    -0.380 A  
ENDBRANCH   1   2
BRANCH   1  11
HETATM   11  C   UNL     1     -11.973  14.944  64.400  1.00  0.00    -0.394 C  
HETATM   12  O   UNL     1     -12.235  15.977  63.796  1.00  0.00    -0.895 OA 
BRANCH  11  13
HETATM   13  O   UNL     1     -12.711  13.797  64.284  1.00  0.00    -0.659 OA 
HETATM   14  C   UNL     1     -12.105  12.810  63.444  1.00  0.00    -0.534 C  
ENDBRANCH  11  13
ENDBRANCH   1  11
BRANCH   1  15
HETATM   15  C   UNL     1     -11.050  13.986  66.628  1.00  0.00    -0.312 A  
HETATM   16  C   UNL     1     -12.127  13.971  68.840  1.00  0.00    -0.351 A  
HETATM   17  C   UNL     1     -10.791  12.095  68.164  1.00  0.00    -0.256 A  
HETATM   18  C   UNL     1     -11.594  12.722  69.114  1.00  0.00    -0.373 A  
HETATM   19  C   UNL     1     -11.855  14.592  67.619  1.00  0.00    -0.395 A  
HETATM   20  C   UNL     1     -10.520  12.716  66.934  1.00  0.00    -0.233 A  
HETATM   21 CL   UNL     1      -9.522  11.835  65.828  1.00  0.00    -0.246 Cl 
ENDBRANCH   1  15
TORSDOF 4
ENDMDL
MODEL        3
REMARK 921   NORMALIZED FREE ENERGY PREDICTED BY IDOCK:   -5.99 KCAL/MOL
REMARK 922        TOTAL FREE ENERGY PREDICTED BY IDOCK:   -7.92 KCAL/MOL
REMARK 923 INTER-LIGAND FREE ENERGY PREDICTED BY IDOCK:   -7.60 KCAL/MOL
REMARK 924 INTRA-LIGAND FREE ENERGY PREDICTED BY IDOCK:   -0.32 KCAL/MOL
REMARK 927      BINDING AFFINITY PREDICTED BY RF-SCORE:    0.00 PKD
ROOT
HETATM    1  C   UNL     1     -10.781  15.742  67.260  1.00  0.00    -0.313 C  
ENDROOT
BRANCH   1   2
HETATM    2  N   UNL     1     -11.130  14.997  68.517  1.00  0.00    -0.260 NA 
HETATM    3  S   UNL     1     -13.188  12.995  72.005  1.00  0.00    -0.407 SA 
HETATM    4  C   UNL     1     -12.468  13.651  70.616  1.00  0.00    -0.347 A  
HETATM    5  C   UNL     1     -13.637  14.551  72.559  1.00  0.00    -0.487 A  
HETATM    6  C   UNL     1     -11.826  12.819  69.561  1.00  0.00    -0.379 C  
HETATM    7  C   UNL     1     -11.695  13.651  68.267  1.00  0.00    -0.363 C  
HETATM    8  C   UNL     1     -12.017  15.816  69.384  1.00  0.00    -0.305 C  
HETATM    9  C   UNL     1     -13.224  15.547  71.698  1.00  0.00    -0.575 A  
HETATM   10  C   UNL     1     -12.535  15.027  70.557  1.00  0.00    -0.425 A  
ENDBRANCH   1   2
BRANCH   1  11
HETATM   11  C   UNL     1      -9.897  14.890  66.303  1.00  0.00    -0.294 C  
HETATM   12  O   UNL     1      -9.000  14.129  66.643  1.00  0.00    -0.238 OA 
BRANCH  11  13
HETATM   13  O   UNL     1     -10.317  15.026  65.006  1.00  0.00    -0.387 OA 
HETATM   14  C   UNL     1     -11.725  14.839  64.838  1.00  0.00    -0.390 C  
ENDBRANCH  11  13
ENDBRANCH   1  11
BRANCH   1  15
HETATM   15  C   UNL     1     -10.217  17.150  67.537  1.00  0.00    -0.323 A  
HETATM   16  C   UNL     1     -10.265  19.579  67.146  1.00  0.00    -0.542 A  
HETATM   17  C   UNL     1      -8.563  18.643  68.557  1.00  0.00    -0.370 A  
HETATM   18  C   UNL     1      -9.153  19.752  67.954  1.00  0.00    -0.404 A  
HETATM   19  C   UNL     1     -10.784  18.299  66.939  1.00  0.00    -0.272 A  
HETATM   20  C   UNL     1      -9.087  17.355  68.354  1.00  0.00    -0.274 A  
HETATM   21 CL   UNL     1      -8.280  16.057  69.165  1.00  0.00    -0.238 Cl 
ENDBRANCH   1  15
TORSDOF 4
ENDMDL
MODEL        4
REMARK 921   NORMALIZED FREE ENERGY PREDICTED BY IDOCK:   -5.99 KCAL/MOL
REMARK 922        TOTAL FREE ENERGY PREDICTED BY IDOCK:   -7.91 KCAL/MOL
REMARK 923 INTER-LIGAND FREE ENERGY PREDICTED BY IDOCK:   -7.43 KCAL/MOL
REMARK 924 INTRA-LIGAND FREE ENERGY PREDICTED BY IDOCK:   -0.48 KCAL/MOL
REMARK 927      BINDING AFFINITY PREDICTED BY RF-SCORE:    0.00 PKD
ROOT
HETATM    1  C   UNL     1     -11.261  13.148  66.001  1.00  0.00    -0.292 C  
ENDROOT
BRANCH   1   2
HETATM    2  N   UNL     1     -10.642  14.490  66.272  1.00  0.00    -0.297 NA 
HETATM    3  S   UNL     1      -8.071  18.203  66.344  1.00  0.00    -0.238 SA 
HETATM    4  C   UNL     1      -9.075  16.844  66.193  1.00  0.00    -0.230 A  
HETATM    5  C   UNL     1      -6.828  17.260  67.047  1.00  0.00    -0.190 A  
HETATM    6  C   UNL     1     -10.436  16.901  65.593  1.00  0.00    -0.252 C  
HETATM    7  C   UNL     1     -10.875  15.475  65.192  1.00  0.00    -0.436 C  
HETATM    8  C   UNL     1      -9.197  14.347  66.588  1.00  0.00    -0.261 C  
HETATM    9  C   UNL     1      -7.191  15.935  67.174  1.00  0.00    -0.254 A  
HETATM   10  C   UNL     1      -8.510  15.684  66.678  1.00  0.00    -0.323 A  
ENDBRANCH   1   2
BRANCH   1  11
HETATM   11  C   UNL     1     -12.633  13.274  65.277  1.00  0.00    -0.470 C  
HETATM   12  O   UNL     1     -13.532  14.052  65.573  1.00  0.00    -0.677 OA 
BRANCH  11  13
HETATM   13  O   UNL     1     -12.680  12.454  64.181  1.00  0.00    -0.654 OA 
HETATM   14  C   UNL     1     -11.469  12.448  63.420  1.00  0.00    -0.448 C  
ENDBRANCH  11  13
ENDBRANCH   1  11
BRANCH   1  15
HETATM   15  C   UNL     1     -11.299  12.244  67.250  1.00  0.00    -0.392 A  
HETATM   16  C   UNL     1     -11.809  11.928  69.636  1.00  0.00    -0.406 A  
HETATM   17  C   UNL     1     -10.798  10.138  68.397  1.00  0.00    -0.284 A  
HETATM   18  C   UNL     1     -11.306  10.638  69.594  1.00  0.00    -0.360 A  
HETATM   19  C   UNL     1     -11.801  12.717  68.483  1.00  0.00    -0.345 A  
HETATM   20  C   UNL     1     -10.793  10.929  67.236  1.00  0.00    -0.287 A  
HETATM   21 CL   UNL     1     -10.151  10.195  65.806  1.00  0.00    -0.336 Cl 
ENDBRANCH   1  15
TORSDOF 4
ENDMDL
MODEL        5
REMARK 921   NORMALIZED FREE ENERGY PREDICTED BY IDOCK:   -5.81 KCAL/MOL
REMARK 922        TOTAL FREE ENERGY PREDICTED BY IDOCK:   -7.69 KCAL/MOL
REMARK 923 INTER-LIGAND FREE ENERGY PREDICTED BY IDOCK:   -7.29 KCAL/MOL
REMARK 924 INTRA-LIGAND FREE ENERGY PREDICTED BY IDOCK:   -0.40 KCAL/MOL
REMARK 927      BINDING AFFINITY PREDICTED BY RF-SCORE:    0.00 PKD
ROOT
HETATM    1  C   UNL     1     -11.044  13.678  66.485  1.00  0.00    -0.305 C  
ENDROOT
BRANCH   1   2
HETATM    2  N   UNL     1     -10.695  15.124  66.697  1.00  0.00    -0.306 NA 
HETATM    3  S   UNL     1      -8.700  19.171  66.921  1.00  0.00    -0.314 SA 
HETATM    4  C   UNL     1      -9.447  17.664  66.702  1.00  0.00    -0.279 A  
HETATM    5  C   UNL     1      -7.670  18.534  68.131  1.00  0.00    -0.284 A  
HETATM    6  C   UNL     1     -10.528  17.429  65.706  1.00  0.00    -0.221 C  
HETATM    7  C   UNL     1     -10.655  15.912  65.444  1.00  0.00    -0.419 C  
HETATM    8  C   UNL     1      -9.431  15.252  67.469  1.00  0.00    -0.202 C  
HETATM    9  C   UNL     1      -7.915  17.196  68.367  1.00  0.00    -0.250 A  
HETATM   10  C   UNL     1      -8.958  16.680  67.535  1.00  0.00    -0.204 A  
ENDBRANCH   1   2
BRANCH   1  11
HETATM   11  C   UNL     1     -12.105  13.493  65.361  1.00  0.00    -0.415 C  
HETATM   12  O   UNL     1     -13.271  13.865  65.408  1.00  0.00    -0.750 OA 
BRANCH  11  13
HETATM   13  O   UNL     1     -11.538  12.934  64.247  1.00  0.00    -0.336 OA 
HETATM   14  C   UNL     1     -12.441  12.118  63.495  1.00  0.00    -0.555 C  
ENDBRANCH  11  13
ENDBRANCH   1  11
BRANCH   1  15
HETATM   15  C   UNL     1     -11.395  12.949  67.797  1.00  0.00    -0.343 A  
HETATM   16  C   UNL     1     -12.245  13.010  70.106  1.00  0.00    -0.342 A  
HETATM   17  C   UNL     1     -11.421  10.944  69.203  1.00  0.00    -0.373 A  
HETATM   18  C   UNL     1     -11.977  11.659  70.261  1.00  0.00    -0.445 A  
HETATM   19  C   UNL     1     -11.954  13.643  68.894  1.00  0.00    -0.392 A  
HETATM   20  C   UNL     1     -11.133  11.577  67.983  1.00  0.00    -0.254 A  
HETATM   21 CL   UNL     1     -10.459  10.583  66.738  1.00  0.00    -0.303 Cl 
ENDBRANCH   1  15
TORSDOF 4
ENDMDL
MODEL        6
REMARK 921   NORMALIZED FREE ENERGY PREDICTED BY IDOCK:   -5.79 KCAL/MOL
REMARK 922        TOTAL FREE ENERGY PREDICTED BY IDOCK:   -7.67 KCAL/MOL
REMARK 923 INTER-LIGAND FREE ENERGY PREDICTED BY IDOCK:   -7.38 KCAL/MOL
REMARK 924 INTRA-LIGAND FREE ENERGY PREDICTED BY IDOCK:   -0.29 KCAL/MOL
REMARK 927      BINDING AFFINITY PREDICTED BY RF-SCORE:    0.00 PKD
ROOT
HETATM    1  C   UNL     1     -11.789  14.271  68.802  1.00  0.00    -0.341 C  
ENDROOT
BRANCH   1   2
HETATM    2  N   UNL     1     -11.304  13.477  67.623  1.00  0.00    -0.282 NA 
HETATM    3  S   UNL     1     -10.164  11.957  63.524  1.00  0.00    -0.454 SA 
HETATM    4  C   UNL     1     -10.493  12.619  65.051  1.00  0.00    -0.308 A  
HETATM    5  C   UNL     1     -11.833  11.871  63.154  1.00  0.00    -0.168 A  
HETATM    6  C   UNL     1      -9.428  13.005  66.017  1.00  0.00    -0.108 C  
HETATM    7  C   UNL     1     -10.021  13.968  67.069  1.00  0.00    -0.257 C  
HETATM    8  C   UNL     1     -12.358  13.389  66.578  1.00  0.00    -0.295 C  
HETATM    9  C   UNL     1     -12.618  12.326  64.193  1.00  0.00    -0.493 A  
HETATM   10  C   UNL     1     -11.839  12.764  65.311  1.00  0.00    -0.442 A  
ENDBRANCH   1   2
BRANCH   1  11
HETATM   11  C   UNL     1     -10.769  15.368  69.227  1.00  0.00    -0.251 C  
HETATM   12  O   UNL     1      -9.710  15.174  69.811  1.00  0.00    -0.187 OA 
BRANCH  11  13
HETATM   13  O   UNL     1     -11.164  16.598  68.775  1.00  0.00    -0.308 OA 
HETATM   14  C   UNL     1     -10.078  17.505  68.563  1.00  0.00    -0.363 C  
ENDBRANCH  11  13
ENDBRANCH   1  11
BRANCH   1  15
HETATM   15  C   UNL     1     -12.265  13.381  69.967  1.00  0.00    -0.367 A  
HETATM   16  C   UNL     1     -12.422  11.166  71.029  1.00  0.00    -0.506 A  
HETATM   17  C   UNL     1     -13.513  13.046  72.049  1.00  0.00    -0.584 A  
HETATM   18  C   UNL     1     -13.196  11.689  72.053  1.00  0.00    -0.443 A  
HETATM   19  C   UNL     1     -11.968  11.999  70.003  1.00  0.00    -0.400 A  
HETATM   20  C   UNL     1     -13.054  13.885  71.020  1.00  0.00    -0.243 A  
HETATM   21 CL   UNL     1     -13.499  15.554  71.130  1.00  0.00    -0.573 Cl 
ENDBRANCH   1  15
TORSDOF 4
ENDMDL
MODEL        7
REMARK 921   NORMALIZED FREE ENERGY PREDICTED BY IDOCK:   -5.78 KCAL/MOL
REMARK 922        TOTAL FREE ENERGY PREDICTED BY IDOCK:   -7.66 KCAL/MOL
REMARK 923 INTER-LIGAND FREE ENERGY PREDICTED BY IDOCK:   -7.26 KCAL/MOL
REMARK 924 INTRA-LIGAND FREE ENERGY PREDICTED BY IDOCK:   -0.41 KCAL/MOL
REMARK 927      BINDING AFFINITY PREDICTED BY RF-SCORE:    0.00 PKD
ROOT
HETATM    1  C   UNL     1     -10.933  14.400  69.095  1.00  0.00    -0.265 C  
ENDROOT
BRANCH   1   2
HETATM    2  N   UNL     1     -10.301  15.761  69.022  1.00  0.00    -0.211 NA 
HETATM    3  S   UNL     1      -7.847  19.411  67.993  1.00  0.00    -0.311 SA 
HETATM    4  C   UNL     1      -8.832  18.056  68.261  1.00  0.00    -0.286 A  
HETATM    5  C   UNL     1      -6.468  18.578  68.572  1.00  0.00    -0.231 A  
HETATM    6  C   UNL     1     -10.286  18.032  67.944  1.00  0.00    -0.402 C  
HETATM    7  C   UNL     1     -10.765  16.566  67.869  1.00  0.00    -0.337 C  
HETATM    8  C   UNL     1      -8.819  15.655  69.060  1.00  0.00    -0.243 C  
HETATM    9  C   UNL     1      -6.771  17.294  68.976  1.00  0.00    -0.238 A  
HETATM   10  C   UNL     1      -8.157  16.982  68.800  1.00  0.00    -0.250 A  
ENDBRANCH   1   2
BRANCH   1  11
HETATM   11  C   UNL     1     -11.431  13.913  67.702  1.00  0.00    -0.324 C  
HETATM   12  O   UNL     1     -12.499  14.210  67.179  1.00  0.00    -0.284 OA 
BRANCH  11  13
HETATM   13  O   UNL     1     -10.468  13.169  67.076  1.00  0.00    -0.246 OA 
HETATM   14  C   UNL     1     -10.321  13.476  65.687  1.00  0.00    -0.297 C  
ENDBRANCH  11  13
ENDBRANCH   1  11
BRANCH   1  15
HETATM   15  C   UNL     1     -11.996  14.293  70.207  1.00  0.00    -0.398 A  
HETATM   16  C   UNL     1     -13.574  15.372  71.756  1.00  0.00    -0.596 A  
HETATM   17  C   UNL     1     -13.280  12.991  71.837  1.00  0.00    -0.527 A  
HETATM   18  C   UNL     1     -13.896  14.146  72.315  1.00  0.00    -0.643 A  
HETATM   19  C   UNL     1     -12.637  15.443  70.722  1.00  0.00    -0.497 A  
HETATM   20  C   UNL     1     -12.341  13.060  70.794  1.00  0.00    -0.310 A  
HETATM   21 CL   UNL     1     -11.655  11.559  70.275  1.00  0.00    -0.361 Cl 
ENDBRANCH   1  15
TORSDOF 4
ENDMDL
MODEL        8
REMARK 921   NORMALIZED FREE ENERGY PREDICTED BY IDOCK:   -5.77 KCAL/MOL
REMARK 922        TOTAL FREE ENERGY PREDICTED BY IDOCK:   -7.65 KCAL/MOL
REMARK 923 INTER-LIGAND FREE ENERGY PREDICTED BY IDOCK:   -7.31 KCAL/MOL
REMARK 924 INTRA-LIGAND FREE ENERGY PREDICTED BY IDOCK:   -0.34 KCAL/MOL
REMARK 927      BINDING AFFINITY PREDICTED BY RF-SCORE:    0.00 PKD
ROOT
HETATM    1  C   UNL     1     -10.075  14.379  66.481  1.00  0.00    -0.276 C  
ENDROOT
BRANCH   1   2
HETATM    2  N   UNL     1     -11.051  14.511  67.616  1.00  0.00    -0.294 NA 
HETATM    3  S   UNL     1     -13.147  14.569  71.617  1.00  0.00    -0.367 SA 
HETATM    4  C   UNL     1     -12.285  14.650  70.159  1.00  0.00    -0.335 A  
HETATM    5  C   UNL     1     -13.052  12.859  71.628  1.00  0.00    -0.335 A  
HETATM    6  C   UNL     1     -11.940  15.934  69.488  1.00  0.00    -0.274 C  
HETATM    7  C   UNL     1     -10.797  15.688  68.478  1.00  0.00    -0.282 C  
HETATM    8  C   UNL     1     -11.112  13.252  68.405  1.00  0.00    -0.270 C  
HETATM    9  C   UNL     1     -12.385  12.371  70.523  1.00  0.00    -0.346 A  
HETATM   10  C   UNL     1     -11.935  13.415  69.655  1.00  0.00    -0.386 A  
ENDBRANCH   1   2
BRANCH   1  11
HETATM   11  C   UNL     1      -9.585  15.765  65.969  1.00  0.00    -0.353 C  
HETATM   12  O   UNL     1     -10.278  16.613  65.420  1.00  0.00    -0.585 OA 
BRANCH  11  13
HETATM   13  O   UNL     1      -8.272  15.967  66.299  1.00  0.00    -0.274 OA 
HETATM   14  C   UNL     1      -7.867  17.336  66.224  1.00  0.00    -0.309 C  
ENDBRANCH  11  13
ENDBRANCH   1  11
BRANCH   1  15
HETATM   15  C   UNL     1     -10.583  13.448  65.362  1.00  0.00    -0.310 A  
HETATM   16  C   UNL     1     -12.132  13.000  63.503  1.00  0.00    -0.617 A  
HETATM   17  C   UNL     1     -10.575  11.302  64.179  1.00  0.00    -0.437 A  
HETATM   18  C   UNL     1     -11.605  11.728  63.343  1.00  0.00    -0.419 A  
HETATM   19  C   UNL     1     -11.630  13.842  64.498  1.00  0.00    -0.409 A  
HETATM   20  C   UNL     1     -10.067  12.150  65.177  1.00  0.00    -0.261 A  
HETATM   21 CL   UNL     1      -8.779  11.517  66.144  1.00  0.00    -0.168 Cl 
ENDBRANCH   1  15
TORSDOF 4
ENDMDL
MODEL        9
REMARK 921   NORMALIZED FREE ENERGY PREDICTED BY IDOCK:   -5.77 KCAL/MOL
REMARK 922        TOTAL FREE ENERGY PREDICTED BY IDOCK:   -7.64 KCAL/MOL
REMARK 923 INTER-LIGAND FREE ENERGY PREDICTED BY IDOCK:   -7.38 KCAL/MOL
REMARK 924 INTRA-LIGAND FREE ENERGY PREDICTED BY IDOCK:   -0.26 KCAL/MOL
REMARK 927      BINDING AFFINITY PREDICTED BY RF-SCORE:    0.00 PKD
ROOT
HETATM    1  C   UNL     1     -11.369  13.042  66.014  1.00  0.00    -0.310 C  
ENDROOT
BRANCH   1   2
HETATM    2  N   UNL     1     -10.651  14.338  66.262  1.00  0.00    -0.286 NA 
HETATM    3  S   UNL     1      -7.767  17.814  66.331  1.00  0.00    -0.288 SA 
HETATM    4  C   UNL     1      -8.877  16.541  66.177  1.00  0.00    -0.306 A  
HETATM    5  C   UNL     1      -6.659  16.806  67.159  1.00  0.00    -0.192 A  
HETATM    6  C   UNL     1     -10.188  16.683  65.485  1.00  0.00    -0.227 C  
HETATM    7  C   UNL     1     -10.726  15.282  65.124  1.00  0.00    -0.436 C  
HETATM    8  C   UNL     1      -9.246  14.088  66.680  1.00  0.00    -0.244 C  
HETATM    9  C   UNL     1      -7.147  15.526  67.324  1.00  0.00    -0.225 A  
HETATM   10  C   UNL     1      -8.449  15.364  66.753  1.00  0.00    -0.307 A  
ENDBRANCH   1   2
BRANCH   1  11
HETATM   11  C   UNL     1     -12.778  13.266  65.391  1.00  0.00    -0.399 C  
HETATM   12  O   UNL     1     -13.524  14.209  65.626  1.00  0.00    -0.576 OA 
BRANCH  11  13
HETATM   13  O   UNL     1     -13.051  12.307  64.453  1.00  0.00    -0.780 OA 
HETATM   14  C   UNL     1     -11.969  12.068  63.548  1.00  0.00    -0.507 C  
ENDBRANCH  11  13
ENDBRANCH   1  11
BRANCH   1  15
HETATM   15  C   UNL     1     -11.375  12.116  67.247  1.00  0.00    -0.398 A  
HETATM   16  C   UNL     1     -11.057   9.887  68.239  1.00  0.00    -0.207 A  
HETATM   17  C   UNL     1     -11.819  11.696  69.619  1.00  0.00    -0.419 A  
HETATM   18  C   UNL     1     -11.458  10.358  69.478  1.00  0.00    -0.311 A  
HETATM   19  C   UNL     1     -11.021  10.752  67.142  1.00  0.00    -0.324 A  
HETATM   20  C   UNL     1     -11.779  12.569  68.519  1.00  0.00    -0.324 A  
HETATM   21 CL   UNL     1     -12.237  14.211  68.819  1.00  0.00    -0.315 Cl 
ENDBRANCH   1  15
TORSDOF 4
ENDMDL
MODEL       10
REMARK 921   NORMALIZED FREE ENERGY PREDICTED BY IDOCK:   -5.74 KCAL/MOL
REMARK 922        TOTAL FREE ENERGY PREDICTED BY IDOCK:   -7.61 KCAL/MOL
REMARK 923 INTER-LIGAND FREE ENERGY PREDICTED BY IDOCK:   -7.19 KCAL/MOL
REMARK 924 INTRA-LIGAND FREE ENERGY PREDICTED BY IDOCK:   -0.42 KCAL/MOL
REMARK 927      BINDING AFFINITY PREDICTED BY RF-SCORE:    0.00 PKD
ROOT
HETATM    1  C   UNL     1     -10.348  13.198  67.318  1.00  0.00    -0.243 C  
ENDROOT
BRANCH   1   2
HETATM    2  N   UNL     1     -11.332  13.783  68.291  1.00  0.00    -0.268 NA 
HETATM    3  S   UNL     1     -13.555  15.245  71.941  1.00  0.00    -0.522 SA 
HETATM    4  C   UNL     1     -12.630  14.794  70.593  1.00  0.00    -0.354 A  
HETATM    5  C   UNL     1     -13.766  13.609  72.398  1.00  0.00    -0.595 A  
HETATM    6  C   UNL     1     -12.033  15.779  69.650  1.00  0.00    -0.332 C  
HETATM    7  C   UNL     1     -10.910  15.091  68.841  1.00  0.00    -0.243 C  
HETATM    8  C   UNL     1     -11.651  12.808  69.367  1.00  0.00    -0.298 C  
HETATM    9  C   UNL     1     -13.151  12.742  71.519  1.00  0.00    -0.380 A  
HETATM   10  C   UNL     1     -12.485  13.430  70.455  1.00  0.00    -0.350 A  
ENDBRANCH   1   2
BRANCH   1  11
HETATM   11  C   UNL     1      -9.082  14.090  67.162  1.00  0.00    -0.232 C  
HETATM   12  O   UNL     1      -8.079  14.042  67.865  1.00  0.00    -0.130 OA 
BRANCH  11  13
HETATM   13  O   UNL     1      -9.187  14.892  66.057  1.00  0.00    -0.277 OA 
HETATM   14  C   UNL     1      -8.584  16.178  66.224  1.00  0.00    -0.338 C  
ENDBRANCH  11  13
ENDBRANCH   1  11
BRANCH   1  15
HETATM   15  C   UNL     1     -10.997  12.800  65.977  1.00  0.00    -0.306 A  
HETATM   16  C   UNL     1     -12.863  12.967  64.382  1.00  0.00    -0.235 A  
HETATM   17  C   UNL     1     -11.045  11.468  63.922  1.00  0.00    -0.458 A  
HETATM   18  C   UNL     1     -12.267  12.028  63.555  1.00  0.00    -0.653 A  
HETATM   19  C   UNL     1     -12.238  13.342  65.574  1.00  0.00    -0.506 A  
HETATM   20  C   UNL     1     -10.414  11.848  65.118  1.00  0.00    -0.287 A  
HETATM   21 CL   UNL     1      -8.893  11.096  65.460  1.00  0.00    -0.180 Cl 
ENDBRANCH   1  15
TORSDOF 4
ENDMDL
MODEL       11
REMARK 921   NORMALIZED FREE ENERGY PREDICTED BY IDOCK:   -5.70 KCAL/MOL
REMARK 922        TOTAL FREE ENERGY PREDICTED BY IDOCK:   -7.57 KCAL/MOL
REMARK 923 INTER-LIGAND FREE ENERGY PREDICTED BY IDOCK:   -7.21 KCAL/MOL
REMARK 924 INTRA-LIGAND FREE ENERGY PREDICTED BY IDOCK:   -0.36 KCAL/MOL
REMARK 927      BINDING AFFINITY PREDICTED BY RF-SCORE:    0.00 PKD
ROOT
HETATM    1  C   UNL     1     -10.728  12.511  67.332  1.00  0.00    -0.229 C  
ENDROOT
BRANCH   1   2
HETATM    2  N   UNL     1     -11.528  13.330  68.305  1.00  0.00    -0.294 NA 
HETATM    3  S   UNL     1     -13.187  15.454  71.930  1.00  0.00    -0.480 SA 
HETATM    4  C   UNL     1     -12.459  14.741  70.574  1.00  0.00    -0.352 A  
HETATM    5  C   UNL     1     -13.592  13.920  72.573  1.00  0.00    -0.576 A  
HETATM    6  C   UNL     1     -11.811  15.529  69.490  1.00  0.00    -0.390 C  
HETATM    7  C   UNL     1     -10.875  14.604  68.680  1.00  0.00    -0.255 C  
HETATM    8  C   UNL     1     -11.889  12.522  69.499  1.00  0.00    -0.310 C  
HETATM    9  C   UNL     1     -13.188  12.890  71.749  1.00  0.00    -0.479 A  
HETATM   10  C   UNL     1     -12.525  13.364  70.572  1.00  0.00    -0.350 A  
ENDBRANCH   1   2
BRANCH   1  11
HETATM   11  C   UNL     1      -9.196  12.708  67.525  1.00  0.00    -0.190 C  
HETATM   12  O   UNL     1      -8.509  13.567  66.985  1.00  0.00    -0.194 OA 
BRANCH  11  13
HETATM   13  O   UNL     1      -8.712  11.842  68.469  1.00  0.00    -0.165 OA 
HETATM   14  C   UNL     1      -7.727  10.937  67.963  1.00  0.00    -0.101 C  
ENDBRANCH  11  13
ENDBRANCH   1  11
BRANCH   1  15
HETATM   15  C   UNL     1     -11.197  12.689  65.874  1.00  0.00    -0.350 A  
HETATM   16  C   UNL     1     -12.385  13.999  64.163  1.00  0.00    -0.374 A  
HETATM   17  C   UNL     1     -11.452  11.866  63.580  1.00  0.00    -0.551 A  
HETATM   18  C   UNL     1     -12.154  13.013  63.217  1.00  0.00    -0.499 A  
HETATM   19  C   UNL     1     -11.917  13.836  65.469  1.00  0.00    -0.404 A  
HETATM   20  C   UNL     1     -10.976  11.702  64.892  1.00  0.00    -0.284 A  
HETATM   21 CL   UNL     1     -10.106  10.243  65.221  1.00  0.00    -0.378 Cl 
ENDBRANCH   1  15
TORSDOF 4
ENDMDL
MODEL       12
REMARK 921   NORMALIZED FREE ENERGY PREDICTED BY IDOCK:   -5.69 KCAL/MOL
REMARK 922        TOTAL FREE ENERGY PREDICTED BY IDOCK:   -7.55 KCAL/MOL
REMARK 923 INTER-LIGAND FREE ENERGY PREDICTED BY IDOCK:   -7.55 KCAL/MOL
REMARK 924 INTRA-LIGAND FREE ENERGY PREDICTED BY IDOCK:    0.00 KCAL/MOL
REMARK 927      BINDING AFFINITY PREDICTED BY RF-SCORE:    0.00 PKD
ROOT
HETATM    1  C   UNL     1     -11.180  13.571  66.167  1.00  0.00    -0.295 C  
ENDROOT
BRANCH   1   2
HETATM    2  N   UNL     1     -10.196  14.702  66.062  1.00  0.00    -0.295 NA 
HETATM    3  S   UNL     1      -7.698  18.417  66.667  1.00  0.00    -0.245 SA 
HETATM    4  C   UNL     1      -8.574  16.969  66.547  1.00  0.00    -0.270 A  
HETATM    5  C   UNL     1      -9.106  19.344  66.368  1.00  0.00    -0.360 A  
HETATM    6  C   UNL     1      -7.956  15.627  66.730  1.00  0.00    -0.246 C  
HETATM    7  C   UNL     1      -9.066  14.591  67.012  1.00  0.00    -0.239 C  
HETATM    8  C   UNL     1     -10.888  16.013  66.178  1.00  0.00    -0.179 C  
HETATM    9  C   UNL     1     -10.216  18.549  66.165  1.00  0.00    -0.424 A  
HETATM   10  C   UNL     1      -9.911  17.155  66.265  1.00  0.00    -0.306 A  
ENDBRANCH   1   2
BRANCH   1  11
HETATM   11  C   UNL     1     -12.397  13.768  65.217  1.00  0.00    -0.464 C  
HETATM   12  O   UNL     1     -13.510  14.159  65.549  1.00  0.00    -0.643 OA 
BRANCH  11  13
HETATM   13  O   UNL     1     -12.040  13.533  63.916  1.00  0.00    -0.476 OA 
HETATM   14  C   UNL     1     -12.320  12.200  63.479  1.00  0.00    -0.574 C  
ENDBRANCH  11  13
ENDBRANCH   1  11
BRANCH   1  15
HETATM   15  C   UNL     1     -11.573  13.255  67.624  1.00  0.00    -0.386 A  
HETATM   16  C   UNL     1     -12.302  14.018  69.847  1.00  0.00    -0.367 A  
HETATM   17  C   UNL     1     -11.822  11.693  69.494  1.00  0.00    -0.414 A  
HETATM   18  C   UNL     1     -12.223  12.725  70.339  1.00  0.00    -0.371 A  
HETATM   19  C   UNL     1     -11.979  14.277  68.513  1.00  0.00    -0.352 A  
HETATM   20  C   UNL     1     -11.500  11.950  68.151  1.00  0.00    -0.320 A  
HETATM   21 CL   UNL     1     -11.030  10.587  67.195  1.00  0.00    -0.324 Cl 
ENDBRANCH   1  15
TORSDOF 4
ENDMDL
MODEL       13
REMARK 921   NORMALIZED FREE ENERGY PREDICTED BY IDOCK:   -5.63 KCAL/MOL
REMARK 922        TOTAL FREE ENERGY PREDICTED BY IDOCK:   -7.48 KCAL/MOL
REMARK 923 INTER-LIGAND FREE ENERGY PREDICTED BY IDOCK:   -7.59 KCAL/MOL
REMARK 924 INTRA-LIGAND FREE ENERGY PREDICTED BY IDOCK:    0.12 KCAL/MOL
REMARK 927      BINDING AFFINITY PREDICTED BY RF-SCORE:    0.00 PKD
ROOT
HETATM    1  C   UNL     1     -11.900  13.441  67.488  1.00  0.00    -0.366 C  
ENDROOT
BRANCH   1   2
HETATM    2  N   UNL     1     -11.157  14.687  67.878  1.00  0.00    -0.280 NA 
HETATM    3  S   UNL     1      -9.760  18.924  68.588  1.00  0.00    -0.406 SA 
HETATM    4  C   UNL     1     -10.383  17.357  68.410  1.00  0.00    -0.379 A  
HETATM    5  C   UNL     1      -9.536  19.074  66.897  1.00  0.00    -0.321 A  
HETATM    6  C   UNL     1     -10.852  16.532  69.558  1.00  0.00    -0.315 C  
HETATM    7  C   UNL     1     -11.756  15.396  69.031  1.00  0.00    -0.361 C  
HETATM    8  C   UNL     1     -10.986  15.585  66.705  1.00  0.00    -0.257 C  
HETATM    9  C   UNL     1      -9.919  17.933  66.221  1.00  0.00    -0.333 A  
HETATM   10  C   UNL     1     -10.414  16.920  67.103  1.00  0.00    -0.296 A  
ENDBRANCH   1   2
BRANCH   1  11
HETATM   11  C   UNL     1     -11.793  12.334  68.577  1.00  0.00    -0.307 C  
HETATM   12  O   UNL     1     -11.603  12.520  69.773  1.00  0.00    -0.277 OA 
BRANCH  11  13
HETATM   13  O   UNL     1     -12.036  11.099  68.038  1.00  0.00    -0.625 OA 
HETATM   14  C   UNL     1     -11.074  10.110  68.417  1.00  0.00    -0.218 C  
ENDBRANCH  11  13
ENDBRANCH   1  11
BRANCH   1  15
HETATM   15  C   UNL     1     -11.547  12.953  66.069  1.00  0.00    -0.424 A  
HETATM   16  C   UNL     1     -12.240  12.390  63.776  1.00  0.00    -0.626 A  
HETATM   17  C   UNL     1      -9.959  12.043  64.440  1.00  0.00    -0.254 A  
HETATM   18  C   UNL     1     -10.954  11.977  63.467  1.00  0.00    -0.514 A  
HETATM   19  C   UNL     1     -12.530  12.866  65.057  1.00  0.00    -0.553 A  
HETATM   20  C   UNL     1     -10.248  12.526  65.728  1.00  0.00    -0.270 A  
HETATM   21 CL   UNL     1      -8.930  12.575  66.847  1.00  0.00    -0.210 Cl 
ENDBRANCH   1  15
TORSDOF 4
ENDMDL
MODEL       14
REMARK 921   NORMALIZED FREE ENERGY PREDICTED BY IDOCK:   -5.63 KCAL/MOL
REMARK 922        TOTAL FREE ENERGY PREDICTED BY IDOCK:   -7.47 KCAL/MOL
REMARK 923 INTER-LIGAND FREE ENERGY PREDICTED BY IDOCK:   -7.96 KCAL/MOL
REMARK 924 INTRA-LIGAND FREE ENERGY PREDICTED BY IDOCK:    0.48 KCAL/MOL
REMARK 927      BINDING AFFINITY PREDICTED BY RF-SCORE:    0.00 PKD
ROOT
HETATM    1  C   UNL     1     -11.433  15.231  68.940  1.00  0.00    -0.332 C  
ENDROOT
BRANCH   1   2
HETATM    2  N   UNL     1     -11.202  14.143  67.931  1.00  0.00    -0.268 NA 
HETATM    3  S   UNL     1     -10.599  11.679  64.193  1.00  0.00    -0.393 SA 
HETATM    4  C   UNL     1     -10.706  12.662  65.571  1.00  0.00    -0.274 A  
HETATM    5  C   UNL     1     -12.239  11.973  63.802  1.00  0.00    -0.498 A  
HETATM    6  C   UNL     1      -9.555  12.917  66.480  1.00  0.00    -0.259 C  
HETATM    7  C   UNL     1      -9.848  14.172  67.331  1.00  0.00    -0.239 C  
HETATM    8  C   UNL     1     -12.266  14.154  66.892  1.00  0.00    -0.365 C  
HETATM    9  C   UNL     1     -12.852  12.796  64.725  1.00  0.00    -0.374 A  
HETATM   10  C   UNL     1     -11.959  13.201  65.768  1.00  0.00    -0.473 A  
ENDBRANCH   1   2
BRANCH   1  11
HETATM   11  C   UNL     1     -10.109  15.944  69.343  1.00  0.00    -0.267 C  
HETATM   12  O   UNL     1      -9.073  15.389  69.689  1.00  0.00    -0.263 OA 
BRANCH  11  13
HETATM   13  O   UNL     1     -10.216  17.298  69.171  1.00  0.00    -0.321 OA 
HETATM   14  C   UNL     1     -10.542  17.680  67.832  1.00  0.00    -0.387 C  
ENDBRANCH  11  13
ENDBRANCH   1  11
BRANCH   1  15
HETATM   15  C   UNL     1     -12.277  14.762  70.142  1.00  0.00    -0.391 A  
HETATM   16  C   UNL     1     -13.742  15.283  72.049  1.00  0.00    -0.596 A  
HETATM   17  C   UNL     1     -13.067  13.012  71.664  1.00  0.00    -0.440 A  
HETATM   18  C   UNL     1     -13.774  13.948  72.417  1.00  0.00    -0.678 A  
HETATM   19  C   UNL     1     -13.002  15.682  70.933  1.00  0.00    -0.471 A  
HETATM   20  C   UNL     1     -12.327  13.411  70.539  1.00  0.00    -0.329 A  
HETATM   21 CL   UNL     1     -11.502  12.158  69.675  1.00  0.00    -0.337 Cl 
ENDBRANCH   1  15
TORSDOF 4
ENDMDL
MODEL       15
REMARK 921   NORMALIZED FREE ENERGY PREDICTED BY IDOCK:   -5.63 KCAL/MOL
REMARK 922        TOTAL FREE ENERGY PREDICTED BY IDOCK:   -7.47 KCAL/MOL
REMARK 923 INTER-LIGAND FREE ENERGY PREDICTED BY IDOCK:   -7.06 KCAL/MOL
REMARK 924 INTRA-LIGAND FREE ENERGY PREDICTED BY IDOCK:   -0.41 KCAL/MOL
REMARK 927      BINDING AFFINITY PREDICTED BY RF-SCORE:    0.00 PKD
ROOT
HETATM    1  C   UNL     1     -11.039  14.895  66.931  1.00  0.00    -0.337 C  
ENDROOT
BRANCH   1   2
HETATM    2  N   UNL     1     -11.206  13.906  68.050  1.00  0.00    -0.260 NA 
HETATM    3  S   UNL     1     -12.753  11.148  71.276  1.00  0.00    -0.395 SA 
HETATM    4  C   UNL     1     -12.228  12.101  69.974  1.00  0.00    -0.198 A  
HETATM    5  C   UNL     1     -13.219  12.537  72.161  1.00  0.00    -0.403 A  
HETATM    6  C   UNL     1     -11.665  11.527  68.721  1.00  0.00    -0.397 C  
HETATM    7  C   UNL     1     -11.724  12.593  67.604  1.00  0.00    -0.361 C  
HETATM    8  C   UNL     1     -12.033  14.483  69.143  1.00  0.00    -0.309 C  
HETATM    9  C   UNL     1     -12.958  13.703  71.471  1.00  0.00    -0.443 A  
HETATM   10  C   UNL     1     -12.373  13.455  70.188  1.00  0.00    -0.322 A  
ENDBRANCH   1   2
BRANCH   1  11
HETATM   11  C   UNL     1     -11.550  14.331  65.573  1.00  0.00    -0.338 C  
HETATM   12  O   UNL     1     -12.718  14.299  65.204  1.00  0.00    -0.596 OA 
BRANCH  11  13
HETATM   13  O   UNL     1     -10.500  13.949  64.782  1.00  0.00    -0.408 OA 
HETATM   14  C   UNL     1     -10.776  12.793  63.985  1.00  0.00    -0.426 C  
ENDBRANCH  11  13
ENDBRANCH   1  11
BRANCH   1  15
HETATM   15  C   UNL     1      -9.617  15.486  66.863  1.00  0.00    -0.241 A  
HETATM   16  C   UNL     1      -7.198  15.265  67.254  1.00  0.00    -0.213 A  
HETATM   17  C   UNL     1      -8.076  17.340  66.427  1.00  0.00    -0.328 A  
HETATM   18  C   UNL     1      -6.990  16.569  66.832  1.00  0.00    -0.258 A  
HETATM   19  C   UNL     1      -8.491  14.736  67.271  1.00  0.00    -0.234 A  
HETATM   20  C   UNL     1      -9.376  16.808  66.439  1.00  0.00    -0.278 A  
HETATM   21 CL   UNL     1     -10.644  17.856  65.900  1.00  0.00    -0.316 Cl 
ENDBRANCH   1  15
TORSDOF 4
ENDMDL
MODEL       16
REMARK 921   NORMALIZED FREE ENERGY PREDICTED BY IDOCK:   -5.57 KCAL/MOL
REMARK 922        TOTAL FREE ENERGY PREDICTED BY IDOCK:   -7.40 KCAL/MOL
REMARK 923 INTER-LIGAND FREE ENERGY PREDICTED BY IDOCK:   -7.24 KCAL/MOL
REMARK 924 INTRA-LIGAND FREE ENERGY PREDICTED BY IDOCK:   -0.17 KCAL/MOL
REMARK 927      BINDING AFFINITY PREDICTED BY RF-SCORE:    0.00 PKD
ROOT
HETATM    1  C   UNL     1     -11.908  15.146  69.153  1.00  0.00    -0.313 C  
ENDROOT
BRANCH   1   2
HETATM    2  N   UNL     1     -10.680  15.852  68.652  1.00  0.00    -0.260 NA 
HETATM    3  S   UNL     1      -7.126  18.571  68.030  1.00  0.00    -0.241 SA 
HETATM    4  C   UNL     1      -8.395  17.498  68.370  1.00  0.00    -0.278 A  
HETATM    5  C   UNL     1      -8.227  19.850  67.744  1.00  0.00    -0.301 A  
HETATM    6  C   UNL     1      -8.178  16.076  68.754  1.00  0.00    -0.211 C  
HETATM    7  C   UNL     1      -9.458  15.530  69.424  1.00  0.00    -0.278 C  
HETATM    8  C   UNL     1     -10.912  17.318  68.572  1.00  0.00    -0.146 C  
HETATM    9  C   UNL     1      -9.538  19.448  67.892  1.00  0.00    -0.428 A  
HETATM   10  C   UNL     1      -9.645  18.068  68.255  1.00  0.00    -0.321 A  
ENDBRANCH   1   2
BRANCH   1  11
HETATM   11  C   UNL     1     -12.274  15.573  70.604  1.00  0.00    -0.402 C  
HETATM   12  O   UNL     1     -11.479  15.802  71.507  1.00  0.00    -0.390 OA 
BRANCH  11  13
HETATM   13  O   UNL     1     -13.625  15.758  70.728  1.00  0.00    -0.477 OA 
HETATM   14  C   UNL     1     -14.164  15.240  71.948  1.00  0.00    -0.581 C  
ENDBRANCH  11  13
ENDBRANCH   1  11
BRANCH   1  15
HETATM   15  C   UNL     1     -11.843  13.619  68.953  1.00  0.00    -0.402 A  
HETATM   16  C   UNL     1     -11.752  11.349  69.897  1.00  0.00    -0.424 A  
HETATM   17  C   UNL     1     -11.623  11.644  67.519  1.00  0.00    -0.345 A  
HETATM   18  C   UNL     1     -11.638  10.803  68.629  1.00  0.00    -0.342 A  
HETATM   19  C   UNL     1     -11.849  12.733  70.054  1.00  0.00    -0.352 A  
HETATM   20  C   UNL     1     -11.725  13.037  67.674  1.00  0.00    -0.366 A  
HETATM   21 CL   UNL     1     -11.710  13.979  66.223  1.00  0.00    -0.380 Cl 
ENDBRANCH   1  15
TORSDOF 4
ENDMDL
MODEL       17
REMARK 921   NORMALIZED FREE ENERGY PREDICTED BY IDOCK:   -5.56 KCAL/MOL
REMARK 922        TOTAL FREE ENERGY PREDICTED BY IDOCK:   -7.39 KCAL/MOL
REMARK 923 INTER-LIGAND FREE ENERGY PREDICTED BY IDOCK:   -7.13 KCAL/MOL
REMARK 924 INTRA-LIGAND FREE ENERGY PREDICTED BY IDOCK:   -0.26 KCAL/MOL
REMARK 927      BINDING AFFINITY PREDICTED BY RF-SCORE:    0.00 PKD
ROOT
HETATM    1  C   UNL     1     -10.952  13.877  66.575  1.00  0.00    -0.300 C  
ENDROOT
BRANCH   1   2
HETATM    2  N   UNL     1     -11.539  14.493  67.813  1.00  0.00    -0.348 NA 
HETATM    3  S   UNL     1     -12.542  15.760  72.032  1.00  0.00    -0.462 SA 
HETATM    4  C   UNL     1     -12.050  15.353  70.460  1.00  0.00    -0.371 A  
HETATM    5  C   UNL     1     -13.085  14.163  72.322  1.00  0.00    -0.423 A  
HETATM    6  C   UNL     1     -11.409  16.324  69.531  1.00  0.00    -0.276 C  
HETATM    7  C   UNL     1     -10.688  15.549  68.406  1.00  0.00    -0.263 C  
HETATM    8  C   UNL     1     -11.887  13.443  68.807  1.00  0.00    -0.351 C  
HETATM    9  C   UNL     1     -12.903  13.346  71.225  1.00  0.00    -0.407 A  
HETATM   10  C   UNL     1     -12.300  14.039  70.127  1.00  0.00    -0.409 A  
ENDBRANCH   1   2
BRANCH   1  11
HETATM   11  C   UNL     1     -11.988  13.803  65.414  1.00  0.00    -0.379 C  
HETATM   12  O   UNL     1     -13.188  14.033  65.508  1.00  0.00    -0.710 OA 
BRANCH  11  13
HETATM   13  O   UNL     1     -11.364  13.534  64.225  1.00  0.00    -0.380 OA 
HETATM   14  C   UNL     1     -12.094  12.632  63.389  1.00  0.00    -0.525 C  
ENDBRANCH  11  13
ENDBRANCH   1  11
BRANCH   1  15
HETATM   15  C   UNL     1     -10.236  12.541  66.853  1.00  0.00    -0.237 A  
HETATM   16  C   UNL     1     -10.297  10.087  67.030  1.00  0.00    -0.305 A  
HETATM   17  C   UNL     1      -8.272  11.260  67.565  1.00  0.00    -0.124 A  
HETATM   18  C   UNL     1      -8.974  10.063  67.442  1.00  0.00    -0.139 A  
HETATM   19  C   UNL     1     -10.916  11.306  66.745  1.00  0.00    -0.339 A  
HETATM   20  C   UNL     1      -8.892  12.486  67.274  1.00  0.00    -0.195 A  
HETATM   21 CL   UNL     1      -7.916  13.905  67.450  1.00  0.00    -0.190 Cl 
ENDBRANCH   1  15
TORSDOF 4
ENDMDL
MODEL       18
REMARK 921   NORMALIZED FREE ENERGY PREDICTED BY IDOCK:   -5.55 KCAL/MOL
REMARK 922        TOTAL FREE ENERGY PREDICTED BY IDOCK:   -7.37 KCAL/MOL
REMARK 923 INTER-LIGAND FREE ENERGY PREDICTED BY IDOCK:   -7.15 KCAL/MOL
REMARK 924 INTRA-LIGAND FREE ENERGY PREDICTED BY IDOCK:   -0.22 KCAL/MOL
REMARK 927      BINDING AFFINITY PREDICTED BY RF-SCORE:    0.00 PKD
ROOT
HETATM    1  C   UNL     1     -12.061  15.410  69.531  1.00  0.00    -0.305 C  
ENDROOT
BRANCH   1   2
HETATM    2  N   UNL     1     -10.748  16.137  69.470  1.00  0.00    -0.289 NA 
HETATM    3  S   UNL     1      -6.667  17.744  68.388  1.00  0.00    -0.221 SA 
HETATM    4  C   UNL     1      -8.248  17.205  68.686  1.00  0.00    -0.255 A  
HETATM    5  C   UNL     1      -6.027  16.196  68.736  1.00  0.00    -0.110 A  
HETATM    6  C   UNL     1      -9.445  18.080  68.550  1.00  0.00    -0.326 C  
HETATM    7  C   UNL     1     -10.708  17.197  68.438  1.00  0.00    -0.347 C  
HETATM    8  C   UNL     1      -9.622  15.177  69.318  1.00  0.00    -0.218 C  
HETATM    9  C   UNL     1      -7.011  15.296  69.090  1.00  0.00    -0.148 A  
HETATM   10  C   UNL     1      -8.317  15.882  69.066  1.00  0.00    -0.239 A  
ENDBRANCH   1   2
BRANCH   1  11
HETATM   11  C   UNL     1     -12.815  15.679  70.866  1.00  0.00    -0.442 C  
HETATM   12  O   UNL     1     -14.017  15.532  71.053  1.00  0.00    -0.535 OA 
BRANCH  11  13
HETATM   13  O   UNL     1     -11.936  16.019  71.859  1.00  0.00    -0.447 OA 
HETATM   14  C   UNL     1     -12.517  16.010  73.166  1.00  0.00    -0.526 C  
ENDBRANCH  11  13
ENDBRANCH   1  11
BRANCH   1  15
HETATM   15  C   UNL     1     -11.933  13.914  69.180  1.00  0.00    -0.404 A  
HETATM   16  C   UNL     1     -11.759  11.566  69.895  1.00  0.00    -0.420 A  
HETATM   17  C   UNL     1     -11.621  12.103  67.560  1.00  0.00    -0.413 A  
HETATM   18  C   UNL     1     -11.612  11.155  68.580  1.00  0.00    -0.383 A  
HETATM   19  C   UNL     1     -11.913  12.923  70.188  1.00  0.00    -0.373 A  
HETATM   20  C   UNL     1     -11.781  13.468  67.852  1.00  0.00    -0.357 A  
HETATM   21 CL   UNL     1     -11.791  14.550  66.502  1.00  0.00    -0.388 Cl 
ENDBRANCH   1  15
TORSDOF 4
ENDMDL
MODEL       19
REMARK 921   NORMALIZED FREE ENERGY PREDICTED BY IDOCK:   -5.46 KCAL/MOL
REMARK 922        TOTAL FREE ENERGY PREDICTED BY IDOCK:   -7.26 KCAL/MOL
REMARK 923 INTER-LIGAND FREE ENERGY PREDICTED BY IDOCK:   -7.07 KCAL/MOL
REMARK 924 INTRA-LIGAND FREE ENERGY PREDICTED BY IDOCK:   -0.19 KCAL/MOL
REMARK 927      BINDING AFFINITY PREDICTED BY RF-SCORE:    0.00 PKD
ROOT
HETATM    1  C   UNL     1     -10.154  15.413  68.112  1.00  0.00    -0.222 C  
ENDROOT
BRANCH   1   2
HETATM    2  N   UNL     1     -10.688  14.815  66.842  1.00  0.00    -0.302 NA 
HETATM    3  S   UNL     1     -12.247  12.097  63.587  1.00  0.00    -0.549 SA 
HETATM    4  C   UNL     1     -11.777  13.094  64.877  1.00  0.00    -0.340 A  
HETATM    5  C   UNL     1     -10.686  11.401  63.499  1.00  0.00    -0.381 A  
HETATM    6  C   UNL     1     -12.703  14.047  65.548  1.00  0.00    -0.517 C  
HETATM    7  C   UNL     1     -12.118  14.438  66.923  1.00  0.00    -0.356 C  
HETATM    8  C   UNL     1      -9.842  13.674  66.402  1.00  0.00    -0.296 C  
HETATM    9  C   UNL     1      -9.825  11.941  64.432  1.00  0.00    -0.203 A  
HETATM   10  C   UNL     1     -10.457  12.938  65.241  1.00  0.00    -0.312 A  
ENDBRANCH   1   2
BRANCH   1  11
HETATM   11  C   UNL     1     -11.004  15.008  69.351  1.00  0.00    -0.266 C  
HETATM   12  O   UNL     1     -11.178  13.865  69.758  1.00  0.00    -0.199 OA 
BRANCH  11  13
HETATM   13  O   UNL     1     -11.471  16.117  70.003  1.00  0.00    -0.330 OA 
HETATM   14  C   UNL     1     -11.990  15.839  71.306  1.00  0.00    -0.434 C  
ENDBRANCH  11  13
ENDBRANCH   1  11
BRANCH   1  15
HETATM   15  C   UNL     1      -9.906  16.931  67.999  1.00  0.00    -0.264 A  
HETATM   16  C   UNL     1     -10.643  19.161  67.263  1.00  0.00    -0.573 A  
HETATM   17  C   UNL     1      -8.481  18.904  68.274  1.00  0.00    -0.365 A  
HETATM   18  C   UNL     1      -9.450  19.720  67.694  1.00  0.00    -0.461 A  
HETATM   19  C   UNL     1     -10.863  17.789  67.411  1.00  0.00    -0.195 A  
HETATM   20  C   UNL     1      -8.703  17.526  68.428  1.00  0.00    -0.276 A  
HETATM   21 CL   UNL     1      -7.433  16.618  69.175  1.00  0.00    -0.231 Cl 
ENDBRANCH   1  15
TORSDOF 4
ENDMDL
MODEL       20
REMARK 921   NORMALIZED FREE ENERGY PREDICTED BY IDOCK:   -5.45 KCAL/MOL
REMARK 922        TOTAL FREE ENERGY PREDICTED BY IDOCK:   -7.25 KCAL/MOL
REMARK 923 INTER-LIGAND FREE ENERGY PREDICTED BY IDOCK:   -6.86 KCAL/MOL
REMARK 924 INTRA-LIGAND FREE ENERGY PREDICTED BY IDOCK:   -0.39 KCAL/MOL
REMARK 927      BINDING AFFINITY PREDICTED BY RF-SCORE:    0.00 PKD
ROOT
HETATM    1  C   UNL     1     -10.448  13.692  67.029  1.00  0.00    -0.270 C  
ENDROOT
BRANCH   1   2
HETATM    2  N   UNL     1     -10.939  13.543  68.441  1.00  0.00    -0.256 NA 
HETATM    3  S   UNL     1     -13.348  13.416  72.260  1.00  0.00    -0.530 SA 
HETATM    4  C   UNL     1     -12.517  13.359  70.783  1.00  0.00    -0.341 A  
HETATM    5  C   UNL     1     -13.443  15.123  72.191  1.00  0.00    -0.424 A  
HETATM    6  C   UNL     1     -12.083  12.087  70.142  1.00  0.00    -0.377 C  
HETATM    7  C   UNL     1     -11.786  12.346  68.649  1.00  0.00    -0.302 C  
HETATM    8  C   UNL     1     -11.617  14.785  68.896  1.00  0.00    -0.313 C  
HETATM    9  C   UNL     1     -12.831  15.630  71.063  1.00  0.00    -0.521 A  
HETATM   10  C   UNL     1     -12.283  14.601  70.234  1.00  0.00    -0.389 A  
ENDBRANCH   1   2
BRANCH   1  11
HETATM   11  C   UNL     1     -10.191  12.313  66.353  1.00  0.00    -0.225 C  
HETATM   12  O   UNL     1      -9.413  11.454  66.750  1.00  0.00    -0.176 OA 
BRANCH  11  13
HETATM   13  O   UNL     1     -11.028  12.133  65.285  1.00  0.00    -0.288 OA 
HETATM   14  C   UNL     1     -12.198  12.955  65.331  1.00  0.00    -0.478 C  
ENDBRANCH  11  13
ENDBRANCH   1  11
BRANCH   1  15
HETATM   15  C   UNL     1      -9.266  14.674  66.908  1.00  0.00    -0.267 A  
HETATM   16  C   UNL     1      -6.980  15.342  67.526  1.00  0.00    -0.223 A  
HETATM   17  C   UNL     1      -8.281  16.764  66.094  1.00  0.00    -0.300 A  
HETATM   18  C   UNL     1      -7.095  16.503  66.778  1.00  0.00    -0.253 A  
HETATM   19  C   UNL     1      -8.050  14.446  67.591  1.00  0.00    -0.188 A  
HETATM   20  C   UNL     1      -9.356  15.862  66.155  1.00  0.00    -0.350 A  
HETATM   21 CL   UNL     1     -10.771  16.286  65.253  1.00  0.00    -0.394 Cl 
ENDBRANCH   1  15
TORSDOF 4
ENDMDL
MODEL       21
REMARK 921   NORMALIZED FREE ENERGY PREDICTED BY IDOCK:   -5.43 KCAL/MOL
REMARK 922        TOTAL FREE ENERGY PREDICTED BY IDOCK:   -7.23 KCAL/MOL
REMARK 923 INTER-LIGAND FREE ENERGY PREDICTED BY IDOCK:   -7.03 KCAL/MOL
REMARK 924 INTRA-LIGAND FREE ENERGY PREDICTED BY IDOCK:   -0.20 KCAL/MOL
REMARK 927      BINDING AFFINITY PREDICTED BY RF-SCORE:    0.00 PKD
ROOT
HETATM    1  C   UNL     1     -10.722  15.271  69.628  1.00  0.00    -0.281 C  
ENDROOT
BRANCH   1   2
HETATM    2  N   UNL     1     -11.331  14.485  68.502  1.00  0.00    -0.271 NA 
HETATM    3  S   UNL     1     -12.186  12.237  64.678  1.00  0.00    -0.329 SA 
HETATM    4  C   UNL     1     -11.783  12.980  66.149  1.00  0.00    -0.394 A  
HETATM    5  C   UNL     1     -12.055  13.724  63.841  1.00  0.00    -0.376 A  
HETATM    6  C   UNL     1     -11.673  12.235  67.433  1.00  0.00    -0.405 C  
HETATM    7  C   UNL     1     -10.866  13.081  68.442  1.00  0.00    -0.258 C  
HETATM    8  C   UNL     1     -11.136  15.187  67.206  1.00  0.00    -0.332 C  
HETATM    9  C   UNL     1     -11.725  14.766  64.684  1.00  0.00    -0.426 A  
HETATM   10  C   UNL     1     -11.567  14.337  66.040  1.00  0.00    -0.362 A  
ENDBRANCH   1   2
BRANCH   1  11
HETATM   11  C   UNL     1     -11.775  15.650  70.711  1.00  0.00    -0.375 C  
HETATM   12  O   UNL     1     -11.556  16.295  71.729  1.00  0.00    -0.459 OA 
BRANCH  11  13
HETATM   13  O   UNL     1     -13.027  15.246  70.332  1.00  0.00    -0.348 OA 
HETATM   14  C   UNL     1     -14.018  15.429  71.346  1.00  0.00    -0.467 C  
ENDBRANCH  11  13
ENDBRANCH   1  11
BRANCH   1  15
HETATM   15  C   UNL     1      -9.879  16.464  69.137  1.00  0.00    -0.272 A  
HETATM   16  C   UNL     1      -9.736  18.792  68.352  1.00  0.00    -0.421 A  
HETATM   17  C   UNL     1      -7.749  17.446  68.427  1.00  0.00    -0.258 A  
HETATM   18  C   UNL     1      -8.372  18.660  68.146  1.00  0.00    -0.332 A  
HETATM   19  C   UNL     1     -10.475  17.709  68.835  1.00  0.00    -0.256 A  
HETATM   20  C   UNL     1      -8.491  16.358  68.918  1.00  0.00    -0.247 A  
HETATM   21 CL   UNL     1      -7.607  14.907  69.244  1.00  0.00    -0.168 Cl 
ENDBRANCH   1  15
TORSDOF 4
ENDMDL
MODEL       22
REMARK 921   NORMALIZED FREE ENERGY PREDICTED BY IDOCK:   -5.41 KCAL/MOL
REMARK 922        TOTAL FREE ENERGY PREDICTED BY IDOCK:   -7.20 KCAL/MOL
REMARK 923 INTER-LIGAND FREE ENERGY PREDICTED BY IDOCK:   -7.03 KCAL/MOL
REMARK 924 INTRA-LIGAND FREE ENERGY PREDICTED BY IDOCK:   -0.17 KCAL/MOL
REMARK 927      BINDING AFFINITY PREDICTED BY RF-SCORE:    0.00 PKD
ROOT
HETATM    1  C   UNL     1     -10.605  12.424  67.248  1.00  0.00    -0.223 C  
ENDROOT
BRANCH   1   2
HETATM    2  N   UNL     1     -11.108  12.641  68.647  1.00  0.00    -0.252 NA 
HETATM    3  S   UNL     1     -13.555  13.481  72.350  1.00  0.00    -0.583 SA 
HETATM    4  C   UNL     1     -12.708  13.052  70.944  1.00  0.00    -0.217 A  
HETATM    5  C   UNL     1     -13.666  15.111  71.839  1.00  0.00    -0.474 A  
HETATM    6  C   UNL     1     -12.254  11.663  70.659  1.00  0.00    -0.461 C  
HETATM    7  C   UNL     1     -11.945  11.529  69.152  1.00  0.00    -0.320 C  
HETATM    8  C   UNL     1     -11.804  13.950  68.758  1.00  0.00    -0.361 C  
HETATM    9  C   UNL     1     -13.048  15.315  70.622  1.00  0.00    -0.407 A  
HETATM   10  C   UNL     1     -12.481  14.112  70.093  1.00  0.00    -0.391 A  
ENDBRANCH   1   2
BRANCH   1  11
HETATM   11  C   UNL     1      -9.204  11.744  67.231  1.00  0.00    -0.173 C  
HETATM   12  O   UNL     1      -8.527  11.472  68.215  1.00  0.00    -0.146 OA 
BRANCH  11  13
HETATM   13  O   UNL     1      -8.851  11.394  65.955  1.00  0.00    -0.203 OA 
HETATM   14  C   UNL     1      -9.631  10.320  65.421  1.00  0.00    -0.251 C  
ENDBRANCH  11  13
ENDBRANCH   1  11
BRANCH   1  15
HETATM   15  C   UNL     1     -10.689  13.695  66.379  1.00  0.00    -0.281 A  
HETATM   16  C   UNL     1      -9.979  16.003  65.906  1.00  0.00    -0.380 A  
HETATM   17  C   UNL     1     -11.683  14.990  64.552  1.00  0.00    -0.372 A  
HETATM   18  C   UNL     1     -10.877  16.085  64.853  1.00  0.00    -0.391 A  
HETATM   19  C   UNL     1      -9.891  14.828  66.657  1.00  0.00    -0.270 A  
HETATM   20  C   UNL     1     -11.593  13.806  65.304  1.00  0.00    -0.321 A  
HETATM   21 CL   UNL     1     -12.634  12.509  64.827  1.00  0.00    -0.554 Cl 
ENDBRANCH   1  15
TORSDOF 4
ENDMDL
MODEL       23
REMARK 921   NORMALIZED FREE ENERGY PREDICTED BY IDOCK:   -5.38 KCAL/MOL
REMARK 922        TOTAL FREE ENERGY PREDICTED BY IDOCK:   -7.17 KCAL/MOL
REMARK 923 INTER-LIGAND FREE ENERGY PREDICTED BY IDOCK:   -7.04 KCAL/MOL
REMARK 924 INTRA-LIGAND FREE ENERGY PREDICTED BY IDOCK:   -0.13 KCAL/MOL
REMARK 927      BINDING AFFINITY PREDICTED BY RF-SCORE:    0.00 PKD
ROOT
HETATM    1  C   UNL     1      -9.159  15.641  67.991  1.00  0.00    -0.183 C  
ENDROOT
BRANCH   1   2
HETATM    2  N   UNL     1     -10.059  15.007  69.012  1.00  0.00    -0.234 NA 
HETATM    3  S   UNL     1     -13.404  13.938  71.855  1.00  0.00    -0.445 SA 
HETATM    4  C   UNL     1     -12.233  14.312  70.686  1.00  0.00    -0.357 A  
HETATM    5  C   UNL     1     -12.975  15.309  72.786  1.00  0.00    -0.438 A  
HETATM    6  C   UNL     1     -12.019  13.496  69.459  1.00  0.00    -0.390 C  
HETATM    7  C   UNL     1     -11.239  14.334  68.422  1.00  0.00    -0.269 C  
HETATM    8  C   UNL     1     -10.451  15.994  70.053  1.00  0.00    -0.258 C  
HETATM    9  C   UNL     1     -11.942  16.022  72.212  1.00  0.00    -0.633 A  
HETATM   10  C   UNL     1     -11.499  15.441  70.981  1.00  0.00    -0.407 A  
ENDBRANCH   1   2
BRANCH   1  11
HETATM   11  C   UNL     1      -7.654  15.462  68.348  1.00  0.00    -0.116 C  
HETATM   12  O   UNL     1      -7.204  15.236  69.465  1.00  0.00    -0.180 OA 
BRANCH  11  13
HETATM   13  O   UNL     1      -6.881  15.494  67.219  1.00  0.00    -0.188 OA 
HETATM   14  C   UNL     1      -5.836  16.469  67.269  1.00  0.00    -0.157 C  
ENDBRANCH  11  13
ENDBRANCH   1  11
BRANCH   1  15
HETATM   15  C   UNL     1      -9.551  17.098  67.670  1.00  0.00    -0.254 A  
HETATM   16  C   UNL     1      -9.628  19.473  68.309  1.00  0.00    -0.464 A  
HETATM   17  C   UNL     1     -10.655  18.767  66.257  1.00  0.00    -0.429 A  
HETATM   18  C   UNL     1     -10.333  19.781  67.156  1.00  0.00    -0.589 A  
HETATM   19  C   UNL     1      -9.248  18.152  68.561  1.00  0.00    -0.326 A  
HETATM   20  C   UNL     1     -10.270  17.439  66.507  1.00  0.00    -0.329 A  
HETATM   21 CL   UNL     1     -10.713  16.269  65.311  1.00  0.00    -0.394 Cl 
ENDBRANCH   1  15
TORSDOF 4
ENDMDL
MODEL       24
REMARK 921   NORMALIZED FREE ENERGY PREDICTED BY IDOCK:   -5.38 KCAL/MOL
REMARK 922        TOTAL FREE ENERGY PREDICTED BY IDOCK:   -7.16 KCAL/MOL
REMARK 923 INTER-LIGAND FREE ENERGY PREDICTED BY IDOCK:   -6.87 KCAL/MOL
REMARK 924 INTRA-LIGAND FREE ENERGY PREDICTED BY IDOCK:   -0.29 KCAL/MOL
REMARK 927      BINDING AFFINITY PREDICTED BY RF-SCORE:    0.00 PKD
ROOT
HETATM    1  C   UNL     1     -11.114  13.685  66.571  1.00  0.00    -0.305 C  
ENDROOT
BRANCH   1   2
HETATM    2  N   UNL     1     -11.868  13.450  67.849  1.00  0.00    -0.357 NA 
HETATM    3  S   UNL     1     -13.178  12.398  72.043  1.00  0.00    -0.277 SA 
HETATM    4  C   UNL     1     -12.613  12.894  70.522  1.00  0.00    -0.129 A  
HETATM    5  C   UNL     1     -12.930  10.751  71.646  1.00  0.00    -0.476 A  
HETATM    6  C   UNL     1     -12.515  14.323  70.116  1.00  0.00    -0.393 C  
HETATM    7  C   UNL     1     -11.564  14.442  68.905  1.00  0.00    -0.306 C  
HETATM    8  C   UNL     1     -11.669  12.057  68.328  1.00  0.00    -0.334 C  
HETATM    9  C   UNL     1     -12.441  10.595  70.366  1.00  0.00    -0.421 A  
HETATM   10  C   UNL     1     -12.256  11.847  69.698  1.00  0.00    -0.216 A  
ENDBRANCH   1   2
BRANCH   1  11
HETATM   11  C   UNL     1     -12.028  14.268  65.454  1.00  0.00    -0.383 C  
HETATM   12  O   UNL     1     -13.221  14.030  65.306  1.00  0.00    -0.782 OA 
BRANCH  11  13
HETATM   13  O   UNL     1     -11.342  15.174  64.690  1.00  0.00    -0.390 OA 
HETATM   14  C   UNL     1     -10.551  16.085  65.458  1.00  0.00    -0.398 C  
ENDBRANCH  11  13
ENDBRANCH   1  11
BRANCH   1  15
HETATM   15  C   UNL     1     -10.294  12.458  66.127  1.00  0.00    -0.271 A  
HETATM   16  C   UNL     1     -10.085  10.412  64.775  1.00  0.00    -0.387 A  
HETATM   17  C   UNL     1      -8.329  11.005  66.301  1.00  0.00    -0.166 A  
HETATM   18  C   UNL     1      -8.852  10.137  65.344  1.00  0.00    -0.196 A  
HETATM   19  C   UNL     1     -10.794  11.551  65.164  1.00  0.00    -0.326 A  
HETATM   20  C   UNL     1      -9.039  12.154  66.689  1.00  0.00    -0.206 A  
HETATM   21 CL   UNL     1      -8.283  13.163  67.874  1.00  0.00    -0.149 Cl 
ENDBRANCH   1  15
TORSDOF 4
ENDMDL
MODEL       25
REMARK 921   NORMALIZED FREE ENERGY PREDICTED BY IDOCK:   -5.36 KCAL/MOL
REMARK 922        TOTAL FREE ENERGY PREDICTED BY IDOCK:   -7.14 KCAL/MOL
REMARK 923 INTER-LIGAND FREE ENERGY PREDICTED BY IDOCK:   -6.97 KCAL/MOL
REMARK 924 INTRA-LIGAND FREE ENERGY PREDICTED BY IDOCK:   -0.17 KCAL/MOL
REMARK 927      BINDING AFFINITY PREDICTED BY RF-SCORE:    0.00 PKD
ROOT
HETATM    1  C   UNL     1     -10.034  14.037  67.204  1.00  0.00    -0.252 C  
ENDROOT
BRANCH   1   2
HETATM    2  N   UNL     1     -11.079  14.106  68.281  1.00  0.00    -0.245 NA 
HETATM    3  S   UNL     1     -13.420  13.950  72.141  1.00  0.00    -0.532 SA 
HETATM    4  C   UNL     1     -12.470  14.110  70.745  1.00  0.00    -0.366 A  
HETATM    5  C   UNL     1     -13.313  12.243  72.071  1.00  0.00    -0.386 A  
HETATM    6  C   UNL     1     -12.093  15.427  70.164  1.00  0.00    -0.400 C  
HETATM    7  C   UNL     1     -10.888  15.238  69.216  1.00  0.00    -0.257 C  
HETATM    8  C   UNL     1     -11.180  12.808  68.999  1.00  0.00    -0.264 C  
HETATM    9  C   UNL     1     -12.576  11.814  70.987  1.00  0.00    -0.409 A  
HETATM   10  C   UNL     1     -12.080  12.904  70.202  1.00  0.00    -0.373 A  
ENDBRANCH   1   2
BRANCH   1  11
HETATM   11  C   UNL     1      -9.643  15.449  66.679  1.00  0.00    -0.256 C  
HETATM   12  O   UNL     1     -10.355  16.189  66.012  1.00  0.00    -0.324 OA 
BRANCH  11  13
HETATM   13  O   UNL     1      -8.408  15.814  67.145  1.00  0.00    -0.169 OA 
HETATM   14  C   UNL     1      -7.842  16.929  66.451  1.00  0.00    -0.313 C  
ENDBRANCH  11  13
ENDBRANCH   1  11
BRANCH   1  15
HETATM   15  C   UNL     1     -10.393  13.037  66.086  1.00  0.00    -0.285 A  
HETATM   16  C   UNL     1      -9.794  11.109  64.679  1.00  0.00    -0.330 A  
HETATM   17  C   UNL     1     -11.879  12.239  64.309  1.00  0.00    -0.482 A  
HETATM   18  C   UNL     1     -10.981  11.228  63.974  1.00  0.00    -0.377 A  
HETATM   19  C   UNL     1      -9.505  12.002  65.714  1.00  0.00    -0.186 A  
HETATM   20  C   UNL     1     -11.592  13.135  65.353  1.00  0.00    -0.333 A  
HETATM   21 CL   UNL     1     -12.790  14.339  65.686  1.00  0.00    -0.434 Cl 
ENDBRANCH   1  15
TORSDOF 4
ENDMDL
MODEL       26
REMARK 921   NORMALIZED FREE ENERGY PREDICTED BY IDOCK:   -5.32 KCAL/MOL
REMARK 922        TOTAL FREE ENERGY PREDICTED BY IDOCK:   -7.09 KCAL/MOL
REMARK 923 INTER-LIGAND FREE ENERGY PREDICTED BY IDOCK:   -6.92 KCAL/MOL
REMARK 924 INTRA-LIGAND FREE ENERGY PREDICTED BY IDOCK:   -0.17 KCAL/MOL
REMARK 927      BINDING AFFINITY PREDICTED BY RF-SCORE:    0.00 PKD
ROOT
HETATM    1  C   UNL     1     -11.661  15.080  68.352  1.00  0.00    -0.331 C  
ENDROOT
BRANCH   1   2
HETATM    2  N   UNL     1     -10.809  16.073  67.615  1.00  0.00    -0.323 NA 
HETATM    3  S   UNL     1      -7.899  19.304  66.387  1.00  0.00    -0.301 SA 
HETATM    4  C   UNL     1      -8.885  18.016  66.884  1.00  0.00    -0.258 A  
HETATM    5  C   UNL     1      -8.931  20.442  67.143  1.00  0.00    -0.336 A  
HETATM    6  C   UNL     1      -8.577  16.591  66.579  1.00  0.00    -0.321 C  
HETATM    7  C   UNL     1      -9.383  15.682  67.534  1.00  0.00    -0.206 C  
HETATM    8  C   UNL     1     -10.976  17.435  68.187  1.00  0.00    -0.160 C  
HETATM    9  C   UNL     1     -10.015  19.837  67.746  1.00  0.00    -0.535 A  
HETATM   10  C   UNL     1      -9.997  18.414  67.595  1.00  0.00    -0.355 A  
ENDBRANCH   1   2
BRANCH   1  11
HETATM   11  C   UNL     1     -11.573  15.268  69.895  1.00  0.00    -0.311 C  
HETATM   12  O   UNL     1     -10.540  15.348  70.550  1.00  0.00    -0.304 OA 
BRANCH  11  13
HETATM   13  O   UNL     1     -12.820  15.430  70.435  1.00  0.00    -0.390 OA 
HETATM   14  C   UNL     1     -12.801  15.812  71.813  1.00  0.00    -0.450 C  
ENDBRANCH  11  13
ENDBRANCH   1  11
BRANCH   1  15
HETATM   15  C   UNL     1     -11.423  13.628  67.889  1.00  0.00    -0.348 A  
HETATM   16  C   UNL     1     -10.607  11.353  68.348  1.00  0.00    -0.230 A  
HETATM   17  C   UNL     1     -11.432  11.893  66.160  1.00  0.00    -0.352 A  
HETATM   18  C   UNL     1     -10.889  10.967  67.047  1.00  0.00    -0.334 A  
HETATM   19  C   UNL     1     -10.867  12.662  68.759  1.00  0.00    -0.267 A  
HETATM   20  C   UNL     1     -11.698  13.209  66.572  1.00  0.00    -0.382 A  
HETATM   21 CL   UNL     1     -12.387  14.265  65.386  1.00  0.00    -0.426 Cl 
ENDBRANCH   1  15
TORSDOF 4
ENDMDL
MODEL       27
REMARK 921   NORMALIZED FREE ENERGY PREDICTED BY IDOCK:   -5.31 KCAL/MOL
REMARK 922        TOTAL FREE ENERGY PREDICTED BY IDOCK:   -7.08 KCAL/MOL
REMARK 923 INTER-LIGAND FREE ENERGY PREDICTED BY IDOCK:   -6.64 KCAL/MOL
REMARK 924 INTRA-LIGAND FREE ENERGY PREDICTED BY IDOCK:   -0.44 KCAL/MOL
REMARK 927      BINDING AFFINITY PREDICTED BY RF-SCORE:    0.00 PKD
ROOT
HETATM    1  C   UNL     1     -10.410  11.067  65.475  1.00  0.00    -0.260 C  
ENDROOT
BRANCH   1   2
HETATM    2  N   UNL     1     -10.380  10.711  66.934  1.00  0.00    -0.227 NA 
HETATM    3  S   UNL     1     -11.310   9.357  71.142  1.00  0.00    -0.382 SA 
HETATM    4  C   UNL     1     -10.971   9.736  69.524  1.00  0.00    -0.227 A  
HETATM    5  C   UNL     1     -12.358  10.703  71.283  1.00  0.00    -0.383 A  
HETATM    6  C   UNL     1     -10.066   8.919  68.669  1.00  0.00    -0.206 C  
HETATM    7  C   UNL     1     -10.332   9.253  67.185  1.00  0.00    -0.260 C  
HETATM    8  C   UNL     1     -11.506  11.359  67.657  1.00  0.00    -0.273 C  
HETATM    9  C   UNL     1     -12.426  11.431  70.113  1.00  0.00    -0.271 A  
HETATM   10  C   UNL     1     -11.612  10.872  69.078  1.00  0.00    -0.387 A  
ENDBRANCH   1   2
BRANCH   1  11
HETATM   11  C   UNL     1      -9.161  10.530  64.717  1.00  0.00    -0.227 C  
HETATM   12  O   UNL     1      -8.014  10.515  65.146  1.00  0.00    -0.149 OA 
BRANCH  11  13
HETATM   13  O   UNL     1      -9.523   9.976  63.518  1.00  0.00    -0.285 OA 
HETATM   14  C   UNL     1      -9.091  10.734  62.385  1.00  0.00    -0.292 C  
ENDBRANCH  11  13
ENDBRANCH   1  11
BRANCH   1  15
HETATM   15  C   UNL     1     -10.689  12.564  65.231  1.00  0.00    -0.318 A  
HETATM   16  C   UNL     1     -10.236  14.927  65.746  1.00  0.00    -0.358 A  
HETATM   17  C   UNL     1     -11.963  14.371  64.175  1.00  0.00    -0.373 A  
HETATM   18  C   UNL     1     -11.232  15.330  64.872  1.00  0.00    -0.422 A  
HETATM   19  C   UNL     1      -9.973  13.566  65.924  1.00  0.00    -0.295 A  
HETATM   20  C   UNL     1     -11.697  13.002  64.349  1.00  0.00    -0.373 A  
HETATM   21 CL   UNL     1     -12.659  11.905  63.418  1.00  0.00    -0.674 Cl 
ENDBRANCH   1  15
TORSDOF 4
ENDMDL
MODEL       28
REMARK 921   NORMALIZED FREE ENERGY PREDICTED BY IDOCK:   -5.30 KCAL/MOL
REMARK 922        TOTAL FREE ENERGY PREDICTED BY IDOCK:   -7.07 KCAL/MOL
REMARK 923 INTER-LIGAND FREE ENERGY PREDICTED BY IDOCK:   -7.10 KCAL/MOL
REMARK 924 INTRA-LIGAND FREE ENERGY PREDICTED BY IDOCK:    0.03 KCAL/MOL
REMARK 927      BINDING AFFINITY PREDICTED BY RF-SCORE:    0.00 PKD
ROOT
HETATM    1  C   UNL     1      -9.920  13.386  67.620  1.00  0.00    -0.229 C  
ENDROOT
BRANCH   1   2
HETATM    2  N   UNL     1     -10.663  13.265  68.920  1.00  0.00    -0.222 NA 
HETATM    3  S   UNL     1     -13.746  13.166  72.221  1.00  0.00    -0.455 SA 
HETATM    4  C   UNL     1     -12.648  13.094  70.930  1.00  0.00    -0.295 A  
HETATM    5  C   UNL     1     -13.887  14.864  72.063  1.00  0.00    -0.460 A  
HETATM    6  C   UNL     1     -12.054  11.821  70.437  1.00  0.00    -0.440 C  
HETATM    7  C   UNL     1     -11.490  12.041  69.016  1.00  0.00    -0.300 C  
HETATM    8  C   UNL     1     -11.460  14.492  69.186  1.00  0.00    -0.294 C  
HETATM    9  C   UNL     1     -13.092  15.358  71.049  1.00  0.00    -0.565 A  
HETATM   10  C   UNL     1     -12.360  14.325  70.382  1.00  0.00    -0.419 A  
ENDBRANCH   1   2
BRANCH   1  11
HETATM   11  C   UNL     1      -9.187  14.753  67.493  1.00  0.00    -0.198 C  
HETATM   12  O   UNL     1      -8.401  15.224  68.306  1.00  0.00    -0.142 OA 
BRANCH  11  13
HETATM   13  O   UNL     1      -9.462  15.339  66.286  1.00  0.00    -0.265 OA 
HETATM   14  C   UNL     1      -9.934  16.685  66.399  1.00  0.00    -0.302 C  
ENDBRANCH  11  13
ENDBRANCH   1  11
BRANCH   1  15
HETATM   15  C   UNL     1     -10.792  13.032  66.399  1.00  0.00    -0.294 A  
HETATM   16  C   UNL     1     -12.864  13.324  65.105  1.00  0.00    -0.376 A  
HETATM   17  C   UNL     1     -11.243  11.704  64.390  1.00  0.00    -0.360 A  
HETATM   18  C   UNL     1     -12.466  12.346  64.207  1.00  0.00    -0.529 A  
HETATM   19  C   UNL     1     -12.041  13.657  66.183  1.00  0.00    -0.477 A  
HETATM   20  C   UNL     1     -10.412  12.041  65.471  1.00  0.00    -0.269 A  
HETATM   21 CL   UNL     1      -8.912  11.187  65.587  1.00  0.00    -0.208 Cl 
ENDBRANCH   1  15
TORSDOF 4
ENDMDL
MODEL       29
REMARK 921   NORMALIZED FREE ENERGY PREDICTED BY IDOCK:   -5.27 KCAL/MOL
REMARK 922        TOTAL FREE ENERGY PREDICTED BY IDOCK:   -7.03 KCAL/MOL
REMARK 923 INTER-LIGAND FREE ENERGY PREDICTED BY IDOCK:   -6.98 KCAL/MOL
REMARK 924 INTRA-LIGAND FREE ENERGY PREDICTED BY IDOCK:   -0.05 KCAL/MOL
REMARK 927      BINDING AFFINITY PREDICTED BY RF-SCORE:    0.00 PKD
ROOT
HETATM    1  C   UNL     1     -12.012  13.829  66.615  1.00  0.00    -0.431 C  
ENDROOT
BRANCH   1   2
HETATM    2  N   UNL     1     -11.599  12.475  67.119  1.00  0.00    -0.350 NA 
HETATM    3  S   UNL     1      -9.551   8.959  69.082  1.00  0.00    -0.164 SA 
HETATM    4  C   UNL     1     -10.352  10.323  68.469  1.00  0.00    -0.178 A  
HETATM    5  C   UNL     1      -8.259   9.169  67.979  1.00  0.00    -0.112 A  
HETATM    6  C   UNL     1     -11.654  10.811  69.003  1.00  0.00    -0.370 C  
HETATM    7  C   UNL     1     -11.866  12.276  68.562  1.00  0.00    -0.307 C  
HETATM    8  C   UNL     1     -10.179  12.198  66.777  1.00  0.00    -0.203 C  
HETATM    9  C   UNL     1      -8.456  10.254  67.150  1.00  0.00    -0.125 A  
HETATM   10  C   UNL     1      -9.684  10.935  67.430  1.00  0.00    -0.190 A  
ENDBRANCH   1   2
BRANCH   1  11
HETATM   11  C   UNL     1     -12.588  13.763  65.171  1.00  0.00    -0.433 C  
HETATM   12  O   UNL     1     -12.608  14.684  64.363  1.00  0.00    -0.662 OA 
BRANCH  11  13
HETATM   13  O   UNL     1     -12.997  12.491  64.870  1.00  0.00    -0.821 OA 
HETATM   14  C   UNL     1     -12.521  12.021  63.606  1.00  0.00    -0.525 C  
ENDBRANCH  11  13
ENDBRANCH   1  11
BRANCH   1  15
HETATM   15  C   UNL     1     -10.913  14.895  66.797  1.00  0.00    -0.326 A  
HETATM   16  C   UNL     1      -8.846  15.978  66.017  1.00  0.00    -0.314 A  
HETATM   17  C   UNL     1      -9.827  16.666  68.096  1.00  0.00    -0.250 A  
HETATM   18  C   UNL     1      -8.821  16.788  67.140  1.00  0.00    -0.217 A  
HETATM   19  C   UNL     1      -9.873  15.045  65.852  1.00  0.00    -0.369 A  
HETATM   20  C   UNL     1     -10.863  15.732  67.930  1.00  0.00    -0.314 A  
HETATM   21 CL   UNL     1     -12.063  15.681  69.176  1.00  0.00    -0.322 Cl 
ENDBRANCH   1  15
TORSDOF 4
ENDMDL
MODEL       30
REMARK 921   NORMALIZED FREE ENERGY PREDICTED BY IDOCK:   -5.27 KCAL/MOL
REMARK 922        TOTAL FREE ENERGY PREDICTED BY IDOCK:   -7.03 KCAL/MOL
REMARK 923 INTER-LIGAND FREE ENERGY PREDICTED BY IDOCK:   -6.96 KCAL/MOL
REMARK 924 INTRA-LIGAND FREE ENERGY PREDICTED BY IDOCK:   -0.07 KCAL/MOL
REMARK 927      BINDING AFFINITY PREDICTED BY RF-SCORE:    0.00 PKD
ROOT
HETATM    1  C   UNL     1     -10.937  15.566  67.533  1.00  0.00    -0.316 C  
ENDROOT
BRANCH   1   2
HETATM    2  N   UNL     1     -11.826  15.049  68.628  1.00  0.00    -0.320 NA 
HETATM    3  S   UNL     1     -13.564  13.240  72.385  1.00  0.00    -0.512 SA 
HETATM    4  C   UNL     1     -12.864  14.020  71.051  1.00  0.00    -0.340 A  
HETATM    5  C   UNL     1     -13.003  11.716  71.843  1.00  0.00    -0.337 A  
HETATM    6  C   UNL     1     -12.933  15.493  70.841  1.00  0.00    -0.526 C  
HETATM    7  C   UNL     1     -11.843  15.913  69.831  1.00  0.00    -0.300 C  
HETATM    8  C   UNL     1     -11.483  13.642  68.964  1.00  0.00    -0.301 C  
HETATM    9  C   UNL     1     -12.310  11.813  70.654  1.00  0.00    -0.421 A  
HETATM   10  C   UNL     1     -12.227  13.161  70.181  1.00  0.00    -0.360 A  
ENDBRANCH   1   2
BRANCH   1  11
HETATM   11  C   UNL     1     -10.813  14.554  66.356  1.00  0.00    -0.318 C  
HETATM   12  O   UNL     1      -9.799  13.946  66.037  1.00  0.00    -0.299 OA 
BRANCH  11  13
HETATM   13  O   UNL     1     -12.031  14.349  65.764  1.00  0.00    -0.372 OA 
HETATM   14  C   UNL     1     -12.314  12.972  65.502  1.00  0.00    -0.472 C  
ENDBRANCH  11  13
ENDBRANCH   1  11
BRANCH   1  15
HETATM   15  C   UNL     1      -9.580  16.078  68.057  1.00  0.00    -0.215 A  
HETATM   16  C   UNL     1      -7.475  15.677  69.267  1.00  0.00    -0.216 A  
HETATM   17  C   UNL     1      -7.962  17.877  68.439  1.00  0.00    -0.300 A  
HETATM   18  C   UNL     1      -7.110  17.005  69.113  1.00  0.00    -0.221 A  
HETATM   19  C   UNL     1      -8.692  15.225  68.750  1.00  0.00    -0.195 A  
HETATM   20  C   UNL     1      -9.184  17.423  67.915  1.00  0.00    -0.256 A  
HETATM   21 CL   UNL     1     -10.151  18.594  67.087  1.00  0.00    -0.365 Cl 
ENDBRANCH   1  15
TORSDOF 4
ENDMDL
MODEL       31
REMARK 921   NORMALIZED FREE ENERGY PREDICTED BY IDOCK:   -5.26 KCAL/MOL
REMARK 922        TOTAL FREE ENERGY PREDICTED BY IDOCK:   -7.02 KCAL/MOL
REMARK 923 INTER-LIGAND FREE ENERGY PREDICTED BY IDOCK:   -6.87 KCAL/MOL
REMARK 924 INTRA-LIGAND FREE ENERGY PREDICTED BY IDOCK:   -0.15 KCAL/MOL
REMARK 927      BINDING AFFINITY PREDICTED BY RF-SCORE:    0.00 PKD
ROOT
HETATM    1  C   UNL     1     -11.382  14.417  67.051  1.00  0.00    -0.346 C  
ENDROOT
BRANCH   1   2
HETATM    2  N   UNL     1     -10.683  15.690  66.665  1.00  0.00    -0.308 NA 
HETATM    3  S   UNL     1      -8.334  19.546  66.555  1.00  0.00    -0.345 SA 
HETATM    4  C   UNL     1      -9.100  18.034  66.622  1.00  0.00    -0.280 A  
HETATM    5  C   UNL     1      -9.588  20.271  67.467  1.00  0.00    -0.425 A  
HETATM    6  C   UNL     1      -8.529  16.805  66.005  1.00  0.00    -0.201 C  
HETATM    7  C   UNL     1      -9.209  15.564  66.625  1.00  0.00    -0.271 C  
HETATM    8  C   UNL     1     -11.118  16.812  67.538  1.00  0.00    -0.035 C  
HETATM    9  C   UNL     1     -10.577  19.367  67.796  1.00  0.00    -0.538 A  
HETATM   10  C   UNL     1     -10.299  18.054  67.301  1.00  0.00    -0.387 A  
ENDBRANCH   1   2
BRANCH   1  11
HETATM   11  C   UNL     1     -11.038  13.980  68.505  1.00  0.00    -0.257 C  
HETATM   12  O   UNL     1      -9.923  13.994  69.013  1.00  0.00    -0.151 OA 
BRANCH  11  13
HETATM   13  O   UNL     1     -12.176  13.658  69.196  1.00  0.00    -0.326 OA 
HETATM   14  C   UNL     1     -12.146  14.064  70.567  1.00  0.00    -0.353 C  
ENDBRANCH  11  13
ENDBRANCH   1  11
BRANCH   1  15
HETATM   15  C   UNL     1     -11.202  13.297  66.007  1.00  0.00    -0.316 A  
HETATM   16  C   UNL     1     -10.373  11.060  65.404  1.00  0.00    -0.330 A  
HETATM   17  C   UNL     1     -11.385  12.438  63.720  1.00  0.00    -0.536 A  
HETATM   18  C   UNL     1     -10.774  11.242  64.090  1.00  0.00    -0.436 A  
HETATM   19  C   UNL     1     -10.581  12.072  66.343  1.00  0.00    -0.278 A  
HETATM   20  C   UNL     1     -11.599  13.456  64.664  1.00  0.00    -0.355 A  
HETATM   21 CL   UNL     1     -12.380  14.889  64.090  1.00  0.00    -0.393 Cl 
ENDBRANCH   1  15
TORSDOF 4
ENDMDL
MODEL       32
REMARK 921   NORMALIZED FREE ENERGY PREDICTED BY IDOCK:   -5.25 KCAL/MOL
REMARK 922        TOTAL FREE ENERGY PREDICTED BY IDOCK:   -7.01 KCAL/MOL
REMARK 923 INTER-LIGAND FREE ENERGY PREDICTED BY IDOCK:   -6.72 KCAL/MOL
REMARK 924 INTRA-LIGAND FREE ENERGY PREDICTED BY IDOCK:   -0.28 KCAL/MOL
REMARK 927      BINDING AFFINITY PREDICTED BY RF-SCORE:    0.00 PKD
ROOT
HETATM    1  C   UNL     1     -10.987  13.540  68.669  1.00  0.00    -0.263 C  
ENDROOT
BRANCH   1   2
HETATM    2  N   UNL     1     -11.795  12.530  69.433  1.00  0.00    -0.316 NA 
HETATM    3  S   UNL     1     -13.328   9.412  72.320  1.00  0.00    -0.431 SA 
HETATM    4  C   UNL     1     -12.752  10.671  71.339  1.00  0.00    -0.440 A  
HETATM    5  C   UNL     1     -12.224   8.305  71.623  1.00  0.00    -0.313 A  
HETATM    6  C   UNL     1     -13.277  12.062  71.408  1.00  0.00    -0.170 C  
HETATM    7  C   UNL     1     -12.262  13.021  70.749  1.00  0.00    -0.272 C  
HETATM    8  C   UNL     1     -11.053  11.247  69.554  1.00  0.00    -0.238 C  
HETATM    9  C   UNL     1     -11.447   8.894  70.647  1.00  0.00    -0.280 A  
HETATM   10  C   UNL     1     -11.753  10.281  70.472  1.00  0.00    -0.418 A  
ENDBRANCH   1   2
BRANCH   1  11
HETATM   11  C   UNL     1     -11.190  14.983  69.217  1.00  0.00    -0.286 C  
HETATM   12  O   UNL     1     -12.201  15.663  69.090  1.00  0.00    -0.298 OA 
BRANCH  11  13
HETATM   13  O   UNL     1     -10.107  15.377  69.957  1.00  0.00    -0.287 OA 
HETATM   14  C   UNL     1      -8.937  15.622  69.173  1.00  0.00    -0.257 C  
ENDBRANCH  11  13
ENDBRANCH   1  11
BRANCH   1  15
HETATM   15  C   UNL     1     -11.172  13.423  67.143  1.00  0.00    -0.325 A  
HETATM   16  C   UNL     1     -12.584  13.674  65.143  1.00  0.00    -0.474 A  
HETATM   17  C   UNL     1     -10.379  12.749  64.925  1.00  0.00    -0.330 A  
HETATM   18  C   UNL     1     -11.583  13.143  64.345  1.00  0.00    -0.422 A  
HETATM   19  C   UNL     1     -12.381  13.807  66.519  1.00  0.00    -0.432 A  
HETATM   20  C   UNL     1     -10.172  12.886  66.307  1.00  0.00    -0.278 A  
HETATM   21 CL   UNL     1      -8.632  12.376  66.911  1.00  0.00    -0.192 Cl 
ENDBRANCH   1  15
TORSDOF 4
ENDMDL
MODEL       33
REMARK 921   NORMALIZED FREE ENERGY PREDICTED BY IDOCK:   -5.24 KCAL/MOL
REMARK 922        TOTAL FREE ENERGY PREDICTED BY IDOCK:   -7.00 KCAL/MOL
REMARK 923 INTER-LIGAND FREE ENERGY PREDICTED BY IDOCK:   -6.56 KCAL/MOL
REMARK 924 INTRA-LIGAND FREE ENERGY PREDICTED BY IDOCK:   -0.44 KCAL/MOL
REMARK 927      BINDING AFFINITY PREDICTED BY RF-SCORE:    0.00 PKD
ROOT
HETATM    1  C   UNL     1     -11.493  14.167  69.281  1.00  0.00    -0.292 C  
ENDROOT
BRANCH   1   2
HETATM    2  N   UNL     1     -11.879  12.760  69.639  1.00  0.00    -0.325 NA 
HETATM    3  S   UNL     1     -12.095   8.537  71.227  1.00  0.00    -0.265 SA 
HETATM    4  C   UNL     1     -12.026  10.166  70.758  1.00  0.00    -0.348 A  
HETATM    5  C   UNL     1     -10.816   8.132  70.164  1.00  0.00    -0.241 A  
HETATM    6  C   UNL     1     -12.914  11.215  71.331  1.00  0.00    -0.506 C  
HETATM    7  C   UNL     1     -12.302  12.605  71.049  1.00  0.00    -0.211 C  
HETATM    8  C   UNL     1     -10.794  11.810  69.281  1.00  0.00    -0.133 C  
HETATM    9  C   UNL     1     -10.364   9.227  69.456  1.00  0.00    -0.223 A  
HETATM   10  C   UNL     1     -11.072  10.423  69.797  1.00  0.00    -0.352 A  
ENDBRANCH   1   2
BRANCH   1  11
HETATM   11  C   UNL     1     -12.284  15.219  70.112  1.00  0.00    -0.364 C  
HETATM   12  O   UNL     1     -13.469  15.500  69.972  1.00  0.00     0.093 OA 
BRANCH  11  13
HETATM   13  O   UNL     1     -11.501  15.739  71.107  1.00  0.00    -0.350 OA 
HETATM   14  C   UNL     1     -12.232  16.090  72.286  1.00  0.00    -0.519 C  
ENDBRANCH  11  13
ENDBRANCH   1  11
BRANCH   1  15
HETATM   15  C   UNL     1     -11.522  14.427  67.761  1.00  0.00    -0.360 A  
HETATM   16  C   UNL     1     -12.420  13.912  65.529  1.00  0.00    -0.541 A  
HETATM   17  C   UNL     1     -10.658  15.527  65.750  1.00  0.00    -0.370 A  
HETATM   18  C   UNL     1     -11.546  14.815  64.946  1.00  0.00    -0.401 A  
HETATM   19  C   UNL     1     -12.404  13.720  66.913  1.00  0.00    -0.328 A  
HETATM   20  C   UNL     1     -10.644  15.338  67.142  1.00  0.00    -0.302 A  
HETATM   21 CL   UNL     1      -9.508  16.289  68.037  1.00  0.00    -0.221 Cl 
ENDBRANCH   1  15
TORSDOF 4
ENDMDL
MODEL       34
REMARK 921   NORMALIZED FREE ENERGY PREDICTED BY IDOCK:   -5.17 KCAL/MOL
REMARK 922        TOTAL FREE ENERGY PREDICTED BY IDOCK:   -6.91 KCAL/MOL
REMARK 923 INTER-LIGAND FREE ENERGY PREDICTED BY IDOCK:   -7.17 KCAL/MOL
REMARK 924 INTRA-LIGAND FREE ENERGY PREDICTED BY IDOCK:    0.26 KCAL/MOL
REMARK 927      BINDING AFFINITY PREDICTED BY RF-SCORE:    0.00 PKD
ROOT
HETATM    1  C   UNL     1      -9.758  15.175  67.940  1.00  0.00    -0.208 C  
ENDROOT
BRANCH   1   2
HETATM    2  N   UNL     1     -10.513  14.688  69.145  1.00  0.00    -0.243 NA 
HETATM    3  S   UNL     1     -13.444  14.037  72.519  1.00  0.00    -0.567 SA 
HETATM    4  C   UNL     1     -12.441  14.243  71.167  1.00  0.00    -0.362 A  
HETATM    5  C   UNL     1     -12.897  15.508  73.203  1.00  0.00    -0.497 A  
HETATM    6  C   UNL     1     -12.392  13.276  70.036  1.00  0.00    -0.269 C  
HETATM    7  C   UNL     1     -11.760  13.965  68.807  1.00  0.00    -0.357 C  
HETATM    8  C   UNL     1     -10.762  15.804  70.095  1.00  0.00    -0.344 C  
HETATM    9  C   UNL     1     -11.952  16.127  72.411  1.00  0.00    -0.649 A  
HETATM   10  C   UNL     1     -11.677  15.389  71.217  1.00  0.00    -0.433 A  
ENDBRANCH   1   2
BRANCH   1  11
HETATM   11  C   UNL     1      -9.832  16.723  67.792  1.00  0.00    -0.257 C  
HETATM   12  O   UNL     1     -10.857  17.394  67.787  1.00  0.00    -0.361 OA 
BRANCH  11  13
HETATM   13  O   UNL     1      -8.577  17.268  67.761  1.00  0.00    -0.218 OA 
HETATM   14  C   UNL     1      -8.126  17.590  66.442  1.00  0.00    -0.274 C  
ENDBRANCH  11  13
ENDBRANCH   1  11
BRANCH   1  15
HETATM   15  C   UNL     1     -10.127  14.409  66.654  1.00  0.00    -0.276 A  
HETATM   16  C   UNL     1     -11.326  14.303  64.508  1.00  0.00    -0.341 A  
HETATM   17  C   UNL     1     -10.093  12.389  65.268  1.00  0.00    -0.285 A  
HETATM   18  C   UNL     1     -10.900  12.999  64.311  1.00  0.00    -0.430 A  
HETATM   19  C   UNL     1     -10.948  14.992  65.663  1.00  0.00    -0.357 A  
HETATM   20  C   UNL     1      -9.708  13.082  66.428  1.00  0.00    -0.268 A  
HETATM   21 CL   UNL     1      -8.694  12.226  67.538  1.00  0.00    -0.167 Cl 
ENDBRANCH   1  15
TORSDOF 4
ENDMDL
MODEL       35
REMARK 921   NORMALIZED FREE ENERGY PREDICTED BY IDOCK:   -5.14 KCAL/MOL
REMARK 922        TOTAL FREE ENERGY PREDICTED BY IDOCK:   -6.86 KCAL/MOL
REMARK 923 INTER-LIGAND FREE ENERGY PREDICTED BY IDOCK:   -6.74 KCAL/MOL
REMARK 924 INTRA-LIGAND FREE ENERGY PREDICTED BY IDOCK:   -0.12 KCAL/MOL
REMARK 927      BINDING AFFINITY PREDICTED BY RF-SCORE:    0.00 PKD
ROOT
HETATM    1  C   UNL     1     -11.594  12.830  67.507  1.00  0.00    -0.356 C  
ENDROOT
BRANCH   1   2
HETATM    2  N   UNL     1     -10.774  14.030  67.889  1.00  0.00    -0.238 NA 
HETATM    3  S   UNL     1      -8.735  18.053  68.137  1.00  0.00    -0.278 SA 
HETATM    4  C   UNL     1      -9.617  16.606  68.068  1.00  0.00    -0.225 A  
HETATM    5  C   UNL     1      -7.818  17.610  66.761  1.00  0.00    -0.234 A  
HETATM    6  C   UNL     1     -10.705  16.271  69.027  1.00  0.00    -0.300 C  
HETATM    7  C   UNL     1     -11.581  15.148  68.428  1.00  0.00    -0.337 C  
HETATM    8  C   UNL     1      -9.919  14.465  66.753  1.00  0.00    -0.263 C  
HETATM    9  C   UNL     1      -8.177  16.369  66.277  1.00  0.00    -0.343 A  
HETATM   10  C   UNL     1      -9.230  15.773  67.041  1.00  0.00    -0.233 A  
ENDBRANCH   1   2
BRANCH   1  11
HETATM   11  C   UNL     1     -11.469  11.683  68.552  1.00  0.00    -0.298 C  
HETATM   12  O   UNL     1     -12.378  10.953  68.928  1.00  0.00    -0.486 OA 
BRANCH  11  13
HETATM   13  O   UNL     1     -10.166  11.522  68.941  1.00  0.00    -0.206 OA 
HETATM   14  C   UNL     1      -9.871  10.208  69.423  1.00  0.00    -0.229 C  
ENDBRANCH  11  13
ENDBRANCH   1  11
BRANCH   1  15
HETATM   15  C   UNL     1     -11.349  12.377  66.054  1.00  0.00    -0.397 A  
HETATM   16  C   UNL     1     -10.171  10.940  64.441  1.00  0.00    -0.423 A  
HETATM   17  C   UNL     1     -11.708  12.602  63.641  1.00  0.00    -0.597 A  
HETATM   18  C   UNL     1     -10.806  11.572  63.383  1.00  0.00    -0.423 A  
HETATM   19  C   UNL     1     -10.437  11.340  65.753  1.00  0.00    -0.310 A  
HETATM   20  C   UNL     1     -11.979  13.002  64.960  1.00  0.00    -0.397 A  
HETATM   21 CL   UNL     1     -13.128  14.282  65.156  1.00  0.00    -0.167 Cl 
ENDBRANCH   1  15
TORSDOF 4
ENDMDL
MODEL       36
REMARK 921   NORMALIZED FREE ENERGY PREDICTED BY IDOCK:   -5.09 KCAL/MOL
REMARK 922        TOTAL FREE ENERGY PREDICTED BY IDOCK:   -6.81 KCAL/MOL
REMARK 923 INTER-LIGAND FREE ENERGY PREDICTED BY IDOCK:   -6.50 KCAL/MOL
REMARK 924 INTRA-LIGAND FREE ENERGY PREDICTED BY IDOCK:   -0.31 KCAL/MOL
REMARK 927      BINDING AFFINITY PREDICTED BY RF-SCORE:    0.00 PKD
ROOT
HETATM    1  C   UNL     1     -10.500  12.460  68.342  1.00  0.00    -0.235 C  
ENDROOT
BRANCH   1   2
HETATM    2  N   UNL     1     -10.397  13.929  68.639  1.00  0.00    -0.243 NA 
HETATM    3  S   UNL     1      -9.717  18.394  68.521  1.00  0.00    -0.372 SA 
HETATM    4  C   UNL     1     -10.073  16.736  68.476  1.00  0.00    -0.281 A  
HETATM    5  C   UNL     1      -8.036  18.080  68.463  1.00  0.00    -0.303 A  
HETATM    6  C   UNL     1     -11.462  16.201  68.478  1.00  0.00    -0.324 C  
HETATM    7  C   UNL     1     -11.444  14.740  67.977  1.00  0.00    -0.331 C  
HETATM    8  C   UNL     1      -9.032  14.433  68.331  1.00  0.00    -0.188 C  
HETATM    9  C   UNL     1      -7.763  16.728  68.428  1.00  0.00    -0.208 A  
HETATM   10  C   UNL     1      -8.953  15.933  68.439  1.00  0.00    -0.189 A  
ENDBRANCH   1   2
BRANCH   1  11
HETATM   11  C   UNL     1     -11.016  12.192  66.898  1.00  0.00    -0.270 C  
HETATM   12  O   UNL     1     -12.185  12.023  66.574  1.00  0.00    -0.548 OA 
BRANCH  11  13
HETATM   13  O   UNL     1      -9.988  12.262  65.995  1.00  0.00    -0.243 OA 
HETATM   14  C   UNL     1      -9.967  11.173  65.068  1.00  0.00    -0.273 C  
ENDBRANCH  11  13
ENDBRANCH   1  11
BRANCH   1  15
HETATM   15  C   UNL     1     -11.267  11.683  69.430  1.00  0.00    -0.311 A  
HETATM   16  C   UNL     1     -12.765  11.670  71.382  1.00  0.00    -0.445 A  
HETATM   17  C   UNL     1     -11.821   9.605  70.603  1.00  0.00    -0.331 A  
HETATM   18  C   UNL     1     -12.629  10.296  71.503  1.00  0.00    -0.544 A  
HETATM   19  C   UNL     1     -12.091  12.350  70.365  1.00  0.00    -0.381 A  
HETATM   20  C   UNL     1     -11.146  10.287  69.577  1.00  0.00    -0.262 A  
HETATM   21 CL   UNL     1     -10.183   9.321  68.512  1.00  0.00    -0.215 Cl 
ENDBRANCH   1  15
TORSDOF 4
ENDMDL
MODEL       37
REMARK 921   NORMALIZED FREE ENERGY PREDICTED BY IDOCK:   -5.06 KCAL/MOL
REMARK 922        TOTAL FREE ENERGY PREDICTED BY IDOCK:   -6.77 KCAL/MOL
REMARK 923 INTER-LIGAND FREE ENERGY PREDICTED BY IDOCK:   -6.72 KCAL/MOL
REMARK 924 INTRA-LIGAND FREE ENERGY PREDICTED BY IDOCK:   -0.06 KCAL/MOL
REMARK 927      BINDING AFFINITY PREDICTED BY RF-SCORE:    0.00 PKD
ROOT
HETATM    1  C   UNL     1     -10.729  14.146  66.046  1.00  0.00    -0.299 C  
ENDROOT
BRANCH   1   2
HETATM    2  N   UNL     1     -10.350  15.400  66.782  1.00  0.00    -0.272 NA 
HETATM    3  S   UNL     1     -10.157  19.524  68.616  1.00  0.00    -0.398 SA 
HETATM    4  C   UNL     1     -10.331  17.948  68.012  1.00  0.00    -0.387 A  
HETATM    5  C   UNL     1      -9.993  20.158  67.034  1.00  0.00    -0.456 A  
HETATM    6  C   UNL     1     -10.551  16.762  68.885  1.00  0.00    -0.350 C  
HETATM    7  C   UNL     1     -11.114  15.603  68.034  1.00  0.00    -0.335 C  
HETATM    8  C   UNL     1     -10.438  16.582  65.884  1.00  0.00    -0.323 C  
HETATM    9  C   UNL     1     -10.054  19.171  66.072  1.00  0.00    -0.437 A  
HETATM   10  C   UNL     1     -10.248  17.872  66.638  1.00  0.00    -0.371 A  
ENDBRANCH   1   2
BRANCH   1  11
HETATM   11  C   UNL     1     -12.183  13.696  66.372  1.00  0.00    -0.423 C  
HETATM   12  O   UNL     1     -12.531  13.049  67.352  1.00  0.00    -0.177 OA 
BRANCH  11  13
HETATM   13  O   UNL     1     -13.064  14.202  65.454  1.00  0.00    -0.743 OA 
HETATM   14  C   UNL     1     -12.493  14.387  64.155  1.00  0.00    -0.199 C  
ENDBRANCH  11  13
ENDBRANCH   1  11
BRANCH   1  15
HETATM   15  C   UNL     1      -9.682  13.024  66.200  1.00  0.00    -0.255 A  
HETATM   16  C   UNL     1      -7.624  12.158  67.234  1.00  0.00    -0.156 A  
HETATM   17  C   UNL     1      -8.730  10.865  65.540  1.00  0.00    -0.178 A  
HETATM   18  C   UNL     1      -7.686  11.017  66.450  1.00  0.00    -0.146 A  
HETATM   19  C   UNL     1      -8.605  13.145  67.107  1.00  0.00    -0.194 A  
HETATM   20  C   UNL     1      -9.719  11.855  65.414  1.00  0.00    -0.207 A  
HETATM   21 CL   UNL     1     -10.975  11.549  64.263  1.00  0.00    -0.409 Cl 
ENDBRANCH   1  15
TORSDOF 4
ENDMDL
MODEL       38
REMARK 921   NORMALIZED FREE ENERGY PREDICTED BY IDOCK:   -5.03 KCAL/MOL
REMARK 922        TOTAL FREE ENERGY PREDICTED BY IDOCK:   -6.73 KCAL/MOL
REMARK 923 INTER-LIGAND FREE ENERGY PREDICTED BY IDOCK:   -6.64 KCAL/MOL
REMARK 924 INTRA-LIGAND FREE ENERGY PREDICTED BY IDOCK:   -0.09 KCAL/MOL
REMARK 927      BINDING AFFINITY PREDICTED BY RF-SCORE:    0.00 PKD
ROOT
HETATM    1  C   UNL     1     -11.494  14.342  67.542  1.00  0.00    -0.349 C  
ENDROOT
BRANCH   1   2
HETATM    2  N   UNL     1     -10.321  15.277  67.630  1.00  0.00    -0.247 NA 
HETATM    3  S   UNL     1      -7.514  18.742  68.354  1.00  0.00    -0.308 SA 
HETATM    4  C   UNL     1      -8.573  17.423  68.216  1.00  0.00    -0.260 A  
HETATM    5  C   UNL     1      -8.390  19.624  67.177  1.00  0.00    -0.298 A  
HETATM    6  C   UNL     1      -8.434  16.180  69.023  1.00  0.00    -0.251 C  
HETATM    7  C   UNL     1      -9.770  15.407  68.998  1.00  0.00    -0.239 C  
HETATM    8  C   UNL     1     -10.659  16.601  67.043  1.00  0.00    -0.247 C  
HETATM    9  C   UNL     1      -9.460  18.907  66.683  1.00  0.00    -0.357 A  
HETATM   10  C   UNL     1      -9.572  17.613  67.285  1.00  0.00    -0.271 A  
ENDBRANCH   1   2
BRANCH   1  11
HETATM   11  C   UNL     1     -11.690  13.529  68.855  1.00  0.00    -0.339 C  
HETATM   12  O   UNL     1     -11.069  12.523  69.175  1.00  0.00    -0.243 OA 
BRANCH  11  13
HETATM   13  O   UNL     1     -12.600  14.142  69.674  1.00  0.00    -0.262 OA 
HETATM   14  C   UNL     1     -12.565  13.670  71.024  1.00  0.00    -0.363 C  
ENDBRANCH  11  13
ENDBRANCH   1  11
BRANCH   1  15
HETATM   15  C   UNL     1     -11.471  13.472  66.270  1.00  0.00    -0.350 A  
HETATM   16  C   UNL     1     -12.626  12.534  64.310  1.00  0.00    -0.485 A  
HETATM   17  C   UNL     1     -10.353  11.904  64.756  1.00  0.00    -0.323 A  
HETATM   18  C   UNL     1     -11.496  11.810  63.965  1.00  0.00    -0.444 A  
HETATM   19  C   UNL     1     -12.613  13.347  65.446  1.00  0.00    -0.528 A  
HETATM   20  C   UNL     1     -10.337  12.725  65.896  1.00  0.00    -0.283 A  
HETATM   21 CL   UNL     1      -8.857  12.772  66.791  1.00  0.00    -0.195 Cl 
ENDBRANCH   1  15
TORSDOF 4
ENDMDL
MODEL       39
REMARK 921   NORMALIZED FREE ENERGY PREDICTED BY IDOCK:   -5.02 KCAL/MOL
REMARK 922        TOTAL FREE ENERGY PREDICTED BY IDOCK:   -6.72 KCAL/MOL
REMARK 923 INTER-LIGAND FREE ENERGY PREDICTED BY IDOCK:   -6.26 KCAL/MOL
REMARK 924 INTRA-LIGAND FREE ENERGY PREDICTED BY IDOCK:   -0.46 KCAL/MOL
REMARK 927      BINDING AFFINITY PREDICTED BY RF-SCORE:    0.00 PKD
ROOT
HETATM    1  C   UNL     1      -9.943  10.623  68.551  1.00  0.00    -0.167 C  
ENDROOT
BRANCH   1   2
HETATM    2  N   UNL     1     -10.383  11.870  67.838  1.00  0.00    -0.193 NA 
HETATM    3  S   UNL     1     -10.797  15.472  65.143  1.00  0.00    -0.437 SA 
HETATM    4  C   UNL     1     -10.661  14.042  66.046  1.00  0.00    -0.294 A  
HETATM    5  C   UNL     1      -9.461  16.165  65.958  1.00  0.00    -0.339 A  
HETATM    6  C   UNL     1     -11.560  12.871  65.854  1.00  0.00    -0.423 C  
HETATM    7  C   UNL     1     -10.900  11.619  66.474  1.00  0.00    -0.284 C  
HETATM    8  C   UNL     1      -9.299  12.887  67.838  1.00  0.00    -0.208 C  
HETATM    9  C   UNL     1      -8.940  15.316  66.913  1.00  0.00    -0.274 A  
HETATM   10  C   UNL     1      -9.641  14.070  66.973  1.00  0.00    -0.253 A  
ENDBRANCH   1   2
BRANCH   1  11
HETATM   11  C   UNL     1      -9.679   9.450  67.562  1.00  0.00    -0.157 C  
HETATM   12  O   UNL     1      -8.628   9.232  66.971  1.00  0.00    -0.122 OA 
BRANCH  11  13
HETATM   13  O   UNL     1     -10.762   8.614  67.503  1.00  0.00    -0.249 OA 
HETATM   14  C   UNL     1     -10.413   7.237  67.337  1.00  0.00    -0.289 C  
ENDBRANCH  11  13
ENDBRANCH   1  11
BRANCH   1  15
HETATM   15  C   UNL     1     -10.866  10.249  69.727  1.00  0.00    -0.332 A  
HETATM   16  C   UNL     1     -13.031  10.441  70.881  1.00  0.00    -0.475 A  
HETATM   17  C   UNL     1     -11.268   9.159  71.884  1.00  0.00    -0.400 A  
HETATM   18  C   UNL     1     -12.569   9.653  71.922  1.00  0.00    -0.481 A  
HETATM   19  C   UNL     1     -12.190  10.736  69.804  1.00  0.00    -0.359 A  
HETATM   20  C   UNL     1     -10.423   9.450  70.800  1.00  0.00    -0.304 A  
HETATM   21 CL   UNL     1      -8.833   8.769  70.856  1.00  0.00    -0.216 Cl 
ENDBRANCH   1  15
TORSDOF 4
ENDMDL
MODEL       40
REMARK 921   NORMALIZED FREE ENERGY PREDICTED BY IDOCK:   -5.01 KCAL/MOL
REMARK 922        TOTAL FREE ENERGY PREDICTED BY IDOCK:   -6.71 KCAL/MOL
REMARK 923 INTER-LIGAND FREE ENERGY PREDICTED BY IDOCK:   -6.22 KCAL/MOL
REMARK 924 INTRA-LIGAND FREE ENERGY PREDICTED BY IDOCK:   -0.49 KCAL/MOL
REMARK 927      BINDING AFFINITY PREDICTED BY RF-SCORE:    0.00 PKD
ROOT
HETATM    1  C   UNL     1      -8.619  16.008  67.517  1.00  0.00    -0.178 C  
ENDROOT
BRANCH   1   2
HETATM    2  N   UNL     1      -9.576  14.958  67.029  1.00  0.00    -0.231 NA 
HETATM    3  S   UNL     1     -11.846  11.844  64.671  1.00  0.00    -0.143 SA 
HETATM    4  C   UNL     1     -10.890  12.926  65.562  1.00  0.00    -0.274 A  
HETATM    5  C   UNL     1     -12.368  13.097  63.628  1.00  0.00    -0.404 A  
HETATM    6  C   UNL     1     -10.054  12.509  66.721  1.00  0.00    -0.233 C  
HETATM    7  C   UNL     1      -8.993  13.597  66.999  1.00  0.00    -0.236 C  
HETATM    8  C   UNL     1     -10.150  15.342  65.712  1.00  0.00    -0.356 C  
HETATM    9  C   UNL     1     -11.829  14.318  63.975  1.00  0.00    -0.267 A  
HETATM   10  C   UNL     1     -10.963  14.227  65.111  1.00  0.00    -0.369 A  
ENDBRANCH   1   2
BRANCH   1  11
HETATM   11  C   UNL     1      -8.162  15.744  68.982  1.00  0.00    -0.234 C  
HETATM   12  O   UNL     1      -8.891  15.432  69.916  1.00  0.00    -0.155 OA 
BRANCH  11  13
HETATM   13  O   UNL     1      -6.798  15.814  69.084  1.00  0.00    -0.144 OA 
HETATM   14  C   UNL     1      -6.324  17.080  69.551  1.00  0.00    -0.235 C  
ENDBRANCH  11  13
ENDBRANCH   1  11
BRANCH   1  15
HETATM   15  C   UNL     1      -9.131  17.442  67.276  1.00  0.00    -0.239 A  
HETATM   16  C   UNL     1     -10.865  19.163  67.571  1.00  0.00    -0.512 A  
HETATM   17  C   UNL     1      -8.933  19.650  66.232  1.00  0.00    -0.420 A  
HETATM   18  C   UNL     1     -10.150  20.049  66.780  1.00  0.00    -0.607 A  
HETATM   19  C   UNL     1     -10.364  17.881  67.810  1.00  0.00    -0.393 A  
HETATM   20  C   UNL     1      -8.425  18.363  66.475  1.00  0.00    -0.270 A  
HETATM   21 CL   UNL     1      -6.898  17.987  65.754  1.00  0.00    -0.319 Cl 
ENDBRANCH   1  15
TORSDOF 4
ENDMDL
MODEL       41
REMARK 921   NORMALIZED FREE ENERGY PREDICTED BY IDOCK:   -5.00 KCAL/MOL
REMARK 922        TOTAL FREE ENERGY PREDICTED BY IDOCK:   -6.70 KCAL/MOL
REMARK 923 INTER-LIGAND FREE ENERGY PREDICTED BY IDOCK:   -6.39 KCAL/MOL
REMARK 924 INTRA-LIGAND FREE ENERGY PREDICTED BY IDOCK:   -0.31 KCAL/MOL
REMARK 927      BINDING AFFINITY PREDICTED BY RF-SCORE:    0.00 PKD
ROOT
HETATM    1  C   UNL     1     -10.154  11.387  67.198  1.00  0.00    -0.198 C  
ENDROOT
BRANCH   1   2
HETATM    2  N   UNL     1     -11.053  10.862  68.281  1.00  0.00    -0.243 NA 
HETATM    3  S   UNL     1     -12.862   9.343  72.132  1.00  0.00    -0.389 SA 
HETATM    4  C   UNL     1     -12.170  10.034  70.745  1.00  0.00    -0.315 A  
HETATM    5  C   UNL     1     -11.913   7.930  71.954  1.00  0.00    -0.305 A  
HETATM    6  C   UNL     1     -12.529  11.391  70.247  1.00  0.00    -0.312 C  
HETATM    7  C   UNL     1     -11.426  11.885  69.285  1.00  0.00    -0.306 C  
HETATM    8  C   UNL     1     -10.462   9.655  68.916  1.00  0.00    -0.215 C  
HETATM    9  C   UNL     1     -11.098   7.990  70.842  1.00  0.00    -0.271 A  
HETATM   10  C   UNL     1     -11.246   9.220  70.126  1.00  0.00    -0.237 A  
ENDBRANCH   1   2
BRANCH   1  11
HETATM   11  C   UNL     1      -9.220  12.521  67.713  1.00  0.00    -0.198 C  
HETATM   12  O   UNL     1      -8.310  12.389  68.523  1.00  0.00    -0.153 OA 
BRANCH  11  13
HETATM   13  O   UNL     1      -9.486  13.698  67.067  1.00  0.00    -0.234 OA 
HETATM   14  C   UNL     1      -9.614  14.818  67.947  1.00  0.00    -0.210 C  
ENDBRANCH  11  13
ENDBRANCH   1  11
BRANCH   1  15
HETATM   15  C   UNL     1     -10.919  11.749  65.909  1.00  0.00    -0.354 A  
HETATM   16  C   UNL     1     -12.853  12.791  64.802  1.00  0.00    -0.374 A  
HETATM   17  C   UNL     1     -11.220  11.631  63.481  1.00  0.00    -0.462 A  
HETATM   18  C   UNL     1     -12.402  12.363  63.564  1.00  0.00    -0.648 A  
HETATM   19  C   UNL     1     -12.124  12.485  65.954  1.00  0.00    -0.420 A  
HETATM   20  C   UNL     1     -10.483  11.326  64.637  1.00  0.00    -0.325 A  
HETATM   21 CL   UNL     1      -9.024  10.424  64.408  1.00  0.00    -0.224 Cl 
ENDBRANCH   1  15
TORSDOF 4
ENDMDL
MODEL       42
REMARK 921   NORMALIZED FREE ENERGY PREDICTED BY IDOCK:   -4.99 KCAL/MOL
REMARK 922        TOTAL FREE ENERGY PREDICTED BY IDOCK:   -6.69 KCAL/MOL
REMARK 923 INTER-LIGAND FREE ENERGY PREDICTED BY IDOCK:   -6.74 KCAL/MOL
REMARK 924 INTRA-LIGAND FREE ENERGY PREDICTED BY IDOCK:    0.05 KCAL/MOL
REMARK 927      BINDING AFFINITY PREDICTED BY RF-SCORE:    0.00 PKD
ROOT
HETATM    1  C   UNL     1     -11.099  13.610  66.372  1.00  0.00    -0.303 C  
ENDROOT
BRANCH   1   2
HETATM    2  N   UNL     1     -10.119  14.705  66.685  1.00  0.00    -0.266 NA 
HETATM    3  S   UNL     1      -7.982  18.373  68.229  1.00  0.00    -0.308 SA 
HETATM    4  C   UNL     1      -8.780  16.947  67.775  1.00  0.00    -0.212 A  
HETATM    5  C   UNL     1      -9.058  19.323  67.296  1.00  0.00    -0.297 A  
HETATM    6  C   UNL     1      -8.376  15.599  68.261  1.00  0.00    -0.154 C  
HETATM    7  C   UNL     1      -9.544  14.611  68.047  1.00  0.00    -0.212 C  
HETATM    8  C   UNL     1     -10.724  16.039  66.433  1.00  0.00    -0.232 C  
HETATM    9  C   UNL     1      -9.995  18.552  66.641  1.00  0.00    -0.394 A  
HETATM   10  C   UNL     1      -9.836  17.156  66.914  1.00  0.00    -0.285 A  
ENDBRANCH   1   2
BRANCH   1  11
HETATM   11  C   UNL     1     -11.830  13.100  67.649  1.00  0.00    -0.359 C  
HETATM   12  O   UNL     1     -12.261  13.801  68.557  1.00  0.00    -0.348 OA 
BRANCH  11  13
HETATM   13  O   UNL     1     -12.022  11.746  67.589  1.00  0.00    -0.599 OA 
HETATM   14  C   UNL     1     -11.812  11.083  68.839  1.00  0.00    -0.308 C  
ENDBRANCH  11  13
ENDBRANCH   1  11
BRANCH   1  15
HETATM   15  C   UNL     1     -10.484  12.484  65.517  1.00  0.00    -0.305 A  
HETATM   16  C   UNL     1      -8.817  10.697  65.228  1.00  0.00    -0.204 A  
HETATM   17  C   UNL     1     -10.316  11.217  63.427  1.00  0.00    -0.449 A  
HETATM   18  C   UNL     1      -9.266  10.458  63.940  1.00  0.00    -0.301 A  
HETATM   19  C   UNL     1      -9.414  11.696  66.001  1.00  0.00    -0.246 A  
HETATM   20  C   UNL     1     -10.920  12.219  64.204  1.00  0.00    -0.363 A  
HETATM   21 CL   UNL     1     -12.223  13.087  63.466  1.00  0.00    -0.594 Cl 
ENDBRANCH   1  15
TORSDOF 4
ENDMDL
MODEL       43
REMARK 921   NORMALIZED FREE ENERGY PREDICTED BY IDOCK:   -4.97 KCAL/MOL
REMARK 922        TOTAL FREE ENERGY PREDICTED BY IDOCK:   -6.66 KCAL/MOL
REMARK 923 INTER-LIGAND FREE ENERGY PREDICTED BY IDOCK:   -6.68 KCAL/MOL
REMARK 924 INTRA-LIGAND FREE ENERGY PREDICTED BY IDOCK:    0.03 KCAL/MOL
REMARK 927      BINDING AFFINITY PREDICTED BY RF-SCORE:    0.00 PKD
ROOT
HETATM    1  C   UNL     1     -11.354  13.212  66.543  1.00  0.00    -0.315 C  
ENDROOT
BRANCH   1   2
HETATM    2  N   UNL     1     -10.604  14.506  66.681  1.00  0.00    -0.280 NA 
HETATM    3  S   UNL     1      -7.721  17.967  66.331  1.00  0.00    -0.277 SA 
HETATM    4  C   UNL     1      -8.847  16.698  66.338  1.00  0.00    -0.302 A  
HETATM    5  C   UNL     1      -6.517  16.960  67.015  1.00  0.00    -0.200 A  
HETATM    6  C   UNL     1     -10.237  16.841  65.825  1.00  0.00    -0.311 C  
HETATM    7  C   UNL     1     -10.825  15.439  65.553  1.00  0.00    -0.374 C  
HETATM    8  C   UNL     1      -9.157  14.252  66.912  1.00  0.00    -0.252 C  
HETATM    9  C   UNL     1      -6.985  15.684  67.256  1.00  0.00    -0.224 A  
HETATM   10  C   UNL     1      -8.352  15.524  66.865  1.00  0.00    -0.290 A  
ENDBRANCH   1   2
BRANCH   1  11
HETATM   11  C   UNL     1     -11.782  12.636  67.925  1.00  0.00    -0.358 C  
HETATM   12  O   UNL     1     -11.878  13.272  68.968  1.00  0.00    -0.295 OA 
BRANCH  11  13
HETATM   13  O   UNL     1     -12.136  11.318  67.812  1.00  0.00    -0.631 OA 
HETATM   14  C   UNL     1     -11.716  10.517  68.920  1.00  0.00    -0.146 C  
ENDBRANCH  11  13
ENDBRANCH   1  11
BRANCH   1  15
HETATM   15  C   UNL     1     -10.628  12.192  65.644  1.00  0.00    -0.297 A  
HETATM   16  C   UNL     1      -8.867  10.502  65.331  1.00  0.00    -0.203 A  
HETATM   17  C   UNL     1     -10.247  11.129  63.470  1.00  0.00    -0.446 A  
HETATM   18  C   UNL     1      -9.207  10.365  63.995  1.00  0.00    -0.300 A  
HETATM   19  C   UNL     1      -9.564  11.404  66.139  1.00  0.00    -0.242 A  
HETATM   20  C   UNL     1     -10.952  12.033  64.282  1.00  0.00    -0.346 A  
HETATM   21 CL   UNL     1     -12.232  12.915  63.522  1.00  0.00    -0.597 Cl 
ENDBRANCH   1  15
TORSDOF 4
ENDMDL
MODEL       44
REMARK 921   NORMALIZED FREE ENERGY PREDICTED BY IDOCK:   -4.95 KCAL/MOL
REMARK 922        TOTAL FREE ENERGY PREDICTED BY IDOCK:   -6.63 KCAL/MOL
REMARK 923 INTER-LIGAND FREE ENERGY PREDICTED BY IDOCK:   -6.43 KCAL/MOL
REMARK 924 INTRA-LIGAND FREE ENERGY PREDICTED BY IDOCK:   -0.20 KCAL/MOL
REMARK 927      BINDING AFFINITY PREDICTED BY RF-SCORE:    0.00 PKD
ROOT
HETATM    1  C   UNL     1     -11.450  12.686  67.472  1.00  0.00    -0.340 C  
ENDROOT
BRANCH   1   2
HETATM    2  N   UNL     1     -11.020  11.490  68.274  1.00  0.00    -0.207 NA 
HETATM    3  S   UNL     1     -10.784   7.682  70.692  1.00  0.00    -0.235 SA 
HETATM    4  C   UNL     1     -10.909   9.036  69.678  1.00  0.00    -0.186 A  
HETATM    5  C   UNL     1     -11.573   8.508  71.966  1.00  0.00    -0.362 A  
HETATM    6  C   UNL     1     -10.409   9.051  68.276  1.00  0.00    -0.252 C  
HETATM    7  C   UNL     1     -11.072  10.220  67.514  1.00  0.00    -0.232 C  
HETATM    8  C   UNL     1     -11.790  11.405  69.544  1.00  0.00    -0.357 C  
HETATM    9  C   UNL     1     -11.906   9.801  71.617  1.00  0.00    -0.429 A  
HETATM   10  C   UNL     1     -11.516  10.119  70.277  1.00  0.00    -0.381 A  
ENDBRANCH   1   2
BRANCH   1  11
HETATM   11  C   UNL     1     -11.234  12.472  65.945  1.00  0.00    -0.320 C  
HETATM   12  O   UNL     1     -10.151  12.392  65.379  1.00  0.00    -0.271 OA 
BRANCH  11  13
HETATM   13  O   UNL     1     -12.432  12.286  65.308  1.00  0.00    -0.585 OA 
HETATM   14  C   UNL     1     -12.321  12.256  63.882  1.00  0.00    -0.509 C  
ENDBRANCH  11  13
ENDBRANCH   1  11
BRANCH   1  15
HETATM   15  C   UNL     1     -10.859  14.006  68.004  1.00  0.00    -0.257 A  
HETATM   16  C   UNL     1     -11.147  16.365  68.642  1.00  0.00    -0.352 A  
HETATM   17  C   UNL     1      -8.959  15.380  68.716  1.00  0.00    -0.196 A  
HETATM   18  C   UNL     1      -9.790  16.482  68.901  1.00  0.00    -0.260 A  
HETATM   19  C   UNL     1     -11.669  15.148  68.198  1.00  0.00    -0.323 A  
HETATM   20  C   UNL     1      -9.483  14.154  68.274  1.00  0.00    -0.211 A  
HETATM   21 CL   UNL     1      -8.357  12.852  68.096  1.00  0.00    -0.162 Cl 
ENDBRANCH   1  15
TORSDOF 4
ENDMDL
MODEL       45
REMARK 921   NORMALIZED FREE ENERGY PREDICTED BY IDOCK:   -4.91 KCAL/MOL
REMARK 922        TOTAL FREE ENERGY PREDICTED BY IDOCK:   -6.59 KCAL/MOL
REMARK 923 INTER-LIGAND FREE ENERGY PREDICTED BY IDOCK:   -6.58 KCAL/MOL
REMARK 924 INTRA-LIGAND FREE ENERGY PREDICTED BY IDOCK:   -0.02 KCAL/MOL
REMARK 927      BINDING AFFINITY PREDICTED BY RF-SCORE:    0.00 PKD
ROOT
HETATM    1  C   UNL     1     -11.146  13.870  66.072  1.00  0.00    -0.289 C  
ENDROOT
BRANCH   1   2
HETATM    2  N   UNL     1     -10.941  12.807  67.113  1.00  0.00    -0.256 NA 
HETATM    3  S   UNL     1     -11.401   9.552  70.212  1.00  0.00    -0.209 SA 
HETATM    4  C   UNL     1     -11.271  10.685  68.956  1.00  0.00    -0.265 A  
HETATM    5  C   UNL     1     -12.116  10.715  71.245  1.00  0.00    -0.299 A  
HETATM    6  C   UNL     1     -10.708  10.356  67.618  1.00  0.00    -0.335 C  
HETATM    7  C   UNL     1     -11.148  11.433  66.603  1.00  0.00    -0.271 C  
HETATM    8  C   UNL     1     -11.775  13.081  68.314  1.00  0.00    -0.353 C  
HETATM    9  C   UNL     1     -12.232  11.947  70.636  1.00  0.00    -0.424 A  
HETATM   10  C   UNL     1     -11.735  11.939  69.294  1.00  0.00    -0.389 A  
ENDBRANCH   1   2
BRANCH   1  11
HETATM   11  C   UNL     1     -11.069  13.294  64.628  1.00  0.00    -0.357 C  
HETATM   12  O   UNL     1     -10.074  12.811  64.100  1.00  0.00    -0.350 OA 
BRANCH  11  13
HETATM   13  O   UNL     1     -12.302  13.307  64.034  1.00  0.00    -0.570 OA 
HETATM   14  C   UNL     1     -12.640  12.075  63.390  1.00  0.00    -0.469 C  
ENDBRANCH  11  13
ENDBRANCH   1  11
BRANCH   1  15
HETATM   15  C   UNL     1     -10.252  15.106  66.296  1.00  0.00    -0.300 A  
HETATM   16  C   UNL     1      -9.904  17.538  66.150  1.00  0.00    -0.256 A  
HETATM   17  C   UNL     1      -8.116  16.133  66.918  1.00  0.00    -0.275 A  
HETATM   18  C   UNL     1      -8.605  17.401  66.613  1.00  0.00    -0.283 A  
HETATM   19  C   UNL     1     -10.710  16.408  65.991  1.00  0.00    -0.194 A  
HETATM   20  C   UNL     1      -8.927  14.996  66.764  1.00  0.00    -0.265 A  
HETATM   21 CL   UNL     1      -8.216  13.477  67.189  1.00  0.00    -0.164 Cl 
ENDBRANCH   1  15
TORSDOF 4
ENDMDL
MODEL       46
REMARK 921   NORMALIZED FREE ENERGY PREDICTED BY IDOCK:   -4.89 KCAL/MOL
REMARK 922        TOTAL FREE ENERGY PREDICTED BY IDOCK:   -6.56 KCAL/MOL
REMARK 923 INTER-LIGAND FREE ENERGY PREDICTED BY IDOCK:   -6.20 KCAL/MOL
REMARK 924 INTRA-LIGAND FREE ENERGY PREDICTED BY IDOCK:   -0.36 KCAL/MOL
REMARK 927      BINDING AFFINITY PREDICTED BY RF-SCORE:    0.00 PKD
ROOT
HETATM    1  C   UNL     1     -11.695   8.801  70.667  1.00  0.00    -0.166 C  
ENDROOT
BRANCH   1   2
HETATM    2  N   UNL     1     -11.833  10.269  70.955  1.00  0.00    -0.363 NA 
HETATM    3  S   UNL     1     -12.904  14.658  70.970  1.00  0.00    -0.369 SA 
HETATM    4  C   UNL     1     -12.629  12.984  71.000  1.00  0.00    -0.299 A  
HETATM    5  C   UNL     1     -12.023  14.819  69.511  1.00  0.00    -0.311 A  
HETATM    6  C   UNL     1     -13.161  12.091  72.067  1.00  0.00    -0.481 C  
HETATM    7  C   UNL     1     -13.133  10.630  71.567  1.00  0.00    -0.424 C  
HETATM    8  C   UNL     1     -11.555  11.073  69.736  1.00  0.00    -0.325 C  
HETATM    9  C   UNL     1     -11.519  13.612  69.074  1.00  0.00    -0.346 A  
HETATM   10  C   UNL     1     -11.868  12.531  69.945  1.00  0.00    -0.373 A  
ENDBRANCH   1   2
BRANCH   1  11
HETATM   11  C   UNL     1     -12.282   7.924  71.811  1.00  0.00    -0.310 C  
HETATM   12  O   UNL     1     -13.293   7.235  71.740  1.00  0.00    -0.350 OA 
BRANCH  11  13
HETATM   13  O   UNL     1     -11.460   7.942  72.906  1.00  0.00    -0.403 OA 
HETATM   14  C   UNL     1     -10.853   6.677  73.186  1.00  0.00    -0.269 C  
ENDBRANCH  11  13
ENDBRANCH   1  11
BRANCH   1  15
HETATM   15  C   UNL     1     -10.264   8.405  70.253  1.00  0.00    -0.204 A  
HETATM   16  C   UNL     1      -7.836   8.792  70.346  1.00  0.00    -0.098 A  
HETATM   17  C   UNL     1      -8.701   7.048  68.942  1.00  0.00    -0.131 A  
HETATM   18  C   UNL     1      -7.616   7.762  69.446  1.00  0.00    -0.101 A  
HETATM   19  C   UNL     1      -9.139   9.109  70.738  1.00  0.00    -0.313 A  
HETATM   20  C   UNL     1     -10.011   7.363  69.339  1.00  0.00    -0.176 A  
HETATM   21 CL   UNL     1     -11.276   6.398  68.657  1.00  0.00    -0.390 Cl 
ENDBRANCH   1  15
TORSDOF 4
ENDMDL
MODEL       47
REMARK 921   NORMALIZED FREE ENERGY PREDICTED BY IDOCK:   -4.87 KCAL/MOL
REMARK 922        TOTAL FREE ENERGY PREDICTED BY IDOCK:   -6.54 KCAL/MOL
REMARK 923 INTER-LIGAND FREE ENERGY PREDICTED BY IDOCK:   -7.02 KCAL/MOL
REMARK 924 INTRA-LIGAND FREE ENERGY PREDICTED BY IDOCK:    0.48 KCAL/MOL
REMARK 927      BINDING AFFINITY PREDICTED BY RF-SCORE:    0.00 PKD
ROOT
HETATM    1  C   UNL     1     -11.061  13.538  66.234  1.00  0.00    -0.300 C  
ENDROOT
BRANCH   1   2
HETATM    2  N   UNL     1     -10.710  14.840  66.894  1.00  0.00    -0.302 NA 
HETATM    3  S   UNL     1     -10.586  19.081  68.447  1.00  0.00     0.080 SA 
HETATM    4  C   UNL     1     -10.736  17.467  67.947  1.00  0.00    -0.351 A  
HETATM    5  C   UNL     1     -10.366  19.606  66.832  1.00  0.00    -0.465 A  
HETATM    6  C   UNL     1     -10.985  16.343  68.891  1.00  0.00    -0.332 C  
HETATM    7  C   UNL     1     -11.517  15.126  68.102  1.00  0.00    -0.342 C  
HETATM    8  C   UNL     1     -10.767  15.958  65.915  1.00  0.00    -0.296 C  
HETATM    9  C   UNL     1     -10.393  18.555  65.938  1.00  0.00    -0.344 A  
HETATM   10  C   UNL     1     -10.606  17.297  66.586  1.00  0.00    -0.179 A  
ENDBRANCH   1   2
BRANCH   1  11
HETATM   11  C   UNL     1     -12.308  13.669  65.311  1.00  0.00    -0.465 C  
HETATM   12  O   UNL     1     -13.439  13.968  65.673  1.00  0.00    -0.604 OA 
BRANCH  11  13
HETATM   13  O   UNL     1     -11.959  13.497  63.998  1.00  0.00    -0.431 OA 
HETATM   14  C   UNL     1     -12.527  12.325  63.405  1.00  0.00    -0.481 C  
ENDBRANCH  11  13
ENDBRANCH   1  11
BRANCH   1  15
HETATM   15  C   UNL     1     -11.147  12.366  67.232  1.00  0.00    -0.329 A  
HETATM   16  C   UNL     1     -11.841  11.478  69.420  1.00  0.00    -0.417 A  
HETATM   17  C   UNL     1     -10.611  10.074  67.911  1.00  0.00    -0.298 A  
HETATM   18  C   UNL     1     -11.252  10.257  69.134  1.00  0.00    -0.268 A  
HETATM   19  C   UNL     1     -11.784  12.515  68.485  1.00  0.00    -0.369 A  
HETATM   20  C   UNL     1     -10.557  11.114  66.968  1.00  0.00    -0.252 A  
HETATM   21 CL   UNL     1      -9.746  10.764  65.480  1.00  0.00    -0.271 Cl 
ENDBRANCH   1  15
TORSDOF 4
ENDMDL
MODEL       48
REMARK 921   NORMALIZED FREE ENERGY PREDICTED BY IDOCK:   -4.83 KCAL/MOL
REMARK 922        TOTAL FREE ENERGY PREDICTED BY IDOCK:   -6.48 KCAL/MOL
REMARK 923 INTER-LIGAND FREE ENERGY PREDICTED BY IDOCK:   -6.38 KCAL/MOL
REMARK 924 INTRA-LIGAND FREE ENERGY PREDICTED BY IDOCK:   -0.11 KCAL/MOL
REMARK 927      BINDING AFFINITY PREDICTED BY RF-SCORE:    0.00 PKD
ROOT
HETATM    1  C   UNL     1     -11.714  12.670  66.647  1.00  0.00    -0.398 C  
ENDROOT
BRANCH   1   2
HETATM    2  N   UNL     1     -10.325  12.155  66.397  1.00  0.00    -0.215 NA 
HETATM    3  S   UNL     1      -6.127  10.517  66.721  1.00  0.00    -0.075 SA 
HETATM    4  C   UNL     1      -7.748  11.011  66.640  1.00  0.00    -0.153 A  
HETATM    5  C   UNL     1      -5.668  11.993  67.457  1.00  0.00    -0.107 A  
HETATM    6  C   UNL     1      -8.832  10.156  66.084  1.00  0.00    -0.162 C  
HETATM    7  C   UNL     1     -10.198  10.690  66.570  1.00  0.00    -0.233 C  
HETATM    8  C   UNL     1      -9.334  12.895  67.223  1.00  0.00    -0.212 C  
HETATM    9  C   UNL     1      -6.740  12.847  67.618  1.00  0.00    -0.153 A  
HETATM   10  C   UNL     1      -7.963  12.279  67.137  1.00  0.00    -0.161 A  
ENDBRANCH   1   2
BRANCH   1  11
HETATM   11  C   UNL     1     -12.292  13.412  65.406  1.00  0.00    -0.477 C  
HETATM   12  O   UNL     1     -13.333  14.059  65.378  1.00  0.00    -0.721 OA 
BRANCH  11  13
HETATM   13  O   UNL     1     -11.428  13.332  64.347  1.00  0.00    -0.348 OA 
HETATM   14  C   UNL     1     -11.876  12.456  63.309  1.00  0.00    -0.402 C  
ENDBRANCH  11  13
ENDBRANCH   1  11
BRANCH   1  15
HETATM   15  C   UNL     1     -11.828  13.471  67.959  1.00  0.00    -0.400 A  
HETATM   16  C   UNL     1     -11.777  15.622  69.153  1.00  0.00    -0.402 A  
HETATM   17  C   UNL     1     -12.056  13.587  70.396  1.00  0.00    -0.415 A  
HETATM   18  C   UNL     1     -11.946  14.976  70.367  1.00  0.00    -0.372 A  
HETATM   19  C   UNL     1     -11.715  14.880  67.971  1.00  0.00    -0.344 A  
HETATM   20  C   UNL     1     -11.999  12.840  69.207  1.00  0.00    -0.246 A  
HETATM   21 CL   UNL     1     -12.162  11.124  69.366  1.00  0.00    -0.378 Cl 
ENDBRANCH   1  15
TORSDOF 4
ENDMDL
MODEL       49
REMARK 921   NORMALIZED FREE ENERGY PREDICTED BY IDOCK:   -4.82 KCAL/MOL
REMARK 922        TOTAL FREE ENERGY PREDICTED BY IDOCK:   -6.48 KCAL/MOL
REMARK 923 INTER-LIGAND FREE ENERGY PREDICTED BY IDOCK:   -6.37 KCAL/MOL
REMARK 924 INTRA-LIGAND FREE ENERGY PREDICTED BY IDOCK:   -0.11 KCAL/MOL
REMARK 927      BINDING AFFINITY PREDICTED BY RF-SCORE:    0.00 PKD
ROOT
HETATM    1  C   UNL     1     -11.868  12.314  67.874  1.00  0.00    -0.293 C  
ENDROOT
BRANCH   1   2
HETATM    2  N   UNL     1     -10.916  11.217  68.257  1.00  0.00    -0.207 NA 
HETATM    3  S   UNL     1      -7.748   7.999  68.382  1.00  0.00    -0.119 SA 
HETATM    4  C   UNL     1      -8.838   9.297  68.320  1.00  0.00    -0.129 A  
HETATM    5  C   UNL     1      -8.748   7.054  67.364  1.00  0.00    -0.120 A  
HETATM    6  C   UNL     1      -8.602  10.592  69.016  1.00  0.00    -0.160 C  
HETATM    7  C   UNL     1      -9.515  11.674  68.399  1.00  0.00    -0.193 C  
HETATM    8  C   UNL     1     -11.030  10.070  67.318  1.00  0.00    -0.156 C  
HETATM    9  C   UNL     1      -9.900   7.723  67.004  1.00  0.00    -0.286 A  
HETATM   10  C   UNL     1      -9.961   9.038  67.563  1.00  0.00    -0.262 A  
ENDBRANCH   1   2
BRANCH   1  11
HETATM   11  C   UNL     1     -11.594  12.848  66.437  1.00  0.00    -0.371 C  
HETATM   12  O   UNL     1     -10.553  13.367  66.052  1.00  0.00    -0.280 OA 
BRANCH  11  13
HETATM   13  O   UNL     1     -12.650  12.576  65.610  1.00  0.00    -0.612 OA 
HETATM   14  C   UNL     1     -12.272  12.388  64.243  1.00  0.00    -0.452 C  
ENDBRANCH  11  13
ENDBRANCH   1  11
BRANCH   1  15
HETATM   15  C   UNL     1     -11.964  13.422  68.941  1.00  0.00    -0.362 A  
HETATM   16  C   UNL     1     -11.752  15.790  69.578  1.00  0.00    -0.369 A  
HETATM   17  C   UNL     1     -12.298  14.160  71.253  1.00  0.00    -0.447 A  
HETATM   18  C   UNL     1     -12.045  15.483  70.897  1.00  0.00    -0.433 A  
HETATM   19  C   UNL     1     -11.709  14.775  68.619  1.00  0.00    -0.356 A  
HETATM   20  C   UNL     1     -12.259  13.139  70.289  1.00  0.00    -0.306 A  
HETATM   21 CL   UNL     1     -12.604  11.537  70.847  1.00  0.00    -0.459 Cl 
ENDBRANCH   1  15
TORSDOF 4
ENDMDL
MODEL       50
REMARK 921   NORMALIZED FREE ENERGY PREDICTED BY IDOCK:   -4.80 KCAL/MOL
REMARK 922        TOTAL FREE ENERGY PREDICTED BY IDOCK:   -6.44 KCAL/MOL
REMARK 923 INTER-LIGAND FREE ENERGY PREDICTED BY IDOCK:   -6.48 KCAL/MOL
REMARK 924 INTRA-LIGAND FREE ENERGY PREDICTED BY IDOCK:    0.04 KCAL/MOL
REMARK 927      BINDING AFFINITY PREDICTED BY RF-SCORE:    0.00 PKD
ROOT
HETATM    1  C   UNL     1     -11.143  11.082  67.367  1.00  0.00    -0.305 C  
ENDROOT
BRANCH   1   2
HETATM    2  N   UNL     1     -11.386  12.404  68.036  1.00  0.00    -0.265 NA 
HETATM    3  S   UNL     1     -11.607  15.913  70.873  1.00  0.00    -0.433 SA 
HETATM    4  C   UNL     1     -11.391  14.616  69.801  1.00  0.00    -0.275 A  
HETATM    5  C   UNL     1     -12.689  14.997  71.832  1.00  0.00    -0.337 A  
HETATM    6  C   UNL     1     -10.487  14.678  68.619  1.00  0.00    -0.244 C  
HETATM    7  C   UNL     1     -10.171  13.243  68.146  1.00  0.00    -0.243 C  
HETATM    8  C   UNL     1     -12.045  12.212  69.355  1.00  0.00    -0.190 C  
HETATM    9  C   UNL     1     -12.887  13.730  71.323  1.00  0.00    -0.434 A  
HETATM   10  C   UNL     1     -12.131  13.500  70.130  1.00  0.00    -0.425 A  
ENDBRANCH   1   2
BRANCH   1  11
HETATM   11  C   UNL     1     -10.175  10.182  68.189  1.00  0.00    -0.171 C  
HETATM   12  O   UNL     1      -9.074  10.513  68.613  1.00  0.00    -0.143 OA 
BRANCH  11  13
HETATM   13  O   UNL     1     -10.755   8.973  68.468  1.00  0.00    -0.186 OA 
HETATM   14  C   UNL     1      -9.855   7.867  68.358  1.00  0.00    -0.173 C  
ENDBRANCH  11  13
ENDBRANCH   1  11
BRANCH   1  15
HETATM   15  C   UNL     1     -10.747  11.226  65.884  1.00  0.00    -0.291 A  
HETATM   16  C   UNL     1      -9.287  10.617  63.999  1.00  0.00    -0.303 A  
HETATM   17  C   UNL     1     -10.979  12.291  63.689  1.00  0.00    -0.532 A  
HETATM   18  C   UNL     1      -9.932  11.528  63.178  1.00  0.00    -0.404 A  
HETATM   19  C   UNL     1      -9.687  10.473  65.330  1.00  0.00    -0.328 A  
HETATM   20  C   UNL     1     -11.385  12.145  65.026  1.00  0.00    -0.328 A  
HETATM   21 CL   UNL     1     -12.705  13.137  65.544  1.00  0.00    -0.474 Cl 
ENDBRANCH   1  15
TORSDOF 4
ENDMDL
MODEL       51
REMARK 921   NORMALIZED FREE ENERGY PREDICTED BY IDOCK:   -4.78 KCAL/MOL
REMARK 922        TOTAL FREE ENERGY PREDICTED BY IDOCK:   -6.43 KCAL/MOL
REMARK 923 INTER-LIGAND FREE ENERGY PREDICTED BY IDOCK:   -6.22 KCAL/MOL
REMARK 924 INTRA-LIGAND FREE ENERGY PREDICTED BY IDOCK:   -0.22 KCAL/MOL
REMARK 927      BINDING AFFINITY PREDICTED BY RF-SCORE:    0.00 PKD
ROOT
HETATM    1  C   UNL     1     -10.323  12.748  66.525  1.00  0.00    -0.251 C  
ENDROOT
BRANCH   1   2
HETATM    2  N   UNL     1     -10.752  12.384  67.918  1.00  0.00    -0.214 NA 
HETATM    3  S   UNL     1     -13.015  11.580  71.744  1.00  0.00    -0.284 SA 
HETATM    4  C   UNL     1     -12.231  11.778  70.252  1.00  0.00    -0.299 A  
HETATM    5  C   UNL     1     -13.250  13.269  71.893  1.00  0.00    -0.431 A  
HETATM    6  C   UNL     1     -11.716  10.637  69.446  1.00  0.00    -0.344 C  
HETATM    7  C   UNL     1     -11.492  11.104  67.991  1.00  0.00    -0.293 C  
HETATM    8  C   UNL     1     -11.514  13.498  68.541  1.00  0.00    -0.310 C  
HETATM    9  C   UNL     1     -12.720  13.962  70.825  1.00  0.00    -0.383 A  
HETATM   10  C   UNL     1     -12.117  13.094  69.860  1.00  0.00    -0.357 A  
ENDBRANCH   1   2
BRANCH   1  11
HETATM   11  C   UNL     1     -11.516  13.246  65.658  1.00  0.00    -0.318 C  
HETATM   12  O   UNL     1     -12.612  12.706  65.568  1.00  0.00    -0.634 OA 
BRANCH  11  13
HETATM   13  O   UNL     1     -11.218  14.444  65.065  1.00  0.00    -0.338 OA 
HETATM   14  C   UNL     1     -12.254  14.930  64.206  1.00  0.00    -0.344 C  
ENDBRANCH  11  13
ENDBRANCH   1  11
BRANCH   1  15
HETATM   15  C   UNL     1      -9.484  11.645  65.850  1.00  0.00    -0.246 A  
HETATM   16  C   UNL     1      -9.279   9.836  64.194  1.00  0.00    -0.277 A  
HETATM   17  C   UNL     1      -7.452  10.286  65.683  1.00  0.00    -0.149 A  
HETATM   18  C   UNL     1      -8.000   9.544  64.640  1.00  0.00    -0.128 A  
HETATM   19  C   UNL     1     -10.008  10.867  64.793  1.00  0.00    -0.366 A  
HETATM   20  C   UNL     1      -8.181  11.326  66.284  1.00  0.00    -0.126 A  
HETATM   21 CL   UNL     1      -7.391  12.186  67.560  1.00  0.00    -0.124 Cl 
ENDBRANCH   1  15
TORSDOF 4
ENDMDL
MODEL       52
REMARK 921   NORMALIZED FREE ENERGY PREDICTED BY IDOCK:   -4.78 KCAL/MOL
REMARK 922        TOTAL FREE ENERGY PREDICTED BY IDOCK:   -6.42 KCAL/MOL
REMARK 923 INTER-LIGAND FREE ENERGY PREDICTED BY IDOCK:   -6.18 KCAL/MOL
REMARK 924 INTRA-LIGAND FREE ENERGY PREDICTED BY IDOCK:   -0.24 KCAL/MOL
REMARK 927      BINDING AFFINITY PREDICTED BY RF-SCORE:    0.00 PKD
ROOT
HETATM    1  C   UNL     1     -10.543  11.822  65.904  1.00  0.00    -0.271 C  
ENDROOT
BRANCH   1   2
HETATM    2  N   UNL     1     -10.554  11.252  67.294  1.00  0.00    -0.221 NA 
HETATM    3  S   UNL     1     -11.615   9.323  71.239  1.00  0.00    -0.378 SA 
HETATM    4  C   UNL     1     -11.230   9.925  69.700  1.00  0.00    -0.208 A  
HETATM    5  C   UNL     1     -12.618  10.671  71.564  1.00  0.00    -0.412 A  
HETATM    6  C   UNL     1     -10.338   9.211  68.746  1.00  0.00    -0.235 C  
HETATM    7  C   UNL     1     -10.562   9.772  67.325  1.00  0.00    -0.255 C  
HETATM    8  C   UNL     1     -11.671  11.827  68.089  1.00  0.00    -0.307 C  
HETATM    9  C   UNL     1     -12.637  11.567  70.515  1.00  0.00    -0.286 A  
HETATM   10  C   UNL     1     -11.822  11.138  69.419  1.00  0.00    -0.415 A  
ENDBRANCH   1   2
BRANCH   1  11
HETATM   11  C   UNL     1      -9.573  11.048  64.964  1.00  0.00    -0.247 C  
HETATM   12  O   UNL     1      -8.378  10.862  65.162  1.00  0.00    -0.120 OA 
BRANCH  11  13
HETATM   13  O   UNL     1     -10.253  10.506  63.907  1.00  0.00    -0.303 OA 
HETATM   14  C   UNL     1      -9.409  10.139  62.812  1.00  0.00    -0.295 C  
ENDBRANCH  11  13
ENDBRANCH   1  11
BRANCH   1  15
HETATM   15  C   UNL     1     -10.337  13.350  65.887  1.00  0.00    -0.290 A  
HETATM   16  C   UNL     1     -10.921  15.568  64.994  1.00  0.00    -0.454 A  
HETATM   17  C   UNL     1      -9.139  15.368  66.590  1.00  0.00    -0.310 A  
HETATM   18  C   UNL     1      -9.931  16.160  65.761  1.00  0.00    -0.370 A  
HETATM   19  C   UNL     1     -11.117  14.186  65.055  1.00  0.00    -0.372 A  
HETATM   20  C   UNL     1      -9.337  13.979  66.655  1.00  0.00    -0.277 A  
HETATM   21 CL   UNL     1      -8.303  13.101  67.730  1.00  0.00    -0.157 Cl 
ENDBRANCH   1  15
TORSDOF 4
ENDMDL
MODEL       53
REMARK 921   NORMALIZED FREE ENERGY PREDICTED BY IDOCK:   -4.76 KCAL/MOL
REMARK 922        TOTAL FREE ENERGY PREDICTED BY IDOCK:   -6.41 KCAL/MOL
REMARK 923 INTER-LIGAND FREE ENERGY PREDICTED BY IDOCK:   -6.24 KCAL/MOL
REMARK 924 INTRA-LIGAND FREE ENERGY PREDICTED BY IDOCK:   -0.16 KCAL/MOL
REMARK 927      BINDING AFFINITY PREDICTED BY RF-SCORE:    0.00 PKD
ROOT
HETATM    1  C   UNL     1     -10.463  13.246  68.154  1.00  0.00    -0.245 C  
ENDROOT
BRANCH   1   2
HETATM    2  N   UNL     1     -10.899  11.974  68.823  1.00  0.00    -0.226 NA 
HETATM    3  S   UNL     1     -11.450   8.414  71.549  1.00  0.00    -0.297 SA 
HETATM    4  C   UNL     1     -11.292   9.828  70.625  1.00  0.00    -0.330 A  
HETATM    5  C   UNL     1      -9.911   7.861  71.044  1.00  0.00    -0.170 A  
HETATM    6  C   UNL     1     -12.333  10.892  70.583  1.00  0.00    -0.470 C  
HETATM    7  C   UNL     1     -11.702  12.197  70.047  1.00  0.00    -0.252 C  
HETATM    8  C   UNL     1      -9.733  11.089  69.082  1.00  0.00    -0.076 C  
HETATM    9  C   UNL     1      -9.305   8.741  70.171  1.00  0.00    -0.181 A  
HETATM   10  C   UNL     1     -10.111   9.896  69.918  1.00  0.00    -0.297 A  
ENDBRANCH   1   2
BRANCH   1  11
HETATM   11  C   UNL     1     -10.658  14.486  69.075  1.00  0.00    -0.247 C  
HETATM   12  O   UNL     1      -9.791  15.010  69.765  1.00  0.00    -0.149 OA 
BRANCH  11  13
HETATM   13  O   UNL     1     -11.924  14.991  68.946  1.00  0.00    -0.304 OA 
HETATM   14  C   UNL     1     -12.378  15.698  70.104  1.00  0.00    -0.336 C  
ENDBRANCH  11  13
ENDBRANCH   1  11
BRANCH   1  15
HETATM   15  C   UNL     1     -11.067  13.418  66.746  1.00  0.00    -0.308 A  
HETATM   16  C   UNL     1     -12.563  12.629  64.959  1.00  0.00    -0.504 A  
HETATM   17  C   UNL     1     -11.185  14.558  64.580  1.00  0.00    -0.359 A  
HETATM   18  C   UNL     1     -12.139  13.650  64.124  1.00  0.00    -0.484 A  
HETATM   19  C   UNL     1     -12.032  12.514  66.245  1.00  0.00    -0.410 A  
HETATM   20  C   UNL     1     -10.653  14.447  65.875  1.00  0.00    -0.307 A  
HETATM   21 CL   UNL     1      -9.487  15.639  66.335  1.00  0.00    -0.292 Cl 
ENDBRANCH   1  15
TORSDOF 4
ENDMDL
MODEL       54
REMARK 921   NORMALIZED FREE ENERGY PREDICTED BY IDOCK:   -4.75 KCAL/MOL
REMARK 922        TOTAL FREE ENERGY PREDICTED BY IDOCK:   -6.39 KCAL/MOL
REMARK 923 INTER-LIGAND FREE ENERGY PREDICTED BY IDOCK:   -5.86 KCAL/MOL
REMARK 924 INTRA-LIGAND FREE ENERGY PREDICTED BY IDOCK:   -0.53 KCAL/MOL
REMARK 927      BINDING AFFINITY PREDICTED BY RF-SCORE:    0.00 PKD
ROOT
HETATM    1  C   UNL     1     -10.392  12.041  67.101  1.00  0.00    -0.213 C  
ENDROOT
BRANCH   1   2
HETATM    2  N   UNL     1     -10.518  11.182  68.327  1.00  0.00    -0.182 NA 
HETATM    3  S   UNL     1     -11.910   8.485  71.673  1.00  0.00    -0.334 SA 
HETATM    4  C   UNL     1     -11.400   9.392  70.333  1.00  0.00    -0.248 A  
HETATM    5  C   UNL     1     -12.898   9.771  72.222  1.00  0.00    -0.295 A  
HETATM    6  C   UNL     1     -10.461   8.867  69.305  1.00  0.00    -0.234 C  
HETATM    7  C   UNL     1     -10.568   9.733  68.030  1.00  0.00    -0.243 C  
HETATM    8  C   UNL     1     -11.674  11.616  69.156  1.00  0.00    -0.326 C  
HETATM    9  C   UNL     1     -12.817  10.874  71.398  1.00  0.00    -0.554 A  
HETATM   10  C   UNL     1     -11.938  10.661  70.289  1.00  0.00    -0.425 A  
ENDBRANCH   1   2
BRANCH   1  11
HETATM   11  C   UNL     1      -9.353  11.468  66.092  1.00  0.00    -0.215 C  
HETATM   12  O   UNL     1      -8.169  11.256  66.325  1.00  0.00    -0.169 OA 
BRANCH  11  13
HETATM   13  O   UNL     1      -9.959  11.134  64.910  1.00  0.00    -0.241 OA 
HETATM   14  C   UNL     1      -9.071  10.535  63.963  1.00  0.00    -0.231 C  
ENDBRANCH  11  13
ENDBRANCH   1  11
BRANCH   1  15
HETATM   15  C   UNL     1     -10.179  13.531  67.433  1.00  0.00    -0.237 A  
HETATM   16  C   UNL     1      -8.918  15.294  68.598  1.00  0.00    -0.193 A  
HETATM   17  C   UNL     1     -10.873  15.878  67.335  1.00  0.00    -0.291 A  
HETATM   18  C   UNL     1      -9.802  16.258  68.140  1.00  0.00    -0.229 A  
HETATM   19  C   UNL     1      -9.107  13.954  68.252  1.00  0.00    -0.191 A  
HETATM   20  C   UNL     1     -11.063  14.532  66.983  1.00  0.00    -0.322 A  
HETATM   21 CL   UNL     1     -12.419  14.183  65.966  1.00  0.00    -0.486 Cl 
ENDBRANCH   1  15
TORSDOF 4
ENDMDL
MODEL       55
REMARK 921   NORMALIZED FREE ENERGY PREDICTED BY IDOCK:   -4.75 KCAL/MOL
REMARK 922        TOTAL FREE ENERGY PREDICTED BY IDOCK:   -6.38 KCAL/MOL
REMARK 923 INTER-LIGAND FREE ENERGY PREDICTED BY IDOCK:   -6.05 KCAL/MOL
REMARK 924 INTRA-LIGAND FREE ENERGY PREDICTED BY IDOCK:   -0.33 KCAL/MOL
REMARK 927      BINDING AFFINITY PREDICTED BY RF-SCORE:    0.00 PKD
ROOT
HETATM    1  C   UNL     1      -9.963  11.743  67.326  1.00  0.00    -0.192 C  
ENDROOT
BRANCH   1   2
HETATM    2  N   UNL     1     -10.510  10.624  68.165  1.00  0.00    -0.174 NA 
HETATM    3  S   UNL     1     -11.168   6.849  70.557  1.00  0.00    -0.327 SA 
HETATM    4  C   UNL     1     -10.837   8.307  69.757  1.00  0.00    -0.185 A  
HETATM    5  C   UNL     1     -11.056   5.969  69.093  1.00  0.00    -0.335 A  
HETATM    6  C   UNL     1     -10.746   9.618  70.457  1.00  0.00    -0.374 C  
HETATM    7  C   UNL     1      -9.999  10.624  69.555  1.00  0.00    -0.106 C  
HETATM    8  C   UNL     1     -10.294   9.313  67.498  1.00  0.00    -0.262 C  
HETATM    9  C   UNL     1     -10.787   6.788  68.016  1.00  0.00    -0.306 A  
HETATM   10  C   UNL     1     -10.660   8.162  68.397  1.00  0.00    -0.148 A  
ENDBRANCH   1   2
BRANCH   1  11
HETATM   11  C   UNL     1      -9.806  13.060  68.141  1.00  0.00    -0.228 C  
HETATM   12  O   UNL     1     -10.716  13.699  68.655  1.00  0.00    -0.247 OA 
BRANCH  11  13
HETATM   13  O   UNL     1      -8.483  13.377  68.298  1.00  0.00    -0.163 OA 
HETATM   14  C   UNL     1      -7.620  12.699  67.381  1.00  0.00    -0.150 C  
ENDBRANCH  11  13
ENDBRANCH   1  11
BRANCH   1  15
HETATM   15  C   UNL     1     -10.726  11.922  65.998  1.00  0.00    -0.326 A  
HETATM   16  C   UNL     1     -12.719  12.685  64.772  1.00  0.00    -0.460 A  
HETATM   17  C   UNL     1     -10.957  11.568  63.585  1.00  0.00    -0.482 A  
HETATM   18  C   UNL     1     -12.202  12.194  63.584  1.00  0.00    -0.663 A  
HETATM   19  C   UNL     1     -11.994  12.547  65.958  1.00  0.00    -0.456 A  
HETATM   20  C   UNL     1     -10.224  11.432  64.776  1.00  0.00    -0.286 A  
HETATM   21 CL   UNL     1      -8.686  10.650  64.650  1.00  0.00    -0.183 Cl 
ENDBRANCH   1  15
TORSDOF 4
ENDMDL
MODEL       56
REMARK 921   NORMALIZED FREE ENERGY PREDICTED BY IDOCK:   -4.74 KCAL/MOL
REMARK 922        TOTAL FREE ENERGY PREDICTED BY IDOCK:   -6.38 KCAL/MOL
REMARK 923 INTER-LIGAND FREE ENERGY PREDICTED BY IDOCK:   -6.19 KCAL/MOL
REMARK 924 INTRA-LIGAND FREE ENERGY PREDICTED BY IDOCK:   -0.19 KCAL/MOL
REMARK 927      BINDING AFFINITY PREDICTED BY RF-SCORE:    0.00 PKD
ROOT
HETATM    1  C   UNL     1     -10.062  10.172  68.708  1.00  0.00    -0.187 C  
ENDROOT
BRANCH   1   2
HETATM    2  N   UNL     1     -10.654  10.680  67.424  1.00  0.00    -0.238 NA 
HETATM    3  S   UNL     1     -11.785  13.046  63.746  1.00  0.00    -0.486 SA 
HETATM    4  C   UNL     1     -11.238  12.139  65.072  1.00  0.00    -0.322 A  
HETATM    5  C   UNL     1     -12.527  14.191  64.780  1.00  0.00    -0.373 A  
HETATM    6  C   UNL     1     -10.429  10.898  64.930  1.00  0.00    -0.352 C  
HETATM    7  C   UNL     1      -9.728  10.593  66.272  1.00  0.00    -0.199 C  
HETATM    8  C   UNL     1     -11.188  12.056  67.601  1.00  0.00    -0.282 C  
HETATM    9  C   UNL     1     -12.368  13.866  66.111  1.00  0.00    -0.504 A  
HETATM   10  C   UNL     1     -11.616  12.662  66.290  1.00  0.00    -0.440 A  
ENDBRANCH   1   2
BRANCH   1  11
HETATM   11  C   UNL     1      -8.542  10.491  68.815  1.00  0.00    -0.146 C  
HETATM   12  O   UNL     1      -8.025  11.589  68.644  1.00  0.00    -0.140 OA 
BRANCH  11  13
HETATM   13  O   UNL     1      -7.843   9.387  69.225  1.00  0.00    -0.078 OA 
HETATM   14  C   UNL     1      -7.050   9.614  70.394  1.00  0.00    -0.136 C  
ENDBRANCH  11  13
ENDBRANCH   1  11
BRANCH   1  15
HETATM   15  C   UNL     1     -10.407   8.695  68.982  1.00  0.00    -0.226 A  
HETATM   16  C   UNL     1     -10.847   6.420  68.152  1.00  0.00    -0.386 A  
HETATM   17  C   UNL     1     -11.052   6.882  70.499  1.00  0.00    -0.332 A  
HETATM   18  C   UNL     1     -11.126   5.983  69.437  1.00  0.00    -0.445 A  
HETATM   19  C   UNL     1     -10.497   7.755  67.931  1.00  0.00    -0.263 A  
HETATM   20  C   UNL     1     -10.696   8.223  70.278  1.00  0.00    -0.235 A  
HETATM   21 CL   UNL     1     -10.624   9.241  71.675  1.00  0.00    -0.418 Cl 
ENDBRANCH   1  15
TORSDOF 4
ENDMDL
MODEL       57
REMARK 921   NORMALIZED FREE ENERGY PREDICTED BY IDOCK:   -4.74 KCAL/MOL
REMARK 922        TOTAL FREE ENERGY PREDICTED BY IDOCK:   -6.37 KCAL/MOL
REMARK 923 INTER-LIGAND FREE ENERGY PREDICTED BY IDOCK:   -6.47 KCAL/MOL
REMARK 924 INTRA-LIGAND FREE ENERGY PREDICTED BY IDOCK:    0.09 KCAL/MOL
REMARK 927      BINDING AFFINITY PREDICTED BY RF-SCORE:    0.00 PKD
ROOT
HETATM    1  C   UNL     1     -12.032  10.797  70.050  1.00  0.00    -0.347 C  
ENDROOT
BRANCH   1   2
HETATM    2  N   UNL     1     -11.183  10.885  68.814  1.00  0.00    -0.247 NA 
HETATM    3  S   UNL     1      -9.372  10.482  64.694  1.00  0.00    -0.273 SA 
HETATM    4  C   UNL     1     -10.154  10.701  66.184  1.00  0.00    -0.249 A  
HETATM    5  C   UNL     1      -9.012   8.852  65.074  1.00  0.00    -0.108 A  
HETATM    6  C   UNL     1     -10.794  11.984  66.586  1.00  0.00    -0.311 C  
HETATM    7  C   UNL     1     -11.780  11.718  67.745  1.00  0.00    -0.267 C  
HETATM    8  C   UNL     1     -10.828   9.527  68.322  1.00  0.00    -0.145 C  
HETATM    9  C   UNL     1      -9.471   8.498  66.326  1.00  0.00    -0.299 A  
HETATM   10  C   UNL     1     -10.139   9.579  66.985  1.00  0.00    -0.297 A  
ENDBRANCH   1   2
BRANCH   1  11
HETATM   11  C   UNL     1     -12.208  12.183  70.735  1.00  0.00    -0.271 C  
HETATM   12  O   UNL     1     -11.700  13.236  70.368  1.00  0.00    -0.228 OA 
BRANCH  11  13
HETATM   13  O   UNL     1     -13.099  12.101  71.773  1.00  0.00    -0.438 OA 
HETATM   14  C   UNL     1     -13.529  13.376  72.259  1.00  0.00    -0.586 C  
ENDBRANCH  11  13
ENDBRANCH   1  11
BRANCH   1  15
HETATM   15  C   UNL     1     -11.575   9.682  71.011  1.00  0.00    -0.436 A  
HETATM   16  C   UNL     1      -9.768   8.447  72.136  1.00  0.00    -0.370 A  
HETATM   17  C   UNL     1     -12.044   7.753  72.446  1.00  0.00    -0.297 A  
HETATM   18  C   UNL     1     -10.687   7.584  72.710  1.00  0.00    -0.382 A  
HETATM   19  C   UNL     1     -10.207   9.476  71.298  1.00  0.00    -0.245 A  
HETATM   20  C   UNL     1     -12.488   8.789  71.608  1.00  0.00    -0.339 A  
HETATM   21 CL   UNL     1     -14.197   8.908  71.366  1.00  0.00    -0.332 Cl 
ENDBRANCH   1  15
TORSDOF 4
ENDMDL
MODEL       58
REMARK 921   NORMALIZED FREE ENERGY PREDICTED BY IDOCK:   -4.74 KCAL/MOL
REMARK 922        TOTAL FREE ENERGY PREDICTED BY IDOCK:   -6.37 KCAL/MOL
REMARK 923 INTER-LIGAND FREE ENERGY PREDICTED BY IDOCK:   -6.36 KCAL/MOL
REMARK 924 INTRA-LIGAND FREE ENERGY PREDICTED BY IDOCK:   -0.01 KCAL/MOL
REMARK 927      BINDING AFFINITY PREDICTED BY RF-SCORE:    0.00 PKD
ROOT
HETATM    1  C   UNL     1      -9.424  12.307  66.890  1.00  0.00    -0.217 C  
ENDROOT
BRANCH   1   2
HETATM    2  N   UNL     1      -9.938  11.559  68.087  1.00  0.00    -0.186 NA 
HETATM    3  S   UNL     1     -12.440   9.477  71.220  1.00  0.00    -0.351 SA 
HETATM    4  C   UNL     1     -11.533  10.159  69.959  1.00  0.00    -0.277 A  
HETATM    5  C   UNL     1     -13.073  11.008  71.651  1.00  0.00    -0.438 A  
HETATM    6  C   UNL     1     -10.669   9.355  69.051  1.00  0.00    -0.209 C  
HETATM    7  C   UNL     1     -10.369  10.176  67.778  1.00  0.00    -0.210 C  
HETATM    8  C   UNL     1     -11.011  12.330  68.769  1.00  0.00    -0.236 C  
HETATM    9  C   UNL     1     -12.580  12.016  70.849  1.00  0.00    -0.347 A  
HETATM   10  C   UNL     1     -11.673  11.526  69.856  1.00  0.00    -0.420 A  
ENDBRANCH   1   2
BRANCH   1  11
HETATM   11  C   UNL     1      -8.871  13.711  67.274  1.00  0.00    -0.224 C  
HETATM   12  O   UNL     1      -9.190  14.774  66.755  1.00  0.00    -0.233 OA 
BRANCH  11  13
HETATM   13  O   UNL     1      -8.033  13.623  68.353  1.00  0.00    -0.139 OA 
HETATM   14  C   UNL     1      -7.790  14.879  68.993  1.00  0.00    -0.165 C  
ENDBRANCH  11  13
ENDBRANCH   1  11
BRANCH   1  15
HETATM   15  C   UNL     1     -10.433  12.335  65.724  1.00  0.00    -0.287 A  
HETATM   16  C   UNL     1     -12.528  13.169  64.739  1.00  0.00    -0.460 A  
HETATM   17  C   UNL     1     -11.241  11.521  63.560  1.00  0.00    -0.412 A  
HETATM   18  C   UNL     1     -12.359  12.349  63.634  1.00  0.00    -0.647 A  
HETATM   19  C   UNL     1     -11.581  13.157  65.767  1.00  0.00    -0.383 A  
HETATM   20  C   UNL     1     -10.286  11.511  64.590  1.00  0.00    -0.297 A  
HETATM   21 CL   UNL     1      -8.934  10.452  64.379  1.00  0.00    -0.224 Cl 
ENDBRANCH   1  15
TORSDOF 4
ENDMDL
MODEL       59
REMARK 921   NORMALIZED FREE ENERGY PREDICTED BY IDOCK:   -4.73 KCAL/MOL
REMARK 922        TOTAL FREE ENERGY PREDICTED BY IDOCK:   -6.36 KCAL/MOL
REMARK 923 INTER-LIGAND FREE ENERGY PREDICTED BY IDOCK:   -6.00 KCAL/MOL
REMARK 924 INTRA-LIGAND FREE ENERGY PREDICTED BY IDOCK:   -0.35 KCAL/MOL
REMARK 927      BINDING AFFINITY PREDICTED BY RF-SCORE:    0.00 PKD
ROOT
HETATM    1  C   UNL     1      -9.668   9.908  66.782  1.00  0.00    -0.192 C  
ENDROOT
BRANCH   1   2
HETATM    2  N   UNL     1     -10.450   9.606  68.028  1.00  0.00    -0.216 NA 
HETATM    3  S   UNL     1     -11.861   8.297  72.115  1.00  0.00    -0.394 SA 
HETATM    4  C   UNL     1     -11.257   8.883  70.642  1.00  0.00    -0.266 A  
HETATM    5  C   UNL     1     -11.656   6.676  71.605  1.00  0.00    -0.304 A  
HETATM    6  C   UNL     1     -11.109  10.333  70.343  1.00  0.00    -0.391 C  
HETATM    7  C   UNL     1     -10.134  10.510  69.157  1.00  0.00    -0.224 C  
HETATM    8  C   UNL     1     -10.301   8.176  68.408  1.00  0.00    -0.199 C  
HETATM    9  C   UNL     1     -11.150   6.597  70.324  1.00  0.00    -0.379 A  
HETATM   10  C   UNL     1     -10.916   7.887  69.751  1.00  0.00    -0.148 A  
ENDBRANCH   1   2
BRANCH   1  11
HETATM   11  C   UNL     1      -8.206  10.340  67.101  1.00  0.00    -0.121 C  
HETATM   12  O   UNL     1      -7.288   9.589  67.408  1.00  0.00    -0.086 OA 
BRANCH  11  13
HETATM   13  O   UNL     1      -8.044  11.685  66.902  1.00  0.00    -0.158 OA 
HETATM   14  C   UNL     1      -6.743  12.162  67.259  1.00  0.00    -0.144 C  
ENDBRANCH  11  13
ENDBRANCH   1  11
BRANCH   1  15
HETATM   15  C   UNL     1     -10.406  10.872  65.832  1.00  0.00    -0.310 A  
HETATM   16  C   UNL     1     -12.100  12.619  65.464  1.00  0.00    -0.515 A  
HETATM   17  C   UNL     1     -10.889  11.734  63.590  1.00  0.00    -0.508 A  
HETATM   18  C   UNL     1     -11.850  12.603  64.101  1.00  0.00    -0.483 A  
HETATM   19  C   UNL     1     -11.392  11.764  66.313  1.00  0.00    -0.350 A  
HETATM   20  C   UNL     1     -10.173  10.877  64.442  1.00  0.00    -0.358 A  
HETATM   21 CL   UNL     1      -8.995   9.854  63.695  1.00  0.00    -0.256 Cl 
ENDBRANCH   1  15
TORSDOF 4
ENDMDL
MODEL       60
REMARK 921   NORMALIZED FREE ENERGY PREDICTED BY IDOCK:   -4.71 KCAL/MOL
REMARK 922        TOTAL FREE ENERGY PREDICTED BY IDOCK:   -6.33 KCAL/MOL
REMARK 923 INTER-LIGAND FREE ENERGY PREDICTED BY IDOCK:   -7.09 KCAL/MOL
REMARK 924 INTRA-LIGAND FREE ENERGY PREDICTED BY IDOCK:    0.75 KCAL/MOL
REMARK 927      BINDING AFFINITY PREDICTED BY RF-SCORE:    0.00 PKD
ROOT
HETATM    1  C   UNL     1     -10.449  15.760  67.718  1.00  0.00    -0.283 C  
ENDROOT
BRANCH   1   2
HETATM    2  N   UNL     1     -10.920  15.018  66.499  1.00  0.00    -0.325 NA 
HETATM    3  S   UNL     1     -12.151  11.921  63.449  1.00  0.00    -0.313 SA 
HETATM    4  C   UNL     1     -11.798  13.049  64.666  1.00  0.00    -0.372 A  
HETATM    5  C   UNL     1     -10.511  11.438  63.361  1.00  0.00    -0.390 A  
HETATM    6  C   UNL     1     -12.833  13.907  65.305  1.00  0.00    -0.437 C  
HETATM    7  C   UNL     1     -12.283  14.457  66.640  1.00  0.00    -0.311 C  
HETATM    8  C   UNL     1      -9.934  13.978  66.104  1.00  0.00    -0.312 C  
HETATM    9  C   UNL     1      -9.715  12.146  64.238  1.00  0.00    -0.076 A  
HETATM   10  C   UNL     1     -10.463  13.095  65.004  1.00  0.00    -0.358 A  
ENDBRANCH   1   2
BRANCH   1  11
HETATM   11  C   UNL     1     -11.297  15.411  68.976  1.00  0.00    -0.316 C  
HETATM   12  O   UNL     1     -12.221  16.079  69.426  1.00  0.00    -0.231 OA 
BRANCH  11  13
HETATM   13  O   UNL     1     -10.937  14.190  69.480  1.00  0.00    -0.224 OA 
HETATM   14  C   UNL     1     -12.006  13.508  70.142  1.00  0.00    -0.329 C  
ENDBRANCH  11  13
ENDBRANCH   1  11
BRANCH   1  15
HETATM   15  C   UNL     1     -10.295  17.274  67.473  1.00  0.00    -0.346 A  
HETATM   16  C   UNL     1      -9.832  19.534  68.329  1.00  0.00    -0.512 A  
HETATM   17  C   UNL     1     -10.442  19.245  66.025  1.00  0.00    -0.573 A  
HETATM   18  C   UNL     1     -10.084  20.081  67.081  1.00  0.00    -0.587 A  
HETATM   19  C   UNL     1      -9.939  18.154  68.520  1.00  0.00    -0.408 A  
HETATM   20  C   UNL     1     -10.546  17.857  66.215  1.00  0.00    -0.240 A  
HETATM   21 CL   UNL     1     -10.983  16.920  64.827  1.00  0.00    -0.145 Cl 
ENDBRANCH   1  15
TORSDOF 4
ENDMDL
MODEL       61
REMARK 921   NORMALIZED FREE ENERGY PREDICTED BY IDOCK:   -4.68 KCAL/MOL
REMARK 922        TOTAL FREE ENERGY PREDICTED BY IDOCK:   -6.30 KCAL/MOL
REMARK 923 INTER-LIGAND FREE ENERGY PREDICTED BY IDOCK:   -6.48 KCAL/MOL
REMARK 924 INTRA-LIGAND FREE ENERGY PREDICTED BY IDOCK:    0.18 KCAL/MOL
REMARK 927      BINDING AFFINITY PREDICTED BY RF-SCORE:    0.00 PKD
ROOT
HETATM    1  C   UNL     1     -10.271  10.645  69.437  1.00  0.00    -0.192 C  
ENDROOT
BRANCH   1   2
HETATM    2  N   UNL     1     -10.761  10.814  68.027  1.00  0.00    -0.209 NA 
HETATM    3  S   UNL     1     -11.530  12.136  63.776  1.00  0.00    -0.500 SA 
HETATM    4  C   UNL     1     -11.119  11.599  65.332  1.00  0.00    -0.239 A  
HETATM    5  C   UNL     1     -12.226  13.567  64.407  1.00  0.00    -0.390 A  
HETATM    6  C   UNL     1     -10.404  10.319  65.588  1.00  0.00    -0.232 C  
HETATM    7  C   UNL     1      -9.793  10.354  67.006  1.00  0.00    -0.191 C  
HETATM    8  C   UNL     1     -11.193  12.217  67.785  1.00  0.00    -0.275 C  
HETATM    9  C   UNL     1     -12.156  13.614  65.784  1.00  0.00    -0.463 A  
HETATM   10  C   UNL     1     -11.510  12.461  66.334  1.00  0.00    -0.427 A  
ENDBRANCH   1   2
BRANCH   1  11
HETATM   11  C   UNL     1      -8.884   9.941  69.491  1.00  0.00    -0.197 C  
HETATM   12  O   UNL     1      -8.688   8.735  69.407  1.00  0.00    -0.137 OA 
BRANCH  11  13
HETATM   13  O   UNL     1      -7.874  10.864  69.552  1.00  0.00    -0.095 OA 
HETATM   14  C   UNL     1      -6.733  10.416  70.290  1.00  0.00    -0.138 C  
ENDBRANCH  11  13
ENDBRANCH   1  11
BRANCH   1  15
HETATM   15  C   UNL     1     -11.326  10.010  70.365  1.00  0.00    -0.392 A  
HETATM   16  C   UNL     1     -12.358   8.013  71.365  1.00  0.00    -0.328 A  
HETATM   17  C   UNL     1     -13.286  10.178  71.825  1.00  0.00    -0.542 A  
HETATM   18  C   UNL     1     -13.310   8.796  71.998  1.00  0.00    -0.455 A  
HETATM   19  C   UNL     1     -11.386   8.612  70.559  1.00  0.00    -0.241 A  
HETATM   20  C   UNL     1     -12.307  10.782  71.020  1.00  0.00    -0.404 A  
HETATM   21 CL   UNL     1     -12.369  12.507  70.893  1.00  0.00    -0.431 Cl 
ENDBRANCH   1  15
TORSDOF 4
ENDMDL
MODEL       62
REMARK 921   NORMALIZED FREE ENERGY PREDICTED BY IDOCK:   -4.67 KCAL/MOL
REMARK 922        TOTAL FREE ENERGY PREDICTED BY IDOCK:   -6.29 KCAL/MOL
REMARK 923 INTER-LIGAND FREE ENERGY PREDICTED BY IDOCK:   -6.13 KCAL/MOL
REMARK 924 INTRA-LIGAND FREE ENERGY PREDICTED BY IDOCK:   -0.16 KCAL/MOL
REMARK 927      BINDING AFFINITY PREDICTED BY RF-SCORE:    0.00 PKD
ROOT
HETATM    1  C   UNL     1     -11.262  15.220  67.220  1.00  0.00    -0.306 C  
ENDROOT
BRANCH   1   2
HETATM    2  N   UNL     1     -10.320  16.388  67.147  1.00  0.00    -0.288 NA 
HETATM    3  S   UNL     1      -7.237  19.473  65.971  1.00  0.00    -0.299 SA 
HETATM    4  C   UNL     1      -8.473  18.363  66.314  1.00  0.00    -0.196 A  
HETATM    5  C   UNL     1      -6.042  18.258  66.132  1.00  0.00    -0.200 A  
HETATM    6  C   UNL     1      -9.915  18.732  66.335  1.00  0.00    -0.426 C  
HETATM    7  C   UNL     1     -10.769  17.451  66.219  1.00  0.00    -0.082 C  
HETATM    8  C   UNL     1      -8.940  15.931  66.836  1.00  0.00    -0.231 C  
HETATM    9  C   UNL     1      -6.589  17.034  66.459  1.00  0.00    -0.254 A  
HETATM   10  C   UNL     1      -8.015  17.089  66.571  1.00  0.00    -0.330 A  
ENDBRANCH   1   2
BRANCH   1  11
HETATM   11  C   UNL     1     -11.637  14.864  68.688  1.00  0.00    -0.318 C  
HETATM   12  O   UNL     1     -12.278  13.883  69.047  1.00  0.00    -0.350 OA 
BRANCH  11  13
HETATM   13  O   UNL     1     -11.071  15.753  69.562  1.00  0.00    -0.258 OA 
HETATM   14  C   UNL     1     -11.324  15.445  70.935  1.00  0.00    -0.359 C  
ENDBRANCH  11  13
ENDBRANCH   1  11
BRANCH   1  15
HETATM   15  C   UNL     1     -10.781  14.011  66.391  1.00  0.00    -0.278 A  
HETATM   16  C   UNL     1      -9.413  11.977  66.189  1.00  0.00    -0.241 A  
HETATM   17  C   UNL     1     -10.677  12.743  64.298  1.00  0.00    -0.419 A  
HETATM   18  C   UNL     1      -9.804  11.819  64.869  1.00  0.00    -0.251 A  
HETATM   19  C   UNL     1      -9.891  13.057  66.934  1.00  0.00    -0.240 A  
HETATM   20  C   UNL     1     -11.163  13.827  65.047  1.00  0.00    -0.335 A  
HETATM   21 CL   UNL     1     -12.251  14.900  64.235  1.00  0.00    -0.472 Cl 
ENDBRANCH   1  15
TORSDOF 4
ENDMDL
MODEL       63
REMARK 921   NORMALIZED FREE ENERGY PREDICTED BY IDOCK:   -4.67 KCAL/MOL
REMARK 922        TOTAL FREE ENERGY PREDICTED BY IDOCK:   -6.29 KCAL/MOL
REMARK 923 INTER-LIGAND FREE ENERGY PREDICTED BY IDOCK:   -6.09 KCAL/MOL
REMARK 924 INTRA-LIGAND FREE ENERGY PREDICTED BY IDOCK:   -0.20 KCAL/MOL
REMARK 927      BINDING AFFINITY PREDICTED BY RF-SCORE:    0.00 PKD
ROOT
HETATM    1  C   UNL     1      -9.135  14.169  67.384  1.00  0.00    -0.198 C  
ENDROOT
BRANCH   1   2
HETATM    2  N   UNL     1      -8.797  15.628  67.259  1.00  0.00    -0.189 NA 
HETATM    3  S   UNL     1      -8.693  20.140  67.442  1.00  0.00    -0.338 SA 
HETATM    4  C   UNL     1      -8.709  18.445  67.507  1.00  0.00    -0.258 A  
HETATM    5  C   UNL     1     -10.055  20.157  66.406  1.00  0.00    -0.445 A  
HETATM    6  C   UNL     1      -7.737  17.652  68.307  1.00  0.00    -0.253 C  
HETATM    7  C   UNL     1      -8.294  16.227  68.516  1.00  0.00    -0.204 C  
HETATM    8  C   UNL     1      -9.949  16.389  66.708  1.00  0.00    -0.272 C  
HETATM    9  C   UNL     1     -10.495  18.884  66.108  1.00  0.00    -0.521 A  
HETATM   10  C   UNL     1      -9.708  17.874  66.747  1.00  0.00    -0.314 A  
ENDBRANCH   1   2
BRANCH   1  11
HETATM   11  C   UNL     1      -7.863  13.272  67.364  1.00  0.00    -0.153 C  
HETATM   12  O   UNL     1      -6.714  13.661  67.192  1.00  0.00    -0.164 OA 
BRANCH  11  13
HETATM   13  O   UNL     1      -8.180  11.974  67.662  1.00  0.00    -0.138 OA 
HETATM   14  C   UNL     1      -7.536  11.484  68.841  1.00  0.00    -0.106 C  
ENDBRANCH  11  13
ENDBRANCH   1  11
BRANCH   1  15
HETATM   15  C   UNL     1     -10.227  13.721  66.392  1.00  0.00    -0.292 A  
HETATM   16  C   UNL     1     -10.896  13.052  64.121  1.00  0.00    -0.433 A  
HETATM   17  C   UNL     1     -12.568  13.269  65.829  1.00  0.00    -0.413 A  
HETATM   18  C   UNL     1     -12.223  12.977  64.512  1.00  0.00    -0.476 A  
HETATM   19  C   UNL     1      -9.917  13.422  65.046  1.00  0.00    -0.179 A  
HETATM   20  C   UNL     1     -11.584  13.637  66.762  1.00  0.00    -0.364 A  
HETATM   21 CL   UNL     1     -12.130  13.962  68.372  1.00  0.00    -0.385 Cl 
ENDBRANCH   1  15
TORSDOF 4
ENDMDL
MODEL       64
REMARK 921   NORMALIZED FREE ENERGY PREDICTED BY IDOCK:   -4.64 KCAL/MOL
REMARK 922        TOTAL FREE ENERGY PREDICTED BY IDOCK:   -6.26 KCAL/MOL
REMARK 923 INTER-LIGAND FREE ENERGY PREDICTED BY IDOCK:   -6.02 KCAL/MOL
REMARK 924 INTRA-LIGAND FREE ENERGY PREDICTED BY IDOCK:   -0.24 KCAL/MOL
REMARK 927      BINDING AFFINITY PREDICTED BY RF-SCORE:    0.00 PKD
ROOT
HETATM    1  C   UNL     1     -10.404   6.871  71.883  1.00  0.00    -0.189 C  
ENDROOT
BRANCH   1   2
HETATM    2  N   UNL     1     -10.343   5.903  70.736  1.00  0.00    -0.220 NA 
HETATM    3  S   UNL     1      -9.516   3.741  66.857  1.00  0.00    -0.175 SA 
HETATM    4  C   UNL     1      -9.697   4.532  68.346  1.00  0.00    -0.122 A  
HETATM    5  C   UNL     1     -10.427   4.949  66.055  1.00  0.00    -0.283 A  
HETATM    6  C   UNL     1      -9.101   4.028  69.614  1.00  0.00    -0.186 C  
HETATM    7  C   UNL     1      -9.056   5.176  70.646  1.00  0.00    -0.141 C  
HETATM    8  C   UNL     1     -10.684   6.581  69.458  1.00  0.00    -0.270 C  
HETATM    9  C   UNL     1     -10.870   5.925  66.924  1.00  0.00    -0.376 A  
HETATM   10  C   UNL     1     -10.449   5.685  68.271  1.00  0.00    -0.257 A  
ENDBRANCH   1   2
BRANCH   1  11
HETATM   11  C   UNL     1     -10.755   6.164  73.225  1.00  0.00    -0.260 C  
HETATM   12  O   UNL     1     -10.402   6.527  74.341  1.00  0.00    -0.346 OA 
BRANCH  11  13
HETATM   13  O   UNL     1     -11.604   5.112  73.011  1.00  0.00    -0.320 OA 
HETATM   14  C   UNL     1     -11.122   3.872  73.535  1.00  0.00    -0.249 C  
ENDBRANCH  11  13
ENDBRANCH   1  11
BRANCH   1  15
HETATM   15  C   UNL     1     -11.283   8.101  71.581  1.00  0.00    -0.314 A  
HETATM   16  C   UNL     1     -13.500   9.166  71.498  1.00  0.00    -0.417 A  
HETATM   17  C   UNL     1     -11.578  10.376  70.720  1.00  0.00    -0.450 A  
HETATM   18  C   UNL     1     -12.949  10.317  70.956  1.00  0.00    -0.488 A  
HETATM   19  C   UNL     1     -12.679   8.077  71.801  1.00  0.00    -0.352 A  
HETATM   20  C   UNL     1     -10.751   9.283  71.028  1.00  0.00    -0.316 A  
HETATM   21 CL   UNL     1      -9.062   9.478  70.705  1.00  0.00    -0.285 Cl 
ENDBRANCH   1  15
TORSDOF 4
ENDMDL
MODEL       65
REMARK 921   NORMALIZED FREE ENERGY PREDICTED BY IDOCK:   -4.63 KCAL/MOL
REMARK 922        TOTAL FREE ENERGY PREDICTED BY IDOCK:   -6.23 KCAL/MOL
REMARK 923 INTER-LIGAND FREE ENERGY PREDICTED BY IDOCK:   -6.07 KCAL/MOL
REMARK 924 INTRA-LIGAND FREE ENERGY PREDICTED BY IDOCK:   -0.17 KCAL/MOL
REMARK 927      BINDING AFFINITY PREDICTED BY RF-SCORE:    0.00 PKD
ROOT
HETATM    1  C   UNL     1      -9.340  11.299  66.761  1.00  0.00    -0.177 C  
ENDROOT
BRANCH   1   2
HETATM    2  N   UNL     1      -9.897  10.409  67.836  1.00  0.00    -0.152 NA 
HETATM    3  S   UNL     1     -10.773   7.080  70.761  1.00  0.00    -0.234 SA 
HETATM    4  C   UNL     1     -10.331   8.354  69.732  1.00  0.00    -0.216 A  
HETATM    5  C   UNL     1     -11.246   6.112  69.430  1.00  0.00    -0.396 A  
HETATM    6  C   UNL     1      -9.764   9.639  70.225  1.00  0.00    -0.314 C  
HETATM    7  C   UNL     1      -9.061  10.366  69.057  1.00  0.00    -0.187 C  
HETATM    8  C   UNL     1     -10.167   9.048  67.303  1.00  0.00    -0.256 C  
HETATM    9  C   UNL     1     -11.080   6.768  68.228  1.00  0.00    -0.222 A  
HETATM   10  C   UNL     1     -10.547   8.085  68.397  1.00  0.00    -0.150 A  
ENDBRANCH   1   2
BRANCH   1  11
HETATM   11  C   UNL     1      -8.578  12.521  67.352  1.00  0.00    -0.187 C  
HETATM   12  O   UNL     1      -9.069  13.409  68.038  1.00  0.00    -0.190 OA 
BRANCH  11  13
HETATM   13  O   UNL     1      -7.238  12.432  67.084  1.00  0.00    -0.141 OA 
HETATM   14  C   UNL     1      -6.447  13.386  67.798  1.00  0.00    -0.162 C  
ENDBRANCH  11  13
ENDBRANCH   1  11
BRANCH   1  15
HETATM   15  C   UNL     1     -10.388  11.677  65.696  1.00  0.00    -0.306 A  
HETATM   16  C   UNL     1     -11.078  11.808  63.337  1.00  0.00    -0.448 A  
HETATM   17  C   UNL     1     -12.518  12.696  65.039  1.00  0.00    -0.556 A  
HETATM   18  C   UNL     1     -12.258  12.439  63.695  1.00  0.00    -0.653 A  
HETATM   19  C   UNL     1     -10.158  11.438  64.322  1.00  0.00    -0.347 A  
HETATM   20  C   UNL     1     -11.597  12.321  66.031  1.00  0.00    -0.393 A  
HETATM   21 CL   UNL     1     -12.035  12.679  67.667  1.00  0.00    -0.380 Cl 
ENDBRANCH   1  15
TORSDOF 4
ENDMDL
MODEL       66
REMARK 921   NORMALIZED FREE ENERGY PREDICTED BY IDOCK:   -4.61 KCAL/MOL
REMARK 922        TOTAL FREE ENERGY PREDICTED BY IDOCK:   -6.21 KCAL/MOL
REMARK 923 INTER-LIGAND FREE ENERGY PREDICTED BY IDOCK:   -5.85 KCAL/MOL
REMARK 924 INTRA-LIGAND FREE ENERGY PREDICTED BY IDOCK:   -0.36 KCAL/MOL
REMARK 927      BINDING AFFINITY PREDICTED BY RF-SCORE:    0.00 PKD
ROOT
HETATM    1  C   UNL     1     -10.623   9.869  69.268  1.00  0.00    -0.224 C  
ENDROOT
BRANCH   1   2
HETATM    2  N   UNL     1     -11.272  10.851  70.201  1.00  0.00    -0.274 NA 
HETATM    3  S   UNL     1     -13.892  13.956  72.177  1.00  0.00    -0.568 SA 
HETATM    4  C   UNL     1     -13.014  12.705  71.440  1.00  0.00    -0.258 A  
HETATM    5  C   UNL     1     -13.261  15.106  71.078  1.00  0.00    -0.450 A  
HETATM    6  C   UNL     1     -13.084  11.288  71.888  1.00  0.00    -0.510 C  
HETATM    7  C   UNL     1     -12.556  10.372  70.761  1.00  0.00    -0.371 C  
HETATM    8  C   UNL     1     -11.415  12.179  69.549  1.00  0.00    -0.265 C  
HETATM    9  C   UNL     1     -12.382  14.536  70.179  1.00  0.00    -0.398 A  
HETATM   10  C   UNL     1     -12.230  13.128  70.388  1.00  0.00    -0.389 A  
ENDBRANCH   1   2
BRANCH   1  11
HETATM   11  C   UNL     1     -10.427   8.475  69.932  1.00  0.00    -0.219 C  
HETATM   12  O   UNL     1     -10.087   8.274  71.092  1.00  0.00    -0.183 OA 
BRANCH  11  13
HETATM   13  O   UNL     1     -10.781   7.473  69.069  1.00  0.00    -0.207 OA 
HETATM   14  C   UNL     1     -11.276   6.301  69.724  1.00  0.00    -0.430 C  
ENDBRANCH  11  13
ENDBRANCH   1  11
BRANCH   1  15
HETATM   15  C   UNL     1      -9.346  10.426  68.607  1.00  0.00    -0.167 A  
HETATM   16  C   UNL     1      -6.966  11.035  68.749  1.00  0.00    -0.081 A  
HETATM   17  C   UNL     1      -8.180  11.477  66.726  1.00  0.00    -0.164 A  
HETATM   18  C   UNL     1      -6.993  11.526  67.453  1.00  0.00    -0.111 A  
HETATM   19  C   UNL     1      -8.125  10.498  69.315  1.00  0.00    -0.152 A  
HETATM   20  C   UNL     1      -9.345  10.933  67.292  1.00  0.00    -0.155 A  
HETATM   21 CL   UNL     1     -10.754  10.913  66.288  1.00  0.00    -0.278 Cl 
ENDBRANCH   1  15
TORSDOF 4
ENDMDL
MODEL       67
REMARK 921   NORMALIZED FREE ENERGY PREDICTED BY IDOCK:   -4.59 KCAL/MOL
REMARK 922        TOTAL FREE ENERGY PREDICTED BY IDOCK:   -6.20 KCAL/MOL
REMARK 923 INTER-LIGAND FREE ENERGY PREDICTED BY IDOCK:   -6.25 KCAL/MOL
REMARK 924 INTRA-LIGAND FREE ENERGY PREDICTED BY IDOCK:    0.05 KCAL/MOL
REMARK 927      BINDING AFFINITY PREDICTED BY RF-SCORE:    0.00 PKD
ROOT
HETATM    1  C   UNL     1     -11.412  13.563  67.424  1.00  0.00    -0.336 C  
ENDROOT
BRANCH   1   2
HETATM    2  N   UNL     1     -11.827  12.524  68.427  1.00  0.00    -0.327 NA 
HETATM    3  S   UNL     1     -12.030   9.422  71.704  1.00  0.00    -0.401 SA 
HETATM    4  C   UNL     1     -11.928  10.678  70.569  1.00  0.00    -0.352 A  
HETATM    5  C   UNL     1     -11.117   8.380  70.698  1.00  0.00    -0.256 A  
HETATM    6  C   UNL     1     -12.529  12.023  70.788  1.00  0.00    -0.372 C  
HETATM    7  C   UNL     1     -11.880  13.033  69.816  1.00  0.00    -0.311 C  
HETATM    8  C   UNL     1     -10.970  11.314  68.315  1.00  0.00    -0.224 C  
HETATM    9  C   UNL     1     -10.762   8.988  69.511  1.00  0.00    -0.215 A  
HETATM   10  C   UNL     1     -11.237  10.335  69.427  1.00  0.00    -0.292 A  
ENDBRANCH   1   2
BRANCH   1  11
HETATM   11  C   UNL     1     -11.647  13.087  65.960  1.00  0.00    -0.365 C  
HETATM   12  O   UNL     1     -12.632  12.483  65.552  1.00  0.00    -0.642 OA 
BRANCH  11  13
HETATM   13  O   UNL     1     -10.637  13.519  65.143  1.00  0.00    -0.319 OA 
HETATM   14  C   UNL     1     -10.466  12.714  63.972  1.00  0.00    -0.416 C  
ENDBRANCH  11  13
ENDBRANCH   1  11
BRANCH   1  15
HETATM   15  C   UNL     1      -9.992  14.107  67.680  1.00  0.00    -0.233 A  
HETATM   16  C   UNL     1      -7.574  13.721  67.917  1.00  0.00    -0.157 A  
HETATM   17  C   UNL     1      -8.459  15.923  68.274  1.00  0.00    -0.170 A  
HETATM   18  C   UNL     1      -7.371  15.055  68.231  1.00  0.00    -0.111 A  
HETATM   19  C   UNL     1      -8.864  13.256  67.651  1.00  0.00    -0.200 A  
HETATM   20  C   UNL     1      -9.757  15.459  68.002  1.00  0.00    -0.207 A  
HETATM   21 CL   UNL     1     -11.027  16.632  68.072  1.00  0.00    -0.343 Cl 
ENDBRANCH   1  15
TORSDOF 4
ENDMDL
MODEL       68
REMARK 921   NORMALIZED FREE ENERGY PREDICTED BY IDOCK:   -4.59 KCAL/MOL
REMARK 922        TOTAL FREE ENERGY PREDICTED BY IDOCK:   -6.18 KCAL/MOL
REMARK 923 INTER-LIGAND FREE ENERGY PREDICTED BY IDOCK:   -6.62 KCAL/MOL
REMARK 924 INTRA-LIGAND FREE ENERGY PREDICTED BY IDOCK:    0.44 KCAL/MOL
REMARK 927      BINDING AFFINITY PREDICTED BY RF-SCORE:    0.00 PKD
ROOT
HETATM    1  C   UNL     1     -12.073  13.610  67.115  1.00  0.00    -0.362 C  
ENDROOT
BRANCH   1   2
HETATM    2  N   UNL     1     -11.290  12.407  67.560  1.00  0.00    -0.294 NA 
HETATM    3  S   UNL     1      -8.621   9.449  69.689  1.00  0.00    -0.185 SA 
HETATM    4  C   UNL     1      -9.706  10.554  68.996  1.00  0.00    -0.210 A  
HETATM    5  C   UNL     1      -7.280  10.398  69.206  1.00  0.00    -0.100 A  
HETATM    6  C   UNL     1     -11.184  10.382  69.045  1.00  0.00    -0.289 C  
HETATM    7  C   UNL     1     -11.863  11.737  68.750  1.00  0.00    -0.320 C  
HETATM    8  C   UNL     1      -9.859  12.756  67.759  1.00  0.00    -0.220 C  
HETATM    9  C   UNL     1      -7.667  11.527  68.513  1.00  0.00    -0.134 A  
HETATM   10  C   UNL     1      -9.089  11.623  68.383  1.00  0.00    -0.180 A  
ENDBRANCH   1   2
BRANCH   1  11
HETATM   11  C   UNL     1     -12.673  13.421  65.691  1.00  0.00    -0.370 C  
HETATM   12  O   UNL     1     -13.250  14.281  65.036  1.00  0.00    -0.638 OA 
BRANCH  11  13
HETATM   13  O   UNL     1     -12.389  12.172  65.207  1.00  0.00    -0.513 OA 
HETATM   14  C   UNL     1     -12.527  12.064  63.788  1.00  0.00    -0.485 C  
ENDBRANCH  11  13
ENDBRANCH   1  11
BRANCH   1  15
HETATM   15  C   UNL     1     -11.294  14.929  67.291  1.00  0.00    -0.355 A  
HETATM   16  C   UNL     1     -10.765  16.928  68.624  1.00  0.00    -0.345 A  
HETATM   17  C   UNL     1      -9.786  16.666  66.447  1.00  0.00    -0.308 A  
HETATM   18  C   UNL     1      -9.942  17.407  67.616  1.00  0.00    -0.300 A  
HETATM   19  C   UNL     1     -11.431  15.712  68.460  1.00  0.00    -0.380 A  
HETATM   20  C   UNL     1     -10.452  15.440  66.283  1.00  0.00    -0.303 A  
HETATM   21 CL   UNL     1     -10.170  14.602  64.796  1.00  0.00    -0.332 Cl 
ENDBRANCH   1  15
TORSDOF 4
ENDMDL
MODEL       69
REMARK 921   NORMALIZED FREE ENERGY PREDICTED BY IDOCK:   -4.55 KCAL/MOL
REMARK 922        TOTAL FREE ENERGY PREDICTED BY IDOCK:   -6.14 KCAL/MOL
REMARK 923 INTER-LIGAND FREE ENERGY PREDICTED BY IDOCK:   -5.62 KCAL/MOL
REMARK 924 INTRA-LIGAND FREE ENERGY PREDICTED BY IDOCK:   -0.53 KCAL/MOL
REMARK 927      BINDING AFFINITY PREDICTED BY RF-SCORE:    0.00 PKD
ROOT
HETATM    1  C   UNL     1     -10.768   8.920  69.435  1.00  0.00    -0.181 C  
ENDROOT
BRANCH   1   2
HETATM    2  N   UNL     1     -10.818  10.364  69.024  1.00  0.00    -0.220 NA 
HETATM    3  S   UNL     1     -11.938  14.431  67.408  1.00  0.00    -0.309 SA 
HETATM    4  C   UNL     1     -11.614  12.920  68.108  1.00  0.00    -0.336 A  
HETATM    5  C   UNL     1     -11.821  13.775  65.831  1.00  0.00    -0.383 A  
HETATM    6  C   UNL     1     -11.570  12.698  69.579  1.00  0.00    -0.348 C  
HETATM    7  C   UNL     1     -11.713  11.187  69.868  1.00  0.00    -0.355 C  
HETATM    8  C   UNL     1     -11.153  10.488  67.581  1.00  0.00    -0.309 C  
HETATM    9  C   UNL     1     -11.522  12.428  65.852  1.00  0.00    -0.422 A  
HETATM   10  C   UNL     1     -11.396  11.920  67.184  1.00  0.00    -0.393 A  
ENDBRANCH   1   2
BRANCH   1  11
HETATM   11  C   UNL     1     -11.046   8.737  70.956  1.00  0.00    -0.270 C  
HETATM   12  O   UNL     1     -10.321   9.114  71.868  1.00  0.00    -0.335 OA 
BRANCH  11  13
HETATM   13  O   UNL     1     -12.277   8.171  71.159  1.00  0.00    -0.300 OA 
HETATM   14  C   UNL     1     -12.217   6.796  71.549  1.00  0.00    -0.366 C  
ENDBRANCH  11  13
ENDBRANCH   1  11
BRANCH   1  15
HETATM   15  C   UNL     1      -9.494   8.203  68.946  1.00  0.00    -0.151 A  
HETATM   16  C   UNL     1      -7.049   8.157  68.668  1.00  0.00    -0.072 A  
HETATM   17  C   UNL     1      -8.374   6.368  67.771  1.00  0.00    -0.118 A  
HETATM   18  C   UNL     1      -7.129   6.955  67.983  1.00  0.00    -0.086 A  
HETATM   19  C   UNL     1      -8.213   8.770  69.137  1.00  0.00    -0.119 A  
HETATM   20  C   UNL     1      -9.545   6.981  68.246  1.00  0.00    -0.134 A  
HETATM   21 CL   UNL     1     -11.032   6.151  67.934  1.00  0.00    -0.410 Cl 
ENDBRANCH   1  15
TORSDOF 4
ENDMDL
MODEL       70
REMARK 921   NORMALIZED FREE ENERGY PREDICTED BY IDOCK:   -4.55 KCAL/MOL
REMARK 922        TOTAL FREE ENERGY PREDICTED BY IDOCK:   -6.14 KCAL/MOL
REMARK 923 INTER-LIGAND FREE ENERGY PREDICTED BY IDOCK:   -5.64 KCAL/MOL
REMARK 924 INTRA-LIGAND FREE ENERGY PREDICTED BY IDOCK:   -0.50 KCAL/MOL
REMARK 927      BINDING AFFINITY PREDICTED BY RF-SCORE:    0.00 PKD
ROOT
HETATM    1  C   UNL     1      -9.869  11.769  68.394  1.00  0.00    -0.199 C  
ENDROOT
BRANCH   1   2
HETATM    2  N   UNL     1     -10.231  13.226  68.340  1.00  0.00    -0.249 NA 
HETATM    3  S   UNL     1     -10.528  17.644  67.447  1.00  0.00    -0.331 SA 
HETATM    4  C   UNL     1     -10.463  15.962  67.658  1.00  0.00    -0.289 A  
HETATM    5  C   UNL     1      -9.002  17.841  68.198  1.00  0.00    -0.271 A  
HETATM    6  C   UNL     1     -11.535  15.041  67.190  1.00  0.00    -0.304 C  
HETATM    7  C   UNL     1     -10.974  13.604  67.117  1.00  0.00    -0.288 C  
HETATM    8  C   UNL     1      -9.026  14.074  68.539  1.00  0.00    -0.160 C  
HETATM    9  C   UNL     1      -8.470  16.638  68.613  1.00  0.00    -0.253 A  
HETATM   10  C   UNL     1      -9.323  15.531  68.303  1.00  0.00    -0.192 A  
ENDBRANCH   1   2
BRANCH   1  11
HETATM   11  C   UNL     1      -9.958  11.094  66.994  1.00  0.00    -0.192 C  
HETATM   12  O   UNL     1     -10.875  10.385  66.597  1.00  0.00    -0.176 OA 
BRANCH  11  13
HETATM   13  O   UNL     1      -8.905  11.473  66.205  1.00  0.00    -0.194 OA 
HETATM   14  C   UNL     1      -7.628  11.140  66.757  1.00  0.00    -0.146 C  
ENDBRANCH  11  13
ENDBRANCH   1  11
BRANCH   1  15
HETATM   15  C   UNL     1     -10.624  11.006  69.500  1.00  0.00    -0.182 A  
HETATM   16  C   UNL     1     -12.602  10.751  70.943  1.00  0.00    -0.498 A  
HETATM   17  C   UNL     1     -10.740   9.261  71.217  1.00  0.00    -0.422 A  
HETATM   18  C   UNL     1     -12.013   9.679  71.595  1.00  0.00    -0.470 A  
HETATM   19  C   UNL     1     -11.915  11.404  69.916  1.00  0.00    -0.434 A  
HETATM   20  C   UNL     1     -10.050   9.914  70.181  1.00  0.00    -0.255 A  
HETATM   21 CL   UNL     1      -8.481   9.296  69.790  1.00  0.00    -0.134 Cl 
ENDBRANCH   1  15
TORSDOF 4
ENDMDL
MODEL       71
REMARK 921   NORMALIZED FREE ENERGY PREDICTED BY IDOCK:   -4.54 KCAL/MOL
REMARK 922        TOTAL FREE ENERGY PREDICTED BY IDOCK:   -6.13 KCAL/MOL
REMARK 923 INTER-LIGAND FREE ENERGY PREDICTED BY IDOCK:   -6.32 KCAL/MOL
REMARK 924 INTRA-LIGAND FREE ENERGY PREDICTED BY IDOCK:    0.19 KCAL/MOL
REMARK 927      BINDING AFFINITY PREDICTED BY RF-SCORE:    0.00 PKD
ROOT
HETATM    1  C   UNL     1     -11.702  12.403  66.884  1.00  0.00    -0.362 C  
ENDROOT
BRANCH   1   2
HETATM    2  N   UNL     1     -10.603  11.457  66.490  1.00  0.00    -0.253 NA 
HETATM    3  S   UNL     1      -8.123   7.961  65.063  1.00  0.00    -0.134 SA 
HETATM    4  C   UNL     1      -9.095   9.291  65.471  1.00  0.00    -0.221 A  
HETATM    5  C   UNL     1      -8.652   7.096  66.442  1.00  0.00    -0.134 A  
HETATM    6  C   UNL     1      -9.173  10.526  64.644  1.00  0.00    -0.274 C  
HETATM    7  C   UNL     1     -10.447  11.312  65.025  1.00  0.00    -0.298 C  
HETATM    8  C   UNL     1     -10.778  10.141  67.159  1.00  0.00    -0.221 C  
HETATM    9  C   UNL     1      -9.542   7.827  67.202  1.00  0.00    -0.220 A  
HETATM   10  C   UNL     1      -9.804   9.117  66.640  1.00  0.00    -0.307 A  
ENDBRANCH   1   2
BRANCH   1  11
HETATM   11  C   UNL     1     -12.351  13.090  65.648  1.00  0.00    -0.446 C  
HETATM   12  O   UNL     1     -13.179  12.585  64.899  1.00  0.00    -0.787 OA 
BRANCH  11  13
HETATM   13  O   UNL     1     -11.945  14.394  65.548  1.00  0.00    -0.362 OA 
HETATM   14  C   UNL     1     -12.082  14.937  64.232  1.00  0.00    -0.353 C  
ENDBRANCH  11  13
ENDBRANCH   1  11
BRANCH   1  15
HETATM   15  C   UNL     1     -11.273  13.390  67.989  1.00  0.00    -0.298 A  
HETATM   16  C   UNL     1     -11.800  14.672  70.022  1.00  0.00    -0.363 A  
HETATM   17  C   UNL     1      -9.656  14.944  68.976  1.00  0.00    -0.204 A  
HETATM   18  C   UNL     1     -10.550  15.271  69.993  1.00  0.00    -0.288 A  
HETATM   19  C   UNL     1     -12.154  13.751  69.033  1.00  0.00    -0.359 A  
HETATM   20  C   UNL     1     -10.009  14.014  67.984  1.00  0.00    -0.235 A  
HETATM   21 CL   UNL     1      -8.812  13.678  66.781  1.00  0.00    -0.196 Cl 
ENDBRANCH   1  15
TORSDOF 4
ENDMDL
MODEL       72
REMARK 921   NORMALIZED FREE ENERGY PREDICTED BY IDOCK:   -4.53 KCAL/MOL
REMARK 922        TOTAL FREE ENERGY PREDICTED BY IDOCK:   -6.12 KCAL/MOL
REMARK 923 INTER-LIGAND FREE ENERGY PREDICTED BY IDOCK:   -6.27 KCAL/MOL
REMARK 924 INTRA-LIGAND FREE ENERGY PREDICTED BY IDOCK:    0.14 KCAL/MOL
REMARK 927      BINDING AFFINITY PREDICTED BY RF-SCORE:    0.00 PKD
ROOT
HETATM    1  C   UNL     1     -11.628  11.880  68.877  1.00  0.00    -0.311 C  
ENDROOT
BRANCH   1   2
HETATM    2  N   UNL     1     -11.030  12.035  67.507  1.00  0.00    -0.240 NA 
HETATM    3  S   UNL     1      -9.903  11.693  63.146  1.00  0.00    -0.287 SA 
HETATM    4  C   UNL     1     -10.447  11.867  64.743  1.00  0.00    -0.289 A  
HETATM    5  C   UNL     1      -9.200  10.174  63.505  1.00  0.00    -0.286 A  
HETATM    6  C   UNL     1     -11.227  13.045  65.213  1.00  0.00    -0.316 C  
HETATM    7  C   UNL     1     -11.939  12.686  66.537  1.00  0.00    -0.331 C  
HETATM    8  C   UNL     1     -10.529  10.729  67.002  1.00  0.00    -0.247 C  
HETATM    9  C   UNL     1      -9.369   9.825  64.829  1.00  0.00    -0.327 A  
HETATM   10  C   UNL     1     -10.097  10.815  65.563  1.00  0.00    -0.335 A  
ENDBRANCH   1   2
BRANCH   1  11
HETATM   11  C   UNL     1     -11.777  13.248  69.605  1.00  0.00    -0.303 C  
HETATM   12  O   UNL     1     -12.591  13.507  70.484  1.00  0.00    -0.304 OA 
BRANCH  11  13
HETATM   13  O   UNL     1     -10.802  14.121  69.202  1.00  0.00    -0.250 OA 
HETATM   14  C   UNL     1     -11.289  15.440  68.940  1.00  0.00    -0.314 C  
ENDBRANCH  11  13
ENDBRANCH   1  11
BRANCH   1  15
HETATM   15  C   UNL     1     -10.920  10.801  69.720  1.00  0.00    -0.314 A  
HETATM   16  C   UNL     1      -8.882   9.552  70.305  1.00  0.00    -0.281 A  
HETATM   17  C   UNL     1     -10.963   8.976  71.354  1.00  0.00    -0.394 A  
HETATM   18  C   UNL     1      -9.595   8.763  71.192  1.00  0.00    -0.309 A  
HETATM   19  C   UNL     1      -9.536  10.551  69.579  1.00  0.00    -0.106 A  
HETATM   20  C   UNL     1     -11.621   9.983  70.628  1.00  0.00    -0.340 A  
HETATM   21 CL   UNL     1     -13.316  10.164  70.924  1.00  0.00    -0.381 Cl 
ENDBRANCH   1  15
TORSDOF 4
ENDMDL
MODEL       73
REMARK 921   NORMALIZED FREE ENERGY PREDICTED BY IDOCK:   -4.47 KCAL/MOL
REMARK 922        TOTAL FREE ENERGY PREDICTED BY IDOCK:   -6.05 KCAL/MOL
REMARK 923 INTER-LIGAND FREE ENERGY PREDICTED BY IDOCK:   -5.64 KCAL/MOL
REMARK 924 INTRA-LIGAND FREE ENERGY PREDICTED BY IDOCK:   -0.41 KCAL/MOL
REMARK 927      BINDING AFFINITY PREDICTED BY RF-SCORE:    0.00 PKD
ROOT
HETATM    1  C   UNL     1     -10.023   8.554  68.578  1.00  0.00    -0.184 C  
ENDROOT
BRANCH   1   2
HETATM    2  N   UNL     1     -10.704   9.787  68.054  1.00  0.00    -0.250 NA 
HETATM    3  S   UNL     1     -11.840  13.973  66.793  1.00  0.00    -0.442 SA 
HETATM    4  C   UNL     1     -11.321  12.402  67.168  1.00  0.00    -0.329 A  
HETATM    5  C   UNL     1     -11.902  14.395  68.451  1.00  0.00    -0.319 A  
HETATM    6  C   UNL     1     -11.018  11.377  66.133  1.00  0.00    -0.294 C  
HETATM    7  C   UNL     1     -10.158  10.259  66.762  1.00  0.00    -0.216 C  
HETATM    8  C   UNL     1     -10.703  10.863  69.080  1.00  0.00    -0.226 C  
HETATM    9  C   UNL     1     -11.547  13.341  69.267  1.00  0.00    -0.370 A  
HETATM   10  C   UNL     1     -11.208  12.167  68.522  1.00  0.00    -0.307 A  
ENDBRANCH   1   2
BRANCH   1  11
HETATM   11  C   UNL     1     -10.167   7.350  67.602  1.00  0.00    -0.201 C  
HETATM   12  O   UNL     1     -11.195   7.012  67.026  1.00  0.00    -0.328 OA 
BRANCH  11  13
HETATM   13  O   UNL     1      -8.954   6.752  67.388  1.00  0.00    -0.116 OA 
HETATM   14  C   UNL     1      -8.670   6.515  66.006  1.00  0.00    -0.148 C  
ENDBRANCH  11  13
ENDBRANCH   1  11
BRANCH   1  15
HETATM   15  C   UNL     1     -10.416   8.226  70.032  1.00  0.00    -0.231 A  
HETATM   16  C   UNL     1     -12.052   7.362  71.653  1.00  0.00    -0.349 A  
HETATM   17  C   UNL     1      -9.979   8.278  72.442  1.00  0.00    -0.379 A  
HETATM   18  C   UNL     1     -11.212   7.686  72.706  1.00  0.00    -0.431 A  
HETATM   19  C   UNL     1     -11.660   7.632  70.340  1.00  0.00    -0.138 A  
HETATM   20  C   UNL     1      -9.581   8.546  71.122  1.00  0.00    -0.193 A  
HETATM   21 CL   UNL     1      -8.023   9.270  70.917  1.00  0.00    -0.188 Cl 
ENDBRANCH   1  15
TORSDOF 4
ENDMDL
MODEL       74
REMARK 921   NORMALIZED FREE ENERGY PREDICTED BY IDOCK:   -4.46 KCAL/MOL
REMARK 922        TOTAL FREE ENERGY PREDICTED BY IDOCK:   -6.03 KCAL/MOL
REMARK 923 INTER-LIGAND FREE ENERGY PREDICTED BY IDOCK:   -6.09 KCAL/MOL
REMARK 924 INTRA-LIGAND FREE ENERGY PREDICTED BY IDOCK:    0.06 KCAL/MOL
REMARK 927      BINDING AFFINITY PREDICTED BY RF-SCORE:    0.00 PKD
ROOT
HETATM    1  C   UNL     1      -8.434  16.221  66.851  1.00  0.00    -0.224 C  
ENDROOT
BRANCH   1   2
HETATM    2  N   UNL     1      -9.477  15.224  67.270  1.00  0.00    -0.205 NA 
HETATM    3  S   UNL     1     -11.756  11.653  68.841  1.00  0.00    -0.346 SA 
HETATM    4  C   UNL     1     -10.866  13.021  68.379  1.00  0.00    -0.258 A  
HETATM    5  C   UNL     1     -11.115  10.743  67.541  1.00  0.00    -0.308 A  
HETATM    6  C   UNL     1     -10.907  14.309  69.125  1.00  0.00    -0.264 C  
HETATM    7  C   UNL     1      -9.679  15.161  68.736  1.00  0.00    -0.221 C  
HETATM    8  C   UNL     1      -9.184  13.884  66.695  1.00  0.00    -0.236 C  
HETATM    9  C   UNL     1     -10.250  11.487  66.764  1.00  0.00    -0.254 A  
HETATM   10  C   UNL     1     -10.102  12.826  67.248  1.00  0.00    -0.226 A  
ENDBRANCH   1   2
BRANCH   1  11
HETATM   11  C   UNL     1      -7.104  16.038  67.638  1.00  0.00    -0.154 C  
HETATM   12  O   UNL     1      -6.105  15.455  67.233  1.00  0.00    -0.324 OA 
BRANCH  11  13
HETATM   13  O   UNL     1      -7.152  16.705  68.833  1.00  0.00    -0.180 OA 
HETATM   14  C   UNL     1      -6.276  16.163  69.826  1.00  0.00    -0.184 C  
ENDBRANCH  11  13
ENDBRANCH   1  11
BRANCH   1  15
HETATM   15  C   UNL     1      -8.960  17.670  66.849  1.00  0.00    -0.258 A  
HETATM   16  C   UNL     1     -10.730  19.295  67.381  1.00  0.00    -0.594 A  
HETATM   17  C   UNL     1      -8.761  20.030  66.221  1.00  0.00    -0.346 A  
HETATM   18  C   UNL     1     -10.002  20.313  66.787  1.00  0.00    -0.587 A  
HETATM   19  C   UNL     1     -10.217  17.996  67.407  1.00  0.00    -0.370 A  
HETATM   20  C   UNL     1      -8.242  18.725  66.250  1.00  0.00    -0.252 A  
HETATM   21 CL   UNL     1      -6.686  18.497  65.529  1.00  0.00    -0.300 Cl 
ENDBRANCH   1  15
TORSDOF 4
ENDMDL
MODEL       75
REMARK 921   NORMALIZED FREE ENERGY PREDICTED BY IDOCK:   -4.45 KCAL/MOL
REMARK 922        TOTAL FREE ENERGY PREDICTED BY IDOCK:   -6.02 KCAL/MOL
REMARK 923 INTER-LIGAND FREE ENERGY PREDICTED BY IDOCK:   -5.79 KCAL/MOL
REMARK 924 INTRA-LIGAND FREE ENERGY PREDICTED BY IDOCK:   -0.23 KCAL/MOL
REMARK 927      BINDING AFFINITY PREDICTED BY RF-SCORE:    0.00 PKD
ROOT
HETATM    1  C   UNL     1     -10.285  15.322  69.502  1.00  0.00    -0.260 C  
ENDROOT
BRANCH   1   2
HETATM    2  N   UNL     1     -10.480  14.152  68.580  1.00  0.00    -0.246 NA 
HETATM    3  S   UNL     1     -10.395  10.147  66.492  1.00  0.00    -0.170 SA 
HETATM    4  C   UNL     1     -10.494  11.591  67.377  1.00  0.00    -0.209 A  
HETATM    5  C   UNL     1      -8.761  10.457  66.085  1.00  0.00    -0.152 A  
HETATM    6  C   UNL     1     -11.723  12.021  68.098  1.00  0.00    -0.398 C  
HETATM    7  C   UNL     1     -11.349  13.094  69.144  1.00  0.00    -0.281 C  
HETATM    8  C   UNL     1      -9.169  13.610  68.135  1.00  0.00    -0.204 C  
HETATM    9  C   UNL     1      -8.316  11.654  66.607  1.00  0.00    -0.154 A  
HETATM   10  C   UNL     1      -9.328  12.326  67.364  1.00  0.00    -0.183 A  
ENDBRANCH   1   2
BRANCH   1  11
HETATM   11  C   UNL     1     -11.478  15.492  70.488  1.00  0.00    -0.347 C  
HETATM   12  O   UNL     1     -12.648  15.671  70.173  1.00  0.00    -0.367 OA 
BRANCH  11  13
HETATM   13  O   UNL     1     -11.066  15.320  71.782  1.00  0.00    -0.362 OA 
HETATM   14  C   UNL     1     -12.076  15.620  72.749  1.00  0.00    -0.466 C  
ENDBRANCH  11  13
ENDBRANCH   1  11
BRANCH   1  15
HETATM   15  C   UNL     1      -9.907  16.616  68.755  1.00  0.00    -0.252 A  
HETATM   16  C   UNL     1     -10.544  18.510  67.318  1.00  0.00    -0.453 A  
HETATM   17  C   UNL     1      -8.253  18.253  67.988  1.00  0.00    -0.274 A  
HETATM   18  C   UNL     1      -9.233  18.959  67.294  1.00  0.00    -0.308 A  
HETATM   19  C   UNL     1     -10.872  17.356  68.034  1.00  0.00    -0.281 A  
HETATM   20  C   UNL     1      -8.582  17.095  68.712  1.00  0.00    -0.236 A  
HETATM   21 CL   UNL     1      -7.284  16.312  69.546  1.00  0.00    -0.183 Cl 
ENDBRANCH   1  15
TORSDOF 4
ENDMDL
MODEL       76
REMARK 921   NORMALIZED FREE ENERGY PREDICTED BY IDOCK:   -4.45 KCAL/MOL
REMARK 922        TOTAL FREE ENERGY PREDICTED BY IDOCK:   -6.02 KCAL/MOL
REMARK 923 INTER-LIGAND FREE ENERGY PREDICTED BY IDOCK:   -5.55 KCAL/MOL
REMARK 924 INTRA-LIGAND FREE ENERGY PREDICTED BY IDOCK:   -0.46 KCAL/MOL
REMARK 927      BINDING AFFINITY PREDICTED BY RF-SCORE:    0.00 PKD
ROOT
HETATM    1  C   UNL     1     -10.606  12.144  67.370  1.00  0.00    -0.226 C  
ENDROOT
BRANCH   1   2
HETATM    2  N   UNL     1     -10.230  10.805  66.802  1.00  0.00    -0.222 NA 
HETATM    3  S   UNL     1      -8.112   7.204  65.084  1.00  0.00    -0.110 SA 
HETATM    4  C   UNL     1      -8.842   8.533  65.845  1.00  0.00    -0.182 A  
HETATM    5  C   UNL     1      -7.843   8.113  63.658  1.00  0.00    -0.151 A  
HETATM    6  C   UNL     1      -9.357   8.489  67.241  1.00  0.00    -0.184 C  
HETATM    7  C   UNL     1      -9.523   9.932  67.766  1.00  0.00    -0.140 C  
HETATM    8  C   UNL     1      -9.463  10.967  65.539  1.00  0.00    -0.216 C  
HETATM    9  C   UNL     1      -8.322   9.402  63.768  1.00  0.00    -0.183 A  
HETATM   10  C   UNL     1      -8.913   9.655  65.047  1.00  0.00    -0.255 A  
ENDBRANCH   1   2
BRANCH   1  11
HETATM   11  C   UNL     1     -11.543  12.011  68.606  1.00  0.00    -0.319 C  
HETATM   12  O   UNL     1     -12.423  11.170  68.752  1.00  0.00    -0.468 OA 
BRANCH  11  13
HETATM   13  O   UNL     1     -11.196  12.911  69.577  1.00  0.00    -0.185 OA 
HETATM   14  C   UNL     1     -12.231  13.849  69.884  1.00  0.00    -0.333 C  
ENDBRANCH  11  13
ENDBRANCH   1  11
BRANCH   1  15
HETATM   15  C   UNL     1     -11.126  13.124  66.299  1.00  0.00    -0.308 A  
HETATM   16  C   UNL     1     -12.770  13.706  64.564  1.00  0.00    -0.143 A  
HETATM   17  C   UNL     1     -10.902  15.161  64.957  1.00  0.00    -0.457 A  
HETATM   18  C   UNL     1     -12.069  14.861  64.258  1.00  0.00    -0.373 A  
HETATM   19  C   UNL     1     -12.302  12.851  65.565  1.00  0.00    -0.517 A  
HETATM   20  C   UNL     1     -10.433  14.305  65.967  1.00  0.00    -0.301 A  
HETATM   21 CL   UNL     1      -8.981  14.789  66.776  1.00  0.00    -0.282 Cl 
ENDBRANCH   1  15
TORSDOF 4
ENDMDL
MODEL       77
REMARK 921   NORMALIZED FREE ENERGY PREDICTED BY IDOCK:   -4.44 KCAL/MOL
REMARK 922        TOTAL FREE ENERGY PREDICTED BY IDOCK:   -6.01 KCAL/MOL
REMARK 923 INTER-LIGAND FREE ENERGY PREDICTED BY IDOCK:   -5.66 KCAL/MOL
REMARK 924 INTRA-LIGAND FREE ENERGY PREDICTED BY IDOCK:   -0.35 KCAL/MOL
REMARK 927      BINDING AFFINITY PREDICTED BY RF-SCORE:    0.00 PKD
ROOT
HETATM    1  C   UNL     1      -8.546  15.653  67.582  1.00  0.00    -0.167 C  
ENDROOT
BRANCH   1   2
HETATM    2  N   UNL     1      -9.252  15.103  66.375  1.00  0.00    -0.285 NA 
HETATM    3  S   UNL     1     -12.020  13.007  63.485  1.00  0.00    -0.497 SA 
HETATM    4  C   UNL     1     -11.084  13.875  64.601  1.00  0.00    -0.385 A  
HETATM    5  C   UNL     1     -11.388  11.519  64.046  1.00  0.00    -0.296 A  
HETATM    6  C   UNL     1     -11.128  15.359  64.721  1.00  0.00    -0.416 C  
HETATM    7  C   UNL     1     -10.539  15.776  66.087  1.00  0.00    -0.313 C  
HETATM    8  C   UNL     1      -9.413  13.629  66.486  1.00  0.00    -0.259 C  
HETATM    9  C   UNL     1     -10.465  11.696  65.057  1.00  0.00    -0.336 A  
HETATM   10  C   UNL     1     -10.280  13.077  65.386  1.00  0.00    -0.301 A  
ENDBRANCH   1   2
BRANCH   1  11
HETATM   11  C   UNL     1      -9.546  16.102  68.687  1.00  0.00    -0.226 C  
HETATM   12  O   UNL     1      -9.922  17.250  68.891  1.00  0.00    -0.296 OA 
BRANCH  11  13
HETATM   13  O   UNL     1     -10.039  15.019  69.364  1.00  0.00    -0.226 OA 
HETATM   14  C   UNL     1     -11.337  15.237  69.924  1.00  0.00    -0.289 C  
ENDBRANCH  11  13
ENDBRANCH   1  11
BRANCH   1  15
HETATM   15  C   UNL     1      -7.495  16.722  67.224  1.00  0.00    -0.201 A  
HETATM   16  C   UNL     1      -6.613  18.402  65.657  1.00  0.00    -0.313 A  
HETATM   17  C   UNL     1      -5.413  17.930  67.681  1.00  0.00    -0.144 A  
HETATM   18  C   UNL     1      -5.530  18.638  66.488  1.00  0.00    -0.168 A  
HETATM   19  C   UNL     1      -7.576  17.456  66.019  1.00  0.00    -0.246 A  
HETATM   20  C   UNL     1      -6.383  16.982  68.049  1.00  0.00    -0.141 A  
HETATM   21 CL   UNL     1      -6.138  16.175  69.560  1.00  0.00    -0.159 Cl 
ENDBRANCH   1  15
TORSDOF 4
ENDMDL
MODEL       78
REMARK 921   NORMALIZED FREE ENERGY PREDICTED BY IDOCK:   -4.44 KCAL/MOL
REMARK 922        TOTAL FREE ENERGY PREDICTED BY IDOCK:   -6.01 KCAL/MOL
REMARK 923 INTER-LIGAND FREE ENERGY PREDICTED BY IDOCK:   -6.12 KCAL/MOL
REMARK 924 INTRA-LIGAND FREE ENERGY PREDICTED BY IDOCK:    0.11 KCAL/MOL
REMARK 927      BINDING AFFINITY PREDICTED BY RF-SCORE:    0.00 PKD
ROOT
HETATM    1  C   UNL     1     -11.997  14.265  68.636  1.00  0.00    -0.313 C  
ENDROOT
BRANCH   1   2
HETATM    2  N   UNL     1     -11.383  12.895  68.654  1.00  0.00    -0.267 NA 
HETATM    3  S   UNL     1     -10.557   8.457  68.838  1.00  0.00    -0.080 SA 
HETATM    4  C   UNL     1     -10.929  10.102  68.650  1.00  0.00    -0.230 A  
HETATM    5  C   UNL     1     -11.010   8.499  70.488  1.00  0.00    -0.241 A  
HETATM    6  C   UNL     1     -10.789  10.825  67.356  1.00  0.00    -0.345 C  
HETATM    7  C   UNL     1     -11.619  12.126  67.410  1.00  0.00    -0.340 C  
HETATM    8  C   UNL     1     -11.816  12.140  69.859  1.00  0.00    -0.319 C  
HETATM    9  C   UNL     1     -11.419   9.756  70.882  1.00  0.00    -0.447 A  
HETATM   10  C   UNL     1     -11.371  10.703  69.809  1.00  0.00    -0.371 A  
ENDBRANCH   1   2
BRANCH   1  11
HETATM   11  C   UNL     1     -11.222  15.240  67.701  1.00  0.00    -0.320 C  
HETATM   12  O   UNL     1     -10.381  14.919  66.870  1.00  0.00    -0.258 OA 
BRANCH  11  13
HETATM   13  O   UNL     1     -11.672  16.523  67.858  1.00  0.00     0.056 OA 
HETATM   14  C   UNL     1     -10.646  17.510  67.721  1.00  0.00    -0.375 C  
ENDBRANCH  11  13
ENDBRANCH   1  11
BRANCH   1  15
HETATM   15  C   UNL     1     -12.245  14.827  70.050  1.00  0.00    -0.383 A  
HETATM   16  C   UNL     1     -13.799  15.429  71.861  1.00  0.00    -0.619 A  
HETATM   17  C   UNL     1     -11.457  15.897  72.109  1.00  0.00    -0.399 A  
HETATM   18  C   UNL     1     -12.754  15.935  72.617  1.00  0.00    -0.554 A  
HETATM   19  C   UNL     1     -13.547  14.888  70.598  1.00  0.00    -0.091 A  
HETATM   20  C   UNL     1     -11.202  15.350  70.840  1.00  0.00    -0.358 A  
HETATM   21 CL   UNL     1      -9.551  15.344  70.321  1.00  0.00     0.136 Cl 
ENDBRANCH   1  15
TORSDOF 4
ENDMDL
MODEL       79
REMARK 921   NORMALIZED FREE ENERGY PREDICTED BY IDOCK:   -4.40 KCAL/MOL
REMARK 922        TOTAL FREE ENERGY PREDICTED BY IDOCK:   -5.96 KCAL/MOL
REMARK 923 INTER-LIGAND FREE ENERGY PREDICTED BY IDOCK:   -6.35 KCAL/MOL
REMARK 924 INTRA-LIGAND FREE ENERGY PREDICTED BY IDOCK:    0.39 KCAL/MOL
REMARK 927      BINDING AFFINITY PREDICTED BY RF-SCORE:    0.00 PKD
ROOT
HETATM    1  C   UNL     1     -11.414  14.537  68.249  1.00  0.00    -0.311 C  
ENDROOT
BRANCH   1   2
HETATM    2  N   UNL     1     -11.305  15.884  67.594  1.00  0.00    -0.219 NA 
HETATM    3  S   UNL     1      -9.960  19.883  65.978  1.00  0.00    -0.402 SA 
HETATM    4  C   UNL     1     -10.383  18.323  66.494  1.00  0.00    -0.392 A  
HETATM    5  C   UNL     1      -9.841  20.432  67.595  1.00  0.00    -0.398 A  
HETATM    6  C   UNL     1     -10.646  17.199  65.555  1.00  0.00    -0.160 C  
HETATM    7  C   UNL     1     -10.546  15.862  66.322  1.00  0.00    -0.298 C  
HETATM    8  C   UNL     1     -10.759  16.888  68.545  1.00  0.00    -0.359 C  
HETATM    9  C   UNL     1     -10.139  19.438  68.504  1.00  0.00    -0.527 A  
HETATM   10  C   UNL     1     -10.461  18.198  67.865  1.00  0.00    -0.408 A  
ENDBRANCH   1   2
BRANCH   1  11
HETATM   11  C   UNL     1     -11.545  14.650  69.796  1.00  0.00    -0.296 C  
HETATM   12  O   UNL     1     -10.663  15.011  70.566  1.00  0.00    -0.188 OA 
BRANCH  11  13
HETATM   13  O   UNL     1     -12.826  14.378  70.195  1.00  0.00    -0.293 OA 
HETATM   14  C   UNL     1     -13.385  15.382  71.047  1.00  0.00    -0.480 C  
ENDBRANCH  11  13
ENDBRANCH   1  11
BRANCH   1  15
HETATM   15  C   UNL     1     -10.317  13.557  67.788  1.00  0.00    -0.241 A  
HETATM   16  C   UNL     1      -7.998  12.743  67.916  1.00  0.00    -0.158 A  
HETATM   17  C   UNL     1      -9.508  11.764  66.328  1.00  0.00    -0.238 A  
HETATM   18  C   UNL     1      -8.242  11.827  66.905  1.00  0.00    -0.166 A  
HETATM   19  C   UNL     1      -9.018  13.595  68.346  1.00  0.00    -0.160 A  
HETATM   20  C   UNL     1     -10.537  12.617  66.762  1.00  0.00    -0.237 A  
HETATM   21 CL   UNL     1     -12.070  12.436  65.981  1.00  0.00    -0.422 Cl 
ENDBRANCH   1  15
TORSDOF 4
ENDMDL
MODEL       80
REMARK 921   NORMALIZED FREE ENERGY PREDICTED BY IDOCK:   -4.39 KCAL/MOL
REMARK 922        TOTAL FREE ENERGY PREDICTED BY IDOCK:   -5.94 KCAL/MOL
REMARK 923 INTER-LIGAND FREE ENERGY PREDICTED BY IDOCK:   -6.12 KCAL/MOL
REMARK 924 INTRA-LIGAND FREE ENERGY PREDICTED BY IDOCK:    0.18 KCAL/MOL
REMARK 927      BINDING AFFINITY PREDICTED BY RF-SCORE:    0.00 PKD
ROOT
HETATM    1  C   UNL     1      -7.708  16.490  66.757  1.00  0.00    -0.259 C  
ENDROOT
BRANCH   1   2
HETATM    2  N   UNL     1      -8.637  15.414  66.270  1.00  0.00    -0.215 NA 
HETATM    3  S   UNL     1     -12.026  12.493  65.650  1.00  0.00    -0.388 SA 
HETATM    4  C   UNL     1     -10.840  13.688  65.850  1.00  0.00    -0.275 A  
HETATM    5  C   UNL     1     -11.531  11.700  67.084  1.00  0.00    -0.271 A  
HETATM    6  C   UNL     1     -10.666  14.828  64.907  1.00  0.00    -0.438 C  
HETATM    7  C   UNL     1      -9.849  15.940  65.600  1.00  0.00    -0.302 C  
HETATM    8  C   UNL     1      -8.979  14.477  67.373  1.00  0.00    -0.200 C  
HETATM    9  C   UNL     1     -10.466  12.338  67.687  1.00  0.00    -0.230 A  
HETATM   10  C   UNL     1     -10.052  13.503  66.966  1.00  0.00    -0.244 A  
ENDBRANCH   1   2
BRANCH   1  11
HETATM   11  C   UNL     1      -6.647  15.937  67.753  1.00  0.00    -0.160 C  
HETATM   12  O   UNL     1      -5.860  15.025  67.530  1.00  0.00    -0.316 OA 
BRANCH  11  13
HETATM   13  O   UNL     1      -6.637  16.674  68.907  1.00  0.00    -0.156 OA 
HETATM   14  C   UNL     1      -5.724  16.181  69.892  1.00  0.00    -0.172 C  
ENDBRANCH  11  13
ENDBRANCH   1  11
BRANCH   1  15
HETATM   15  C   UNL     1      -8.454  17.736  67.272  1.00  0.00    -0.239 A  
HETATM   16  C   UNL     1     -10.137  18.751  68.753  1.00  0.00    -0.407 A  
HETATM   17  C   UNL     1      -8.971  20.129  67.171  1.00  0.00    -0.463 A  
HETATM   18  C   UNL     1      -9.913  19.997  68.189  1.00  0.00    -0.533 A  
HETATM   19  C   UNL     1      -9.421  17.641  68.298  1.00  0.00    -0.295 A  
HETATM   20  C   UNL     1      -8.247  19.015  66.716  1.00  0.00    -0.279 A  
HETATM   21 CL   UNL     1      -7.095  19.305  65.458  1.00  0.00    -0.273 Cl 
ENDBRANCH   1  15
TORSDOF 4
ENDMDL
MODEL       81
REMARK 921   NORMALIZED FREE ENERGY PREDICTED BY IDOCK:   -4.33 KCAL/MOL
REMARK 922        TOTAL FREE ENERGY PREDICTED BY IDOCK:   -5.87 KCAL/MOL
REMARK 923 INTER-LIGAND FREE ENERGY PREDICTED BY IDOCK:   -5.88 KCAL/MOL
REMARK 924 INTRA-LIGAND FREE ENERGY PREDICTED BY IDOCK:    0.01 KCAL/MOL
REMARK 927      BINDING AFFINITY PREDICTED BY RF-SCORE:    0.00 PKD
ROOT
HETATM    1  C   UNL     1     -10.415  12.586  68.128  1.00  0.00    -0.229 C  
ENDROOT
BRANCH   1   2
HETATM    2  N   UNL     1      -9.773  11.228  68.113  1.00  0.00    -0.179 NA 
HETATM    3  S   UNL     1      -8.182   7.137  67.047  1.00  0.00    -0.119 SA 
HETATM    4  C   UNL     1      -8.687   8.725  67.363  1.00  0.00    -0.130 A  
HETATM    5  C   UNL     1      -9.803   6.596  66.940  1.00  0.00    -0.171 A  
HETATM    6  C   UNL     1      -7.739   9.855  67.567  1.00  0.00    -0.091 C  
HETATM    7  C   UNL     1      -8.491  11.190  67.372  1.00  0.00    -0.134 C  
HETATM    8  C   UNL     1     -10.727  10.201  67.618  1.00  0.00    -0.285 C  
HETATM    9  C   UNL     1     -10.704   7.617  67.162  1.00  0.00    -0.361 A  
HETATM   10  C   UNL     1     -10.057   8.868  67.414  1.00  0.00    -0.288 A  
ENDBRANCH   1   2
BRANCH   1  11
HETATM   11  C   UNL     1     -11.460  12.724  69.273  1.00  0.00    -0.289 C  
HETATM   12  O   UNL     1     -11.608  11.945  70.207  1.00  0.00    -0.249 OA 
BRANCH  11  13
HETATM   13  O   UNL     1     -12.151  13.901  69.160  1.00  0.00    -0.345 OA 
HETATM   14  C   UNL     1     -12.653  14.392  70.406  1.00  0.00    -0.345 C  
ENDBRANCH  11  13
ENDBRANCH   1  11
BRANCH   1  15
HETATM   15  C   UNL     1     -10.950  13.009  66.745  1.00  0.00    -0.299 A  
HETATM   16  C   UNL     1     -12.536  12.701  64.889  1.00  0.00    -0.564 A  
HETATM   17  C   UNL     1     -10.812  14.361  64.707  1.00  0.00    -0.415 A  
HETATM   18  C   UNL     1     -11.912  13.702  64.162  1.00  0.00    -0.488 A  
HETATM   19  C   UNL     1     -12.059  12.360  66.157  1.00  0.00    -0.295 A  
HETATM   20  C   UNL     1     -10.334  14.022  65.983  1.00  0.00    -0.306 A  
HETATM   21 CL   UNL     1      -8.972  14.920  66.561  1.00  0.00    -0.302 Cl 
ENDBRANCH   1  15
TORSDOF 4
ENDMDL
MODEL       82
REMARK 921   NORMALIZED FREE ENERGY PREDICTED BY IDOCK:   -4.33 KCAL/MOL
REMARK 922        TOTAL FREE ENERGY PREDICTED BY IDOCK:   -5.87 KCAL/MOL
REMARK 923 INTER-LIGAND FREE ENERGY PREDICTED BY IDOCK:   -5.75 KCAL/MOL
REMARK 924 INTRA-LIGAND FREE ENERGY PREDICTED BY IDOCK:   -0.12 KCAL/MOL
REMARK 927      BINDING AFFINITY PREDICTED BY RF-SCORE:    0.00 PKD
ROOT
HETATM    1  C   UNL     1      -9.128  15.989  66.745  1.00  0.00    -0.244 C  
ENDROOT
BRANCH   1   2
HETATM    2  N   UNL     1      -8.375  15.443  67.924  1.00  0.00    -0.141 NA 
HETATM    3  S   UNL     1      -5.398  13.508  70.718  1.00  0.00    -0.162 SA 
HETATM    4  C   UNL     1      -6.424  14.331  69.647  1.00  0.00    -0.140 A  
HETATM    5  C   UNL     1      -5.814  11.999  70.026  1.00  0.00    -0.152 A  
HETATM    6  C   UNL     1      -6.578  15.812  69.644  1.00  0.00    -0.182 C  
HETATM    7  C   UNL     1      -7.195  16.256  68.299  1.00  0.00    -0.141 C  
HETATM    8  C   UNL     1      -8.015  14.017  67.704  1.00  0.00    -0.178 C  
HETATM    9  C   UNL     1      -6.735  12.133  69.007  1.00  0.00    -0.103 A  
HETATM   10  C   UNL     1      -7.100  13.498  68.781  1.00  0.00    -0.103 A  
ENDBRANCH   1   2
BRANCH   1  11
HETATM   11  C   UNL     1      -9.594  17.456  66.979  1.00  0.00    -0.273 C  
HETATM   12  O   UNL     1     -10.204  17.867  67.960  1.00  0.00    -0.337 OA 
BRANCH  11  13
HETATM   13  O   UNL     1      -9.148  18.272  65.975  1.00  0.00    -0.510 OA 
HETATM   14  C   UNL     1      -9.607  19.622  66.090  1.00  0.00    -0.386 C  
ENDBRANCH  11  13
ENDBRANCH   1  11
BRANCH   1  15
HETATM   15  C   UNL     1     -10.252  15.049  66.267  1.00  0.00    -0.306 A  
HETATM   16  C   UNL     1     -11.281  13.688  64.493  1.00  0.00    -0.395 A  
HETATM   17  C   UNL     1     -12.388  13.899  66.612  1.00  0.00    -0.411 A  
HETATM   18  C   UNL     1     -12.350  13.383  65.319  1.00  0.00    -0.513 A  
HETATM   19  C   UNL     1     -10.252  14.511  64.960  1.00  0.00    -0.398 A  
HETATM   20  C   UNL     1     -11.352  14.722  67.085  1.00  0.00    -0.356 A  
HETATM   21 CL   UNL     1     -11.501  15.292  68.712  1.00  0.00    -0.322 Cl 
ENDBRANCH   1  15
TORSDOF 4
ENDMDL
MODEL       83
REMARK 921   NORMALIZED FREE ENERGY PREDICTED BY IDOCK:   -4.33 KCAL/MOL
REMARK 922        TOTAL FREE ENERGY PREDICTED BY IDOCK:   -5.86 KCAL/MOL
REMARK 923 INTER-LIGAND FREE ENERGY PREDICTED BY IDOCK:   -5.43 KCAL/MOL
REMARK 924 INTRA-LIGAND FREE ENERGY PREDICTED BY IDOCK:   -0.43 KCAL/MOL
REMARK 927      BINDING AFFINITY PREDICTED BY RF-SCORE:    0.00 PKD
ROOT
HETATM    1  C   UNL     1      -9.994  12.280  67.180  1.00  0.00    -0.205 C  
ENDROOT
BRANCH   1   2
HETATM    2  N   UNL     1      -8.754  13.124  67.095  1.00  0.00    -0.213 NA 
HETATM    3  S   UNL     1      -5.554  16.281  67.543  1.00  0.00    -0.133 SA 
HETATM    4  C   UNL     1      -6.730  15.059  67.503  1.00  0.00    -0.150 A  
HETATM    5  C   UNL     1      -6.599  17.374  66.742  1.00  0.00    -0.210 A  
HETATM    6  C   UNL     1      -6.518  13.705  68.085  1.00  0.00    -0.125 C  
HETATM    7  C   UNL     1      -7.887  13.021  68.291  1.00  0.00    -0.143 C  
HETATM    8  C   UNL     1      -9.100  14.536  66.784  1.00  0.00    -0.261 C  
HETATM    9  C   UNL     1      -7.816  16.798  66.438  1.00  0.00    -0.353 A  
HETATM   10  C   UNL     1      -7.899  15.439  66.878  1.00  0.00    -0.196 A  
ENDBRANCH   1   2
BRANCH   1  11
HETATM   11  C   UNL     1      -9.699  10.866  67.762  1.00  0.00    -0.168 C  
HETATM   12  O   UNL     1      -8.757  10.146  67.454  1.00  0.00    -0.125 OA 
BRANCH  11  13
HETATM   13  O   UNL     1     -10.589  10.556  68.756  1.00  0.00    -0.182 OA 
HETATM   14  C   UNL     1     -11.172  11.703  69.380  1.00  0.00    -0.246 C  
ENDBRANCH  11  13
ENDBRANCH   1  11
BRANCH   1  15
HETATM   15  C   UNL     1     -10.791  12.253  65.860  1.00  0.00    -0.306 A  
HETATM   16  C   UNL     1     -11.032  11.493  63.533  1.00  0.00    -0.453 A  
HETATM   17  C   UNL     1     -12.651  13.007  64.455  1.00  0.00    -0.387 A  
HETATM   18  C   UNL     1     -12.185  12.248  63.384  1.00  0.00    -0.630 A  
HETATM   19  C   UNL     1     -10.346  11.501  64.750  1.00  0.00    -0.341 A  
HETATM   20  C   UNL     1     -11.965  13.012  65.681  1.00  0.00    -0.429 A  
HETATM   21 CL   UNL     1     -12.647  13.980  66.943  1.00  0.00    -0.173 Cl 
ENDBRANCH   1  15
TORSDOF 4
ENDMDL
MODEL       84
REMARK 921   NORMALIZED FREE ENERGY PREDICTED BY IDOCK:   -4.31 KCAL/MOL
REMARK 922        TOTAL FREE ENERGY PREDICTED BY IDOCK:   -5.85 KCAL/MOL
REMARK 923 INTER-LIGAND FREE ENERGY PREDICTED BY IDOCK:   -5.96 KCAL/MOL
REMARK 924 INTRA-LIGAND FREE ENERGY PREDICTED BY IDOCK:    0.12 KCAL/MOL
REMARK 927      BINDING AFFINITY PREDICTED BY RF-SCORE:    0.00 PKD
ROOT
HETATM    1  C   UNL     1      -9.888  12.042  67.028  1.00  0.00    -0.194 C  
ENDROOT
BRANCH   1   2
HETATM    2  N   UNL     1     -10.208  11.204  68.233  1.00  0.00    -0.175 NA 
HETATM    3  S   UNL     1     -12.160   8.679  71.431  1.00  0.00    -0.308 SA 
HETATM    4  C   UNL     1     -11.444   9.523  70.145  1.00  0.00    -0.162 A  
HETATM    5  C   UNL     1     -13.044  10.065  71.907  1.00  0.00    -0.460 A  
HETATM    6  C   UNL     1     -10.486   8.897  69.194  1.00  0.00    -0.236 C  
HETATM    7  C   UNL     1     -10.391   9.768  67.922  1.00  0.00    -0.213 C  
HETATM    8  C   UNL     1     -11.375  11.762  68.967  1.00  0.00    -0.278 C  
HETATM    9  C   UNL     1     -12.775  11.153  71.101  1.00  0.00    -0.510 A  
HETATM   10  C   UNL     1     -11.835  10.843  70.067  1.00  0.00    -0.428 A  
ENDBRANCH   1   2
BRANCH   1  11
HETATM   11  C   UNL     1     -11.126  12.846  66.532  1.00  0.00    -0.286 C  
HETATM   12  O   UNL     1     -12.191  12.368  66.162  1.00  0.00    -0.635 OA 
BRANCH  11  13
HETATM   13  O   UNL     1     -10.907  14.193  66.651  1.00  0.00    -0.294 OA 
HETATM   14  C   UNL     1     -10.675  14.846  65.400  1.00  0.00    -0.377 C  
ENDBRANCH  11  13
ENDBRANCH   1  11
BRANCH   1  15
HETATM   15  C   UNL     1      -9.181  11.243  65.916  1.00  0.00    -0.229 A  
HETATM   16  C   UNL     1      -9.257  10.090  63.743  1.00  0.00    -0.314 A  
HETATM   17  C   UNL     1      -7.227  10.063  65.024  1.00  0.00    -0.139 A  
HETATM   18  C   UNL     1      -7.936   9.696  63.882  1.00  0.00    -0.143 A  
HETATM   19  C   UNL     1      -9.868  10.847  64.746  1.00  0.00    -0.343 A  
HETATM   20  C   UNL     1      -7.839  10.828  66.031  1.00  0.00    -0.149 A  
HETATM   21 CL   UNL     1      -6.855  11.235  67.395  1.00  0.00    -0.088 Cl 
ENDBRANCH   1  15
TORSDOF 4
ENDMDL
MODEL       85
REMARK 921   NORMALIZED FREE ENERGY PREDICTED BY IDOCK:   -4.28 KCAL/MOL
REMARK 922        TOTAL FREE ENERGY PREDICTED BY IDOCK:   -5.81 KCAL/MOL
REMARK 923 INTER-LIGAND FREE ENERGY PREDICTED BY IDOCK:   -5.65 KCAL/MOL
REMARK 924 INTRA-LIGAND FREE ENERGY PREDICTED BY IDOCK:   -0.16 KCAL/MOL
REMARK 927      BINDING AFFINITY PREDICTED BY RF-SCORE:    0.00 PKD
ROOT
HETATM    1  C   UNL     1      -9.992  14.472  68.411  1.00  0.00    -0.241 C  
ENDROOT
BRANCH   1   2
HETATM    2  N   UNL     1     -10.120  13.345  67.427  1.00  0.00    -0.235 NA 
HETATM    3  S   UNL     1      -9.894  10.594  63.851  1.00  0.00    -0.328 SA 
HETATM    4  C   UNL     1      -9.847  11.604  65.213  1.00  0.00    -0.248 A  
HETATM    5  C   UNL     1     -10.853  11.723  62.993  1.00  0.00    -0.066 A  
HETATM    6  C   UNL     1      -9.111  11.256  66.459  1.00  0.00    -0.193 C  
HETATM    7  C   UNL     1      -8.886  12.538  67.291  1.00  0.00    -0.195 C  
HETATM    8  C   UNL     1     -10.598  13.847  66.112  1.00  0.00    -0.291 C  
HETATM    9  C   UNL     1     -11.140  12.840  63.750  1.00  0.00    -0.475 A  
HETATM   10  C   UNL     1     -10.556  12.776  65.055  1.00  0.00    -0.330 A  
ENDBRANCH   1   2
BRANCH   1  11
HETATM   11  C   UNL     1     -11.213  14.548  69.374  1.00  0.00    -0.280 C  
HETATM   12  O   UNL     1     -12.264  13.930  69.248  1.00  0.00    -0.346 OA 
BRANCH  11  13
HETATM   13  O   UNL     1     -10.929  15.336  70.456  1.00  0.00    -0.296 OA 
HETATM   14  C   UNL     1     -12.068  16.031  70.972  1.00  0.00    -0.331 C  
ENDBRANCH  11  13
ENDBRANCH   1  11
BRANCH   1  15
HETATM   15  C   UNL     1      -9.647  15.816  67.739  1.00  0.00    -0.214 A  
HETATM   16  C   UNL     1     -10.365  17.974  66.799  1.00  0.00    -0.373 A  
HETATM   17  C   UNL     1      -8.049  17.352  66.695  1.00  0.00    -0.294 A  
HETATM   18  C   UNL     1      -9.064  18.267  66.423  1.00  0.00    -0.260 A  
HETATM   19  C   UNL     1     -10.650  16.767  67.442  1.00  0.00    -0.291 A  
HETATM   20  C   UNL     1      -8.333  16.140  67.346  1.00  0.00    -0.171 A  
HETATM   21 CL   UNL     1      -6.990  15.091  67.642  1.00  0.00    -0.189 Cl 
ENDBRANCH   1  15
TORSDOF 4
ENDMDL
MODEL       86
REMARK 921   NORMALIZED FREE ENERGY PREDICTED BY IDOCK:   -4.26 KCAL/MOL
REMARK 922        TOTAL FREE ENERGY PREDICTED BY IDOCK:   -5.78 KCAL/MOL
REMARK 923 INTER-LIGAND FREE ENERGY PREDICTED BY IDOCK:   -5.80 KCAL/MOL
REMARK 924 INTRA-LIGAND FREE ENERGY PREDICTED BY IDOCK:    0.02 KCAL/MOL
REMARK 927      BINDING AFFINITY PREDICTED BY RF-SCORE:    0.00 PKD
ROOT
HETATM    1  C   UNL     1      -9.303  14.670  68.053  1.00  0.00    -0.198 C  
ENDROOT
BRANCH   1   2
HETATM    2  N   UNL     1      -8.814  16.091  68.034  1.00  0.00    -0.175 NA 
HETATM    3  S   UNL     1      -7.799  20.370  67.002  1.00  0.00    -0.294 SA 
HETATM    4  C   UNL     1      -8.310  18.801  67.395  1.00  0.00    -0.264 A  
HETATM    5  C   UNL     1      -6.722  19.769  65.814  1.00  0.00    -0.259 A  
HETATM    6  C   UNL     1      -9.344  18.516  68.428  1.00  0.00    -0.359 C  
HETATM    7  C   UNL     1      -9.893  17.088  68.216  1.00  0.00    -0.278 C  
HETATM    8  C   UNL     1      -8.018  16.356  66.806  1.00  0.00    -0.260 C  
HETATM    9  C   UNL     1      -6.749  18.391  65.741  1.00  0.00    -0.315 A  
HETATM   10  C   UNL     1      -7.676  17.816  66.668  1.00  0.00    -0.274 A  
ENDBRANCH   1   2
BRANCH   1  11
HETATM   11  C   UNL     1      -8.128  13.649  68.069  1.00  0.00    -0.161 C  
HETATM   12  O   UNL     1      -7.028  13.829  68.580  1.00  0.00    -0.087 OA 
BRANCH  11  13
HETATM   13  O   UNL     1      -8.512  12.459  67.511  1.00  0.00    -0.155 OA 
HETATM   14  C   UNL     1      -7.419  11.581  67.229  1.00  0.00    -0.139 C  
ENDBRANCH  11  13
ENDBRANCH   1  11
BRANCH   1  15
HETATM   15  C   UNL     1     -10.356  14.387  66.963  1.00  0.00    -0.263 A  
HETATM   16  C   UNL     1     -10.982  14.257  64.587  1.00  0.00    -0.379 A  
HETATM   17  C   UNL     1     -12.648  13.868  66.270  1.00  0.00    -0.376 A  
HETATM   18  C   UNL     1     -12.291  13.956  64.927  1.00  0.00    -0.445 A  
HETATM   19  C   UNL     1     -10.034  14.472  65.590  1.00  0.00    -0.376 A  
HETATM   20  C   UNL     1     -11.695  14.079  67.280  1.00  0.00    -0.389 A  
HETATM   21 CL   UNL     1     -12.252  13.929  68.911  1.00  0.00    -0.349 Cl 
ENDBRANCH   1  15
TORSDOF 4
ENDMDL
MODEL       87
REMARK 921   NORMALIZED FREE ENERGY PREDICTED BY IDOCK:   -4.24 KCAL/MOL
REMARK 922        TOTAL FREE ENERGY PREDICTED BY IDOCK:   -5.76 KCAL/MOL
REMARK 923 INTER-LIGAND FREE ENERGY PREDICTED BY IDOCK:   -5.34 KCAL/MOL
REMARK 924 INTRA-LIGAND FREE ENERGY PREDICTED BY IDOCK:   -0.42 KCAL/MOL
REMARK 927      BINDING AFFINITY PREDICTED BY RF-SCORE:    0.00 PKD
ROOT
HETATM    1  C   UNL     1     -11.187   9.795  69.337  1.00  0.00    -0.114 C  
ENDROOT
BRANCH   1   2
HETATM    2  N   UNL     1     -10.738  10.557  68.123  1.00  0.00    -0.214 NA 
HETATM    3  S   UNL     1     -10.040  12.163  63.958  1.00  0.00    -0.310 SA 
HETATM    4  C   UNL     1     -10.428  11.608  65.514  1.00  0.00    -0.273 A  
HETATM    5  C   UNL     1      -9.232  10.699  63.590  1.00  0.00    -0.259 A  
HETATM    6  C   UNL     1     -11.212  12.411  66.492  1.00  0.00    -0.368 C  
HETATM    7  C   UNL     1     -11.770  11.474  67.586  1.00  0.00    -0.208 C  
HETATM    8  C   UNL     1     -10.228   9.629  67.079  1.00  0.00    -0.244 C  
HETATM    9  C   UNL     1      -9.251   9.817  64.651  1.00  0.00    -0.312 A  
HETATM   10  C   UNL     1      -9.948  10.345  65.784  1.00  0.00    -0.334 A  
ENDBRANCH   1   2
BRANCH   1  11
HETATM   11  C   UNL     1     -12.067  10.667  70.280  1.00  0.00    -0.338 C  
HETATM   12  O   UNL     1     -11.802  11.800  70.664  1.00  0.00    -0.298 OA 
BRANCH  11  13
HETATM   13  O   UNL     1     -13.249  10.036  70.560  1.00  0.00    -0.232 OA 
HETATM   14  C   UNL     1     -13.455   9.801  71.956  1.00  0.00    -0.407 C  
ENDBRANCH  11  13
ENDBRANCH   1  11
BRANCH   1  15
HETATM   15  C   UNL     1     -10.027   9.080  70.056  1.00  0.00    -0.207 A  
HETATM   16  C   UNL     1      -7.662   9.005  70.732  1.00  0.00    -0.144 A  
HETATM   17  C   UNL     1      -9.098   7.153  71.252  1.00  0.00    -0.151 A  
HETATM   18  C   UNL     1      -7.842   7.753  71.298  1.00  0.00    -0.086 A  
HETATM   19  C   UNL     1      -8.737   9.653  70.119  1.00  0.00    -0.263 A  
HETATM   20  C   UNL     1     -10.181   7.806  70.640  1.00  0.00    -0.199 A  
HETATM   21 CL   UNL     1     -11.696   6.969  70.657  1.00  0.00    -0.381 Cl 
ENDBRANCH   1  15
TORSDOF 4
ENDMDL
MODEL       88
REMARK 921   NORMALIZED FREE ENERGY PREDICTED BY IDOCK:   -4.24 KCAL/MOL
REMARK 922        TOTAL FREE ENERGY PREDICTED BY IDOCK:   -5.76 KCAL/MOL
REMARK 923 INTER-LIGAND FREE ENERGY PREDICTED BY IDOCK:   -5.31 KCAL/MOL
REMARK 924 INTRA-LIGAND FREE ENERGY PREDICTED BY IDOCK:   -0.45 KCAL/MOL
REMARK 927      BINDING AFFINITY PREDICTED BY RF-SCORE:    0.00 PKD
ROOT
HETATM    1  C   UNL     1     -11.162   9.039  71.633  1.00  0.00    -0.361 C  
ENDROOT
BRANCH   1   2
HETATM    2  N   UNL     1     -10.189   7.984  72.075  1.00  0.00    -0.209 NA 
HETATM    3  S   UNL     1      -7.103   5.485  74.230  1.00  0.00    -0.082 SA 
HETATM    4  C   UNL     1      -8.346   6.398  73.524  1.00  0.00    -0.119 A  
HETATM    5  C   UNL     1      -5.942   6.678  73.834  1.00  0.00    -0.063 A  
HETATM    6  C   UNL     1      -9.769   5.958  73.504  1.00  0.00    -0.160 C  
HETATM    7  C   UNL     1     -10.673   7.177  73.219  1.00  0.00    -0.361 C  
HETATM    8  C   UNL     1      -8.854   8.580  72.346  1.00  0.00    -0.198 C  
HETATM    9  C   UNL     1      -6.504   7.743  73.159  1.00  0.00    -0.069 A  
HETATM   10  C   UNL     1      -7.913   7.583  72.970  1.00  0.00    -0.132 A  
ENDBRANCH   1   2
BRANCH   1  11
HETATM   11  C   UNL     1     -12.624   8.691  72.038  1.00  0.00    -0.378 C  
HETATM   12  O   UNL     1     -13.260   9.214  72.946  1.00  0.00    -0.312 OA 
BRANCH  11  13
HETATM   13  O   UNL     1     -13.160   7.772  71.177  1.00  0.00    -0.234 OA 
HETATM   14  C   UNL     1     -14.401   7.221  71.628  1.00  0.00    -0.421 C  
ENDBRANCH  11  13
ENDBRANCH   1  11
BRANCH   1  15
HETATM   15  C   UNL     1     -11.002   9.413  70.145  1.00  0.00    -0.282 A  
HETATM   16  C   UNL     1     -10.189   8.869  67.888  1.00  0.00    -0.274 A  
HETATM   17  C   UNL     1     -11.227  10.996  68.289  1.00  0.00    -0.340 A  
HETATM   18  C   UNL     1     -10.612  10.102  67.416  1.00  0.00    -0.329 A  
HETATM   19  C   UNL     1     -10.378   8.535  69.231  1.00  0.00    -0.227 A  
HETATM   20  C   UNL     1     -11.422  10.659  69.639  1.00  0.00    -0.291 A  
HETATM   21 CL   UNL     1     -12.210  11.845  70.624  1.00  0.00    -0.464 Cl 
ENDBRANCH   1  15
TORSDOF 4
ENDMDL
MODEL       89
REMARK 921   NORMALIZED FREE ENERGY PREDICTED BY IDOCK:   -4.24 KCAL/MOL
REMARK 922        TOTAL FREE ENERGY PREDICTED BY IDOCK:   -5.76 KCAL/MOL
REMARK 923 INTER-LIGAND FREE ENERGY PREDICTED BY IDOCK:   -5.66 KCAL/MOL
REMARK 924 INTRA-LIGAND FREE ENERGY PREDICTED BY IDOCK:   -0.09 KCAL/MOL
REMARK 927      BINDING AFFINITY PREDICTED BY RF-SCORE:    0.00 PKD
ROOT
HETATM    1  C   UNL     1      -8.711  14.267  68.574  1.00  0.00    -0.175 C  
ENDROOT
BRANCH   1   2
HETATM    2  N   UNL     1      -9.441  15.477  68.067  1.00  0.00    -0.194 NA 
HETATM    3  S   UNL     1     -10.644  19.520  66.448  1.00  0.00    -0.454 SA 
HETATM    4  C   UNL     1     -10.139  17.975  66.934  1.00  0.00    -0.348 A  
HETATM    5  C   UNL     1     -10.113  20.206  67.923  1.00  0.00    -0.392 A  
HETATM    6  C   UNL     1     -10.275  16.766  66.076  1.00  0.00    -0.361 C  
HETATM    7  C   UNL     1      -9.332  15.662  66.602  1.00  0.00    -0.265 C  
HETATM    8  C   UNL     1      -9.020  16.695  68.809  1.00  0.00    -0.253 C  
HETATM    9  C   UNL     1      -9.577  19.259  68.772  1.00  0.00    -0.485 A  
HETATM   10  C   UNL     1      -9.592  17.947  68.200  1.00  0.00    -0.306 A  
ENDBRANCH   1   2
BRANCH   1  11
HETATM   11  C   UNL     1      -7.176  14.369  68.333  1.00  0.00    -0.114 C  
HETATM   12  O   UNL     1      -6.620  14.368  67.241  1.00  0.00    -0.283 OA 
BRANCH  11  13
HETATM   13  O   UNL     1      -6.512  14.559  69.515  1.00  0.00    -0.115 OA 
HETATM   14  C   UNL     1      -5.411  15.467  69.413  1.00  0.00    -0.093 C  
ENDBRANCH  11  13
ENDBRANCH   1  11
BRANCH   1  15
HETATM   15  C   UNL     1      -9.330  12.944  68.080  1.00  0.00    -0.213 A  
HETATM   16  C   UNL     1      -9.220  10.942  66.654  1.00  0.00    -0.184 A  
HETATM   17  C   UNL     1     -11.170  11.329  67.998  1.00  0.00    -0.351 A  
HETATM   18  C   UNL     1     -10.477  10.544  67.080  1.00  0.00    -0.302 A  
HETATM   19  C   UNL     1      -8.660  12.124  67.144  1.00  0.00    -0.185 A  
HETATM   20  C   UNL     1     -10.607  12.516  68.495  1.00  0.00    -0.243 A  
HETATM   21 CL   UNL     1     -11.556  13.400  69.641  1.00  0.00    -0.347 Cl 
ENDBRANCH   1  15
TORSDOF 4
ENDMDL
MODEL       90
REMARK 921   NORMALIZED FREE ENERGY PREDICTED BY IDOCK:   -4.24 KCAL/MOL
REMARK 922        TOTAL FREE ENERGY PREDICTED BY IDOCK:   -5.75 KCAL/MOL
REMARK 923 INTER-LIGAND FREE ENERGY PREDICTED BY IDOCK:   -6.56 KCAL/MOL
REMARK 924 INTRA-LIGAND FREE ENERGY PREDICTED BY IDOCK:    0.80 KCAL/MOL
REMARK 927      BINDING AFFINITY PREDICTED BY RF-SCORE:    0.00 PKD
ROOT
HETATM    1  C   UNL     1      -9.817  12.660  67.832  1.00  0.00    -0.218 C  
ENDROOT
BRANCH   1   2
HETATM    2  N   UNL     1     -10.633  12.798  69.085  1.00  0.00    -0.033 NA 
HETATM    3  S   UNL     1     -13.889  13.395  72.159  1.00  0.00    -0.449 SA 
HETATM    4  C   UNL     1     -12.728  13.056  70.969  1.00  0.00    -0.262 A  
HETATM    5  C   UNL     1     -13.945  15.042  71.697  1.00  0.00    -0.502 A  
HETATM    6  C   UNL     1     -12.167  11.696  70.744  1.00  0.00    -0.443 C  
HETATM    7  C   UNL     1     -11.519  11.640  69.343  1.00  0.00    -0.307 C  
HETATM    8  C   UNL     1     -11.387  14.079  69.083  1.00  0.00    -0.281 C  
HETATM    9  C   UNL     1     -13.075  15.320  70.662  1.00  0.00    -0.407 A  
HETATM   10  C   UNL     1     -12.356  14.160  70.232  1.00  0.00    -0.421 A  
ENDBRANCH   1   2
BRANCH   1  11
HETATM   11  C   UNL     1      -8.425  13.345  67.963  1.00  0.00    -0.173 C  
HETATM   12  O   UNL     1      -8.134  14.230  68.759  1.00  0.00    -0.141 OA 
BRANCH  11  13
HETATM   13  O   UNL     1      -7.515  12.759  67.124  1.00  0.00    -0.126 OA 
HETATM   14  C   UNL     1      -7.340  11.359  67.358  1.00  0.00    -0.119 C  
ENDBRANCH  11  13
ENDBRANCH   1  11
BRANCH   1  15
HETATM   15  C   UNL     1     -10.594  13.070  66.565  1.00  0.00    -0.292 A  
HETATM   16  C   UNL     1     -12.162  12.510  64.753  1.00  0.00    -0.532 A  
HETATM   17  C   UNL     1     -11.109  14.667  64.780  1.00  0.00    -0.394 A  
HETATM   18  C   UNL     1     -11.977  13.758  64.179  1.00  0.00    -0.473 A  
HETATM   19  C   UNL     1     -11.478  12.173  65.923  1.00  0.00    -0.418 A  
HETATM   20  C   UNL     1     -10.424  14.331  65.959  1.00  0.00    -0.301 A  
HETATM   21 CL   UNL     1      -9.385  15.546  66.621  1.00  0.00    -0.268 Cl 
ENDBRANCH   1  15
TORSDOF 4
ENDMDL
MODEL       91
REMARK 921   NORMALIZED FREE ENERGY PREDICTED BY IDOCK:   -4.24 KCAL/MOL
REMARK 922        TOTAL FREE ENERGY PREDICTED BY IDOCK:   -5.75 KCAL/MOL
REMARK 923 INTER-LIGAND FREE ENERGY PREDICTED BY IDOCK:   -5.67 KCAL/MOL
REMARK 924 INTRA-LIGAND FREE ENERGY PREDICTED BY IDOCK:   -0.09 KCAL/MOL
REMARK 927      BINDING AFFINITY PREDICTED BY RF-SCORE:    0.00 PKD
ROOT
HETATM    1  C   UNL     1      -9.011  10.021  68.485  1.00  0.00    -0.124 C  
ENDROOT
BRANCH   1   2
HETATM    2  N   UNL     1      -9.753  11.004  67.625  1.00  0.00    -0.167 NA 
HETATM    3  S   UNL     1     -12.527  13.084  64.729  1.00  0.00    -0.402 SA 
HETATM    4  C   UNL     1     -11.593  12.280  65.895  1.00  0.00    -0.393 A  
HETATM    5  C   UNL     1     -11.715  12.274  63.458  1.00  0.00    -0.499 A  
HETATM    6  C   UNL     1     -11.768  12.484  67.359  1.00  0.00    -0.432 C  
HETATM    7  C   UNL     1     -11.117  11.307  68.117  1.00  0.00    -0.259 C  
HETATM    8  C   UNL     1      -9.765  10.558  66.207  1.00  0.00    -0.205 C  
HETATM    9  C   UNL     1     -10.738  11.421  63.928  1.00  0.00    -0.462 A  
HETATM   10  C   UNL     1     -10.658  11.422  65.357  1.00  0.00    -0.333 A  
ENDBRANCH   1   2
BRANCH   1  11
HETATM   11  C   UNL     1      -7.540   9.829  68.014  1.00  0.00    -0.082 C  
HETATM   12  O   UNL     1      -7.033   8.772  67.656  1.00  0.00    -0.073 OA 
BRANCH  11  13
HETATM   13  O   UNL     1      -6.888  11.032  67.957  1.00  0.00    -0.066 OA 
HETATM   14  C   UNL     1      -6.184  11.243  66.730  1.00  0.00    -0.134 C  
ENDBRANCH  11  13
ENDBRANCH   1  11
BRANCH   1  15
HETATM   15  C   UNL     1      -9.779   8.698  68.679  1.00  0.00    -0.171 A  
HETATM   16  C   UNL     1     -10.999   6.784  67.729  1.00  0.00    -0.321 A  
HETATM   17  C   UNL     1     -10.810   7.000  70.112  1.00  0.00    -0.285 A  
HETATM   18  C   UNL     1     -11.272   6.301  68.998  1.00  0.00    -0.415 A  
HETATM   19  C   UNL     1     -10.268   7.965  67.574  1.00  0.00    -0.308 A  
HETATM   20  C   UNL     1     -10.071   8.184  69.958  1.00  0.00    -0.196 A  
HETATM   21 CL   UNL     1      -9.538   8.956  71.413  1.00  0.00    -0.341 Cl 
ENDBRANCH   1  15
TORSDOF 4
ENDMDL
MODEL       92
REMARK 921   NORMALIZED FREE ENERGY PREDICTED BY IDOCK:   -4.22 KCAL/MOL
REMARK 922        TOTAL FREE ENERGY PREDICTED BY IDOCK:   -5.74 KCAL/MOL
REMARK 923 INTER-LIGAND FREE ENERGY PREDICTED BY IDOCK:   -5.99 KCAL/MOL
REMARK 924 INTRA-LIGAND FREE ENERGY PREDICTED BY IDOCK:    0.25 KCAL/MOL
REMARK 927      BINDING AFFINITY PREDICTED BY RF-SCORE:    0.00 PKD
ROOT
HETATM    1  C   UNL     1     -10.159  13.135  67.585  1.00  0.00    -0.221 C  
ENDROOT
BRANCH   1   2
HETATM    2  N   UNL     1     -10.858  13.162  68.914  1.00  0.00    -0.232 NA 
HETATM    3  S   UNL     1     -13.812  13.522  72.313  1.00  0.00    -0.533 SA 
HETATM    4  C   UNL     1     -12.772  13.279  70.995  1.00  0.00    -0.293 A  
HETATM    5  C   UNL     1     -13.844  15.210  72.031  1.00  0.00    -0.504 A  
HETATM    6  C   UNL     1     -12.284  11.934  70.581  1.00  0.00    -0.424 C  
HETATM    7  C   UNL     1     -11.762  12.009  69.129  1.00  0.00    -0.330 C  
HETATM    8  C   UNL     1     -11.560  14.458  69.112  1.00  0.00    -0.307 C  
HETATM    9  C   UNL     1     -13.057  15.571  70.957  1.00  0.00    -0.551 A  
HETATM   10  C   UNL     1     -12.422  14.444  70.346  1.00  0.00    -0.420 A  
ENDBRANCH   1   2
BRANCH   1  11
HETATM   11  C   UNL     1     -10.751  12.051  66.637  1.00  0.00    -0.245 C  
HETATM   12  O   UNL     1     -11.626  12.232  65.799  1.00  0.00    -0.363 OA 
BRANCH  11  13
HETATM   13  O   UNL     1     -10.093  10.860  66.792  1.00  0.00    -0.201 OA 
HETATM   14  C   UNL     1      -9.920  10.139  65.569  1.00  0.00    -0.293 C  
ENDBRANCH  11  13
ENDBRANCH   1  11
BRANCH   1  15
HETATM   15  C   UNL     1      -8.624  13.072  67.718  1.00  0.00    -0.189 A  
HETATM   16  C   UNL     1      -6.585  11.818  68.287  1.00  0.00    -0.056 A  
HETATM   17  C   UNL     1      -6.415  14.130  67.662  1.00  0.00    -0.153 A  
HETATM   18  C   UNL     1      -5.806  12.941  68.058  1.00  0.00    -0.107 A  
HETATM   19  C   UNL     1      -7.970  11.886  68.123  1.00  0.00    -0.151 A  
HETATM   20  C   UNL     1      -7.807  14.198  67.492  1.00  0.00    -0.192 A  
HETATM   21 CL   UNL     1      -8.448  15.723  66.984  1.00  0.00    -0.227 Cl 
ENDBRANCH   1  15
TORSDOF 4
ENDMDL
MODEL       93
REMARK 921   NORMALIZED FREE ENERGY PREDICTED BY IDOCK:   -4.22 KCAL/MOL
REMARK 922        TOTAL FREE ENERGY PREDICTED BY IDOCK:   -5.73 KCAL/MOL
REMARK 923 INTER-LIGAND FREE ENERGY PREDICTED BY IDOCK:   -5.74 KCAL/MOL
REMARK 924 INTRA-LIGAND FREE ENERGY PREDICTED BY IDOCK:    0.00 KCAL/MOL
REMARK 927      BINDING AFFINITY PREDICTED BY RF-SCORE:    0.00 PKD
ROOT
HETATM    1  C   UNL     1      -9.784  12.505  66.171  1.00  0.00    -0.254 C  
ENDROOT
BRANCH   1   2
HETATM    2  N   UNL     1      -9.414  13.933  66.458  1.00  0.00    -0.283 NA 
HETATM    3  S   UNL     1      -8.514  17.941  68.338  1.00  0.00    -0.295 SA 
HETATM    4  C   UNL     1      -8.742  16.388  67.694  1.00  0.00    -0.182 A  
HETATM    5  C   UNL     1     -10.184  18.089  68.687  1.00  0.00    -0.377 A  
HETATM    6  C   UNL     1      -7.628  15.556  67.162  1.00  0.00    -0.253 C  
HETATM    7  C   UNL     1      -8.084  14.082  67.091  1.00  0.00    -0.099 C  
HETATM    8  C   UNL     1     -10.480  14.603  67.249  1.00  0.00    -0.266 C  
HETATM    9  C   UNL     1     -10.895  16.972  68.298  1.00  0.00    -0.341 A  
HETATM   10  C   UNL     1     -10.056  15.971  67.712  1.00  0.00    -0.243 A  
ENDBRANCH   1   2
BRANCH   1  11
HETATM   11  C   UNL     1     -10.742  12.385  64.950  1.00  0.00    -0.294 C  
HETATM   12  O   UNL     1     -11.401  11.397  64.650  1.00  0.00    -0.217 OA 
BRANCH  11  13
HETATM   13  O   UNL     1     -10.835  13.580  64.287  1.00  0.00    -0.391 OA 
HETATM   14  C   UNL     1     -12.181  13.996  64.043  1.00  0.00    -0.355 C  
ENDBRANCH  11  13
ENDBRANCH   1  11
BRANCH   1  15
HETATM   15  C   UNL     1     -10.275  11.752  67.423  1.00  0.00    -0.220 A  
HETATM   16  C   UNL     1     -12.032  11.303  69.086  1.00  0.00    -0.405 A  
HETATM   17  C   UNL     1      -9.894  10.236  69.309  1.00  0.00    -0.244 A  
HETATM   18  C   UNL     1     -11.189  10.448  69.777  1.00  0.00    -0.353 A  
HETATM   19  C   UNL     1     -11.580  11.946  67.931  1.00  0.00    -0.393 A  
HETATM   20  C   UNL     1      -9.439  10.878  68.146  1.00  0.00    -0.165 A  
HETATM   21 CL   UNL     1      -7.817  10.526  67.654  1.00  0.00    -0.105 Cl 
ENDBRANCH   1  15
TORSDOF 4
ENDMDL
MODEL       94
REMARK 921   NORMALIZED FREE ENERGY PREDICTED BY IDOCK:   -4.20 KCAL/MOL
REMARK 922        TOTAL FREE ENERGY PREDICTED BY IDOCK:   -5.71 KCAL/MOL
REMARK 923 INTER-LIGAND FREE ENERGY PREDICTED BY IDOCK:   -5.47 KCAL/MOL
REMARK 924 INTRA-LIGAND FREE ENERGY PREDICTED BY IDOCK:   -0.24 KCAL/MOL
REMARK 927      BINDING AFFINITY PREDICTED BY RF-SCORE:    0.00 PKD
ROOT
HETATM    1  C   UNL     1     -10.901  10.698  69.870  1.00  0.00    -0.241 C  
ENDROOT
BRANCH   1   2
HETATM    2  N   UNL     1     -10.884   9.206  69.697  1.00  0.00    -0.223 NA 
HETATM    3  S   UNL     1      -9.909   4.918  68.661  1.00  0.00    -0.128 SA 
HETATM    4  C   UNL     1     -10.170   6.526  69.134  1.00  0.00    -0.180 A  
HETATM    5  C   UNL     1     -10.190   5.310  67.019  1.00  0.00    -0.234 A  
HETATM    6  C   UNL     1     -10.066   6.986  70.546  1.00  0.00    -0.202 C  
HETATM    7  C   UNL     1      -9.903   8.522  70.569  1.00  0.00    -0.180 C  
HETATM    8  C   UNL     1     -10.696   8.845  68.267  1.00  0.00    -0.082 C  
HETATM    9  C   UNL     1     -10.494   6.646  66.850  1.00  0.00    -0.349 A  
HETATM   10  C   UNL     1     -10.487   7.365  68.087  1.00  0.00    -0.241 A  
ENDBRANCH   1   2
BRANCH   1  11
HETATM   11  C   UNL     1     -12.161  11.181  70.646  1.00  0.00    -0.379 C  
HETATM   12  O   UNL     1     -12.356  12.317  71.061  1.00  0.00    -0.351 OA 
BRANCH  11  13
HETATM   13  O   UNL     1     -13.091  10.180  70.732  1.00  0.00    -0.369 OA 
HETATM   14  C   UNL     1     -13.374   9.775  72.074  1.00  0.00    -0.451 C  
ENDBRANCH  11  13
ENDBRANCH   1  11
BRANCH   1  15
HETATM   15  C   UNL     1     -10.658  11.456  68.549  1.00  0.00    -0.225 A  
HETATM   16  C   UNL     1     -11.537  12.562  66.535  1.00  0.00    -0.447 A  
HETATM   17  C   UNL     1      -9.164  12.342  66.821  1.00  0.00    -0.212 A  
HETATM   18  C   UNL     1     -10.251  12.779  66.067  1.00  0.00    -0.290 A  
HETATM   19  C   UNL     1     -11.735  11.908  67.753  1.00  0.00    -0.362 A  
HETATM   20  C   UNL     1      -9.361  11.689  68.049  1.00  0.00    -0.178 A  
HETATM   21 CL   UNL     1      -7.935  11.206  68.903  1.00  0.00    -0.142 Cl 
ENDBRANCH   1  15
TORSDOF 4
ENDMDL
MODEL       95
REMARK 921   NORMALIZED FREE ENERGY PREDICTED BY IDOCK:   -4.20 KCAL/MOL
REMARK 922        TOTAL FREE ENERGY PREDICTED BY IDOCK:   -5.71 KCAL/MOL
REMARK 923 INTER-LIGAND FREE ENERGY PREDICTED BY IDOCK:   -5.87 KCAL/MOL
REMARK 924 INTRA-LIGAND FREE ENERGY PREDICTED BY IDOCK:    0.17 KCAL/MOL
REMARK 927      BINDING AFFINITY PREDICTED BY RF-SCORE:    0.00 PKD
ROOT
HETATM    1  C   UNL     1      -9.897   9.967  69.246  1.00  0.00    -0.207 C  
ENDROOT
BRANCH   1   2
HETATM    2  N   UNL     1     -10.357  10.214  67.837  1.00  0.00    -0.181 NA 
HETATM    3  S   UNL     1     -11.207  11.883  63.726  1.00  0.00    -0.463 SA 
HETATM    4  C   UNL     1     -10.759  11.245  65.233  1.00  0.00    -0.237 A  
HETATM    5  C   UNL     1     -12.193  13.067  64.473  1.00  0.00    -0.416 A  
HETATM    6  C   UNL     1      -9.818  10.101  65.384  1.00  0.00    -0.375 C  
HETATM    7  C   UNL     1      -9.279  10.075  66.832  1.00  0.00    -0.147 C  
HETATM    8  C   UNL     1     -11.044  11.528  67.732  1.00  0.00    -0.260 C  
HETATM    9  C   UNL     1     -12.185  12.955  65.848  1.00  0.00    -0.469 A  
HETATM   10  C   UNL     1     -11.348  11.886  66.301  1.00  0.00    -0.394 A  
ENDBRANCH   1   2
BRANCH   1  11
HETATM   11  C   UNL     1      -8.356   9.763  69.329  1.00  0.00    -0.142 C  
HETATM   12  O   UNL     1      -7.767   8.694  69.220  1.00  0.00    -0.091 OA 
BRANCH  11  13
HETATM   13  O   UNL     1      -7.714  10.966  69.448  1.00  0.00    -0.134 OA 
HETATM   14  C   UNL     1      -6.445  10.875  70.101  1.00  0.00    -0.145 C  
ENDBRANCH  11  13
ENDBRANCH   1  11
BRANCH   1  15
HETATM   15  C   UNL     1     -10.709   8.864  69.955  1.00  0.00    -0.236 A  
HETATM   16  C   UNL     1     -11.977   8.076  71.910  1.00  0.00    -0.359 A  
HETATM   17  C   UNL     1     -11.590   6.581  70.073  1.00  0.00    -0.455 A  
HETATM   18  C   UNL     1     -12.136   6.827  71.331  1.00  0.00    -0.415 A  
HETATM   19  C   UNL     1     -11.272   9.074  71.234  1.00  0.00    -0.385 A  
HETATM   20  C   UNL     1     -10.885   7.585  69.389  1.00  0.00    -0.150 A  
HETATM   21 CL   UNL     1     -10.265   7.166  67.828  1.00  0.00    -0.214 Cl 
ENDBRANCH   1  15
TORSDOF 4
ENDMDL
MODEL       96
REMARK 921   NORMALIZED FREE ENERGY PREDICTED BY IDOCK:   -4.19 KCAL/MOL
REMARK 922        TOTAL FREE ENERGY PREDICTED BY IDOCK:   -5.69 KCAL/MOL
REMARK 923 INTER-LIGAND FREE ENERGY PREDICTED BY IDOCK:   -5.68 KCAL/MOL
REMARK 924 INTRA-LIGAND FREE ENERGY PREDICTED BY IDOCK:   -0.02 KCAL/MOL
REMARK 927      BINDING AFFINITY PREDICTED BY RF-SCORE:    0.00 PKD
ROOT
HETATM    1  C   UNL     1      -8.871  10.790  66.140  1.00  0.00    -0.177 C  
ENDROOT
BRANCH   1   2
HETATM    2  N   UNL     1      -9.219   9.601  66.989  1.00  0.00    -0.140 NA 
HETATM    3  S   UNL     1     -11.158   6.588  69.740  1.00  0.00    -0.393 SA 
HETATM    4  C   UNL     1     -10.527   7.692  68.617  1.00  0.00    -0.177 A  
HETATM    5  C   UNL     1     -10.918   7.692  71.026  1.00  0.00    -0.248 A  
HETATM    6  C   UNL     1     -10.429   7.404  67.160  1.00  0.00    -0.403 C  
HETATM    7  C   UNL     1     -10.258   8.732  66.391  1.00  0.00    -0.186 C  
HETATM    8  C   UNL     1      -9.581  10.026  68.366  1.00  0.00    -0.145 C  
HETATM    9  C   UNL     1     -10.350   8.873  70.595  1.00  0.00    -0.265 A  
HETATM   10  C   UNL     1     -10.114   8.879  69.183  1.00  0.00    -0.202 A  
ENDBRANCH   1   2
BRANCH   1  11
HETATM   11  C   UNL     1      -7.892  11.759  66.866  1.00  0.00    -0.141 C  
HETATM   12  O   UNL     1      -8.183  12.853  67.336  1.00  0.00    -0.169 OA 
BRANCH  11  13
HETATM   13  O   UNL     1      -6.656  11.186  67.002  1.00  0.00    -0.088 OA 
HETATM   14  C   UNL     1      -6.184  10.556  65.808  1.00  0.00    -0.132 C  
ENDBRANCH  11  13
ENDBRANCH   1  11
BRANCH   1  15
HETATM   15  C   UNL     1     -10.114  11.488  65.552  1.00  0.00    -0.286 A  
HETATM   16  C   UNL     1     -12.198  12.756  65.877  1.00  0.00    -0.422 A  
HETATM   17  C   UNL     1     -11.568  12.064  63.667  1.00  0.00    -0.578 A  
HETATM   18  C   UNL     1     -12.461  12.712  64.517  1.00  0.00    -0.525 A  
HETATM   19  C   UNL     1     -11.046  12.150  66.384  1.00  0.00    -0.358 A  
HETATM   20  C   UNL     1     -10.407  11.459  64.174  1.00  0.00    -0.344 A  
HETATM   21 CL   UNL     1      -9.366  10.697  63.020  1.00  0.00    -0.300 Cl 
ENDBRANCH   1  15
TORSDOF 4
ENDMDL
MODEL       97
REMARK 921   NORMALIZED FREE ENERGY PREDICTED BY IDOCK:   -4.19 KCAL/MOL
REMARK 922        TOTAL FREE ENERGY PREDICTED BY IDOCK:   -5.69 KCAL/MOL
REMARK 923 INTER-LIGAND FREE ENERGY PREDICTED BY IDOCK:   -5.88 KCAL/MOL
REMARK 924 INTRA-LIGAND FREE ENERGY PREDICTED BY IDOCK:    0.19 KCAL/MOL
REMARK 927      BINDING AFFINITY PREDICTED BY RF-SCORE:    0.00 PKD
ROOT
HETATM    1  C   UNL     1      -9.287  11.866  67.667  1.00  0.00    -0.183 C  
ENDROOT
BRANCH   1   2
HETATM    2  N   UNL     1     -10.184  12.303  68.790  1.00  0.00    -0.157 NA 
HETATM    3  S   UNL     1     -13.522  13.935  71.360  1.00  0.00    -0.206 SA 
HETATM    4  C   UNL     1     -12.353  13.224  70.357  1.00  0.00    -0.295 A  
HETATM    5  C   UNL     1     -13.099  15.502  70.815  1.00  0.00    -0.390 A  
HETATM    6  C   UNL     1     -12.135  11.754  70.277  1.00  0.00    -0.426 C  
HETATM    7  C   UNL     1     -11.361  11.425  68.982  1.00  0.00    -0.280 C  
HETATM    8  C   UNL     1     -10.579  13.727  68.623  1.00  0.00    -0.253 C  
HETATM    9  C   UNL     1     -12.070  15.471  69.896  1.00  0.00    -0.378 A  
HETATM   10  C   UNL     1     -11.625  14.138  69.625  1.00  0.00    -0.349 A  
ENDBRANCH   1   2
BRANCH   1  11
HETATM   11  C   UNL     1      -7.825  12.365  67.861  1.00  0.00    -0.145 C  
HETATM   12  O   UNL     1      -7.460  13.230  68.649  1.00  0.00    -0.114 OA 
BRANCH  11  13
HETATM   13  O   UNL     1      -6.958  11.636  67.091  1.00  0.00    -0.123 OA 
HETATM   14  C   UNL     1      -5.649  12.205  67.009  1.00  0.00    -0.079 C  
ENDBRANCH  11  13
ENDBRANCH   1  11
BRANCH   1  15
HETATM   15  C   UNL     1      -9.872  12.182  66.277  1.00  0.00    -0.250 A  
HETATM   16  C   UNL     1     -10.681  13.821  64.629  1.00  0.00    -0.427 A  
HETATM   17  C   UNL     1     -10.809  11.478  64.126  1.00  0.00    -0.435 A  
HETATM   18  C   UNL     1     -11.029  12.803  63.756  1.00  0.00    -0.445 A  
HETATM   19  C   UNL     1     -10.115  13.514  65.869  1.00  0.00    -0.311 A  
HETATM   20  C   UNL     1     -10.236  11.167  65.370  1.00  0.00    -0.271 A  
HETATM   21 CL   UNL     1      -9.997   9.487  65.712  1.00  0.00    -0.365 Cl 
ENDBRANCH   1  15
TORSDOF 4
ENDMDL
MODEL       98
REMARK 921   NORMALIZED FREE ENERGY PREDICTED BY IDOCK:   -4.17 KCAL/MOL
REMARK 922        TOTAL FREE ENERGY PREDICTED BY IDOCK:   -5.68 KCAL/MOL
REMARK 923 INTER-LIGAND FREE ENERGY PREDICTED BY IDOCK:   -5.76 KCAL/MOL
REMARK 924 INTRA-LIGAND FREE ENERGY PREDICTED BY IDOCK:    0.08 KCAL/MOL
REMARK 927      BINDING AFFINITY PREDICTED BY RF-SCORE:    0.00 PKD
ROOT
HETATM    1  C   UNL     1     -10.822  11.878  67.009  1.00  0.00    -0.259 C  
ENDROOT
BRANCH   1   2
HETATM    2  N   UNL     1     -10.440  13.259  67.462  1.00  0.00    -0.234 NA 
HETATM    3  S   UNL     1     -10.282  17.657  68.481  1.00  0.00    -0.387 SA 
HETATM    4  C   UNL     1     -10.433  15.991  68.196  1.00  0.00    -0.269 A  
HETATM    5  C   UNL     1     -10.286  17.988  66.801  1.00  0.00    -0.364 A  
HETATM    6  C   UNL     1     -10.520  14.984  69.289  1.00  0.00    -0.252 C  
HETATM    7  C   UNL     1     -11.100  13.669  68.722  1.00  0.00    -0.270 C  
HETATM    8  C   UNL     1     -10.661  14.249  66.375  1.00  0.00    -0.297 C  
HETATM    9  C   UNL     1     -10.384  16.837  66.047  1.00  0.00    -0.346 A  
HETATM   10  C   UNL     1     -10.468  15.661  66.858  1.00  0.00    -0.307 A  
ENDBRANCH   1   2
BRANCH   1  11
HETATM   11  C   UNL     1     -11.307  10.989  68.191  1.00  0.00    -0.307 C  
HETATM   12  O   UNL     1     -12.410  11.041  68.722  1.00  0.00    -0.533 OA 
BRANCH  11  13
HETATM   13  O   UNL     1     -10.360  10.055  68.515  1.00  0.00    -0.176 OA 
HETATM   14  C   UNL     1     -10.011  10.051  69.902  1.00  0.00    -0.237 C  
ENDBRANCH  11  13
ENDBRANCH   1  11
BRANCH   1  15
HETATM   15  C   UNL     1      -9.737  11.214  66.137  1.00  0.00    -0.253 A  
HETATM   16  C   UNL     1      -9.111   9.868  64.175  1.00  0.00    -0.294 A  
HETATM   17  C   UNL     1      -7.409  10.585  65.708  1.00  0.00    -0.137 A  
HETATM   18  C   UNL     1      -7.777   9.904  64.550  1.00  0.00    -0.142 A  
HETATM   19  C   UNL     1     -10.073  10.509  64.959  1.00  0.00    -0.390 A  
HETATM   20  C   UNL     1      -8.375  11.235  66.495  1.00  0.00    -0.168 A  
HETATM   21 CL   UNL     1      -7.796  12.060  67.902  1.00  0.00    -0.133 Cl 
ENDBRANCH   1  15
TORSDOF 4
ENDMDL
MODEL       99
REMARK 921   NORMALIZED FREE ENERGY PREDICTED BY IDOCK:   -4.16 KCAL/MOL
REMARK 922        TOTAL FREE ENERGY PREDICTED BY IDOCK:   -5.67 KCAL/MOL
REMARK 923 INTER-LIGAND FREE ENERGY PREDICTED BY IDOCK:   -5.64 KCAL/MOL
REMARK 924 INTRA-LIGAND FREE ENERGY PREDICTED BY IDOCK:   -0.03 KCAL/MOL
REMARK 927      BINDING AFFINITY PREDICTED BY RF-SCORE:    0.00 PKD
ROOT
HETATM    1  C   UNL     1      -9.301  11.119  66.665  1.00  0.00    -0.177 C  
ENDROOT
BRANCH   1   2
HETATM    2  N   UNL     1      -9.857  10.852  68.034  1.00  0.00    -0.168 NA 
HETATM    3  S   UNL     1     -12.477  10.149  71.647  1.00  0.00    -0.379 SA 
HETATM    4  C   UNL     1     -11.537  10.295  70.242  1.00  0.00    -0.316 A  
HETATM    5  C   UNL     1     -12.951  11.791  71.552  1.00  0.00    -0.341 A  
HETATM    6  C   UNL     1     -10.775   9.160  69.652  1.00  0.00    -0.236 C  
HETATM    7  C   UNL     1     -10.425   9.492  68.185  1.00  0.00    -0.223 C  
HETATM    8  C   UNL     1     -10.835  11.904  68.419  1.00  0.00    -0.228 C  
HETATM    9  C   UNL     1     -12.381  12.433  70.472  1.00  0.00    -0.346 A  
HETATM   10  C   UNL     1     -11.547  11.562  69.701  1.00  0.00    -0.403 A  
ENDBRANCH   1   2
BRANCH   1  11
HETATM   11  C   UNL     1      -7.769  10.851  66.595  1.00  0.00    -0.146 C  
HETATM   12  O   UNL     1      -7.116  10.677  65.573  1.00  0.00    -0.128 OA 
BRANCH  11  13
HETATM   13  O   UNL     1      -7.207  10.926  67.842  1.00  0.00    -0.084 OA 
HETATM   14  C   UNL     1      -6.309  12.028  67.999  1.00  0.00    -0.058 C  
ENDBRANCH  11  13
ENDBRANCH   1  11
BRANCH   1  15
HETATM   15  C   UNL     1      -9.715  12.497  66.110  1.00  0.00    -0.259 A  
HETATM   16  C   UNL     1      -9.778  14.948  66.322  1.00  0.00    -0.320 A  
HETATM   17  C   UNL     1     -10.890  13.893  64.475  1.00  0.00    -0.381 A  
HETATM   18  C   UNL     1     -10.535  15.049  65.166  1.00  0.00    -0.438 A  
HETATM   19  C   UNL     1      -9.380  13.692  66.787  1.00  0.00    -0.269 A  
HETATM   20  C   UNL     1     -10.486  12.629  64.938  1.00  0.00    -0.309 A  
HETATM   21 CL   UNL     1     -10.973  11.267  63.988  1.00  0.00    -0.430 Cl 
ENDBRANCH   1  15
TORSDOF 4
ENDMDL
MODEL      100
REMARK 921   NORMALIZED FREE ENERGY PREDICTED BY IDOCK:   -4.16 KCAL/MOL
REMARK 922        TOTAL FREE ENERGY PREDICTED BY IDOCK:   -5.65 KCAL/MOL
REMARK 923 INTER-LIGAND FREE ENERGY PREDICTED BY IDOCK:   -5.39 KCAL/MOL
REMARK 924 INTRA-LIGAND FREE ENERGY PREDICTED BY IDOCK:   -0.26 KCAL/MOL
REMARK 927      BINDING AFFINITY PREDICTED BY RF-SCORE:    0.00 PKD
ROOT
HETATM    1  C   UNL     1     -10.112  11.532  68.437  1.00  0.00    -0.204 C  
ENDROOT
BRANCH   1   2
HETATM    2  N   UNL     1     -10.926  12.047  69.591  1.00  0.00     0.001 NA 
HETATM    3  S   UNL     1     -14.069  13.859  72.282  1.00  0.00    -0.461 SA 
HETATM    4  C   UNL     1     -12.976  13.078  71.246  1.00  0.00    -0.243 A  
HETATM    5  C   UNL     1     -13.687  15.385  71.606  1.00  0.00    -0.509 A  
HETATM    6  C   UNL     1     -12.765  11.605  71.247  1.00  0.00    -0.444 C  
HETATM    7  C   UNL     1     -12.085  11.188  69.924  1.00  0.00    -0.344 C  
HETATM    8  C   UNL     1     -11.332  13.458  69.359  1.00  0.00    -0.226 C  
HETATM    9  C   UNL     1     -12.727  15.288  70.619  1.00  0.00    -0.470 A  
HETATM   10  C   UNL     1     -12.303  13.939  70.405  1.00  0.00    -0.433 A  
ENDBRANCH   1   2
BRANCH   1  11
HETATM   11  C   UNL     1     -11.003  10.877  67.341  1.00  0.00    -0.293 C  
HETATM   12  O   UNL     1     -11.661  11.477  66.500  1.00  0.00    -0.455 OA 
BRANCH  11  13
HETATM   13  O   UNL     1     -10.886   9.513  67.373  1.00  0.00    -0.269 OA 
HETATM   14  C   UNL     1     -10.270   8.965  66.205  1.00  0.00    -0.133 C  
ENDBRANCH  11  13
ENDBRANCH   1  11
BRANCH   1  15
HETATM   15  C   UNL     1      -8.930  10.650  68.886  1.00  0.00    -0.172 A  
HETATM   16  C   UNL     1      -7.952   9.047  70.477  1.00  0.00    -0.150 A  
HETATM   17  C   UNL     1      -6.615   9.879  68.665  1.00  0.00    -0.050 A  
HETATM   18  C   UNL     1      -6.746   9.075  69.795  1.00  0.00    -0.049 A  
HETATM   19  C   UNL     1      -9.023   9.825  70.031  1.00  0.00    -0.255 A  
HETATM   20  C   UNL     1      -7.693  10.659  68.212  1.00  0.00    -0.107 A  
HETATM   21 CL   UNL     1      -7.416  11.606  66.791  1.00  0.00    -0.125 Cl 
ENDBRANCH   1  15
TORSDOF 4
ENDMDL
MODEL      101
REMARK 921   NORMALIZED FREE ENERGY PREDICTED BY IDOCK:   -4.15 KCAL/MOL
REMARK 922        TOTAL FREE ENERGY PREDICTED BY IDOCK:   -5.65 KCAL/MOL
REMARK 923 INTER-LIGAND FREE ENERGY PREDICTED BY IDOCK:   -5.52 KCAL/MOL
REMARK 924 INTRA-LIGAND FREE ENERGY PREDICTED BY IDOCK:   -0.13 KCAL/MOL
REMARK 927      BINDING AFFINITY PREDICTED BY RF-SCORE:    0.00 PKD
ROOT
HETATM    1  C   UNL     1      -7.497  16.404  67.268  1.00  0.00    -0.169 C  
ENDROOT
BRANCH   1   2
HETATM    2  N   UNL     1      -8.807  15.702  67.045  1.00  0.00    -0.209 NA 
HETATM    3  S   UNL     1     -12.298  13.333  65.430  1.00  0.00    -0.490 SA 
HETATM    4  C   UNL     1     -10.918  14.107  66.043  1.00  0.00    -0.304 A  
HETATM    5  C   UNL     1     -12.534  14.576  64.276  1.00  0.00    -0.264 A  
HETATM    6  C   UNL     1     -10.099  13.548  67.154  1.00  0.00    -0.245 C  
HETATM    7  C   UNL     1      -8.712  14.228  67.153  1.00  0.00    -0.227 C  
HETATM    8  C   UNL     1      -9.416  16.123  65.756  1.00  0.00    -0.219 C  
HETATM    9  C   UNL     1     -11.580  15.567  64.380  1.00  0.00    -0.258 A  
HETATM   10  C   UNL     1     -10.630  15.300  65.417  1.00  0.00    -0.413 A  
ENDBRANCH   1   2
BRANCH   1  11
HETATM   11  C   UNL     1      -7.049  16.343  68.758  1.00  0.00    -0.180 C  
HETATM   12  O   UNL     1      -7.681  15.836  69.677  1.00  0.00    -0.196 OA 
BRANCH  11  13
HETATM   13  O   UNL     1      -5.788  16.855  68.905  1.00  0.00    -0.145 OA 
HETATM   14  C   UNL     1      -5.707  17.902  69.877  1.00  0.00    -0.247 C  
ENDBRANCH  11  13
ENDBRANCH   1  11
BRANCH   1  15
HETATM   15  C   UNL     1      -7.471  17.824  66.669  1.00  0.00    -0.264 A  
HETATM   16  C   UNL     1      -6.495  19.463  65.115  1.00  0.00    -0.302 A  
HETATM   17  C   UNL     1      -8.240  20.150  66.613  1.00  0.00    -0.328 A  
HETATM   18  C   UNL     1      -7.333  20.454  65.600  1.00  0.00    -0.157 A  
HETATM   19  C   UNL     1      -6.562  18.172  65.644  1.00  0.00    -0.277 A  
HETATM   20  C   UNL     1      -8.312  18.851  67.144  1.00  0.00    -0.274 A  
HETATM   21 CL   UNL     1      -9.486  18.590  68.388  1.00  0.00    -0.347 Cl 
ENDBRANCH   1  15
TORSDOF 4
ENDMDL
MODEL      102
REMARK 921   NORMALIZED FREE ENERGY PREDICTED BY IDOCK:   -4.15 KCAL/MOL
REMARK 922        TOTAL FREE ENERGY PREDICTED BY IDOCK:   -5.65 KCAL/MOL
REMARK 923 INTER-LIGAND FREE ENERGY PREDICTED BY IDOCK:   -5.97 KCAL/MOL
REMARK 924 INTRA-LIGAND FREE ENERGY PREDICTED BY IDOCK:    0.32 KCAL/MOL
REMARK 927      BINDING AFFINITY PREDICTED BY RF-SCORE:    0.00 PKD
ROOT
HETATM    1  C   UNL     1      -7.626  16.952  68.169  1.00  0.00    -0.188 C  
ENDROOT
BRANCH   1   2
HETATM    2  N   UNL     1      -8.496  15.775  68.505  1.00  0.00    -0.173 NA 
HETATM    3  S   UNL     1     -11.908  12.901  69.222  1.00  0.00    -0.284 SA 
HETATM    4  C   UNL     1     -10.653  13.971  68.821  1.00  0.00    -0.251 A  
HETATM    5  C   UNL     1     -12.397  13.896  70.527  1.00  0.00    -0.369 A  
HETATM    6  C   UNL     1      -9.731  13.749  67.673  1.00  0.00    -0.227 C  
HETATM    7  C   UNL     1      -9.039  15.082  67.314  1.00  0.00    -0.201 C  
HETATM    8  C   UNL     1      -9.573  16.171  69.451  1.00  0.00    -0.208 C  
HETATM    9  C   UNL     1     -11.597  15.013  70.654  1.00  0.00    -0.358 A  
HETATM   10  C   UNL     1     -10.570  15.062  69.659  1.00  0.00    -0.252 A  
ENDBRANCH   1   2
BRANCH   1  11
HETATM   11  C   UNL     1      -6.553  17.216  69.265  1.00  0.00    -0.234 C  
HETATM   12  O   UNL     1      -6.159  18.317  69.634  1.00  0.00    -0.242 OA 
BRANCH  11  13
HETATM   13  O   UNL     1      -6.158  16.043  69.850  1.00  0.00    -0.169 OA 
HETATM   14  C   UNL     1      -5.136  15.357  69.122  1.00  0.00    -0.095 C  
ENDBRANCH  11  13
ENDBRANCH   1  11
BRANCH   1  15
HETATM   15  C   UNL     1      -8.437  18.204  67.780  1.00  0.00    -0.251 A  
HETATM   16  C   UNL     1     -10.283  19.769  68.224  1.00  0.00    -0.569 A  
HETATM   17  C   UNL     1      -8.965  20.032  66.236  1.00  0.00    -0.383 A  
HETATM   18  C   UNL     1     -10.012  20.455  67.052  1.00  0.00    -0.568 A  
HETATM   19  C   UNL     1      -9.511  18.660  68.578  1.00  0.00    -0.386 A  
HETATM   20  C   UNL     1      -8.183  18.920  66.593  1.00  0.00    -0.286 A  
HETATM   21 CL   UNL     1      -6.902  18.498  65.509  1.00  0.00    -0.275 Cl 
ENDBRANCH   1  15
TORSDOF 4
ENDMDL
MODEL      103
REMARK 921   NORMALIZED FREE ENERGY PREDICTED BY IDOCK:   -4.15 KCAL/MOL
REMARK 922        TOTAL FREE ENERGY PREDICTED BY IDOCK:   -5.64 KCAL/MOL
REMARK 923 INTER-LIGAND FREE ENERGY PREDICTED BY IDOCK:   -5.44 KCAL/MOL
REMARK 924 INTRA-LIGAND FREE ENERGY PREDICTED BY IDOCK:   -0.20 KCAL/MOL
REMARK 927      BINDING AFFINITY PREDICTED BY RF-SCORE:    0.00 PKD
ROOT
HETATM    1  C   UNL     1      -8.201  15.083  68.769  1.00  0.00    -0.168 C  
ENDROOT
BRANCH   1   2
HETATM    2  N   UNL     1      -8.193  16.548  68.439  1.00  0.00    -0.186 NA 
HETATM    3  S   UNL     1      -7.159  20.749  67.137  1.00  0.00    -0.340 SA 
HETATM    4  C   UNL     1      -7.541  19.135  67.496  1.00  0.00    -0.236 A  
HETATM    5  C   UNL     1      -6.080  20.834  68.463  1.00  0.00    -0.338 A  
HETATM    6  C   UNL     1      -8.488  18.324  66.684  1.00  0.00    -0.281 C  
HETATM    7  C   UNL     1      -8.262  16.826  66.986  1.00  0.00    -0.194 C  
HETATM    8  C   UNL     1      -7.032  17.224  69.075  1.00  0.00    -0.235 C  
HETATM    9  C   UNL     1      -6.034  19.649  69.170  1.00  0.00    -0.297 A  
HETATM   10  C   UNL     1      -6.891  18.650  68.611  1.00  0.00    -0.294 A  
ENDBRANCH   1   2
BRANCH   1  11
HETATM   11  C   UNL     1      -6.871  14.386  68.358  1.00  0.00    -0.106 C  
HETATM   12  O   UNL     1      -6.196  14.653  67.371  1.00  0.00    -0.332 OA 
BRANCH  11  13
HETATM   13  O   UNL     1      -6.487  13.476  69.307  1.00  0.00    -0.103 OA 
HETATM   14  C   UNL     1      -5.955  14.075  70.492  1.00  0.00    -0.177 C  
ENDBRANCH  11  13
ENDBRANCH   1  11
BRANCH   1  15
HETATM   15  C   UNL     1      -9.464  14.362  68.258  1.00  0.00    -0.207 A  
HETATM   16  C   UNL     1     -10.551  12.857  66.643  1.00  0.00    -0.273 A  
HETATM   17  C   UNL     1     -11.876  13.938  68.327  1.00  0.00    -0.412 A  
HETATM   18  C   UNL     1     -11.785  13.081  67.232  1.00  0.00    -0.429 A  
HETATM   19  C   UNL     1      -9.412  13.490  67.146  1.00  0.00    -0.244 A  
HETATM   20  C   UNL     1     -10.731  14.573  68.837  1.00  0.00    -0.254 A  
HETATM   21 CL   UNL     1     -10.966  15.602  70.208  1.00  0.00    -0.334 Cl 
ENDBRANCH   1  15
TORSDOF 4
ENDMDL
MODEL      104
REMARK 921   NORMALIZED FREE ENERGY PREDICTED BY IDOCK:   -4.11 KCAL/MOL
REMARK 922        TOTAL FREE ENERGY PREDICTED BY IDOCK:   -5.60 KCAL/MOL
REMARK 923 INTER-LIGAND FREE ENERGY PREDICTED BY IDOCK:   -6.24 KCAL/MOL
REMARK 924 INTRA-LIGAND FREE ENERGY PREDICTED BY IDOCK:    0.64 KCAL/MOL
REMARK 927      BINDING AFFINITY PREDICTED BY RF-SCORE:    0.00 PKD
ROOT
HETATM    1  C   UNL     1     -10.981  12.218  65.826  1.00  0.00    -0.301 C  
ENDROOT
BRANCH   1   2
HETATM    2  N   UNL     1     -11.269  11.521  67.125  1.00  0.00    -0.307 NA 
HETATM    3  S   UNL     1     -11.183   9.835  71.315  1.00  0.00    -0.281 SA 
HETATM    4  C   UNL     1     -11.228  10.591  69.797  1.00  0.00    -0.298 A  
HETATM    5  C   UNL     1      -9.902   8.815  70.818  1.00  0.00    -0.205 A  
HETATM    6  C   UNL     1     -12.169  11.697  69.466  1.00  0.00    -0.257 C  
HETATM    7  C   UNL     1     -11.653  12.445  68.217  1.00  0.00    -0.333 C  
HETATM    8  C   UNL     1     -10.133  10.647  67.516  1.00  0.00    -0.184 C  
HETATM    9  C   UNL     1      -9.536   9.045  69.507  1.00  0.00    -0.164 A  
HETATM   10  C   UNL     1     -10.312  10.084  68.901  1.00  0.00    -0.217 A  
ENDBRANCH   1   2
BRANCH   1  11
HETATM   11  C   UNL     1     -10.236  11.292  64.820  1.00  0.00    -0.292 C  
HETATM   12  O   UNL     1     -10.030  10.093  64.967  1.00  0.00    -0.322 OA 
BRANCH  11  13
HETATM   13  O   UNL     1      -9.913  11.976  63.679  1.00  0.00    -0.374 OA 
HETATM   14  C   UNL     1      -9.281  11.164  62.686  1.00  0.00    -0.323 C  
ENDBRANCH  11  13
ENDBRANCH   1  11
BRANCH   1  15
HETATM   15  C   UNL     1     -10.307  13.591  66.021  1.00  0.00    -0.303 A  
HETATM   16  C   UNL     1      -8.544  14.973  67.040  1.00  0.00    -0.266 A  
HETATM   17  C   UNL     1     -10.229  16.017  65.687  1.00  0.00    -0.412 A  
HETATM   18  C   UNL     1      -9.085  16.117  66.475  1.00  0.00    -0.311 A  
HETATM   19  C   UNL     1      -9.148  13.733  66.819  1.00  0.00    -0.235 A  
HETATM   20  C   UNL     1     -10.836  14.770  65.459  1.00  0.00    -0.351 A  
HETATM   21 CL   UNL     1     -12.243  14.769  64.452  1.00  0.00    -0.504 Cl 
ENDBRANCH   1  15
TORSDOF 4
ENDMDL
MODEL      105
REMARK 921   NORMALIZED FREE ENERGY PREDICTED BY IDOCK:   -4.09 KCAL/MOL
REMARK 922        TOTAL FREE ENERGY PREDICTED BY IDOCK:   -5.58 KCAL/MOL
REMARK 923 INTER-LIGAND FREE ENERGY PREDICTED BY IDOCK:   -5.32 KCAL/MOL
REMARK 924 INTRA-LIGAND FREE ENERGY PREDICTED BY IDOCK:   -0.25 KCAL/MOL
REMARK 927      BINDING AFFINITY PREDICTED BY RF-SCORE:    0.00 PKD
ROOT
HETATM    1  C   UNL     1      -9.895   8.210  71.102  1.00  0.00    -0.169 C  
ENDROOT
BRANCH   1   2
HETATM    2  N   UNL     1      -9.924   6.972  70.253  1.00  0.00    -0.179 NA 
HETATM    3  S   UNL     1      -9.384   3.832  67.049  1.00  0.00    -0.200 SA 
HETATM    4  C   UNL     1      -9.456   4.996  68.282  1.00  0.00    -0.133 A  
HETATM    5  C   UNL     1     -10.321   4.815  66.007  1.00  0.00    -0.293 A  
HETATM    6  C   UNL     1      -8.790   4.825  69.602  1.00  0.00    -0.121 C  
HETATM    7  C   UNL     1      -8.659   6.203  70.287  1.00  0.00    -0.140 C  
HETATM    8  C   UNL     1     -10.333   7.298  68.861  1.00  0.00    -0.201 C  
HETATM    9  C   UNL     1     -10.691   6.001  66.608  1.00  0.00    -0.315 A  
HETATM   10  C   UNL     1     -10.190   6.113  67.944  1.00  0.00    -0.212 A  
ENDBRANCH   1   2
BRANCH   1  11
HETATM   11  C   UNL     1      -8.944   8.057  72.325  1.00  0.00    -0.171 C  
HETATM   12  O   UNL     1      -9.050   7.223  73.216  1.00  0.00    -0.135 OA 
BRANCH  11  13
HETATM   13  O   UNL     1      -7.893   8.930  72.233  1.00  0.00    -0.361 OA 
HETATM   14  C   UNL     1      -6.701   8.459  72.869  1.00  0.00    -0.084 C  
ENDBRANCH  11  13
ENDBRANCH   1  11
BRANCH   1  15
HETATM   15  C   UNL     1     -11.305   8.715  71.471  1.00  0.00    -0.358 A  
HETATM   16  C   UNL     1     -12.926  10.556  71.661  1.00  0.00    -0.581 A  
HETATM   17  C   UNL     1     -13.539   8.360  72.411  1.00  0.00    -0.255 A  
HETATM   18  C   UNL     1     -13.863   9.701  72.220  1.00  0.00    -0.301 A  
HETATM   19  C   UNL     1     -11.668  10.070  71.297  1.00  0.00    -0.452 A  
HETATM   20  C   UNL     1     -12.276   7.868  72.042  1.00  0.00    -0.317 A  
HETATM   21 CL   UNL     1     -11.994   6.183  72.314  1.00  0.00    -0.343 Cl 
ENDBRANCH   1  15
TORSDOF 4
ENDMDL
MODEL      106
REMARK 921   NORMALIZED FREE ENERGY PREDICTED BY IDOCK:   -4.09 KCAL/MOL
REMARK 922        TOTAL FREE ENERGY PREDICTED BY IDOCK:   -5.57 KCAL/MOL
REMARK 923 INTER-LIGAND FREE ENERGY PREDICTED BY IDOCK:   -5.73 KCAL/MOL
REMARK 924 INTRA-LIGAND FREE ENERGY PREDICTED BY IDOCK:    0.16 KCAL/MOL
REMARK 927      BINDING AFFINITY PREDICTED BY RF-SCORE:    0.00 PKD
ROOT
HETATM    1  C   UNL     1     -11.094  10.550  67.159  1.00  0.00    -0.160 C  
ENDROOT
BRANCH   1   2
HETATM    2  N   UNL     1     -11.423  11.909  66.611  1.00  0.00    -0.451 NA 
HETATM    3  S   UNL     1     -11.395  15.961  64.614  1.00  0.00    -0.201 SA 
HETATM    4  C   UNL     1     -11.397  14.385  65.241  1.00  0.00    -0.346 A  
HETATM    5  C   UNL     1     -10.306  16.488  65.825  1.00  0.00    -0.341 A  
HETATM    6  C   UNL     1     -12.175  13.270  64.635  1.00  0.00    -0.460 C  
HETATM    7  C   UNL     1     -11.612  11.924  65.142  1.00  0.00    -0.215 C  
HETATM    8  C   UNL     1     -10.413  12.910  67.047  1.00  0.00    -0.238 C  
HETATM    9  C   UNL     1      -9.971  15.473  66.698  1.00  0.00    -0.272 A  
HETATM   10  C   UNL     1     -10.610  14.237  66.363  1.00  0.00    -0.286 A  
ENDBRANCH   1   2
BRANCH   1  11
HETATM   11  C   UNL     1     -11.062  10.540  68.715  1.00  0.00    -0.265 C  
HETATM   12  O   UNL     1     -10.073  10.347  69.412  1.00  0.00    -0.218 OA 
BRANCH  11  13
HETATM   13  O   UNL     1     -12.288  10.874  69.226  1.00  0.00    -0.395 OA 
HETATM   14  C   UNL     1     -12.214  11.659  70.420  1.00  0.00    -0.347 C  
ENDBRANCH  11  13
ENDBRANCH   1  11
BRANCH   1  15
HETATM   15  C   UNL     1      -9.840   9.931  66.509  1.00  0.00    -0.274 A  
HETATM   16  C   UNL     1      -7.684  10.204  65.354  1.00  0.00    -0.143 A  
HETATM   17  C   UNL     1      -8.553   7.998  65.728  1.00  0.00    -0.174 A  
HETATM   18  C   UNL     1      -7.555   8.830  65.226  1.00  0.00    -0.091 A  
HETATM   19  C   UNL     1      -8.810  10.743  65.982  1.00  0.00    -0.192 A  
HETATM   20  C   UNL     1      -9.683   8.538  66.364  1.00  0.00    -0.258 A  
HETATM   21 CL   UNL     1     -10.848   7.405  66.960  1.00  0.00    -0.402 Cl 
ENDBRANCH   1  15
TORSDOF 4
ENDMDL
MODEL      107
REMARK 921   NORMALIZED FREE ENERGY PREDICTED BY IDOCK:   -4.08 KCAL/MOL
REMARK 922        TOTAL FREE ENERGY PREDICTED BY IDOCK:   -5.57 KCAL/MOL
REMARK 923 INTER-LIGAND FREE ENERGY PREDICTED BY IDOCK:   -5.45 KCAL/MOL
REMARK 924 INTRA-LIGAND FREE ENERGY PREDICTED BY IDOCK:   -0.12 KCAL/MOL
REMARK 927      BINDING AFFINITY PREDICTED BY RF-SCORE:    0.00 PKD
ROOT
HETATM    1  C   UNL     1     -10.197  12.425  67.253  1.00  0.00    -0.215 C  
ENDROOT
BRANCH   1   2
HETATM    2  N   UNL     1      -9.883  11.199  66.444  1.00  0.00    -0.205 NA 
HETATM    3  S   UNL     1      -7.935   7.698  64.355  1.00  0.00    -0.090 SA 
HETATM    4  C   UNL     1      -8.641   8.950  65.257  1.00  0.00    -0.184 A  
HETATM    5  C   UNL     1      -7.137   8.822  63.340  1.00  0.00    -0.089 A  
HETATM    6  C   UNL     1      -9.533   8.709  66.424  1.00  0.00    -0.295 C  
HETATM    7  C   UNL     1      -9.621   9.998  67.271  1.00  0.00    -0.156 C  
HETATM    8  C   UNL     1      -8.772  11.467  65.493  1.00  0.00     0.031 C  
HETATM    9  C   UNL     1      -7.426  10.126  63.683  1.00  0.00    -0.129 A  
HETATM   10  C   UNL     1      -8.311  10.210  64.804  1.00  0.00    -0.167 A  
ENDBRANCH   1   2
BRANCH   1  11
HETATM   11  C   UNL     1     -11.311  12.159  68.307  1.00  0.00    -0.289 C  
HETATM   12  O   UNL     1     -12.175  11.293  68.235  1.00  0.00    -0.611 OA 
BRANCH  11  13
HETATM   13  O   UNL     1     -11.150  12.971  69.398  1.00  0.00    -0.189 OA 
HETATM   14  C   UNL     1     -12.046  14.085  69.419  1.00  0.00    -0.340 C  
ENDBRANCH  11  13
ENDBRANCH   1  11
BRANCH   1  15
HETATM   15  C   UNL     1     -10.453  13.668  66.378  1.00  0.00    -0.288 A  
HETATM   16  C   UNL     1      -9.925  15.995  65.775  1.00  0.00    -0.382 A  
HETATM   17  C   UNL     1     -11.735  14.870  64.670  1.00  0.00    -0.406 A  
HETATM   18  C   UNL     1     -10.952  16.009  64.845  1.00  0.00    -0.399 A  
HETATM   19  C   UNL     1      -9.684  14.844  66.530  1.00  0.00    -0.294 A  
HETATM   20  C   UNL     1     -11.491  13.711  65.426  1.00  0.00    -0.311 A  
HETATM   21 CL   UNL     1     -12.519  12.355  65.111  1.00  0.00    -0.439 Cl 
ENDBRANCH   1  15
TORSDOF 4
ENDMDL
MODEL      108
REMARK 921   NORMALIZED FREE ENERGY PREDICTED BY IDOCK:   -4.08 KCAL/MOL
REMARK 922        TOTAL FREE ENERGY PREDICTED BY IDOCK:   -5.56 KCAL/MOL
REMARK 923 INTER-LIGAND FREE ENERGY PREDICTED BY IDOCK:   -5.20 KCAL/MOL
REMARK 924 INTRA-LIGAND FREE ENERGY PREDICTED BY IDOCK:   -0.36 KCAL/MOL
REMARK 927      BINDING AFFINITY PREDICTED BY RF-SCORE:    0.00 PKD
ROOT
HETATM    1  C   UNL     1     -10.396  11.404  67.493  1.00  0.00    -0.195 C  
ENDROOT
BRANCH   1   2
HETATM    2  N   UNL     1      -9.701  10.182  66.966  1.00  0.00    -0.174 NA 
HETATM    3  S   UNL     1      -7.367   6.353  66.418  1.00  0.00    -0.082 SA 
HETATM    4  C   UNL     1      -8.338   7.718  66.687  1.00  0.00    -0.126 A  
HETATM    5  C   UNL     1      -5.955   7.218  66.853  1.00  0.00    -0.038 A  
HETATM    6  C   UNL     1      -9.817   7.711  66.513  1.00  0.00    -0.242 C  
HETATM    7  C   UNL     1     -10.420   8.921  67.260  1.00  0.00    -0.277 C  
HETATM    8  C   UNL     1      -8.291  10.135  67.436  1.00  0.00    -0.118 C  
HETATM    9  C   UNL     1      -6.232   8.529  67.179  1.00  0.00    -0.056 A  
HETATM   10  C   UNL     1      -7.627   8.831  67.081  1.00  0.00    -0.088 A  
ENDBRANCH   1   2
BRANCH   1  11
HETATM   11  C   UNL     1     -11.363  11.065  68.665  1.00  0.00    -0.281 C  
HETATM   12  O   UNL     1     -12.583  10.974  68.586  1.00  0.00    -0.304 OA 
BRANCH  11  13
HETATM   13  O   UNL     1     -10.661  10.783  69.806  1.00  0.00    -0.245 OA 
HETATM   14  C   UNL     1     -11.395   9.996  70.749  1.00  0.00    -0.360 C  
ENDBRANCH  11  13
ENDBRANCH   1  11
BRANCH   1  15
HETATM   15  C   UNL     1     -11.044  12.251  66.379  1.00  0.00    -0.345 A  
HETATM   16  C   UNL     1     -11.812  12.482  64.053  1.00  0.00    -0.510 A  
HETATM   17  C   UNL     1     -11.948  14.365  65.534  1.00  0.00    -0.358 A  
HETATM   18  C   UNL     1     -12.154  13.806  64.275  1.00  0.00    -0.481 A  
HETATM   19  C   UNL     1     -11.263  11.721  65.088  1.00  0.00    -0.311 A  
HETATM   20  C   UNL     1     -11.400  13.600  66.577  1.00  0.00    -0.319 A  
HETATM   21 CL   UNL     1     -11.205  14.399  68.100  1.00  0.00    -0.285 Cl 
ENDBRANCH   1  15
TORSDOF 4
ENDMDL
MODEL      109
REMARK 921   NORMALIZED FREE ENERGY PREDICTED BY IDOCK:   -4.08 KCAL/MOL
REMARK 922        TOTAL FREE ENERGY PREDICTED BY IDOCK:   -5.56 KCAL/MOL
REMARK 923 INTER-LIGAND FREE ENERGY PREDICTED BY IDOCK:   -5.55 KCAL/MOL
REMARK 924 INTRA-LIGAND FREE ENERGY PREDICTED BY IDOCK:   -0.00 KCAL/MOL
REMARK 927      BINDING AFFINITY PREDICTED BY RF-SCORE:    0.00 PKD
ROOT
HETATM    1  C   UNL     1     -10.615  11.683  66.465  1.00  0.00    -0.253 C  
ENDROOT
BRANCH   1   2
HETATM    2  N   UNL     1     -10.818  13.171  66.513  1.00  0.00    -0.278 NA 
HETATM    3  S   UNL     1     -10.371  17.653  66.856  1.00  0.00    -0.307 SA 
HETATM    4  C   UNL     1     -10.467  15.977  66.613  1.00  0.00    -0.304 A  
HETATM    5  C   UNL     1     -10.054  17.437  68.524  1.00  0.00    -0.352 A  
HETATM    6  C   UNL     1     -10.722  15.361  65.282  1.00  0.00    -0.439 C  
HETATM    7  C   UNL     1     -10.297  13.877  65.320  1.00  0.00    -0.378 C  
HETATM    8  C   UNL     1     -10.267  13.736  67.773  1.00  0.00    -0.241 C  
HETATM    9  C   UNL     1     -10.041  16.104  68.880  1.00  0.00    -0.238 A  
HETATM   10  C   UNL     1     -10.286  15.242  67.765  1.00  0.00    -0.237 A  
ENDBRANCH   1   2
BRANCH   1  11
HETATM   11  C   UNL     1     -11.301  10.962  67.662  1.00  0.00    -0.270 C  
HETATM   12  O   UNL     1     -12.227  11.405  68.331  1.00  0.00    -0.571 OA 
BRANCH  11  13
HETATM   13  O   UNL     1     -10.792   9.701  67.824  1.00  0.00    -0.270 OA 
HETATM   14  C   UNL     1     -10.636   9.319  69.194  1.00  0.00    -0.212 C  
ENDBRANCH  11  13
ENDBRANCH   1  11
BRANCH   1  15
HETATM   15  C   UNL     1      -9.138  11.288  66.265  1.00  0.00    -0.209 A  
HETATM   16  C   UNL     1      -6.816  11.244  67.078  1.00  0.00    -0.126 A  
HETATM   17  C   UNL     1      -7.322  10.376  64.898  1.00  0.00    -0.059 A  
HETATM   18  C   UNL     1      -6.393  10.653  65.898  1.00  0.00    -0.128 A  
HETATM   19  C   UNL     1      -8.166  11.559  67.254  1.00  0.00    -0.155 A  
HETATM   20  C   UNL     1      -8.680  10.687  65.075  1.00  0.00    -0.176 A  
HETATM   21 CL   UNL     1      -9.741  10.283  63.770  1.00  0.00    -0.351 Cl 
ENDBRANCH   1  15
TORSDOF 4
ENDMDL
MODEL      110
REMARK 921   NORMALIZED FREE ENERGY PREDICTED BY IDOCK:   -4.08 KCAL/MOL
REMARK 922        TOTAL FREE ENERGY PREDICTED BY IDOCK:   -5.56 KCAL/MOL
REMARK 923 INTER-LIGAND FREE ENERGY PREDICTED BY IDOCK:   -5.86 KCAL/MOL
REMARK 924 INTRA-LIGAND FREE ENERGY PREDICTED BY IDOCK:    0.31 KCAL/MOL
REMARK 927      BINDING AFFINITY PREDICTED BY RF-SCORE:    0.00 PKD
ROOT
HETATM    1  C   UNL     1     -11.153  12.046  68.318  1.00  0.00    -0.243 C  
ENDROOT
BRANCH   1   2
HETATM    2  N   UNL     1     -10.607  11.200  69.434  1.00  0.00    -0.180 NA 
HETATM    3  S   UNL     1      -9.526   7.877  72.296  1.00  0.00    -0.211 SA 
HETATM    4  C   UNL     1      -9.858   9.061  71.128  1.00  0.00    -0.300 A  
HETATM    5  C   UNL     1     -11.157   7.868  72.814  1.00  0.00    -0.400 A  
HETATM    6  C   UNL     1      -8.826   9.599  70.199  1.00  0.00    -0.266 C  
HETATM    7  C   UNL     1      -9.527  10.283  69.004  1.00  0.00    -0.200 C  
HETATM    8  C   UNL     1     -11.704  10.473  70.127  1.00  0.00    -0.326 C  
HETATM    9  C   UNL     1     -11.929   8.771  72.111  1.00  0.00    -0.436 A  
HETATM   10  C   UNL     1     -11.172   9.477  71.122  1.00  0.00    -0.446 A  
ENDBRANCH   1   2
BRANCH   1  11
HETATM   11  C   UNL     1     -11.139  11.293  66.956  1.00  0.00    -0.293 C  
HETATM   12  O   UNL     1     -10.837  10.118  66.788  1.00  0.00    -0.168 OA 
BRANCH  11  13
HETATM   13  O   UNL     1     -11.607  12.099  65.952  1.00  0.00    -0.373 OA 
HETATM   14  C   UNL     1     -10.970  11.872  64.692  1.00  0.00    -0.316 C  
ENDBRANCH  11  13
ENDBRANCH   1  11
BRANCH   1  15
HETATM   15  C   UNL     1     -10.510  13.446  68.261  1.00  0.00    -0.256 A  
HETATM   16  C   UNL     1      -8.687  14.924  67.522  1.00  0.00    -0.197 A  
HETATM   17  C   UNL     1     -10.432  15.805  68.916  1.00  0.00    -0.223 A  
HETATM   18  C   UNL     1      -9.249  15.992  68.204  1.00  0.00    -0.195 A  
HETATM   19  C   UNL     1      -9.307  13.673  67.555  1.00  0.00    -0.223 A  
HETATM   20  C   UNL     1     -11.059  14.549  68.946  1.00  0.00    -0.256 A  
HETATM   21 CL   UNL     1     -12.530  14.442  69.850  1.00  0.00    -0.354 Cl 
ENDBRANCH   1  15
TORSDOF 4
ENDMDL
MODEL      111
REMARK 921   NORMALIZED FREE ENERGY PREDICTED BY IDOCK:   -4.07 KCAL/MOL
REMARK 922        TOTAL FREE ENERGY PREDICTED BY IDOCK:   -5.54 KCAL/MOL
REMARK 923 INTER-LIGAND FREE ENERGY PREDICTED BY IDOCK:   -5.24 KCAL/MOL
REMARK 924 INTRA-LIGAND FREE ENERGY PREDICTED BY IDOCK:   -0.30 KCAL/MOL
REMARK 927      BINDING AFFINITY PREDICTED BY RF-SCORE:    0.00 PKD
ROOT
HETATM    1  C   UNL     1      -9.397   9.254  67.444  1.00  0.00    -0.127 C  
ENDROOT
BRANCH   1   2
HETATM    2  N   UNL     1     -10.508   9.693  68.355  1.00  0.00    -0.214 NA 
HETATM    3  S   UNL     1     -13.062  11.049  71.826  1.00  0.00    -0.357 SA 
HETATM    4  C   UNL     1     -12.044  10.661  70.526  1.00  0.00    -0.355 A  
HETATM    5  C   UNL     1     -12.809   9.514  72.539  1.00  0.00    -0.176 A  
HETATM    6  C   UNL     1     -11.743  11.608  69.417  1.00  0.00    -0.405 C  
HETATM    7  C   UNL     1     -10.471  11.137  68.678  1.00  0.00    -0.197 C  
HETATM    8  C   UNL     1     -10.545   8.853  69.581  1.00  0.00    -0.226 C  
HETATM    9  C   UNL     1     -11.973   8.721  71.779  1.00  0.00    -0.418 A  
HETATM   10  C   UNL     1     -11.523   9.387  70.594  1.00  0.00    -0.344 A  
ENDBRANCH   1   2
BRANCH   1  11
HETATM   11  C   UNL     1      -9.193  10.239  66.256  1.00  0.00    -0.159 C  
HETATM   12  O   UNL     1      -8.198  10.925  66.055  1.00  0.00    -0.162 OA 
BRANCH  11  13
HETATM   13  O   UNL     1     -10.251  10.177  65.389  1.00  0.00    -0.298 OA 
HETATM   14  C   UNL     1     -10.056  10.941  64.195  1.00  0.00    -0.355 C  
ENDBRANCH  11  13
ENDBRANCH   1  11
BRANCH   1  15
HETATM   15  C   UNL     1      -9.524   7.779  67.013  1.00  0.00    -0.210 A  
HETATM   16  C   UNL     1     -10.910   5.778  66.650  1.00  0.00    -0.290 A  
HETATM   17  C   UNL     1      -8.536   5.649  66.315  1.00  0.00    -0.127 A  
HETATM   18  C   UNL     1      -9.789   5.039  66.308  1.00  0.00    -0.217 A  
HETATM   19  C   UNL     1     -10.777   7.124  67.000  1.00  0.00    -0.420 A  
HETATM   20  C   UNL     1      -8.401   7.004  66.662  1.00  0.00    -0.118 A  
HETATM   21 CL   UNL     1      -6.799   7.655  66.621  1.00  0.00    -0.065 Cl 
ENDBRANCH   1  15
TORSDOF 4
ENDMDL
MODEL      112
REMARK 921   NORMALIZED FREE ENERGY PREDICTED BY IDOCK:   -4.06 KCAL/MOL
REMARK 922        TOTAL FREE ENERGY PREDICTED BY IDOCK:   -5.53 KCAL/MOL
REMARK 923 INTER-LIGAND FREE ENERGY PREDICTED BY IDOCK:   -5.77 KCAL/MOL
REMARK 924 INTRA-LIGAND FREE ENERGY PREDICTED BY IDOCK:    0.24 KCAL/MOL
REMARK 927      BINDING AFFINITY PREDICTED BY RF-SCORE:    0.00 PKD
ROOT
HETATM    1  C   UNL     1     -11.450   8.673  70.556  1.00  0.00    -0.188 C  
ENDROOT
BRANCH   1   2
HETATM    2  N   UNL     1     -11.317  10.079  70.045  1.00  0.00    -0.266 NA 
HETATM    3  S   UNL     1     -11.834  14.071  67.994  1.00  0.00    -0.354 SA 
HETATM    4  C   UNL     1     -11.749  12.602  68.839  1.00  0.00    -0.325 A  
HETATM    5  C   UNL     1     -11.520  13.284  66.507  1.00  0.00    -0.337 A  
HETATM    6  C   UNL     1     -11.958  12.496  70.309  1.00  0.00    -0.364 C  
HETATM    7  C   UNL     1     -12.266  11.027  70.673  1.00  0.00    -0.385 C  
HETATM    8  C   UNL     1     -11.407  10.110  68.561  1.00  0.00    -0.108 C  
HETATM    9  C   UNL     1     -11.337  11.926  66.668  1.00  0.00    -0.400 A  
HETATM   10  C   UNL     1     -11.467  11.519  68.034  1.00  0.00    -0.381 A  
ENDBRANCH   1   2
BRANCH   1  11
HETATM   11  C   UNL     1     -11.242   8.590  72.096  1.00  0.00    -0.362 C  
HETATM   12  O   UNL     1     -12.081   8.236  72.916  1.00  0.00    -0.290 OA 
BRANCH  11  13
HETATM   13  O   UNL     1      -9.944   8.878  72.426  1.00  0.00    -0.251 OA 
HETATM   14  C   UNL     1      -9.376   7.960  73.364  1.00  0.00    -0.282 C  
ENDBRANCH  11  13
ENDBRANCH   1  11
BRANCH   1  15
HETATM   15  C   UNL     1     -10.598   7.665  69.759  1.00  0.00    -0.245 A  
HETATM   16  C   UNL     1     -10.391   5.517  68.577  1.00  0.00    -0.247 A  
HETATM   17  C   UNL     1      -8.457   6.914  68.835  1.00  0.00    -0.125 A  
HETATM   18  C   UNL     1      -9.041   5.742  68.361  1.00  0.00    -0.118 A  
HETATM   19  C   UNL     1     -11.154   6.461  69.267  1.00  0.00    -0.437 A  
HETATM   20  C   UNL     1      -9.223   7.868  69.526  1.00  0.00    -0.152 A  
HETATM   21 CL   UNL     1      -8.392   9.291  70.053  1.00  0.00    -0.153 Cl 
ENDBRANCH   1  15
TORSDOF 4
ENDMDL
MODEL      113
REMARK 921   NORMALIZED FREE ENERGY PREDICTED BY IDOCK:   -4.03 KCAL/MOL
REMARK 922        TOTAL FREE ENERGY PREDICTED BY IDOCK:   -5.50 KCAL/MOL
REMARK 923 INTER-LIGAND FREE ENERGY PREDICTED BY IDOCK:   -5.13 KCAL/MOL
REMARK 924 INTRA-LIGAND FREE ENERGY PREDICTED BY IDOCK:   -0.37 KCAL/MOL
REMARK 927      BINDING AFFINITY PREDICTED BY RF-SCORE:    0.00 PKD
ROOT
HETATM    1  C   UNL     1      -9.457   9.011  69.830  1.00  0.00    -0.175 C  
ENDROOT
BRANCH   1   2
HETATM    2  N   UNL     1      -9.310   7.624  69.273  1.00  0.00    -0.148 NA 
HETATM    3  S   UNL     1      -8.698   3.980  66.674  1.00  0.00    -0.121 SA 
HETATM    4  C   UNL     1      -8.797   5.377  67.631  1.00  0.00    -0.105 A  
HETATM    5  C   UNL     1     -10.178   4.354  65.899  1.00  0.00    -0.227 A  
HETATM    6  C   UNL     1      -7.754   5.758  68.623  1.00  0.00    -0.090 C  
HETATM    7  C   UNL     1      -7.908   7.256  68.970  1.00  0.00    -0.118 C  
HETATM    8  C   UNL     1     -10.197   7.433  68.095  1.00  0.00    -0.187 C  
HETATM    9  C   UNL     1     -10.737   5.518  66.384  1.00  0.00    -0.262 A  
HETATM   10  C   UNL     1      -9.934   6.122  67.403  1.00  0.00    -0.166 A  
ENDBRANCH   1   2
BRANCH   1  11
HETATM   11  C   UNL     1      -8.174   9.479  70.577  1.00  0.00    -0.167 C  
HETATM   12  O   UNL     1      -7.860   9.177  71.722  1.00  0.00    -0.343 OA 
BRANCH  11  13
HETATM   13  O   UNL     1      -7.370  10.213  69.747  1.00  0.00    -0.123 OA 
HETATM   14  C   UNL     1      -8.091  10.930  68.740  1.00  0.00    -0.145 C  
ENDBRANCH  11  13
ENDBRANCH   1  11
BRANCH   1  15
HETATM   15  C   UNL     1     -10.752   9.193  70.646  1.00  0.00    -0.313 A  
HETATM   16  C   UNL     1     -12.333   8.371  72.344  1.00  0.00    -0.412 A  
HETATM   17  C   UNL     1     -12.824  10.397  71.155  1.00  0.00    -0.511 A  
HETATM   18  C   UNL     1     -13.175   9.447  72.111  1.00  0.00    -0.541 A  
HETATM   19  C   UNL     1     -11.145   8.246  71.620  1.00  0.00    -0.326 A  
HETATM   20  C   UNL     1     -11.627  10.276  70.430  1.00  0.00    -0.328 A  
HETATM   21 CL   UNL     1     -11.291  11.525  69.280  1.00  0.00    -0.322 Cl 
ENDBRANCH   1  15
TORSDOF 4
ENDMDL
MODEL      114
REMARK 921   NORMALIZED FREE ENERGY PREDICTED BY IDOCK:   -4.02 KCAL/MOL
REMARK 922        TOTAL FREE ENERGY PREDICTED BY IDOCK:   -5.49 KCAL/MOL
REMARK 923 INTER-LIGAND FREE ENERGY PREDICTED BY IDOCK:   -5.41 KCAL/MOL
REMARK 924 INTRA-LIGAND FREE ENERGY PREDICTED BY IDOCK:   -0.08 KCAL/MOL
REMARK 927      BINDING AFFINITY PREDICTED BY RF-SCORE:    0.00 PKD
ROOT
HETATM    1  C   UNL     1     -11.309  11.059  68.605  1.00  0.00    -0.281 C  
ENDROOT
BRANCH   1   2
HETATM    2  N   UNL     1     -11.310  12.412  67.952  1.00  0.00    -0.268 NA 
HETATM    3  S   UNL     1     -10.553  16.038  65.366  1.00  0.00    -0.368 SA 
HETATM    4  C   UNL     1     -10.890  14.616  66.228  1.00  0.00    -0.321 A  
HETATM    5  C   UNL     1      -9.009  16.166  66.096  1.00  0.00    -0.337 A  
HETATM    6  C   UNL     1     -12.162  13.857  66.079  1.00  0.00    -0.495 C  
HETATM    7  C   UNL     1     -11.965  12.425  66.623  1.00  0.00    -0.229 C  
HETATM    8  C   UNL     1      -9.932  12.968  67.893  1.00  0.00    -0.230 C  
HETATM    9  C   UNL     1      -8.775  15.144  66.993  1.00  0.00    -0.264 A  
HETATM   10  C   UNL     1      -9.875  14.233  67.079  1.00  0.00    -0.254 A  
ENDBRANCH   1   2
BRANCH   1  11
HETATM   11  C   UNL     1     -11.943  11.097  70.026  1.00  0.00    -0.367 C  
HETATM   12  O   UNL     1     -12.149  12.104  70.692  1.00  0.00    -0.365 OA 
BRANCH  11  13
HETATM   13  O   UNL     1     -12.337   9.845  70.415  1.00  0.00    -0.195 OA 
HETATM   14  C   UNL     1     -12.957   9.815  71.703  1.00  0.00    -0.419 C  
ENDBRANCH  11  13
ENDBRANCH   1  11
BRANCH   1  15
HETATM   15  C   UNL     1      -9.928  10.374  68.559  1.00  0.00    -0.179 A  
HETATM   16  C   UNL     1      -7.829   9.736  69.672  1.00  0.00    -0.142 A  
HETATM   17  C   UNL     1      -8.129   9.240  67.343  1.00  0.00    -0.110 A  
HETATM   18  C   UNL     1      -7.342   9.198  68.492  1.00  0.00    -0.077 A  
HETATM   19  C   UNL     1      -9.099  10.317  69.702  1.00  0.00    -0.149 A  
HETATM   20  C   UNL     1      -9.408   9.820  67.372  1.00  0.00    -0.134 A  
HETATM   21 CL   UNL     1     -10.297   9.801  65.888  1.00  0.00    -0.232 Cl 
ENDBRANCH   1  15
TORSDOF 4
ENDMDL
MODEL      115
REMARK 921   NORMALIZED FREE ENERGY PREDICTED BY IDOCK:   -4.01 KCAL/MOL
REMARK 922        TOTAL FREE ENERGY PREDICTED BY IDOCK:   -5.48 KCAL/MOL
REMARK 923 INTER-LIGAND FREE ENERGY PREDICTED BY IDOCK:   -5.63 KCAL/MOL
REMARK 924 INTRA-LIGAND FREE ENERGY PREDICTED BY IDOCK:    0.15 KCAL/MOL
REMARK 927      BINDING AFFINITY PREDICTED BY RF-SCORE:    0.00 PKD
ROOT
HETATM    1  C   UNL     1     -11.407   7.892  70.668  1.00  0.00    -0.259 C  
ENDROOT
BRANCH   1   2
HETATM    2  N   UNL     1     -10.820   8.926  69.750  1.00  0.00    -0.227 NA 
HETATM    3  S   UNL     1      -9.236  12.692  67.822  1.00  0.00    -0.204 SA 
HETATM    4  C   UNL     1      -9.725  11.283  68.630  1.00  0.00    -0.195 A  
HETATM    5  C   UNL     1     -10.841  13.288  67.799  1.00  0.00    -0.252 A  
HETATM    6  C   UNL     1      -8.778  10.208  69.037  1.00  0.00    -0.161 C  
HETATM    7  C   UNL     1      -9.444   9.329  70.118  1.00  0.00    -0.226 C  
HETATM    8  C   UNL     1     -11.725  10.099  69.632  1.00  0.00    -0.098 C  
HETATM    9  C   UNL     1     -11.728  12.408  68.385  1.00  0.00    -0.386 A  
HETATM   10  C   UNL     1     -11.081  11.228  68.872  1.00  0.00    -0.295 A  
ENDBRANCH   1   2
BRANCH   1  11
HETATM   11  C   UNL     1     -11.486   8.396  72.139  1.00  0.00    -0.372 C  
HETATM   12  O   UNL     1     -10.555   8.437  72.934  1.00  0.00    -0.257 OA 
BRANCH  11  13
HETATM   13  O   UNL     1     -12.734   8.887  72.416  1.00  0.00    -0.388 OA 
HETATM   14  C   UNL     1     -13.792   8.121  71.835  1.00  0.00    -0.364 C  
ENDBRANCH  11  13
ENDBRANCH   1  11
BRANCH   1  15
HETATM   15  C   UNL     1     -10.738   6.511  70.519  1.00  0.00    -0.305 A  
HETATM   16  C   UNL     1      -9.583   4.585  71.524  1.00  0.00    -0.227 A  
HETATM   17  C   UNL     1      -9.905   4.661  69.147  1.00  0.00    -0.242 A  
HETATM   18  C   UNL     1      -9.420   4.005  70.276  1.00  0.00    -0.255 A  
HETATM   19  C   UNL     1     -10.228   5.819  71.641  1.00  0.00    -0.253 A  
HETATM   20  C   UNL     1     -10.557   5.899  69.263  1.00  0.00    -0.308 A  
HETATM   21 CL   UNL     1     -11.129   6.611  67.792  1.00  0.00    -0.357 Cl 
ENDBRANCH   1  15
TORSDOF 4
ENDMDL
MODEL      116
REMARK 921   NORMALIZED FREE ENERGY PREDICTED BY IDOCK:   -4.01 KCAL/MOL
REMARK 922        TOTAL FREE ENERGY PREDICTED BY IDOCK:   -5.48 KCAL/MOL
REMARK 923 INTER-LIGAND FREE ENERGY PREDICTED BY IDOCK:   -5.31 KCAL/MOL
REMARK 924 INTRA-LIGAND FREE ENERGY PREDICTED BY IDOCK:   -0.16 KCAL/MOL
REMARK 927      BINDING AFFINITY PREDICTED BY RF-SCORE:    0.00 PKD
ROOT
HETATM    1  C   UNL     1     -11.277   9.397  69.423  1.00  0.00     0.008 C  
ENDROOT
BRANCH   1   2
HETATM    2  N   UNL     1     -11.293  10.887  69.611  1.00  0.00    -0.267 NA 
HETATM    3  S   UNL     1     -12.144  15.322  69.459  1.00  0.00    -0.256 SA 
HETATM    4  C   UNL     1     -11.944  13.641  69.577  1.00  0.00    -0.341 A  
HETATM    5  C   UNL     1     -11.545  15.324  67.856  1.00  0.00    -0.289 A  
HETATM    6  C   UNL     1     -12.307  12.862  70.792  1.00  0.00    -0.385 C  
HETATM    7  C   UNL     1     -12.438  11.369  70.417  1.00  0.00    -0.261 C  
HETATM    8  C   UNL     1     -11.211  11.583  68.299  1.00  0.00    -0.261 C  
HETATM    9  C   UNL     1     -11.186  14.060  67.435  1.00  0.00    -0.328 A  
HETATM   10  C   UNL     1     -11.414  13.068  68.440  1.00  0.00    -0.345 A  
ENDBRANCH   1   2
BRANCH   1  11
HETATM   11  C   UNL     1     -11.238   8.639  70.782  1.00  0.00    -0.261 C  
HETATM   12  O   UNL     1     -10.843   9.097  71.848  1.00  0.00    -0.359 OA 
BRANCH  11  13
HETATM   13  O   UNL     1     -11.798   7.396  70.660  1.00  0.00    -0.286 OA 
HETATM   14  C   UNL     1     -12.587   7.011  71.790  1.00  0.00    -0.350 C  
ENDBRANCH  11  13
ENDBRANCH   1  11
BRANCH   1  15
HETATM   15  C   UNL     1     -10.202   8.932  68.421  1.00  0.00    -0.231 A  
HETATM   16  C   UNL     1      -9.584   7.722  66.369  1.00  0.00    -0.235 A  
HETATM   17  C   UNL     1      -7.865   8.710  67.722  1.00  0.00    -0.103 A  
HETATM   18  C   UNL     1      -8.242   7.983  66.596  1.00  0.00    -0.108 A  
HETATM   19  C   UNL     1     -10.545   8.186  67.270  1.00  0.00    -0.344 A  
HETATM   20  C   UNL     1      -8.831   9.182  68.627  1.00  0.00    -0.133 A  
HETATM   21 CL   UNL     1      -8.244  10.086  69.981  1.00  0.00    -0.182 Cl 
ENDBRANCH   1  15
TORSDOF 4
ENDMDL
MODEL      117
REMARK 921   NORMALIZED FREE ENERGY PREDICTED BY IDOCK:   -4.01 KCAL/MOL
REMARK 922        TOTAL FREE ENERGY PREDICTED BY IDOCK:   -5.48 KCAL/MOL
REMARK 923 INTER-LIGAND FREE ENERGY PREDICTED BY IDOCK:   -5.30 KCAL/MOL
REMARK 924 INTRA-LIGAND FREE ENERGY PREDICTED BY IDOCK:   -0.18 KCAL/MOL
REMARK 927      BINDING AFFINITY PREDICTED BY RF-SCORE:    0.00 PKD
ROOT
HETATM    1  C   UNL     1      -9.581  11.706  66.151  1.00  0.00    -0.232 C  
ENDROOT
BRANCH   1   2
HETATM    2  N   UNL     1     -10.382  12.714  66.925  1.00  0.00    -0.232 NA 
HETATM    3  S   UNL     1     -12.069  15.538  70.022  1.00  0.00    -0.344 SA 
HETATM    4  C   UNL     1     -11.328  14.559  68.851  1.00  0.00    -0.274 A  
HETATM    5  C   UNL     1     -12.528  14.167  70.939  1.00  0.00    -0.365 A  
HETATM    6  C   UNL     1     -10.635  15.107  67.653  1.00  0.00    -0.263 C  
HETATM    7  C   UNL     1      -9.705  14.024  67.064  1.00  0.00    -0.256 C  
HETATM    8  C   UNL     1     -10.791  12.162  68.243  1.00  0.00    -0.223 C  
HETATM    9  C   UNL     1     -12.132  12.988  70.342  1.00  0.00    -0.391 A  
HETATM   10  C   UNL     1     -11.430  13.210  69.114  1.00  0.00    -0.358 A  
ENDBRANCH   1   2
BRANCH   1  11
HETATM   11  C   UNL     1     -10.075  11.573  64.681  1.00  0.00    -0.271 C  
HETATM   12  O   UNL     1     -11.061  12.120  64.203  1.00  0.00    -0.312 OA 
BRANCH  11  13
HETATM   13  O   UNL     1      -9.199  10.824  63.941  1.00  0.00    -0.210 OA 
HETATM   14  C   UNL     1      -9.137  11.210  62.566  1.00  0.00    -0.303 C  
ENDBRANCH  11  13
ENDBRANCH   1  11
BRANCH   1  15
HETATM   15  C   UNL     1      -9.449  10.357  66.887  1.00  0.00    -0.196 A  
HETATM   16  C   UNL     1     -10.352   8.136  67.441  1.00  0.00    -0.351 A  
HETATM   17  C   UNL     1      -8.300   8.864  68.452  1.00  0.00    -0.125 A  
HETATM   18  C   UNL     1      -9.286   7.892  68.292  1.00  0.00    -0.137 A  
HETATM   19  C   UNL     1     -10.432   9.350  66.754  1.00  0.00    -0.265 A  
HETATM   20  C   UNL     1      -8.377  10.083  67.759  1.00  0.00    -0.114 A  
HETATM   21 CL   UNL     1      -7.087  11.205  68.027  1.00  0.00    -0.072 Cl 
ENDBRANCH   1  15
TORSDOF 4
ENDMDL
MODEL      118
REMARK 921   NORMALIZED FREE ENERGY PREDICTED BY IDOCK:   -4.00 KCAL/MOL
REMARK 922        TOTAL FREE ENERGY PREDICTED BY IDOCK:   -5.47 KCAL/MOL
REMARK 923 INTER-LIGAND FREE ENERGY PREDICTED BY IDOCK:   -5.10 KCAL/MOL
REMARK 924 INTRA-LIGAND FREE ENERGY PREDICTED BY IDOCK:   -0.37 KCAL/MOL
REMARK 927      BINDING AFFINITY PREDICTED BY RF-SCORE:    0.00 PKD
ROOT
HETATM    1  C   UNL     1     -10.216  13.186  67.871  1.00  0.00    -0.233 C  
ENDROOT
BRANCH   1   2
HETATM    2  N   UNL     1     -10.051  11.701  67.720  1.00  0.00    -0.184 NA 
HETATM    3  S   UNL     1     -10.588   7.218  67.569  1.00  0.00    -0.271 SA 
HETATM    4  C   UNL     1     -10.470   8.909  67.520  1.00  0.00    -0.269 A  
HETATM    5  C   UNL     1     -10.730   7.234  69.275  1.00  0.00    -0.198 A  
HETATM    6  C   UNL     1     -10.332   9.679  66.253  1.00  0.00    -0.230 C  
HETATM    7  C   UNL     1     -10.709  11.154  66.511  1.00  0.00    -0.260 C  
HETATM    8  C   UNL     1     -10.489  10.995  68.953  1.00  0.00    -0.204 C  
HETATM    9  C   UNL     1     -10.669   8.514  69.787  1.00  0.00    -0.213 A  
HETATM   10  C   UNL     1     -10.513   9.502  68.764  1.00  0.00    -0.243 A  
ENDBRANCH   1   2
BRANCH   1  11
HETATM   11  C   UNL     1     -11.001  13.810  66.681  1.00  0.00    -0.296 C  
HETATM   12  O   UNL     1     -12.213  13.980  66.631  1.00  0.00    -0.442 OA 
BRANCH  11  13
HETATM   13  O   UNL     1     -10.141  14.243  65.707  1.00  0.00    -0.308 OA 
HETATM   14  C   UNL     1     -10.453  15.547  65.207  1.00  0.00    -0.411 C  
ENDBRANCH  11  13
ENDBRANCH   1  11
BRANCH   1  15
HETATM   15  C   UNL     1      -8.889  13.906  68.185  1.00  0.00    -0.184 A  
HETATM   16  C   UNL     1      -6.447  14.077  67.933  1.00  0.00    -0.170 A  
HETATM   17  C   UNL     1      -7.596  15.612  69.378  1.00  0.00    -0.221 A  
HETATM   18  C   UNL     1      -6.411  15.151  68.808  1.00  0.00    -0.086 A  
HETATM   19  C   UNL     1      -7.665  13.464  67.632  1.00  0.00    -0.179 A  
HETATM   20  C   UNL     1      -8.823  14.999  69.072  1.00  0.00    -0.205 A  
HETATM   21 CL   UNL     1     -10.229  15.667  69.828  1.00  0.00    -0.290 Cl 
ENDBRANCH   1  15
TORSDOF 4
ENDMDL
MODEL      119
REMARK 921   NORMALIZED FREE ENERGY PREDICTED BY IDOCK:   -4.00 KCAL/MOL
REMARK 922        TOTAL FREE ENERGY PREDICTED BY IDOCK:   -5.46 KCAL/MOL
REMARK 923 INTER-LIGAND FREE ENERGY PREDICTED BY IDOCK:   -5.38 KCAL/MOL
REMARK 924 INTRA-LIGAND FREE ENERGY PREDICTED BY IDOCK:   -0.08 KCAL/MOL
REMARK 927      BINDING AFFINITY PREDICTED BY RF-SCORE:    0.00 PKD
ROOT
HETATM    1  C   UNL     1      -9.605   7.952  71.553  1.00  0.00    -0.151 C  
ENDROOT
BRANCH   1   2
HETATM    2  N   UNL     1      -9.840   6.508  71.209  1.00  0.00    -0.181 NA 
HETATM    3  S   UNL     1      -9.497   2.190  69.925  1.00  0.00     0.009 SA 
HETATM    4  C   UNL     1      -9.548   3.781  70.514  1.00  0.00    -0.192 A  
HETATM    5  C   UNL     1      -9.258   2.745  68.323  1.00  0.00    -0.196 A  
HETATM    6  C   UNL     1      -9.726   4.110  71.955  1.00  0.00    -0.235 C  
HETATM    7  C   UNL     1      -9.274   5.566  72.202  1.00  0.00    -0.143 C  
HETATM    8  C   UNL     1      -9.362   6.211  69.833  1.00  0.00    -0.149 C  
HETATM    9  C   UNL     1      -9.237   4.122  68.250  1.00  0.00    -0.195 A  
HETATM   10  C   UNL     1      -9.410   4.737  69.530  1.00  0.00    -0.198 A  
ENDBRANCH   1   2
BRANCH   1  11
HETATM   11  C   UNL     1      -8.871   8.115  72.916  1.00  0.00    -0.240 C  
HETATM   12  O   UNL     1      -9.248   7.667  73.992  1.00  0.00    -0.263 OA 
BRANCH  11  13
HETATM   13  O   UNL     1      -7.673   8.756  72.746  1.00  0.00    -0.369 OA 
HETATM   14  C   UNL     1      -6.561   8.047  73.301  1.00  0.00    -0.097 C  
ENDBRANCH  11  13
ENDBRANCH   1  11
BRANCH   1  15
HETATM   15  C   UNL     1     -10.880   8.810  71.428  1.00  0.00    -0.359 A  
HETATM   16  C   UNL     1     -13.205   9.278  72.082  1.00  0.00    -0.535 A  
HETATM   17  C   UNL     1     -12.168  10.609  70.375  1.00  0.00    -0.432 A  
HETATM   18  C   UNL     1     -13.277  10.314  71.165  1.00  0.00    -0.429 A  
HETATM   19  C   UNL     1     -12.027   8.538  72.207  1.00  0.00    -0.454 A  
HETATM   20  C   UNL     1     -10.981   9.868  70.503  1.00  0.00    -0.326 A  
HETATM   21 CL   UNL     1      -9.666  10.336  69.479  1.00  0.00    -0.248 Cl 
ENDBRANCH   1  15
TORSDOF 4
ENDMDL
MODEL      120
REMARK 921   NORMALIZED FREE ENERGY PREDICTED BY IDOCK:   -3.99 KCAL/MOL
REMARK 922        TOTAL FREE ENERGY PREDICTED BY IDOCK:   -5.45 KCAL/MOL
REMARK 923 INTER-LIGAND FREE ENERGY PREDICTED BY IDOCK:   -5.93 KCAL/MOL
REMARK 924 INTRA-LIGAND FREE ENERGY PREDICTED BY IDOCK:    0.48 KCAL/MOL
REMARK 927      BINDING AFFINITY PREDICTED BY RF-SCORE:    0.00 PKD
ROOT
HETATM    1  C   UNL     1      -9.608  12.331  67.399  1.00  0.00    -0.179 C  
ENDROOT
BRANCH   1   2
HETATM    2  N   UNL     1      -9.958  13.784  67.255  1.00  0.00    -0.237 NA 
HETATM    3  S   UNL     1      -9.962  18.256  66.610  1.00  0.00    -0.384 SA 
HETATM    4  C   UNL     1      -9.934  16.563  66.720  1.00  0.00    -0.276 A  
HETATM    5  C   UNL     1      -9.055  18.408  68.054  1.00  0.00    -0.294 A  
HETATM    6  C   UNL     1     -10.565  15.672  65.708  1.00  0.00    -0.374 C  
HETATM    7  C   UNL     1      -9.979  14.250  65.849  1.00  0.00    -0.319 C  
HETATM    8  C   UNL     1      -9.071  14.626  68.101  1.00  0.00    -0.187 C  
HETATM    9  C   UNL     1      -8.757  17.181  68.610  1.00  0.00    -0.266 A  
HETATM   10  C   UNL     1      -9.273  16.094  67.835  1.00  0.00    -0.200 A  
ENDBRANCH   1   2
BRANCH   1  11
HETATM   11  C   UNL     1      -9.806  11.548  66.068  1.00  0.00    -0.225 C  
HETATM   12  O   UNL     1     -10.872  11.380  65.487  1.00  0.00    -0.272 OA 
BRANCH  11  13
HETATM   13  O   UNL     1      -8.602  11.138  65.562  1.00  0.00    -0.149 OA 
HETATM   14  C   UNL     1      -8.702  10.518  64.278  1.00  0.00    -0.176 C  
ENDBRANCH  11  13
ENDBRANCH   1  11
BRANCH   1  15
HETATM   15  C   UNL     1     -10.286  11.670  68.615  1.00  0.00    -0.229 A  
HETATM   16  C   UNL     1     -10.428   9.820  70.231  1.00  0.00    -0.345 A  
HETATM   17  C   UNL     1     -12.068  11.572  70.294  1.00  0.00    -0.444 A  
HETATM   18  C   UNL     1     -11.562  10.377  70.802  1.00  0.00    -0.450 A  
HETATM   19  C   UNL     1      -9.805  10.455  69.154  1.00  0.00    -0.237 A  
HETATM   20  C   UNL     1     -11.440  12.214  69.214  1.00  0.00    -0.302 A  
HETATM   21 CL   UNL     1     -12.152  13.699  68.680  1.00  0.00    -0.384 Cl 
ENDBRANCH   1  15
TORSDOF 4
ENDMDL
MODEL      121
REMARK 921   NORMALIZED FREE ENERGY PREDICTED BY IDOCK:   -3.98 KCAL/MOL
REMARK 922        TOTAL FREE ENERGY PREDICTED BY IDOCK:   -5.44 KCAL/MOL
REMARK 923 INTER-LIGAND FREE ENERGY PREDICTED BY IDOCK:   -5.18 KCAL/MOL
REMARK 924 INTRA-LIGAND FREE ENERGY PREDICTED BY IDOCK:   -0.26 KCAL/MOL
REMARK 927      BINDING AFFINITY PREDICTED BY RF-SCORE:    0.00 PKD
ROOT
HETATM    1  C   UNL     1     -10.345  13.821  68.119  1.00  0.00    -0.252 C  
ENDROOT
BRANCH   1   2
HETATM    2  N   UNL     1      -9.140  12.925  68.068  1.00  0.00    -0.205 NA 
HETATM    3  S   UNL     1      -5.355  10.718  66.967  1.00  0.00    -0.053 SA 
HETATM    4  C   UNL     1      -6.701  11.658  67.394  1.00  0.00    -0.108 A  
HETATM    5  C   UNL     1      -6.234   9.949  65.717  1.00  0.00    -0.082 A  
HETATM    6  C   UNL     1      -6.675  12.667  68.489  1.00  0.00    -0.089 C  
HETATM    7  C   UNL     1      -7.865  13.636  68.315  1.00  0.00    -0.141 C  
HETATM    8  C   UNL     1      -9.108  12.160  66.793  1.00  0.00    -0.205 C  
HETATM    9  C   UNL     1      -7.537  10.398  65.648  1.00  0.00    -0.150 A  
HETATM   10  C   UNL     1      -7.819  11.399  66.631  1.00  0.00    -0.137 A  
ENDBRANCH   1   2
BRANCH   1  11
HETATM   11  C   UNL     1     -11.365  13.365  69.204  1.00  0.00    -0.280 C  
HETATM   12  O   UNL     1     -12.354  13.990  69.566  1.00  0.00    -0.332 OA 
BRANCH  11  13
HETATM   13  O   UNL     1     -11.066  12.105  69.651  1.00  0.00    -0.128 OA 
HETATM   14  C   UNL     1     -12.077  11.543  70.491  1.00  0.00    -0.378 C  
ENDBRANCH  11  13
ENDBRANCH   1  11
BRANCH   1  15
HETATM   15  C   UNL     1     -10.976  14.054  66.732  1.00  0.00    -0.298 A  
HETATM   16  C   UNL     1     -12.570  13.391  64.979  1.00  0.00    -0.459 A  
HETATM   17  C   UNL     1     -11.082  15.234  64.588  1.00  0.00    -0.346 A  
HETATM   18  C   UNL     1     -12.105  14.397  64.147  1.00  0.00    -0.405 A  
HETATM   19  C   UNL     1     -12.011  13.222  66.248  1.00  0.00    -0.471 A  
HETATM   20  C   UNL     1     -10.522  15.068  65.865  1.00  0.00    -0.328 A  
HETATM   21 CL   UNL     1      -9.269  16.176  66.308  1.00  0.00    -0.337 Cl 
ENDBRANCH   1  15
TORSDOF 4
ENDMDL
MODEL      122
REMARK 921   NORMALIZED FREE ENERGY PREDICTED BY IDOCK:   -3.98 KCAL/MOL
REMARK 922        TOTAL FREE ENERGY PREDICTED BY IDOCK:   -5.44 KCAL/MOL
REMARK 923 INTER-LIGAND FREE ENERGY PREDICTED BY IDOCK:   -5.52 KCAL/MOL
REMARK 924 INTRA-LIGAND FREE ENERGY PREDICTED BY IDOCK:    0.08 KCAL/MOL
REMARK 927      BINDING AFFINITY PREDICTED BY RF-SCORE:    0.00 PKD
ROOT
HETATM    1  C   UNL     1     -10.115   8.084  70.029  1.00  0.00    -0.196 C  
ENDROOT
BRANCH   1   2
HETATM    2  N   UNL     1     -10.846   9.385  69.857  1.00  0.00    -0.231 NA 
HETATM    3  S   UNL     1     -12.504  13.570  70.235  1.00  0.00    -0.183 SA 
HETATM    4  C   UNL     1     -11.762  12.054  70.064  1.00  0.00    -0.267 A  
HETATM    5  C   UNL     1     -13.334  13.054  71.640  1.00  0.00    -0.292 A  
HETATM    6  C   UNL     1     -10.800  11.738  68.973  1.00  0.00    -0.239 C  
HETATM    7  C   UNL     1      -9.986  10.484  69.362  1.00  0.00    -0.196 C  
HETATM    8  C   UNL     1     -11.552   9.760  71.111  1.00  0.00    -0.392 C  
HETATM    9  C   UNL     1     -13.054  11.740  71.953  1.00  0.00    -0.482 A  
HETATM   10  C   UNL     1     -12.135  11.145  71.031  1.00  0.00    -0.380 A  
ENDBRANCH   1   2
BRANCH   1  11
HETATM   11  C   UNL     1     -10.807   6.921  69.258  1.00  0.00    -0.237 C  
HETATM   12  O   UNL     1     -11.854   6.371  69.579  1.00  0.00    -0.274 OA 
BRANCH  11  13
HETATM   13  O   UNL     1     -10.135   6.641  68.098  1.00  0.00    -0.145 OA 
HETATM   14  C   UNL     1     -10.996   6.308  67.006  1.00  0.00    -0.364 C  
ENDBRANCH  11  13
ENDBRANCH   1  11
BRANCH   1  15
HETATM   15  C   UNL     1      -9.813   7.757  71.505  1.00  0.00    -0.200 A  
HETATM   16  C   UNL     1     -10.475   6.720  73.636  1.00  0.00    -0.374 A  
HETATM   17  C   UNL     1      -8.429   7.969  73.515  1.00  0.00    -0.306 A  
HETATM   18  C   UNL     1      -9.334   7.208  74.252  1.00  0.00    -0.246 A  
HETATM   19  C   UNL     1     -10.710   6.994  72.286  1.00  0.00    -0.250 A  
HETATM   20  C   UNL     1      -8.662   8.242  72.157  1.00  0.00    -0.197 A  
HETATM   21 CL   UNL     1      -7.460   9.184  71.342  1.00  0.00    -0.072 Cl 
ENDBRANCH   1  15
TORSDOF 4
ENDMDL
MODEL      123
REMARK 921   NORMALIZED FREE ENERGY PREDICTED BY IDOCK:   -3.96 KCAL/MOL
REMARK 922        TOTAL FREE ENERGY PREDICTED BY IDOCK:   -5.41 KCAL/MOL
REMARK 923 INTER-LIGAND FREE ENERGY PREDICTED BY IDOCK:   -4.96 KCAL/MOL
REMARK 924 INTRA-LIGAND FREE ENERGY PREDICTED BY IDOCK:   -0.45 KCAL/MOL
REMARK 927      BINDING AFFINITY PREDICTED BY RF-SCORE:    0.00 PKD
ROOT
HETATM    1  C   UNL     1      -9.410   9.292  69.979  1.00  0.00    -0.209 C  
ENDROOT
BRANCH   1   2
HETATM    2  N   UNL     1     -10.170   9.909  68.840  1.00  0.00    -0.186 NA 
HETATM    3  S   UNL     1     -11.738  12.555  65.531  1.00  0.00    -0.423 SA 
HETATM    4  C   UNL     1     -11.040  11.541  66.698  1.00  0.00    -0.295 A  
HETATM    5  C   UNL     1     -12.235  13.668  66.734  1.00  0.00    -0.369 A  
HETATM    6  C   UNL     1     -10.338  10.272  66.358  1.00  0.00    -0.262 C  
HETATM    7  C   UNL     1      -9.449   9.849  67.548  1.00  0.00    -0.151 C  
HETATM    8  C   UNL     1     -10.587  11.296  69.176  1.00  0.00    -0.187 C  
HETATM    9  C   UNL     1     -11.883  13.252  68.001  1.00  0.00    -0.392 A  
HETATM   10  C   UNL     1     -11.184  12.003  67.988  1.00  0.00    -0.316 A  
ENDBRANCH   1   2
BRANCH   1  11
HETATM   11  C   UNL     1      -8.011   8.773  69.533  1.00  0.00    -0.096 C  
HETATM   12  O   UNL     1      -6.965   9.409  69.571  1.00  0.00    -0.049 OA 
BRANCH  11  13
HETATM   13  O   UNL     1      -8.077   7.455  69.171  1.00  0.00    -0.117 OA 
HETATM   14  C   UNL     1      -7.061   6.646  69.771  1.00  0.00    -0.068 C  
ENDBRANCH  11  13
ENDBRANCH   1  11
BRANCH   1  15
HETATM   15  C   UNL     1     -10.239   8.252  70.758  1.00  0.00    -0.219 A  
HETATM   16  C   UNL     1     -12.194   6.765  70.906  1.00  0.00    -0.386 A  
HETATM   17  C   UNL     1     -10.699   6.942  72.776  1.00  0.00    -0.286 A  
HETATM   18  C   UNL     1     -11.841   6.396  72.194  1.00  0.00    -0.361 A  
HETATM   19  C   UNL     1     -11.407   7.680  70.203  1.00  0.00    -0.147 A  
HETATM   20  C   UNL     1      -9.904   7.859  72.069  1.00  0.00    -0.192 A  
HETATM   21 CL   UNL     1      -8.503   8.458  72.889  1.00  0.00    -0.251 Cl 
ENDBRANCH   1  15
TORSDOF 4
ENDMDL
MODEL      124
REMARK 921   NORMALIZED FREE ENERGY PREDICTED BY IDOCK:   -3.95 KCAL/MOL
REMARK 922        TOTAL FREE ENERGY PREDICTED BY IDOCK:   -5.40 KCAL/MOL
REMARK 923 INTER-LIGAND FREE ENERGY PREDICTED BY IDOCK:   -5.78 KCAL/MOL
REMARK 924 INTRA-LIGAND FREE ENERGY PREDICTED BY IDOCK:    0.37 KCAL/MOL
REMARK 927      BINDING AFFINITY PREDICTED BY RF-SCORE:    0.00 PKD
ROOT
HETATM    1  C   UNL     1      -9.972  13.302  66.924  1.00  0.00    -0.250 C  
ENDROOT
BRANCH   1   2
HETATM    2  N   UNL     1     -11.039  13.802  67.856  1.00  0.00    -0.257 NA 
HETATM    3  S   UNL     1     -13.485  15.161  71.402  1.00  0.00    -0.511 SA 
HETATM    4  C   UNL     1     -12.491  14.762  70.087  1.00  0.00    -0.309 A  
HETATM    5  C   UNL     1     -13.469  13.544  71.962  1.00  0.00    -0.494 A  
HETATM    6  C   UNL     1     -12.029  15.760  69.084  1.00  0.00    -0.312 C  
HETATM    7  C   UNL     1     -10.812  15.188  68.323  1.00  0.00    -0.262 C  
HETATM    8  C   UNL     1     -11.229  12.861  68.991  1.00  0.00    -0.267 C  
HETATM    9  C   UNL     1     -12.728  12.719  71.140  1.00  0.00    -0.355 A  
HETATM   10  C   UNL     1     -12.154  13.426  70.036  1.00  0.00    -0.404 A  
ENDBRANCH   1   2
BRANCH   1  11
HETATM   11  C   UNL     1     -10.558  12.852  65.554  1.00  0.00    -0.279 C  
HETATM   12  O   UNL     1      -9.922  12.364  64.627  1.00  0.00    -0.252 OA 
BRANCH  11  13
HETATM   13  O   UNL     1     -11.921  12.984  65.543  1.00  0.00    -0.374 OA 
HETATM   14  C   UNL     1     -12.545  12.377  64.408  1.00  0.00    -0.399 C  
ENDBRANCH  11  13
ENDBRANCH   1  11
BRANCH   1  15
HETATM   15  C   UNL     1      -9.050  12.254  67.580  1.00  0.00    -0.182 A  
HETATM   16  C   UNL     1      -6.920  11.674  68.667  1.00  0.00    -0.088 A  
HETATM   17  C   UNL     1      -8.521   9.945  68.205  1.00  0.00    -0.111 A  
HETATM   18  C   UNL     1      -7.286  10.338  68.717  1.00  0.00    -0.083 A  
HETATM   19  C   UNL     1      -7.787  12.613  68.104  1.00  0.00    -0.145 A  
HETATM   20  C   UNL     1      -9.396  10.889  67.643  1.00  0.00    -0.156 A  
HETATM   21 CL   UNL     1     -10.907  10.286  67.054  1.00  0.00    -0.287 Cl 
ENDBRANCH   1  15
TORSDOF 4
ENDMDL
MODEL      125
REMARK 921   NORMALIZED FREE ENERGY PREDICTED BY IDOCK:   -3.92 KCAL/MOL
REMARK 922        TOTAL FREE ENERGY PREDICTED BY IDOCK:   -5.37 KCAL/MOL
REMARK 923 INTER-LIGAND FREE ENERGY PREDICTED BY IDOCK:   -5.46 KCAL/MOL
REMARK 924 INTRA-LIGAND FREE ENERGY PREDICTED BY IDOCK:    0.09 KCAL/MOL
REMARK 927      BINDING AFFINITY PREDICTED BY RF-SCORE:    0.00 PKD
ROOT
HETATM    1  C   UNL     1     -11.134  15.907  67.227  1.00  0.00    -0.172 C  
ENDROOT
BRANCH   1   2
HETATM    2  N   UNL     1     -10.613  14.701  66.498  1.00  0.00    -0.294 NA 
HETATM    3  S   UNL     1     -10.031  10.691  64.501  1.00  0.00    -0.352 SA 
HETATM    4  C   UNL     1     -10.336  12.228  65.152  1.00  0.00    -0.286 A  
HETATM    5  C   UNL     1     -10.120   9.970  66.051  1.00  0.00    -0.248 A  
HETATM    6  C   UNL     1     -10.431  13.459  64.320  1.00  0.00    -0.325 C  
HETATM    7  C   UNL     1     -11.152  14.561  65.126  1.00  0.00    -0.370 C  
HETATM    8  C   UNL     1     -10.824  13.469  67.303  1.00  0.00    -0.276 C  
HETATM    9  C   UNL     1     -10.361  10.899  67.042  1.00  0.00    -0.276 A  
HETATM   10  C   UNL     1     -10.485  12.227  66.522  1.00  0.00    -0.254 A  
ENDBRANCH   1   2
BRANCH   1  11
HETATM   11  C   UNL     1     -10.271  17.173  66.951  1.00  0.00    -0.315 C  
HETATM   12  O   UNL     1     -10.384  18.255  67.515  1.00  0.00    -0.361 OA 
BRANCH  11  13
HETATM   13  O   UNL     1      -9.284  16.898  66.043  1.00  0.00    -0.440 OA 
HETATM   14  C   UNL     1      -8.138  17.745  66.171  1.00  0.00    -0.181 C  
ENDBRANCH  11  13
ENDBRANCH   1  11
BRANCH   1  15
HETATM   15  C   UNL     1     -11.382  15.639  68.725  1.00  0.00    -0.351 A  
HETATM   16  C   UNL     1     -12.941  15.339  70.605  1.00  0.00    -0.442 A  
HETATM   17  C   UNL     1     -10.576  15.327  71.017  1.00  0.00     0.089 A  
HETATM   18  C   UNL     1     -11.882  15.232  71.493  1.00  0.00    -0.441 A  
HETATM   19  C   UNL     1     -12.693  15.543  69.245  1.00  0.00     0.353 A  
HETATM   20  C   UNL     1     -10.325  15.527  69.649  1.00  0.00    -0.283 A  
HETATM   21 CL   UNL     1      -8.663  15.614  69.175  1.00  0.00    -0.236 Cl 
ENDBRANCH   1  15
TORSDOF 4
ENDMDL
MODEL      126
REMARK 921   NORMALIZED FREE ENERGY PREDICTED BY IDOCK:   -3.92 KCAL/MOL
REMARK 922        TOTAL FREE ENERGY PREDICTED BY IDOCK:   -5.36 KCAL/MOL
REMARK 923 INTER-LIGAND FREE ENERGY PREDICTED BY IDOCK:   -5.44 KCAL/MOL
REMARK 924 INTRA-LIGAND FREE ENERGY PREDICTED BY IDOCK:    0.08 KCAL/MOL
REMARK 927      BINDING AFFINITY PREDICTED BY RF-SCORE:    0.00 PKD
ROOT
HETATM    1  C   UNL     1     -10.321  14.853  68.685  1.00  0.00    -0.237 C  
ENDROOT
BRANCH   1   2
HETATM    2  N   UNL     1     -10.720  14.487  67.284  1.00  0.00    -0.283 NA 
HETATM    3  S   UNL     1     -11.932  12.386  63.472  1.00  0.00    -0.540 SA 
HETATM    4  C   UNL     1     -11.598  13.143  64.953  1.00  0.00    -0.323 A  
HETATM    5  C   UNL     1     -10.370  11.688  63.427  1.00  0.00    -0.435 A  
HETATM    6  C   UNL     1     -12.589  13.984  65.679  1.00  0.00    -0.542 C  
HETATM    7  C   UNL     1     -12.151  14.127  67.153  1.00  0.00    -0.397 C  
HETATM    8  C   UNL     1      -9.833  13.423  66.745  1.00  0.00    -0.265 C  
HETATM    9  C   UNL     1      -9.610  12.048  64.521  1.00  0.00     0.003 A  
HETATM   10  C   UNL     1     -10.323  12.904  65.420  1.00  0.00    -0.310 A  
ENDBRANCH   1   2
BRANCH   1  11
HETATM   11  C   UNL     1     -11.553  15.200  69.571  1.00  0.00    -0.319 C  
HETATM   12  O   UNL     1     -12.460  15.967  69.269  1.00  0.00    -0.018 OA 
BRANCH  11  13
HETATM   13  O   UNL     1     -11.549  14.455  70.719  1.00  0.00    -0.264 OA 
HETATM   14  C   UNL     1     -10.995  15.143  71.845  1.00  0.00     0.163 C  
ENDBRANCH  11  13
ENDBRANCH   1  11
BRANCH   1  15
HETATM   15  C   UNL     1      -9.204  15.915  68.729  1.00  0.00    -0.218 A  
HETATM   16  C   UNL     1      -6.982  16.638  69.498  1.00  0.00    -0.111 A  
HETATM   17  C   UNL     1      -8.344  18.154  68.230  1.00  0.00    -0.301 A  
HETATM   18  C   UNL     1      -7.158  17.879  68.908  1.00  0.00    -0.264 A  
HETATM   19  C   UNL     1      -7.990  15.676  69.412  1.00  0.00    -0.226 A  
HETATM   20  C   UNL     1      -9.357  17.186  68.139  1.00  0.00    -0.264 A  
HETATM   21 CL   UNL     1     -10.778  17.636  67.260  1.00  0.00    -0.288 Cl 
ENDBRANCH   1  15
TORSDOF 4
ENDMDL
MODEL      127
REMARK 921   NORMALIZED FREE ENERGY PREDICTED BY IDOCK:   -3.91 KCAL/MOL
REMARK 922        TOTAL FREE ENERGY PREDICTED BY IDOCK:   -5.36 KCAL/MOL
REMARK 923 INTER-LIGAND FREE ENERGY PREDICTED BY IDOCK:   -5.54 KCAL/MOL
REMARK 924 INTRA-LIGAND FREE ENERGY PREDICTED BY IDOCK:    0.18 KCAL/MOL
REMARK 927      BINDING AFFINITY PREDICTED BY RF-SCORE:    0.00 PKD
ROOT
HETATM    1  C   UNL     1     -10.398  11.761  67.517  1.00  0.00    -0.196 C  
ENDROOT
BRANCH   1   2
HETATM    2  N   UNL     1      -9.849  10.384  67.758  1.00  0.00    -0.166 NA 
HETATM    3  S   UNL     1      -8.646   6.373  69.452  1.00  0.00    -0.130 SA 
HETATM    4  C   UNL     1      -9.226   7.835  68.819  1.00  0.00    -0.139 A  
HETATM    5  C   UNL     1      -7.587   7.201  70.512  1.00  0.00    -0.089 A  
HETATM    6  C   UNL     1     -10.279   7.907  67.769  1.00  0.00    -0.276 C  
HETATM    7  C   UNL     1     -10.886   9.327  67.755  1.00  0.00    -0.126 C  
HETATM    8  C   UNL     1      -9.033  10.352  69.000  1.00  0.00    -0.179 C  
HETATM    9  C   UNL     1      -7.671   8.570  70.362  1.00  0.00    -0.080 A  
HETATM   10  C   UNL     1      -8.628   8.950  69.368  1.00  0.00    -0.133 A  
ENDBRANCH   1   2
BRANCH   1  11
HETATM   11  C   UNL     1     -11.412  12.186  68.619  1.00  0.00    -0.296 C  
HETATM   12  O   UNL     1     -12.408  11.558  68.958  1.00  0.00    -0.360 OA 
BRANCH  11  13
HETATM   13  O   UNL     1     -10.995  13.329  69.247  1.00  0.00    -0.196 OA 
HETATM   14  C   UNL     1     -11.813  14.468  68.961  1.00  0.00    -0.318 C  
ENDBRANCH  11  13
ENDBRANCH   1  11
BRANCH   1  15
HETATM   15  C   UNL     1     -10.925  11.952  66.081  1.00  0.00    -0.352 A  
HETATM   16  C   UNL     1     -12.620  12.843  64.535  1.00  0.00    -0.420 A  
HETATM   17  C   UNL     1     -10.816  11.514  63.673  1.00  0.00    -0.488 A  
HETATM   18  C   UNL     1     -11.977  12.253  63.458  1.00  0.00    -0.625 A  
HETATM   19  C   UNL     1     -12.103  12.690  65.824  1.00  0.00    -0.484 A  
HETATM   20  C   UNL     1     -10.293  11.363  64.968  1.00  0.00    -0.287 A  
HETATM   21 CL   UNL     1      -8.839  10.435  65.109  1.00  0.00    -0.194 Cl 
ENDBRANCH   1  15
TORSDOF 4
ENDMDL
MODEL      128
REMARK 921   NORMALIZED FREE ENERGY PREDICTED BY IDOCK:   -3.90 KCAL/MOL
REMARK 922        TOTAL FREE ENERGY PREDICTED BY IDOCK:   -5.35 KCAL/MOL
REMARK 923 INTER-LIGAND FREE ENERGY PREDICTED BY IDOCK:   -6.09 KCAL/MOL
REMARK 924 INTRA-LIGAND FREE ENERGY PREDICTED BY IDOCK:    0.75 KCAL/MOL
REMARK 927      BINDING AFFINITY PREDICTED BY RF-SCORE:    0.00 PKD
ROOT
HETATM    1  C   UNL     1     -10.591  14.727  67.417  1.00  0.00    -0.268 C  
ENDROOT
BRANCH   1   2
HETATM    2  N   UNL     1     -11.525  14.344  68.529  1.00  0.00    -0.281 NA 
HETATM    3  S   UNL     1     -13.437  12.808  72.323  1.00  0.00    -0.338 SA 
HETATM    4  C   UNL     1     -12.657  13.478  70.974  1.00  0.00    -0.359 A  
HETATM    5  C   UNL     1     -13.103  11.219  71.781  1.00  0.00    -0.422 A  
HETATM    6  C   UNL     1     -12.524  14.945  70.756  1.00  0.00    -0.401 C  
HETATM    7  C   UNL     1     -11.403  15.206  69.726  1.00  0.00    -0.285 C  
HETATM    8  C   UNL     1     -11.377  12.904  68.868  1.00  0.00    -0.288 C  
HETATM    9  C   UNL     1     -12.423  11.214  70.581  1.00  0.00    -0.448 A  
HETATM   10  C   UNL     1     -12.161  12.536  70.099  1.00  0.00    -0.368 A  
ENDBRANCH   1   2
BRANCH   1  11
HETATM   11  C   UNL     1      -9.265  13.912  67.463  1.00  0.00    -0.205 C  
HETATM   12  O   UNL     1      -8.379  14.031  68.301  1.00  0.00    -0.149 OA 
BRANCH  11  13
HETATM   13  O   UNL     1      -9.249  12.956  66.483  1.00  0.00    -0.235 OA 
HETATM   14  C   UNL     1      -8.005  12.257  66.386  1.00  0.00     0.345 C  
ENDBRANCH  11  13
ENDBRANCH   1  11
BRANCH   1  15
HETATM   15  C   UNL     1     -10.380  16.250  67.312  1.00  0.00    -0.285 A  
HETATM   16  C   UNL     1      -9.945  18.420  68.388  1.00  0.00    -0.406 A  
HETATM   17  C   UNL     1     -10.349  18.334  66.024  1.00  0.00    -0.377 A  
HETATM   18  C   UNL     1     -10.070  19.072  67.172  1.00  0.00    -0.435 A  
HETATM   19  C   UNL     1     -10.101  17.033  68.455  1.00  0.00    -0.303 A  
HETATM   20  C   UNL     1     -10.502  16.939  66.089  1.00  0.00    -0.272 A  
HETATM   21 CL   UNL     1     -10.833  16.129  64.595  1.00  0.00    -0.315 Cl 
ENDBRANCH   1  15
TORSDOF 4
ENDMDL
MODEL      129
REMARK 921   NORMALIZED FREE ENERGY PREDICTED BY IDOCK:   -3.90 KCAL/MOL
REMARK 922        TOTAL FREE ENERGY PREDICTED BY IDOCK:   -5.34 KCAL/MOL
REMARK 923 INTER-LIGAND FREE ENERGY PREDICTED BY IDOCK:   -5.22 KCAL/MOL
REMARK 924 INTRA-LIGAND FREE ENERGY PREDICTED BY IDOCK:   -0.12 KCAL/MOL
REMARK 927      BINDING AFFINITY PREDICTED BY RF-SCORE:    0.00 PKD
ROOT
HETATM    1  C   UNL     1     -10.387  10.264  67.852  1.00  0.00    -0.196 C  
ENDROOT
BRANCH   1   2
HETATM    2  N   UNL     1     -10.626   9.486  69.115  1.00  0.00    -0.219 NA 
HETATM    3  S   UNL     1     -10.466   6.612  72.596  1.00  0.00    -0.223 SA 
HETATM    4  C   UNL     1     -10.413   7.748  71.337  1.00  0.00    -0.208 A  
HETATM    5  C   UNL     1     -10.869   5.356  71.505  1.00  0.00    -0.148 A  
HETATM    6  C   UNL     1     -10.075   9.182  71.549  1.00  0.00    -0.381 C  
HETATM    7  C   UNL     1      -9.671   9.813  70.199  1.00  0.00    -0.248 C  
HETATM    8  C   UNL     1     -10.664   8.027  68.834  1.00  0.00    -0.065 C  
HETATM    9  C   UNL     1     -10.976   5.812  70.207  1.00  0.00    -0.347 A  
HETATM   10  C   UNL     1     -10.713   7.215  70.102  1.00  0.00    -0.260 A  
ENDBRANCH   1   2
BRANCH   1  11
HETATM   11  C   UNL     1      -8.893  10.225  67.417  1.00  0.00    -0.131 C  
HETATM   12  O   UNL     1      -8.327   9.282  66.878  1.00  0.00    -0.121 OA 
BRANCH  11  13
HETATM   13  O   UNL     1      -8.294  11.438  67.631  1.00  0.00    -0.123 OA 
HETATM   14  C   UNL     1      -6.975  11.528  67.087  1.00  0.00    -0.138 C  
ENDBRANCH  11  13
ENDBRANCH   1  11
BRANCH   1  15
HETATM   15  C   UNL     1     -10.982  11.685  67.904  1.00  0.00    -0.277 A  
HETATM   16  C   UNL     1     -11.818  13.599  69.206  1.00  0.00    -0.395 A  
HETATM   17  C   UNL     1     -11.919  13.667  66.809  1.00  0.00    -0.458 A  
HETATM   18  C   UNL     1     -12.157  14.269  68.042  1.00  0.00    -0.289 A  
HETATM   19  C   UNL     1     -11.243  12.327  69.136  1.00  0.00    -0.300 A  
HETATM   20  C   UNL     1     -11.338  12.390  66.736  1.00  0.00    -0.335 A  
HETATM   21 CL   UNL     1     -11.077  11.750  65.150  1.00  0.00    -0.358 Cl 
ENDBRANCH   1  15
TORSDOF 4
ENDMDL
MODEL      130
REMARK 921   NORMALIZED FREE ENERGY PREDICTED BY IDOCK:   -3.88 KCAL/MOL
REMARK 922        TOTAL FREE ENERGY PREDICTED BY IDOCK:   -5.32 KCAL/MOL
REMARK 923 INTER-LIGAND FREE ENERGY PREDICTED BY IDOCK:   -5.14 KCAL/MOL
REMARK 924 INTRA-LIGAND FREE ENERGY PREDICTED BY IDOCK:   -0.18 KCAL/MOL
REMARK 927      BINDING AFFINITY PREDICTED BY RF-SCORE:    0.00 PKD
ROOT
HETATM    1  C   UNL     1      -9.509   7.676  68.645  1.00  0.00    -0.151 C  
ENDROOT
BRANCH   1   2
HETATM    2  N   UNL     1      -9.806   8.989  67.978  1.00  0.00    -0.160 NA 
HETATM    3  S   UNL     1     -11.317  12.328  65.336  1.00  0.00    -0.348 SA 
HETATM    4  C   UNL     1     -10.875  11.062  66.376  1.00  0.00    -0.191 A  
HETATM    5  C   UNL     1     -10.402  11.653  64.056  1.00  0.00    -0.357 A  
HETATM    6  C   UNL     1     -11.354  10.961  67.782  1.00  0.00    -0.366 C  
HETATM    7  C   UNL     1     -11.158   9.512  68.281  1.00  0.00     0.009 C  
HETATM    8  C   UNL     1      -9.564   8.902  66.514  1.00  0.00    -0.232 C  
HETATM    9  C   UNL     1      -9.761  10.491  64.434  1.00  0.00    -0.388 A  
HETATM   10  C   UNL     1     -10.031  10.140  65.795  1.00  0.00    -0.339 A  
ENDBRANCH   1   2
BRANCH   1  11
HETATM   11  C   UNL     1     -10.123   6.475  67.867  1.00  0.00    -0.147 C  
HETATM   12  O   UNL     1     -11.307   6.332  67.587  1.00  0.00    -0.246 OA 
BRANCH  11  13
HETATM   13  O   UNL     1      -9.141   5.622  67.440  1.00  0.00    -0.112 OA 
HETATM   14  C   UNL     1      -9.622   4.317  67.108  1.00  0.00    -0.194 C  
ENDBRANCH  11  13
ENDBRANCH   1  11
BRANCH   1  15
HETATM   15  C   UNL     1      -9.847   7.679  70.149  1.00  0.00    -0.184 A  
HETATM   16  C   UNL     1     -11.264   6.930  72.015  1.00  0.00    -0.292 A  
HETATM   17  C   UNL     1      -9.497   8.500  72.430  1.00  0.00    -0.350 A  
HETATM   18  C   UNL     1     -10.555   7.726  72.901  1.00  0.00    -0.428 A  
HETATM   19  C   UNL     1     -10.916   6.911  70.662  1.00  0.00    -0.304 A  
HETATM   20  C   UNL     1      -9.143   8.480  71.071  1.00  0.00    -0.179 A  
HETATM   21 CL   UNL     1      -7.803   9.472  70.607  1.00  0.00    -0.179 Cl 
ENDBRANCH   1  15
TORSDOF 4
ENDMDL
MODEL      131
REMARK 921   NORMALIZED FREE ENERGY PREDICTED BY IDOCK:   -3.88 KCAL/MOL
REMARK 922        TOTAL FREE ENERGY PREDICTED BY IDOCK:   -5.32 KCAL/MOL
REMARK 923 INTER-LIGAND FREE ENERGY PREDICTED BY IDOCK:   -5.54 KCAL/MOL
REMARK 924 INTRA-LIGAND FREE ENERGY PREDICTED BY IDOCK:    0.22 KCAL/MOL
REMARK 927      BINDING AFFINITY PREDICTED BY RF-SCORE:    0.00 PKD
ROOT
HETATM    1  C   UNL     1      -8.931  12.470  66.705  1.00  0.00    -0.198 C  
ENDROOT
BRANCH   1   2
HETATM    2  N   UNL     1      -9.713  11.560  67.609  1.00  0.00    -0.172 NA 
HETATM    3  S   UNL     1     -11.626   9.427  71.101  1.00  0.00    -0.375 SA 
HETATM    4  C   UNL     1     -10.985  10.335  69.820  1.00  0.00    -0.289 A  
HETATM    5  C   UNL     1     -10.072   8.851  71.529  1.00  0.00    -0.324 A  
HETATM    6  C   UNL     1     -11.819  11.188  68.930  1.00  0.00    -0.406 C  
HETATM    7  C   UNL     1     -10.910  12.201  68.199  1.00  0.00    -0.222 C  
HETATM    8  C   UNL     1      -8.832  10.970  68.651  1.00  0.00    -0.164 C  
HETATM    9  C   UNL     1      -9.091   9.337  70.689  1.00  0.00    -0.309 A  
HETATM   10  C   UNL     1      -9.620  10.205  69.681  1.00  0.00    -0.237 A  
ENDBRANCH   1   2
BRANCH   1  11
HETATM   11  C   UNL     1      -7.886  13.315  67.491  1.00  0.00    -0.171 C  
HETATM   12  O   UNL     1      -6.699  13.432  67.209  1.00  0.00    -0.196 OA 
BRANCH  11  13
HETATM   13  O   UNL     1      -8.488  14.005  68.509  1.00  0.00    -0.160 OA 
HETATM   14  C   UNL     1      -7.574  14.767  69.302  1.00  0.00    -0.144 C  
ENDBRANCH  11  13
ENDBRANCH   1  11
BRANCH   1  15
HETATM   15  C   UNL     1      -9.832  13.306  65.774  1.00  0.00    -0.210 A  
HETATM   16  C   UNL     1     -10.757  15.483  65.097  1.00  0.00    -0.460 A  
HETATM   17  C   UNL     1     -11.490  13.488  63.980  1.00  0.00    -0.357 A  
HETATM   18  C   UNL     1     -11.545  14.872  64.134  1.00  0.00    -0.069 A  
HETATM   19  C   UNL     1      -9.919  14.710  65.904  1.00  0.00    -0.352 A  
HETATM   20  C   UNL     1     -10.644  12.711  64.788  1.00  0.00    -0.317 A  
HETATM   21 CL   UNL     1     -10.650  11.005  64.494  1.00  0.00    -0.407 Cl 
ENDBRANCH   1  15
TORSDOF 4
ENDMDL
MODEL      132
REMARK 921   NORMALIZED FREE ENERGY PREDICTED BY IDOCK:   -3.86 KCAL/MOL
REMARK 922        TOTAL FREE ENERGY PREDICTED BY IDOCK:   -5.29 KCAL/MOL
REMARK 923 INTER-LIGAND FREE ENERGY PREDICTED BY IDOCK:   -5.05 KCAL/MOL
REMARK 924 INTRA-LIGAND FREE ENERGY PREDICTED BY IDOCK:   -0.24 KCAL/MOL
REMARK 927      BINDING AFFINITY PREDICTED BY RF-SCORE:    0.00 PKD
ROOT
HETATM    1  C   UNL     1     -10.025  10.023  65.544  1.00  0.00    -0.296 C  
ENDROOT
BRANCH   1   2
HETATM    2  N   UNL     1     -10.711  11.353  65.417  1.00  0.00    -0.272 NA 
HETATM    3  S   UNL     1     -11.904  15.602  64.451  1.00  0.00    -0.023 SA 
HETATM    4  C   UNL     1     -11.474  13.977  64.683  1.00  0.00    -0.383 A  
HETATM    5  C   UNL     1     -10.621  16.130  65.453  1.00  0.00    -0.380 A  
HETATM    6  C   UNL     1     -12.198  12.844  64.044  1.00  0.00    -0.500 C  
HETATM    7  C   UNL     1     -11.304  11.585  64.080  1.00  0.00    -0.296 C  
HETATM    8  C   UNL     1      -9.797  12.456  65.814  1.00  0.00    -0.240 C  
HETATM    9  C   UNL     1      -9.894  15.074  65.963  1.00  0.00    -0.347 A  
HETATM   10  C   UNL     1     -10.391  13.808  65.519  1.00  0.00    -0.333 A  
ENDBRANCH   1   2
BRANCH   1  11
HETATM   11  C   UNL     1     -10.449   9.269  66.838  1.00  0.00    -0.214 C  
HETATM   12  O   UNL     1     -10.866   9.789  67.867  1.00  0.00    -0.266 OA 
BRANCH  11  13
HETATM   13  O   UNL     1     -10.386   7.914  66.653  1.00  0.00    -0.291 OA 
HETATM   14  C   UNL     1     -10.040   7.190  67.837  1.00  0.00    -0.173 C  
ENDBRANCH  11  13
ENDBRANCH   1  11
BRANCH   1  15
HETATM   15  C   UNL     1      -8.498  10.117  65.353  1.00  0.00    -0.162 A  
HETATM   16  C   UNL     1      -6.261  10.581  66.267  1.00  0.00    -0.105 A  
HETATM   17  C   UNL     1      -6.499  10.060  63.936  1.00  0.00    -0.132 A  
HETATM   18  C   UNL     1      -5.688  10.386  65.021  1.00  0.00    -0.139 A  
HETATM   19  C   UNL     1      -7.643  10.452  66.427  1.00  0.00    -0.123 A  
HETATM   20  C   UNL     1      -7.889   9.925  64.096  1.00  0.00    -0.142 A  
HETATM   21 CL   UNL     1      -8.791   9.503  62.681  1.00  0.00    -0.236 Cl 
ENDBRANCH   1  15
TORSDOF 4
ENDMDL
MODEL      133
REMARK 921   NORMALIZED FREE ENERGY PREDICTED BY IDOCK:   -3.85 KCAL/MOL
REMARK 922        TOTAL FREE ENERGY PREDICTED BY IDOCK:   -5.27 KCAL/MOL
REMARK 923 INTER-LIGAND FREE ENERGY PREDICTED BY IDOCK:   -5.40 KCAL/MOL
REMARK 924 INTRA-LIGAND FREE ENERGY PREDICTED BY IDOCK:    0.13 KCAL/MOL
REMARK 927      BINDING AFFINITY PREDICTED BY RF-SCORE:    0.00 PKD
ROOT
HETATM    1  C   UNL     1      -9.993  11.336  68.364  1.00  0.00    -0.197 C  
ENDROOT
BRANCH   1   2
HETATM    2  N   UNL     1      -9.506   9.978  67.943  1.00  0.00    -0.144 NA 
HETATM    3  S   UNL     1      -8.744   6.036  65.873  1.00  0.00    -0.147 SA 
HETATM    4  C   UNL     1      -8.973   7.577  66.544  1.00  0.00    -0.162 A  
HETATM    5  C   UNL     1     -10.320   5.553  66.335  1.00  0.00    -0.219 A  
HETATM    6  C   UNL     1      -7.938   8.646  66.499  1.00  0.00    -0.099 C  
HETATM    7  C   UNL     1      -8.606  10.012  66.768  1.00  0.00    -0.125 C  
HETATM    8  C   UNL     1     -10.650   9.051  67.736  1.00  0.00    -0.214 C  
HETATM    9  C   UNL     1     -10.993   6.554  67.005  1.00  0.00    -0.466 A  
HETATM   10  C   UNL     1     -10.208   7.744  67.134  1.00  0.00    -0.365 A  
ENDBRANCH   1   2
BRANCH   1  11
HETATM   11  C   UNL     1     -11.108  11.246  69.446  1.00  0.00    -0.257 C  
HETATM   12  O   UNL     1     -11.089  10.525  70.437  1.00  0.00    -0.298 OA 
BRANCH  11  13
HETATM   13  O   UNL     1     -12.096  12.162  69.201  1.00  0.00    -0.267 OA 
HETATM   14  C   UNL     1     -12.259  13.121  70.250  1.00  0.00    -0.306 C  
ENDBRANCH  11  13
ENDBRANCH   1  11
BRANCH   1  15
HETATM   15  C   UNL     1     -10.360  12.236  67.167  1.00  0.00    -0.234 A  
HETATM   16  C   UNL     1     -11.568  12.579  65.051  1.00  0.00    -0.392 A  
HETATM   17  C   UNL     1     -10.108  14.299  65.870  1.00  0.00    -0.344 A  
HETATM   18  C   UNL     1     -10.995  13.832  64.903  1.00  0.00    -0.378 A  
HETATM   19  C   UNL     1     -11.251  11.794  66.163  1.00  0.00    -0.363 A  
HETATM   20  C   UNL     1      -9.792  13.514  66.991  1.00  0.00    -0.251 A  
HETATM   21 CL   UNL     1      -8.690  14.206  68.132  1.00  0.00    -0.173 Cl 
ENDBRANCH   1  15
TORSDOF 4
ENDMDL
MODEL      134
REMARK 921   NORMALIZED FREE ENERGY PREDICTED BY IDOCK:   -3.83 KCAL/MOL
REMARK 922        TOTAL FREE ENERGY PREDICTED BY IDOCK:   -5.25 KCAL/MOL
REMARK 923 INTER-LIGAND FREE ENERGY PREDICTED BY IDOCK:   -5.60 KCAL/MOL
REMARK 924 INTRA-LIGAND FREE ENERGY PREDICTED BY IDOCK:    0.34 KCAL/MOL
REMARK 927      BINDING AFFINITY PREDICTED BY RF-SCORE:    0.00 PKD
ROOT
HETATM    1  C   UNL     1     -10.257  16.264  66.784  1.00  0.00    -0.280 C  
ENDROOT
BRANCH   1   2
HETATM    2  N   UNL     1      -8.969  17.024  66.642  1.00  0.00    -0.240 NA 
HETATM    3  S   UNL     1      -5.366  19.696  67.179  1.00  0.00    -0.162 SA 
HETATM    4  C   UNL     1      -6.671  18.616  67.078  1.00  0.00    -0.193 A  
HETATM    5  C   UNL     1      -6.414  21.042  67.031  1.00  0.00    -0.335 A  
HETATM    6  C   UNL     1      -6.511  17.138  67.159  1.00  0.00    -0.212 C  
HETATM    7  C   UNL     1      -7.877  16.498  67.492  1.00  0.00    -0.155 C  
HETATM    8  C   UNL     1      -9.189  18.477  66.862  1.00  0.00    -0.290 C  
HETATM    9  C   UNL     1      -7.732  20.660  66.890  1.00  0.00    -0.274 A  
HETATM   10  C   UNL     1      -7.890  19.237  66.913  1.00  0.00    -0.273 A  
ENDBRANCH   1   2
BRANCH   1  11
HETATM   11  C   UNL     1     -10.746  16.218  68.262  1.00  0.00    -0.322 C  
HETATM   12  O   UNL     1     -10.467  17.030  69.135  1.00  0.00    -0.320 OA 
BRANCH  11  13
HETATM   13  O   UNL     1     -11.624  15.184  68.449  1.00  0.00    -0.318 OA 
HETATM   14  C   UNL     1     -12.153  15.116  69.776  1.00  0.00    -0.319 C  
ENDBRANCH  11  13
ENDBRANCH   1  11
BRANCH   1  15
HETATM   15  C   UNL     1     -10.216  14.883  66.100  1.00  0.00    -0.314 A  
HETATM   16  C   UNL     1      -9.322  12.594  65.975  1.00  0.00    -0.074 A  
HETATM   17  C   UNL     1     -10.854  13.358  64.292  1.00  0.00    -0.383 A  
HETATM   18  C   UNL     1     -10.046  12.352  64.818  1.00  0.00    -0.260 A  
HETATM   19  C   UNL     1      -9.404  13.840  66.601  1.00  0.00    -0.277 A  
HETATM   20  C   UNL     1     -10.941  14.610  64.923  1.00  0.00    -0.407 A  
HETATM   21 CL   UNL     1     -11.987  15.775  64.185  1.00  0.00    -0.189 Cl 
ENDBRANCH   1  15
TORSDOF 4
ENDMDL
MODEL      135
REMARK 921   NORMALIZED FREE ENERGY PREDICTED BY IDOCK:   -3.80 KCAL/MOL
REMARK 922        TOTAL FREE ENERGY PREDICTED BY IDOCK:   -5.22 KCAL/MOL
REMARK 923 INTER-LIGAND FREE ENERGY PREDICTED BY IDOCK:   -5.74 KCAL/MOL
REMARK 924 INTRA-LIGAND FREE ENERGY PREDICTED BY IDOCK:    0.52 KCAL/MOL
REMARK 927      BINDING AFFINITY PREDICTED BY RF-SCORE:    0.00 PKD
ROOT
HETATM    1  C   UNL     1     -11.229  12.727  67.017  1.00  0.00    -0.292 C  
ENDROOT
BRANCH   1   2
HETATM    2  N   UNL     1     -10.599  14.090  66.980  1.00  0.00    -0.278 NA 
HETATM    3  S   UNL     1      -8.079  17.739  66.116  1.00  0.00    -0.122 SA 
HETATM    4  C   UNL     1      -9.078  16.383  66.317  1.00  0.00    -0.327 A  
HETATM    5  C   UNL     1      -6.752  16.919  66.820  1.00  0.00    -0.227 A  
HETATM    6  C   UNL     1     -10.500  16.348  65.878  1.00  0.00    -0.350 C  
HETATM    7  C   UNL     1     -10.966  14.878  65.782  1.00  0.00    -0.345 C  
HETATM    8  C   UNL     1      -9.124  13.992  67.145  1.00  0.00    -0.232 C  
HETATM    9  C   UNL     1      -7.083  15.639  67.214  1.00  0.00    -0.242 A  
HETATM   10  C   UNL     1      -8.447  15.318  66.925  1.00  0.00    -0.286 A  
ENDBRANCH   1   2
BRANCH   1  11
HETATM   11  C   UNL     1     -11.726  12.353  68.444  1.00  0.00    -0.336 C  
HETATM   12  O   UNL     1     -11.708  13.086  69.425  1.00  0.00    -0.295 OA 
BRANCH  11  13
HETATM   13  O   UNL     1     -12.286  11.103  68.450  1.00  0.00    -0.610 OA 
HETATM   14  C   UNL     1     -12.320  10.498  69.745  1.00  0.00    -0.130 C  
ENDBRANCH  11  13
ENDBRANCH   1  11
BRANCH   1  15
HETATM   15  C   UNL     1     -10.349  11.644  66.362  1.00  0.00    -0.266 A  
HETATM   16  C   UNL     1      -9.768  10.267  64.407  1.00  0.00    -0.381 A  
HETATM   17  C   UNL     1      -8.606   9.927  66.479  1.00  0.00    -0.131 A  
HETATM   18  C   UNL     1      -8.806   9.592  65.142  1.00  0.00    -0.215 A  
HETATM   19  C   UNL     1     -10.527  11.273  65.009  1.00  0.00    -0.359 A  
HETATM   20  C   UNL     1      -9.366  10.941  67.086  1.00  0.00    -0.159 A  
HETATM   21 CL   UNL     1      -9.017  11.278  68.747  1.00  0.00    -0.151 Cl 
ENDBRANCH   1  15
TORSDOF 4
ENDMDL
MODEL      136
REMARK 921   NORMALIZED FREE ENERGY PREDICTED BY IDOCK:   -3.78 KCAL/MOL
REMARK 922        TOTAL FREE ENERGY PREDICTED BY IDOCK:   -5.19 KCAL/MOL
REMARK 923 INTER-LIGAND FREE ENERGY PREDICTED BY IDOCK:   -5.01 KCAL/MOL
REMARK 924 INTRA-LIGAND FREE ENERGY PREDICTED BY IDOCK:   -0.18 KCAL/MOL
REMARK 927      BINDING AFFINITY PREDICTED BY RF-SCORE:    0.00 PKD
ROOT
HETATM    1  C   UNL     1      -8.877   8.102  69.429  1.00  0.00    -0.143 C  
ENDROOT
BRANCH   1   2
HETATM    2  N   UNL     1      -9.710   9.008  68.568  1.00  0.00    -0.156 NA 
HETATM    3  S   UNL     1     -11.481  12.466  66.263  1.00  0.00    -0.384 SA 
HETATM    4  C   UNL     1     -10.712  11.170  67.042  1.00  0.00    -0.268 A  
HETATM    5  C   UNL     1     -11.875  13.191  67.763  1.00  0.00    -0.348 A  
HETATM    6  C   UNL     1     -10.053  10.055  66.308  1.00  0.00    -0.310 C  
HETATM    7  C   UNL     1      -9.085   9.321  67.263  1.00  0.00    -0.126 C  
HETATM    8  C   UNL     1     -10.084  10.241  69.311  1.00  0.00    -0.227 C  
HETATM    9  C   UNL     1     -11.437  12.438  68.833  1.00  0.00    -0.355 A  
HETATM   10  C   UNL     1     -10.756  11.249  68.418  1.00  0.00    -0.238 A  
ENDBRANCH   1   2
BRANCH   1  11
HETATM   11  C   UNL     1      -8.415   6.829  68.660  1.00  0.00    -0.123 C  
HETATM   12  O   UNL     1      -9.113   6.147  67.918  1.00  0.00    -0.119 OA 
BRANCH  11  13
HETATM   13  O   UNL     1      -7.076   6.611  68.843  1.00  0.00    -0.079 OA 
HETATM   14  C   UNL     1      -6.790   5.525  69.728  1.00  0.00    -0.060 C  
ENDBRANCH  11  13
ENDBRANCH   1  11
BRANCH   1  15
HETATM   15  C   UNL     1      -9.533   7.800  70.791  1.00  0.00    -0.163 A  
HETATM   16  C   UNL     1      -9.469   7.874  73.249  1.00  0.00    -0.350 A  
HETATM   17  C   UNL     1     -11.311   6.799  72.148  1.00  0.00    -0.307 A  
HETATM   18  C   UNL     1     -10.669   7.186  73.322  1.00  0.00    -0.403 A  
HETATM   19  C   UNL     1      -8.910   8.171  72.004  1.00  0.00    -0.233 A  
HETATM   20  C   UNL     1     -10.753   7.101  70.894  1.00  0.00    -0.231 A  
HETATM   21 CL   UNL     1     -11.647   6.583  69.506  1.00  0.00    -0.383 Cl 
ENDBRANCH   1  15
TORSDOF 4
ENDMDL
MODEL      137
REMARK 921   NORMALIZED FREE ENERGY PREDICTED BY IDOCK:   -3.76 KCAL/MOL
REMARK 922        TOTAL FREE ENERGY PREDICTED BY IDOCK:   -5.17 KCAL/MOL
REMARK 923 INTER-LIGAND FREE ENERGY PREDICTED BY IDOCK:   -5.49 KCAL/MOL
REMARK 924 INTRA-LIGAND FREE ENERGY PREDICTED BY IDOCK:    0.32 KCAL/MOL
REMARK 927      BINDING AFFINITY PREDICTED BY RF-SCORE:    0.00 PKD
ROOT
HETATM    1  C   UNL     1     -11.759  10.760  69.485  1.00  0.00    -0.312 C  
ENDROOT
BRANCH   1   2
HETATM    2  N   UNL     1     -10.798  10.744  68.331  1.00  0.00    -0.213 NA 
HETATM    3  S   UNL     1      -7.293  10.141  65.546  1.00  0.00    -0.146 SA 
HETATM    4  C   UNL     1      -8.632  10.235  66.583  1.00  0.00    -0.127 A  
HETATM    5  C   UNL     1      -6.387  11.190  66.550  1.00  0.00    -0.132 A  
HETATM    6  C   UNL     1      -9.903   9.498  66.339  1.00  0.00    -0.320 C  
HETATM    7  C   UNL     1     -10.710   9.430  67.655  1.00  0.00    -0.230 C  
HETATM    8  C   UNL     1      -9.461  11.239  68.753  1.00  0.00    -0.139 C  
HETATM    9  C   UNL     1      -7.112  11.612  67.646  1.00  0.00    -0.095 A  
HETATM   10  C   UNL     1      -8.431  11.058  67.670  1.00  0.00    -0.121 A  
ENDBRANCH   1   2
BRANCH   1  11
HETATM   11  C   UNL     1     -12.071  12.208  69.964  1.00  0.00    -0.277 C  
HETATM   12  O   UNL     1     -12.167  12.573  71.130  1.00  0.00    -0.243 OA 
BRANCH  11  13
HETATM   13  O   UNL     1     -12.135  13.068  68.900  1.00  0.00    -0.286 OA 
HETATM   14  C   UNL     1     -11.736  14.404  69.220  1.00  0.00    -0.317 C  
ENDBRANCH  11  13
ENDBRANCH   1  11
BRANCH   1  15
HETATM   15  C   UNL     1     -11.343   9.806  70.622  1.00  0.00    -0.401 A  
HETATM   16  C   UNL     1      -9.588   8.606  71.861  1.00  0.00    -0.377 A  
HETATM   17  C   UNL     1     -11.891   8.259  72.442  1.00  0.00    -0.461 A  
HETATM   18  C   UNL     1     -10.541   7.985  72.652  1.00  0.00    -0.419 A  
HETATM   19  C   UNL     1      -9.985   9.498  70.862  1.00  0.00    -0.308 A  
HETATM   20  C   UNL     1     -12.291   9.159  71.440  1.00  0.00    -0.333 A  
HETATM   21 CL   UNL     1     -13.993   9.432  71.283  1.00  0.00    -0.234 Cl 
ENDBRANCH   1  15
TORSDOF 4
ENDMDL
MODEL      138
REMARK 921   NORMALIZED FREE ENERGY PREDICTED BY IDOCK:   -3.72 KCAL/MOL
REMARK 922        TOTAL FREE ENERGY PREDICTED BY IDOCK:   -5.12 KCAL/MOL
REMARK 923 INTER-LIGAND FREE ENERGY PREDICTED BY IDOCK:   -4.54 KCAL/MOL
REMARK 924 INTRA-LIGAND FREE ENERGY PREDICTED BY IDOCK:   -0.58 KCAL/MOL
REMARK 927      BINDING AFFINITY PREDICTED BY RF-SCORE:    0.00 PKD
ROOT
HETATM    1  C   UNL     1      -9.580   6.730  68.856  1.00  0.00    -0.137 C  
ENDROOT
BRANCH   1   2
HETATM    2  N   UNL     1     -10.453   7.261  69.957  1.00  0.00    -0.218 NA 
HETATM    3  S   UNL     1     -13.685   9.199  72.449  1.00  0.00    -0.423 SA 
HETATM    4  C   UNL     1     -12.562   8.379  71.476  1.00  0.00    -0.308 A  
HETATM    5  C   UNL     1     -13.143  10.716  71.868  1.00  0.00    -0.458 A  
HETATM    6  C   UNL     1     -12.453   6.895  71.436  1.00  0.00    -0.413 C  
HETATM    7  C   UNL     1     -11.693   6.476  70.158  1.00  0.00    -0.353 C  
HETATM    8  C   UNL     1     -10.741   8.705  69.749  1.00  0.00    -0.215 C  
HETATM    9  C   UNL     1     -12.111  10.586  70.962  1.00  0.00    -0.492 A  
HETATM   10  C   UNL     1     -11.763   9.217  70.729  1.00  0.00    -0.328 A  
ENDBRANCH   1   2
BRANCH   1  11
HETATM   11  C   UNL     1      -9.288   5.210  69.025  1.00  0.00    -0.121 C  
HETATM   12  O   UNL     1      -8.729   4.690  69.984  1.00  0.00    -0.079 OA 
BRANCH  11  13
HETATM   13  O   UNL     1      -9.827   4.494  67.990  1.00  0.00    -0.149 OA 
HETATM   14  C   UNL     1      -8.930   4.315  66.891  1.00  0.00    -0.122 C  
ENDBRANCH  11  13
ENDBRANCH   1  11
BRANCH   1  15
HETATM   15  C   UNL     1      -8.317   7.584  68.629  1.00  0.00    -0.129 A  
HETATM   16  C   UNL     1      -6.242   8.587  69.490  1.00  0.00    -0.036 A  
HETATM   17  C   UNL     1      -6.933   9.051  67.239  1.00  0.00    -0.078 A  
HETATM   18  C   UNL     1      -6.021   9.222  68.278  1.00  0.00    -0.045 A  
HETATM   19  C   UNL     1      -7.373   7.786  69.662  1.00  0.00    -0.088 A  
HETATM   20  C   UNL     1      -8.068   8.241  67.408  1.00  0.00    -0.121 A  
HETATM   21 CL   UNL     1      -9.120   8.093  66.042  1.00  0.00    -0.228 Cl 
ENDBRANCH   1  15
TORSDOF 4
ENDMDL
MODEL      139
REMARK 921   NORMALIZED FREE ENERGY PREDICTED BY IDOCK:   -3.71 KCAL/MOL
REMARK 922        TOTAL FREE ENERGY PREDICTED BY IDOCK:   -5.11 KCAL/MOL
REMARK 923 INTER-LIGAND FREE ENERGY PREDICTED BY IDOCK:   -4.67 KCAL/MOL
REMARK 924 INTRA-LIGAND FREE ENERGY PREDICTED BY IDOCK:   -0.44 KCAL/MOL
REMARK 927      BINDING AFFINITY PREDICTED BY RF-SCORE:    0.00 PKD
ROOT
HETATM    1  C   UNL     1      -9.056   9.794  67.681  1.00  0.00    -0.131 C  
ENDROOT
BRANCH   1   2
HETATM    2  N   UNL     1     -10.089  10.793  68.121  1.00  0.00    -0.160 NA 
HETATM    3  S   UNL     1     -12.632  13.779  70.360  1.00  0.00    -0.203 SA 
HETATM    4  C   UNL     1     -11.578  12.750  69.519  1.00  0.00    -0.276 A  
HETATM    5  C   UNL     1     -13.145  12.498  71.374  1.00  0.00    -0.210 A  
HETATM    6  C   UNL     1     -10.705  13.213  68.406  1.00  0.00    -0.270 C  
HETATM    7  C   UNL     1      -9.578  12.181  68.183  1.00  0.00    -0.208 C  
HETATM    8  C   UNL     1     -10.710  10.375  69.405  1.00  0.00    -0.244 C  
HETATM    9  C   UNL     1     -12.527  11.306  71.054  1.00  0.00    -0.503 A  
HETATM   10  C   UNL     1     -11.609  11.446  69.965  1.00  0.00    -0.382 A  
ENDBRANCH   1   2
BRANCH   1  11
HETATM   11  C   UNL     1      -8.439  10.162  66.301  1.00  0.00    -0.128 C  
HETATM   12  O   UNL     1      -9.052  10.599  65.334  1.00  0.00    -0.174 OA 
BRANCH  11  13
HETATM   13  O   UNL     1      -7.077  10.025  66.327  1.00  0.00    -0.096 OA 
HETATM   14  C   UNL     1      -6.471  10.084  65.032  1.00  0.00    -0.117 C  
ENDBRANCH  11  13
ENDBRANCH   1  11
BRANCH   1  15
HETATM   15  C   UNL     1      -9.558   8.338  67.769  1.00  0.00    -0.178 A  
HETATM   16  C   UNL     1     -11.051   6.549  66.979  1.00  0.00    -0.411 A  
HETATM   17  C   UNL     1      -9.590   6.134  68.838  1.00  0.00    -0.144 A  
HETATM   18  C   UNL     1     -10.569   5.689  67.954  1.00  0.00    -0.266 A  
HETATM   19  C   UNL     1     -10.555   7.852  66.893  1.00  0.00    -0.333 A  
HETATM   20  C   UNL     1      -9.086   7.443  68.750  1.00  0.00    -0.131 A  
HETATM   21 CL   UNL     1      -7.862   7.878  69.893  1.00  0.00    -0.101 Cl 
ENDBRANCH   1  15
TORSDOF 4
ENDMDL
MODEL      140
REMARK 921   NORMALIZED FREE ENERGY PREDICTED BY IDOCK:   -3.69 KCAL/MOL
REMARK 922        TOTAL FREE ENERGY PREDICTED BY IDOCK:   -5.08 KCAL/MOL
REMARK 923 INTER-LIGAND FREE ENERGY PREDICTED BY IDOCK:   -4.75 KCAL/MOL
REMARK 924 INTRA-LIGAND FREE ENERGY PREDICTED BY IDOCK:   -0.33 KCAL/MOL
REMARK 927      BINDING AFFINITY PREDICTED BY RF-SCORE:    0.00 PKD
ROOT
HETATM    1  C   UNL     1     -10.997   8.487  71.336  1.00  0.00    -0.264 C  
ENDROOT
BRANCH   1   2
HETATM    2  N   UNL     1     -10.374   7.225  71.861  1.00  0.00    -0.188 NA 
HETATM    3  S   UNL     1      -7.907   4.116  74.020  1.00  0.00    -0.085 SA 
HETATM    4  C   UNL     1      -8.891   5.312  73.328  1.00  0.00    -0.118 A  
HETATM    5  C   UNL     1      -6.548   4.660  73.132  1.00  0.00    -0.052 A  
HETATM    6  C   UNL     1     -10.330   5.480  73.671  1.00  0.00    -0.261 C  
HETATM    7  C   UNL     1     -10.793   6.890  73.242  1.00  0.00    -0.290 C  
HETATM    8  C   UNL     1      -8.893   7.276  71.732  1.00  0.00    -0.116 C  
HETATM    9  C   UNL     1      -6.858   5.725  72.312  1.00  0.00    -0.073 A  
HETATM   10  C   UNL     1      -8.232   6.111  72.419  1.00  0.00    -0.108 A  
ENDBRANCH   1   2
BRANCH   1  11
HETATM   11  C   UNL     1     -12.530   8.534  71.600  1.00  0.00    -0.330 C  
HETATM   12  O   UNL     1     -13.350   7.711  71.210  1.00  0.00    -0.302 OA 
BRANCH  11  13
HETATM   13  O   UNL     1     -12.849   9.582  72.421  1.00  0.00    -0.363 OA 
HETATM   14  C   UNL     1     -13.226  10.767  71.714  1.00  0.00    -0.418 C  
ENDBRANCH  11  13
ENDBRANCH   1  11
BRANCH   1  15
HETATM   15  C   UNL     1     -10.609   8.781  69.874  1.00  0.00    -0.230 A  
HETATM   16  C   UNL     1      -9.831  10.358  68.152  1.00  0.00    -0.168 A  
HETATM   17  C   UNL     1     -10.420   8.117  67.523  1.00  0.00    -0.326 A  
HETATM   18  C   UNL     1      -9.966   9.387  67.172  1.00  0.00    -0.263 A  
HETATM   19  C   UNL     1     -10.151  10.059  69.478  1.00  0.00    -0.248 A  
HETATM   20  C   UNL     1     -10.738   7.814  68.857  1.00  0.00    -0.085 A  
HETATM   21 CL   UNL     1     -11.276   6.200  69.174  1.00  0.00    -0.461 Cl 
ENDBRANCH   1  15
TORSDOF 4
ENDMDL
MODEL      141
REMARK 921   NORMALIZED FREE ENERGY PREDICTED BY IDOCK:   -3.69 KCAL/MOL
REMARK 922        TOTAL FREE ENERGY PREDICTED BY IDOCK:   -5.08 KCAL/MOL
REMARK 923 INTER-LIGAND FREE ENERGY PREDICTED BY IDOCK:   -5.91 KCAL/MOL
REMARK 924 INTRA-LIGAND FREE ENERGY PREDICTED BY IDOCK:    0.83 KCAL/MOL
REMARK 927      BINDING AFFINITY PREDICTED BY RF-SCORE:    0.00 PKD
ROOT
HETATM    1  C   UNL     1      -9.995   9.982  68.059  1.00  0.00    -0.150 C  
ENDROOT
BRANCH   1   2
HETATM    2  N   UNL     1     -10.667  10.620  66.876  1.00  0.00    -0.255 NA 
HETATM    3  S   UNL     1     -11.995  13.339  63.522  1.00  0.00    -0.378 SA 
HETATM    4  C   UNL     1     -11.380  12.301  64.715  1.00  0.00    -0.323 A  
HETATM    5  C   UNL     1     -12.612  14.407  64.708  1.00  0.00    -0.265 A  
HETATM    6  C   UNL     1     -10.630  11.054  64.400  1.00  0.00    -0.395 C  
HETATM    7  C   UNL     1      -9.838  10.610  65.650  1.00  0.00    -0.251 C  
HETATM    8  C   UNL     1     -11.135  11.990  67.214  1.00  0.00    -0.285 C  
HETATM    9  C   UNL     1     -12.362  13.960  65.989  1.00  0.00    -0.511 A  
HETATM   10  C   UNL     1     -11.642  12.723  66.001  1.00  0.00    -0.432 A  
ENDBRANCH   1   2
BRANCH   1  11
HETATM   11  C   UNL     1      -9.388   8.593  67.704  1.00  0.00    -0.137 C  
HETATM   12  O   UNL     1     -10.009   7.541  67.614  1.00  0.00    -0.151 OA 
BRANCH  11  13
HETATM   13  O   UNL     1      -8.056   8.707  67.407  1.00  0.00    -0.101 OA 
HETATM   14  C   UNL     1      -7.414   7.452  67.168  1.00  0.00    -0.106 C  
ENDBRANCH  11  13
ENDBRANCH   1  11
BRANCH   1  15
HETATM   15  C   UNL     1     -10.885   9.968  69.317  1.00  0.00    -0.261 A  
HETATM   16  C   UNL     1     -12.946  10.651  70.476  1.00  0.00    -0.277 A  
HETATM   17  C   UNL     1     -11.283   9.392  71.665  1.00  0.00    -0.431 A  
HETATM   18  C   UNL     1     -12.517  10.038  71.643  1.00  0.00    -0.513 A  
HETATM   19  C   UNL     1     -12.140  10.618  69.335  1.00  0.00    -0.250 A  
HETATM   20  C   UNL     1     -10.474   9.354  70.517  1.00  0.00    -0.274 A  
HETATM   21 CL   UNL     1      -8.970   8.510  70.660  1.00  0.00    -0.165 Cl 
ENDBRANCH   1  15
TORSDOF 4
ENDMDL
MODEL      142
REMARK 921   NORMALIZED FREE ENERGY PREDICTED BY IDOCK:   -3.69 KCAL/MOL
REMARK 922        TOTAL FREE ENERGY PREDICTED BY IDOCK:   -5.08 KCAL/MOL
REMARK 923 INTER-LIGAND FREE ENERGY PREDICTED BY IDOCK:   -5.02 KCAL/MOL
REMARK 924 INTRA-LIGAND FREE ENERGY PREDICTED BY IDOCK:   -0.06 KCAL/MOL
REMARK 927      BINDING AFFINITY PREDICTED BY RF-SCORE:    0.00 PKD
ROOT
HETATM    1  C   UNL     1      -9.577  16.282  67.482  1.00  0.00    -0.230 C  
ENDROOT
BRANCH   1   2
HETATM    2  N   UNL     1      -8.738  17.489  67.170  1.00  0.00    -0.232 NA 
HETATM    3  S   UNL     1      -6.366  20.801  65.217  1.00  0.00    -0.198 SA 
HETATM    4  C   UNL     1      -7.368  19.612  65.896  1.00  0.00    -0.308 A  
HETATM    5  C   UNL     1      -5.209  19.625  64.760  1.00  0.00    -0.161 A  
HETATM    6  C   UNL     1      -8.682  19.918  66.525  1.00  0.00    -0.406 C  
HETATM    7  C   UNL     1      -9.516  18.621  66.616  1.00  0.00    -0.319 C  
HETATM    8  C   UNL     1      -7.595  17.123  66.293  1.00  0.00    -0.317 C  
HETATM    9  C   UNL     1      -5.584  18.353  65.141  1.00  0.00    -0.214 A  
HETATM   10  C   UNL     1      -6.848  18.338  65.812  1.00  0.00    -0.310 A  
ENDBRANCH   1   2
BRANCH   1  11
HETATM   11  C   UNL     1     -10.531  16.530  68.686  1.00  0.00    -0.304 C  
HETATM   12  O   UNL     1     -10.414  17.417  69.524  1.00  0.00    -0.248 OA 
BRANCH  11  13
HETATM   13  O   UNL     1     -11.598  15.674  68.643  1.00  0.00    -0.356 OA 
HETATM   14  C   UNL     1     -11.682  14.807  69.778  1.00  0.00    -0.310 C  
ENDBRANCH  11  13
ENDBRANCH   1  11
BRANCH   1  15
HETATM   15  C   UNL     1      -8.743  14.991  67.606  1.00  0.00    -0.182 A  
HETATM   16  C   UNL     1      -8.327  12.654  66.958  1.00  0.00    -0.130 A  
HETATM   17  C   UNL     1      -6.962  13.672  68.650  1.00  0.00    -0.103 A  
HETATM   18  C   UNL     1      -7.285  12.566  67.867  1.00  0.00    -0.115 A  
HETATM   19  C   UNL     1      -9.044  13.846  66.833  1.00  0.00    -0.257 A  
HETATM   20  C   UNL     1      -7.680  14.873  68.523  1.00  0.00    -0.123 A  
HETATM   21 CL   UNL     1      -7.178  16.183  69.536  1.00  0.00    -0.195 Cl 
ENDBRANCH   1  15
TORSDOF 4
ENDMDL
MODEL      143
REMARK 921   NORMALIZED FREE ENERGY PREDICTED BY IDOCK:   -3.66 KCAL/MOL
REMARK 922        TOTAL FREE ENERGY PREDICTED BY IDOCK:   -5.05 KCAL/MOL
REMARK 923 INTER-LIGAND FREE ENERGY PREDICTED BY IDOCK:   -4.72 KCAL/MOL
REMARK 924 INTRA-LIGAND FREE ENERGY PREDICTED BY IDOCK:   -0.33 KCAL/MOL
REMARK 927      BINDING AFFINITY PREDICTED BY RF-SCORE:    0.00 PKD
ROOT
HETATM    1  C   UNL     1     -10.635   7.812  69.264  1.00  0.00    -0.192 C  
ENDROOT
BRANCH   1   2
HETATM    2  N   UNL     1     -10.104   6.604  68.547  1.00  0.00    -0.153 NA 
HETATM    3  S   UNL     1      -9.409   2.513  66.762  1.00  0.00     0.096 SA 
HETATM    4  C   UNL     1      -9.772   4.063  67.346  1.00  0.00    -0.141 A  
HETATM    5  C   UNL     1      -9.193   1.917  68.353  1.00  0.00    -0.180 A  
HETATM    6  C   UNL     1     -10.116   5.207  66.457  1.00  0.00    -0.269 C  
HETATM    7  C   UNL     1     -10.822   6.301  67.288  1.00  0.00    -0.375 C  
HETATM    8  C   UNL     1     -10.066   5.428  69.457  1.00  0.00    -0.240 C  
HETATM    9  C   UNL     1      -9.381   2.900  69.303  1.00  0.00    -0.207 A  
HETATM   10  C   UNL     1      -9.718   4.162  68.720  1.00  0.00    -0.166 A  
ENDBRANCH   1   2
BRANCH   1  11
HETATM   11  C   UNL     1     -10.219   9.137  68.560  1.00  0.00    -0.198 C  
HETATM   12  O   UNL     1      -9.174   9.328  67.950  1.00  0.00    -0.130 OA 
BRANCH  11  13
HETATM   13  O   UNL     1     -11.229  10.060  68.628  1.00  0.00    -0.206 OA 
HETATM   14  C   UNL     1     -11.088  11.131  67.690  1.00  0.00    -0.287 C  
ENDBRANCH  11  13
ENDBRANCH   1  11
BRANCH   1  15
HETATM   15  C   UNL     1     -10.334   7.791  70.776  1.00  0.00    -0.206 A  
HETATM   16  C   UNL     1      -8.746   8.063  72.636  1.00  0.00    -0.250 A  
HETATM   17  C   UNL     1     -10.992   7.351  73.095  1.00  0.00    -0.408 A  
HETATM   18  C   UNL     1      -9.717   7.680  73.548  1.00  0.00    -0.358 A  
HETATM   19  C   UNL     1      -9.051   8.113  71.273  1.00  0.00    -0.185 A  
HETATM   20  C   UNL     1     -11.302   7.405  71.725  1.00  0.00    -0.255 A  
HETATM   21 CL   UNL     1     -12.922   6.988  71.284  1.00  0.00    -0.406 Cl 
ENDBRANCH   1  15
TORSDOF 4
ENDMDL
MODEL      144
REMARK 921   NORMALIZED FREE ENERGY PREDICTED BY IDOCK:   -3.63 KCAL/MOL
REMARK 922        TOTAL FREE ENERGY PREDICTED BY IDOCK:   -5.01 KCAL/MOL
REMARK 923 INTER-LIGAND FREE ENERGY PREDICTED BY IDOCK:   -5.78 KCAL/MOL
REMARK 924 INTRA-LIGAND FREE ENERGY PREDICTED BY IDOCK:    0.77 KCAL/MOL
REMARK 927      BINDING AFFINITY PREDICTED BY RF-SCORE:    0.00 PKD
ROOT
HETATM    1  C   UNL     1     -11.353  10.473  69.192  1.00  0.00    -0.257 C  
ENDROOT
BRANCH   1   2
HETATM    2  N   UNL     1     -10.768   9.360  70.014  1.00  0.00    -0.226 NA 
HETATM    3  S   UNL     1      -8.557   5.732  71.550  1.00  0.00    -0.133 SA 
HETATM    4  C   UNL     1      -9.267   7.154  70.956  1.00  0.00    -0.158 A  
HETATM    5  C   UNL     1      -9.617   4.762  70.620  1.00  0.00    -0.185 A  
HETATM    6  C   UNL     1      -8.809   8.516  71.345  1.00  0.00    -0.253 C  
HETATM    7  C   UNL     1      -9.329   9.540  70.312  1.00  0.00    -0.259 C  
HETATM    8  C   UNL     1     -11.040   8.041  69.383  1.00  0.00     0.095 C  
HETATM    9  C   UNL     1     -10.505   5.522  69.886  1.00  0.00    -0.386 A  
HETATM   10  C   UNL     1     -10.307   6.926  70.081  1.00  0.00    -0.218 A  
ENDBRANCH   1   2
BRANCH   1  11
HETATM   11  C   UNL     1     -10.334  11.030  68.155  1.00  0.00    -0.182 C  
HETATM   12  O   UNL     1     -10.140  10.585  67.030  1.00  0.00    -0.196 OA 
BRANCH  11  13
HETATM   13  O   UNL     1      -9.731  12.164  68.630  1.00  0.00    -0.178 OA 
HETATM   14  C   UNL     1      -8.453  12.421  68.041  1.00  0.00    -0.176 C  
ENDBRANCH  11  13
ENDBRANCH   1  11
BRANCH   1  15
HETATM   15  C   UNL     1     -12.023  11.563  70.052  1.00  0.00    -0.435 A  
HETATM   16  C   UNL     1     -12.530  13.934  70.470  1.00  0.00    -0.422 A  
HETATM   17  C   UNL     1     -13.243  12.277  72.053  1.00  0.00    -0.508 A  
HETATM   18  C   UNL     1     -13.169  13.610  71.656  1.00  0.00    -0.447 A  
HETATM   19  C   UNL     1     -11.963  12.926  69.685  1.00  0.00    -0.358 A  
HETATM   20  C   UNL     1     -12.678  11.262  71.263  1.00  0.00    -0.405 A  
HETATM   21 CL   UNL     1     -12.845   9.643  71.851  1.00  0.00    -0.490 Cl 
ENDBRANCH   1  15
TORSDOF 4
ENDMDL
MODEL      145
REMARK 921   NORMALIZED FREE ENERGY PREDICTED BY IDOCK:   -3.60 KCAL/MOL
REMARK 922        TOTAL FREE ENERGY PREDICTED BY IDOCK:   -4.97 KCAL/MOL
REMARK 923 INTER-LIGAND FREE ENERGY PREDICTED BY IDOCK:   -4.79 KCAL/MOL
REMARK 924 INTRA-LIGAND FREE ENERGY PREDICTED BY IDOCK:   -0.18 KCAL/MOL
REMARK 927      BINDING AFFINITY PREDICTED BY RF-SCORE:    0.00 PKD
ROOT
HETATM    1  C   UNL     1      -8.982   9.017  65.579  1.00  0.00    -0.204 C  
ENDROOT
BRANCH   1   2
HETATM    2  N   UNL     1     -10.028  10.050  65.267  1.00  0.00    -0.324 NA 
HETATM    3  S   UNL     1     -12.383  13.843  64.580  1.00  0.00    -0.358 SA 
HETATM    4  C   UNL     1     -11.424  12.451  64.730  1.00  0.00    -0.325 A  
HETATM    5  C   UNL     1     -12.322  14.119  66.269  1.00  0.00    -0.422 A  
HETATM    6  C   UNL     1     -11.010  11.620  63.567  1.00  0.00    -0.485 C  
HETATM    7  C   UNL     1      -9.809  10.739  63.975  1.00  0.00    -0.332 C  
HETATM    8  C   UNL     1     -10.166  11.014  66.390  1.00  0.00    -0.236 C  
HETATM    9  C   UNL     1     -11.594  13.149  66.926  1.00  0.00    -0.417 A  
HETATM   10  C   UNL     1     -11.067  12.165  66.030  1.00  0.00    -0.354 A  
ENDBRANCH   1   2
BRANCH   1  11
HETATM   11  C   UNL     1      -9.597   7.744  66.232  1.00  0.00    -0.108 C  
HETATM   12  O   UNL     1     -10.614   7.708  66.914  1.00  0.00    -0.341 OA 
BRANCH  11  13
HETATM   13  O   UNL     1      -8.897   6.626  65.866  1.00  0.00    -0.154 OA 
HETATM   14  C   UNL     1      -8.181   6.020  66.946  1.00  0.00    -0.105 C  
ENDBRANCH  11  13
ENDBRANCH   1  11
BRANCH   1  15
HETATM   15  C   UNL     1      -7.783   9.596  66.356  1.00  0.00    -0.101 A  
HETATM   16  C   UNL     1      -6.717  10.195  68.491  1.00  0.00    -0.057 A  
HETATM   17  C   UNL     1      -5.605  10.716  66.429  1.00  0.00    -0.080 A  
HETATM   18  C   UNL     1      -5.631  10.735  67.821  1.00  0.00    -0.043 A  
HETATM   19  C   UNL     1      -7.776   9.639  67.769  1.00  0.00    -0.094 A  
HETATM   20  C   UNL     1      -6.667  10.153  65.701  1.00  0.00    -0.116 A  
HETATM   21 CL   UNL     1      -6.516  10.174  63.977  1.00  0.00    -0.131 Cl 
ENDBRANCH   1  15
TORSDOF 4
ENDMDL
MODEL      146
REMARK 921   NORMALIZED FREE ENERGY PREDICTED BY IDOCK:   -3.57 KCAL/MOL
REMARK 922        TOTAL FREE ENERGY PREDICTED BY IDOCK:   -4.93 KCAL/MOL
REMARK 923 INTER-LIGAND FREE ENERGY PREDICTED BY IDOCK:   -5.68 KCAL/MOL
REMARK 924 INTRA-LIGAND FREE ENERGY PREDICTED BY IDOCK:    0.75 KCAL/MOL
REMARK 927      BINDING AFFINITY PREDICTED BY RF-SCORE:    0.00 PKD
ROOT
HETATM    1  C   UNL     1      -6.678  17.936  67.516  1.00  0.00    -0.176 C  
ENDROOT
BRANCH   1   2
HETATM    2  N   UNL     1      -7.701  16.844  67.379  1.00  0.00    -0.165 NA 
HETATM    3  S   UNL     1     -10.445  13.555  65.943  1.00  0.00    -0.297 SA 
HETATM    4  C   UNL     1      -9.311  14.705  66.464  1.00  0.00    -0.288 A  
HETATM    5  C   UNL     1     -11.275  14.730  65.016  1.00  0.00    -0.395 A  
HETATM    6  C   UNL     1      -8.172  14.375  67.364  1.00  0.00    -0.215 C  
HETATM    7  C   UNL     1      -7.109  15.491  67.268  1.00  0.00    -0.190 C  
HETATM    8  C   UNL     1      -8.631  17.134  66.256  1.00  0.00    -0.241 C  
HETATM    9  C   UNL     1     -10.697  15.979  65.124  1.00  0.00    -0.429 A  
HETATM   10  C   UNL     1      -9.547  15.972  65.975  1.00  0.00    -0.385 A  
ENDBRANCH   1   2
BRANCH   1  11
HETATM   11  C   UNL     1      -6.998  18.889  68.705  1.00  0.00    -0.302 C  
HETATM   12  O   UNL     1      -8.109  19.105  69.172  1.00  0.00    -0.269 OA 
BRANCH  11  13
HETATM   13  O   UNL     1      -5.845  19.399  69.241  1.00  0.00    -0.232 OA 
HETATM   14  C   UNL     1      -6.060  20.189  70.413  1.00  0.00    -0.348 C  
ENDBRANCH  11  13
ENDBRANCH   1  11
BRANCH   1  15
HETATM   15  C   UNL     1      -6.405  18.670  66.188  1.00  0.00    -0.234 A  
HETATM   16  C   UNL     1      -5.153  18.862  64.079  1.00  0.00    -0.237 A  
HETATM   17  C   UNL     1      -6.765  20.545  64.654  1.00  0.00    -0.213 A  
HETATM   18  C   UNL     1      -5.813  20.041  63.770  1.00  0.00    -0.305 A  
HETATM   19  C   UNL     1      -5.443  18.192  65.270  1.00  0.00    -0.157 A  
HETATM   20  C   UNL     1      -7.061  19.870  65.849  1.00  0.00    -0.298 A  
HETATM   21 CL   UNL     1      -8.271  20.585  66.860  1.00  0.00    -0.306 Cl 
ENDBRANCH   1  15
TORSDOF 4
ENDMDL
MODEL      147
REMARK 921   NORMALIZED FREE ENERGY PREDICTED BY IDOCK:   -3.56 KCAL/MOL
REMARK 922        TOTAL FREE ENERGY PREDICTED BY IDOCK:   -4.92 KCAL/MOL
REMARK 923 INTER-LIGAND FREE ENERGY PREDICTED BY IDOCK:   -4.69 KCAL/MOL
REMARK 924 INTRA-LIGAND FREE ENERGY PREDICTED BY IDOCK:   -0.23 KCAL/MOL
REMARK 927      BINDING AFFINITY PREDICTED BY RF-SCORE:    0.00 PKD
ROOT
HETATM    1  C   UNL     1      -8.835   6.538  70.939  1.00  0.00    -0.147 C  
ENDROOT
BRANCH   1   2
HETATM    2  N   UNL     1      -9.701   7.709  70.571  1.00  0.00    -0.182 NA 
HETATM    3  S   UNL     1     -12.041  11.571  70.450  1.00  0.00    -0.357 SA 
HETATM    4  C   UNL     1     -11.050  10.195  70.494  1.00  0.00    -0.327 A  
HETATM    5  C   UNL     1     -13.090  10.906  71.628  1.00  0.00    -0.433 A  
HETATM    6  C   UNL     1      -9.817  10.054  69.671  1.00  0.00    -0.261 C  
HETATM    7  C   UNL     1      -8.932   8.939  70.270  1.00  0.00    -0.183 C  
HETATM    8  C   UNL     1     -10.736   7.946  71.611  1.00  0.00    -0.223 C  
HETATM    9  C   UNL     1     -12.689   9.648  72.028  1.00  0.00    -0.470 A  
HETATM   10  C   UNL     1     -11.494   9.223  71.364  1.00  0.00    -0.439 A  
ENDBRANCH   1   2
BRANCH   1  11
HETATM   11  C   UNL     1      -8.494   5.653  69.704  1.00  0.00    -0.110 C  
HETATM   12  O   UNL     1      -9.242   5.416  68.763  1.00  0.00    -0.118 OA 
BRANCH  11  13
HETATM   13  O   UNL     1      -7.190   5.237  69.752  1.00  0.00    -0.060 OA 
HETATM   14  C   UNL     1      -7.045   3.848  70.063  1.00  0.00    -0.042 C  
ENDBRANCH  11  13
ENDBRANCH   1  11
BRANCH   1  15
HETATM   15  C   UNL     1      -9.387   5.742  72.139  1.00  0.00    -0.157 A  
HETATM   16  C   UNL     1     -10.880   4.005  73.039  1.00  0.00    -0.234 A  
HETATM   17  C   UNL     1      -9.558   5.324  74.547  1.00  0.00    -0.164 A  
HETATM   18  C   UNL     1     -10.491   4.311  74.333  1.00  0.00    -0.300 A  
HETATM   19  C   UNL     1     -10.338   4.712  71.962  1.00  0.00    -0.234 A  
HETATM   20  C   UNL     1      -9.010   6.033  73.466  1.00  0.00    -0.124 A  
HETATM   21 CL   UNL     1      -7.850   7.258  73.855  1.00  0.00    -0.128 Cl 
ENDBRANCH   1  15
TORSDOF 4
ENDMDL
MODEL      148
REMARK 921   NORMALIZED FREE ENERGY PREDICTED BY IDOCK:   -3.54 KCAL/MOL
REMARK 922        TOTAL FREE ENERGY PREDICTED BY IDOCK:   -4.90 KCAL/MOL
REMARK 923 INTER-LIGAND FREE ENERGY PREDICTED BY IDOCK:   -4.71 KCAL/MOL
REMARK 924 INTRA-LIGAND FREE ENERGY PREDICTED BY IDOCK:   -0.19 KCAL/MOL
REMARK 927      BINDING AFFINITY PREDICTED BY RF-SCORE:    0.00 PKD
ROOT
HETATM    1  C   UNL     1      -8.709  10.306  65.982  1.00  0.00    -0.150 C  
ENDROOT
BRANCH   1   2
HETATM    2  N   UNL     1      -9.066   9.243  66.983  1.00  0.00    -0.129 NA 
HETATM    3  S   UNL     1      -9.463   5.450  69.404  1.00  0.00    -0.143 SA 
HETATM    4  C   UNL     1      -9.187   6.884  68.540  1.00  0.00    -0.129 A  
HETATM    5  C   UNL     1     -10.263   4.746  68.064  1.00  0.00     0.011 A  
HETATM    6  C   UNL     1      -8.460   8.051  69.111  1.00  0.00    -0.136 C  
HETATM    7  C   UNL     1      -7.989   8.968  67.961  1.00  0.00    -0.101 C  
HETATM    8  C   UNL     1      -9.517   8.005  66.295  1.00  0.00    -0.172 C  
HETATM    9  C   UNL     1     -10.327   5.607  66.988  1.00  0.00    -0.306 A  
HETATM   10  C   UNL     1      -9.701   6.864  67.261  1.00  0.00    -0.184 A  
ENDBRANCH   1   2
BRANCH   1  11
HETATM   11  C   UNL     1      -7.526  11.193  66.471  1.00  0.00    -0.131 C  
HETATM   12  O   UNL     1      -6.403  11.224  65.982  1.00  0.00    -0.064 OA 
BRANCH  11  13
HETATM   13  O   UNL     1      -7.930  12.024  67.482  1.00  0.00    -0.140 OA 
HETATM   14  C   UNL     1      -7.376  13.340  67.395  1.00  0.00    -0.114 C  
ENDBRANCH  11  13
ENDBRANCH   1  11
BRANCH   1  15
HETATM   15  C   UNL     1      -9.933  11.111  65.503  1.00  0.00    -0.298 A  
HETATM   16  C   UNL     1     -11.907  12.489  66.011  1.00  0.00    -0.478 A  
HETATM   17  C   UNL     1     -11.446  11.878  63.736  1.00  0.00    -0.542 A  
HETATM   18  C   UNL     1     -12.246  12.535  64.668  1.00  0.00    -0.524 A  
HETATM   19  C   UNL     1     -10.772  11.785  66.420  1.00  0.00    -0.306 A  
HETATM   20  C   UNL     1     -10.301  11.174  64.145  1.00  0.00    -0.361 A  
HETATM   21 CL   UNL     1      -9.377  10.411  62.896  1.00  0.00    -0.308 Cl 
ENDBRANCH   1  15
TORSDOF 4
ENDMDL
MODEL      149
REMARK 921   NORMALIZED FREE ENERGY PREDICTED BY IDOCK:   -3.53 KCAL/MOL
REMARK 922        TOTAL FREE ENERGY PREDICTED BY IDOCK:   -4.89 KCAL/MOL
REMARK 923 INTER-LIGAND FREE ENERGY PREDICTED BY IDOCK:   -4.56 KCAL/MOL
REMARK 924 INTRA-LIGAND FREE ENERGY PREDICTED BY IDOCK:   -0.32 KCAL/MOL
REMARK 927      BINDING AFFINITY PREDICTED BY RF-SCORE:    0.00 PKD
ROOT
HETATM    1  C   UNL     1      -8.887   8.120  68.542  1.00  0.00    -0.134 C  
ENDROOT
BRANCH   1   2
HETATM    2  N   UNL     1      -9.848   8.302  69.682  1.00  0.00    -0.181 NA 
HETATM    3  S   UNL     1     -13.436   9.067  72.320  1.00  0.00    -0.486 SA 
HETATM    4  C   UNL     1     -12.151   8.668  71.286  1.00  0.00    -0.290 A  
HETATM    5  C   UNL     1     -13.352  10.713  71.859  1.00  0.00    -0.349 A  
HETATM    6  C   UNL     1     -11.633   7.281  71.130  1.00  0.00    -0.323 C  
HETATM    7  C   UNL     1     -10.815   7.189  69.822  1.00  0.00    -0.240 C  
HETATM    8  C   UNL     1     -10.533   9.618  69.588  1.00  0.00    -0.229 C  
HETATM    9  C   UNL     1     -12.346  10.945  70.944  1.00  0.00    -0.501 A  
HETATM   10  C   UNL     1     -11.634   9.750  70.605  1.00  0.00    -0.389 A  
ENDBRANCH   1   2
BRANCH   1  11
HETATM   11  C   UNL     1      -7.818   7.030  68.849  1.00  0.00    -0.115 C  
HETATM   12  O   UNL     1      -7.234   6.345  68.018  1.00  0.00    -0.082 OA 
BRANCH  11  13
HETATM   13  O   UNL     1      -7.534   6.994  70.188  1.00  0.00    -0.082 OA 
HETATM   14  C   UNL     1      -7.538   5.673  70.737  1.00  0.00    -0.091 C  
ENDBRANCH  11  13
ENDBRANCH   1  11
BRANCH   1  15
HETATM   15  C   UNL     1      -8.292   9.452  68.044  1.00  0.00    -0.119 A  
HETATM   16  C   UNL     1      -6.744  11.340  68.352  1.00  0.00    -0.061 A  
HETATM   17  C   UNL     1      -8.238  11.330  66.472  1.00  0.00    -0.165 A  
HETATM   18  C   UNL     1      -7.228  11.950  67.206  1.00  0.00    -0.147 A  
HETATM   19  C   UNL     1      -7.271  10.114  68.764  1.00  0.00    -0.081 A  
HETATM   20  C   UNL     1      -8.765  10.095  66.883  1.00  0.00    -0.129 A  
HETATM   21 CL   UNL     1     -10.005   9.415  65.885  1.00  0.00    -0.371 Cl 
ENDBRANCH   1  15
TORSDOF 4
ENDMDL
MODEL      150
REMARK 921   NORMALIZED FREE ENERGY PREDICTED BY IDOCK:   -3.49 KCAL/MOL
REMARK 922        TOTAL FREE ENERGY PREDICTED BY IDOCK:   -4.83 KCAL/MOL
REMARK 923 INTER-LIGAND FREE ENERGY PREDICTED BY IDOCK:   -4.72 KCAL/MOL
REMARK 924 INTRA-LIGAND FREE ENERGY PREDICTED BY IDOCK:   -0.11 KCAL/MOL
REMARK 927      BINDING AFFINITY PREDICTED BY RF-SCORE:    0.00 PKD
ROOT
HETATM    1  C   UNL     1      -9.025  16.597  68.547  1.00  0.00    -0.235 C  
ENDROOT
BRANCH   1   2
HETATM    2  N   UNL     1      -8.461  15.275  68.111  1.00  0.00    -0.148 NA 
HETATM    3  S   UNL     1      -7.094  10.982  67.776  1.00  0.00    -0.088 SA 
HETATM    4  C   UNL     1      -7.734  12.548  67.899  1.00  0.00    -0.138 A  
HETATM    5  C   UNL     1      -5.914  11.324  68.969  1.00  0.00    -0.042 A  
HETATM    6  C   UNL     1      -8.901  13.015  67.101  1.00  0.00    -0.218 C  
HETATM    7  C   UNL     1      -9.497  14.276  67.765  1.00  0.00    -0.216 C  
HETATM    8  C   UNL     1      -7.507  14.751  69.125  1.00  0.00    -0.153 C  
HETATM    9  C   UNL     1      -6.007  12.620  69.433  1.00  0.00    -0.101 A  
HETATM   10  C   UNL     1      -7.071  13.345  68.807  1.00  0.00    -0.101 A  
ENDBRANCH   1   2
BRANCH   1  11
HETATM   11  C   UNL     1     -10.556  16.516  68.819  1.00  0.00    -0.322 C  
HETATM   12  O   UNL     1     -11.435  16.478  67.967  1.00  0.00    -0.203 OA 
BRANCH  11  13
HETATM   13  O   UNL     1     -10.804  16.396  70.161  1.00  0.00    -0.331 OA 
HETATM   14  C   UNL     1     -12.021  15.705  70.457  1.00  0.00    -0.385 C  
ENDBRANCH  11  13
ENDBRANCH   1  11
BRANCH   1  15
HETATM   15  C   UNL     1      -8.621  17.756  67.615  1.00  0.00    -0.230 A  
HETATM   16  C   UNL     1      -7.432  18.569  65.620  1.00  0.00    -0.013 A  
HETATM   17  C   UNL     1      -8.545  20.140  67.053  1.00  0.00    -0.408 A  
HETATM   18  C   UNL     1      -7.782  19.876  65.918  1.00  0.00    -0.327 A  
HETATM   19  C   UNL     1      -7.842  17.529  66.457  1.00  0.00    -0.312 A  
HETATM   20  C   UNL     1      -8.962  19.094  67.894  1.00  0.00    -0.303 A  
HETATM   21 CL   UNL     1      -9.917  19.542  69.266  1.00  0.00    -0.446 Cl 
ENDBRANCH   1  15
TORSDOF 4
ENDMDL
MODEL      151
REMARK 921   NORMALIZED FREE ENERGY PREDICTED BY IDOCK:   -3.48 KCAL/MOL
REMARK 922        TOTAL FREE ENERGY PREDICTED BY IDOCK:   -4.82 KCAL/MOL
REMARK 923 INTER-LIGAND FREE ENERGY PREDICTED BY IDOCK:   -4.74 KCAL/MOL
REMARK 924 INTRA-LIGAND FREE ENERGY PREDICTED BY IDOCK:   -0.08 KCAL/MOL
REMARK 927      BINDING AFFINITY PREDICTED BY RF-SCORE:    0.00 PKD
ROOT
HETATM    1  C   UNL     1     -11.605   8.007  71.171  1.00  0.00    -0.282 C  
ENDROOT
BRANCH   1   2
HETATM    2  N   UNL     1     -10.997   7.822  69.810  1.00  0.00    -0.206 NA 
HETATM    3  S   UNL     1      -8.559   6.542  66.229  1.00  0.00    -0.145 SA 
HETATM    4  C   UNL     1      -9.531   6.900  67.572  1.00  0.00    -0.128 A  
HETATM    5  C   UNL     1      -7.199   7.281  66.961  1.00  0.00    -0.092 A  
HETATM    6  C   UNL     1     -10.964   6.509  67.666  1.00  0.00    -0.426 C  
HETATM    7  C   UNL     1     -11.409   6.565  69.144  1.00  0.00    -0.261 C  
HETATM    8  C   UNL     1      -9.517   7.953  69.873  1.00  0.00    -0.160 C  
HETATM    9  C   UNL     1      -7.500   7.804  68.202  1.00  0.00    -0.108 A  
HETATM   10  C   UNL     1      -8.867   7.587  68.566  1.00  0.00    -0.126 A  
ENDBRANCH   1   2
BRANCH   1  11
HETATM   11  C   UNL     1     -12.201   9.433  71.355  1.00  0.00    -0.356 C  
HETATM   12  O   UNL     1     -12.985   9.775  72.232  1.00  0.00    -0.397 OA 
BRANCH  11  13
HETATM   13  O   UNL     1     -11.658  10.305  70.450  1.00  0.00    -0.280 OA 
HETATM   14  C   UNL     1     -12.456  11.472  70.230  1.00  0.00    -0.205 C  
ENDBRANCH  11  13
ENDBRANCH   1  11
BRANCH   1  15
HETATM   15  C   UNL     1     -10.661   7.577  72.311  1.00  0.00    -0.280 A  
HETATM   16  C   UNL     1      -8.734   8.039  73.770  1.00  0.00    -0.329 A  
HETATM   17  C   UNL     1      -9.851   5.921  73.925  1.00  0.00    -0.189 A  
HETATM   18  C   UNL     1      -8.845   6.786  74.350  1.00  0.00    -0.204 A  
HETATM   19  C   UNL     1      -9.625   8.424  72.765  1.00  0.00    -0.308 A  
HETATM   20  C   UNL     1     -10.751   6.308  72.918  1.00  0.00    -0.247 A  
HETATM   21 CL   UNL     1     -11.966   5.155  72.483  1.00  0.00    -0.009 Cl 
ENDBRANCH   1  15
TORSDOF 4
ENDMDL
MODEL      152
REMARK 921   NORMALIZED FREE ENERGY PREDICTED BY IDOCK:   -3.48 KCAL/MOL
REMARK 922        TOTAL FREE ENERGY PREDICTED BY IDOCK:   -4.81 KCAL/MOL
REMARK 923 INTER-LIGAND FREE ENERGY PREDICTED BY IDOCK:   -4.50 KCAL/MOL
REMARK 924 INTRA-LIGAND FREE ENERGY PREDICTED BY IDOCK:   -0.31 KCAL/MOL
REMARK 927      BINDING AFFINITY PREDICTED BY RF-SCORE:    0.00 PKD
ROOT
HETATM    1  C   UNL     1      -8.544   7.445  69.418  1.00  0.00    -0.134 C  
ENDROOT
BRANCH   1   2
HETATM    2  N   UNL     1      -9.757   8.282  69.709  1.00  0.00    -0.178 NA 
HETATM    3  S   UNL     1     -13.105  10.648  71.607  1.00  0.00    -0.426 SA 
HETATM    4  C   UNL     1     -11.763   9.856  70.936  1.00  0.00    -0.364 A  
HETATM    5  C   UNL     1     -13.724   9.174  72.218  1.00  0.00    -0.487 A  
HETATM    6  C   UNL     1     -10.683  10.568  70.199  1.00  0.00    -0.232 C  
HETATM    7  C   UNL     1      -9.433   9.663  70.133  1.00  0.00    -0.253 C  
HETATM    8  C   UNL     1     -10.645   7.599  70.686  1.00  0.00    -0.221 C  
HETATM    9  C   UNL     1     -12.920   8.101  71.894  1.00  0.00    -0.356 A  
HETATM   10  C   UNL     1     -11.769   8.493  71.139  1.00  0.00    -0.322 A  
ENDBRANCH   1   2
BRANCH   1  11
HETATM   11  C   UNL     1      -7.465   8.237  68.623  1.00  0.00    -0.097 C  
HETATM   12  O   UNL     1      -7.668   8.924  67.629  1.00  0.00    -0.099 OA 
BRANCH  11  13
HETATM   13  O   UNL     1      -6.246   8.147  69.239  1.00  0.00    -0.037 OA 
HETATM   14  C   UNL     1      -6.333   7.904  70.646  1.00  0.00    -0.037 C  
ENDBRANCH  11  13
ENDBRANCH   1  11
BRANCH   1  15
HETATM   15  C   UNL     1      -8.896   6.079  68.795  1.00  0.00    -0.116 A  
HETATM   16  C   UNL     1      -8.631   3.634  68.734  1.00  0.00    -0.118 A  
HETATM   17  C   UNL     1     -10.000   4.715  67.085  1.00  0.00    -0.215 A  
HETATM   18  C   UNL     1      -9.453   3.552  67.621  1.00  0.00    -0.233 A  
HETATM   19  C   UNL     1      -8.356   4.878  69.307  1.00  0.00    -0.085 A  
HETATM   20  C   UNL     1      -9.728   5.967  67.663  1.00  0.00    -0.115 A  
HETATM   21 CL   UNL     1     -10.476   7.339  66.919  1.00  0.00    -0.376 Cl 
ENDBRANCH   1  15
TORSDOF 4
ENDMDL
MODEL      153
REMARK 921   NORMALIZED FREE ENERGY PREDICTED BY IDOCK:   -3.43 KCAL/MOL
REMARK 922        TOTAL FREE ENERGY PREDICTED BY IDOCK:   -4.76 KCAL/MOL
REMARK 923 INTER-LIGAND FREE ENERGY PREDICTED BY IDOCK:   -5.12 KCAL/MOL
REMARK 924 INTRA-LIGAND FREE ENERGY PREDICTED BY IDOCK:    0.36 KCAL/MOL
REMARK 927      BINDING AFFINITY PREDICTED BY RF-SCORE:    0.00 PKD
ROOT
HETATM    1  C   UNL     1     -10.980  12.307  66.494  1.00  0.00    -0.279 C  
ENDROOT
BRANCH   1   2
HETATM    2  N   UNL     1     -10.446  11.055  65.857  1.00  0.00    -0.254 NA 
HETATM    3  S   UNL     1      -7.906   7.639  64.344  1.00  0.00    -0.126 SA 
HETATM    4  C   UNL     1      -8.839   8.875  65.037  1.00  0.00    -0.140 A  
HETATM    5  C   UNL     1      -7.150   8.747  63.281  1.00  0.00    -0.089 A  
HETATM    6  C   UNL     1      -9.805   8.641  66.145  1.00  0.00    -0.269 C  
HETATM    7  C   UNL     1     -10.126   9.987  66.832  1.00  0.00    -0.229 C  
HETATM    8  C   UNL     1      -9.288  11.365  64.978  1.00  0.00    -0.138 C  
HETATM    9  C   UNL     1      -7.623  10.032  63.450  1.00  0.00    -0.142 A  
HETATM   10  C   UNL     1      -8.616  10.114  64.476  1.00  0.00    -0.198 A  
ENDBRANCH   1   2
BRANCH   1  11
HETATM   11  C   UNL     1     -12.227  12.857  65.742  1.00  0.00    -0.439 C  
HETATM   12  O   UNL     1     -12.741  13.956  65.914  1.00  0.00    -0.489 OA 
BRANCH  11  13
HETATM   13  O   UNL     1     -12.637  11.979  64.775  1.00  0.00    -0.412 OA 
HETATM   14  C   UNL     1     -12.492  12.485  63.445  1.00  0.00    -0.408 C  
ENDBRANCH  11  13
ENDBRANCH   1  11
BRANCH   1  15
HETATM   15  C   UNL     1      -9.886  13.365  66.740  1.00  0.00    -0.265 A  
HETATM   16  C   UNL     1      -8.789  15.478  66.119  1.00  0.00    -0.273 A  
HETATM   17  C   UNL     1      -7.887  14.161  67.912  1.00  0.00    -0.157 A  
HETATM   18  C   UNL     1      -7.833  15.296  67.106  1.00  0.00    -0.249 A  
HETATM   19  C   UNL     1      -9.795  14.526  65.939  1.00  0.00    -0.347 A  
HETATM   20  C   UNL     1      -8.901  13.204  67.734  1.00  0.00    -0.191 A  
HETATM   21 CL   UNL     1      -8.874  11.845  68.804  1.00  0.00    -0.026 Cl 
ENDBRANCH   1  15
TORSDOF 4
ENDMDL
MODEL      154
REMARK 921   NORMALIZED FREE ENERGY PREDICTED BY IDOCK:   -3.41 KCAL/MOL
REMARK 922        TOTAL FREE ENERGY PREDICTED BY IDOCK:   -4.74 KCAL/MOL
REMARK 923 INTER-LIGAND FREE ENERGY PREDICTED BY IDOCK:   -4.83 KCAL/MOL
REMARK 924 INTRA-LIGAND FREE ENERGY PREDICTED BY IDOCK:    0.09 KCAL/MOL
REMARK 927      BINDING AFFINITY PREDICTED BY RF-SCORE:    0.00 PKD
ROOT
HETATM    1  C   UNL     1     -10.656  12.618  68.143  1.00  0.00    -0.228 C  
ENDROOT
BRANCH   1   2
HETATM    2  N   UNL     1      -9.311  12.232  68.690  1.00  0.00    -0.079 NA 
HETATM    3  S   UNL     1      -5.128  10.659  69.350  1.00  0.00    -0.037 SA 
HETATM    4  C   UNL     1      -6.646  11.340  69.017  1.00  0.00    -0.079 A  
HETATM    5  C   UNL     1      -5.768   9.075  69.247  1.00  0.00    -0.035 A  
HETATM    6  C   UNL     1      -6.875  12.808  68.919  1.00  0.00    -0.096 C  
HETATM    7  C   UNL     1      -8.202  13.065  68.172  1.00  0.00    -0.157 C  
HETATM    8  C   UNL     1      -9.055  10.782  68.481  1.00  0.00    -0.170 C  
HETATM    9  C   UNL     1      -7.122   9.079  68.980  1.00  0.00    -0.064 A  
HETATM   10  C   UNL     1      -7.644  10.405  68.847  1.00  0.00    -0.103 A  
ENDBRANCH   1   2
BRANCH   1  11
HETATM   11  C   UNL     1     -11.819  11.920  68.907  1.00  0.00    -0.307 C  
HETATM   12  O   UNL     1     -12.345  10.858  68.598  1.00  0.00    -0.501 OA 
BRANCH  11  13
HETATM   13  O   UNL     1     -12.129  12.608  70.050  1.00  0.00    -0.316 OA 
HETATM   14  C   UNL     1     -12.841  11.826  71.013  1.00  0.00    -0.215 C  
ENDBRANCH  11  13
ENDBRANCH   1  11
BRANCH   1  15
HETATM   15  C   UNL     1     -10.743  12.469  66.611  1.00  0.00    -0.261 A  
HETATM   16  C   UNL     1     -10.576  11.070  64.593  1.00  0.00    -0.369 A  
HETATM   17  C   UNL     1     -11.009  13.421  64.369  1.00  0.00    -0.413 A  
HETATM   18  C   UNL     1     -10.809  12.171  63.785  1.00  0.00    -0.490 A  
HETATM   19  C   UNL     1     -10.540  11.220  65.982  1.00  0.00    -0.314 A  
HETATM   20  C   UNL     1     -10.977  13.572  65.765  1.00  0.00    -0.278 A  
HETATM   21 CL   UNL     1     -11.253  15.168  66.374  1.00  0.00    -0.317 Cl 
ENDBRANCH   1  15
TORSDOF 4
ENDMDL
MODEL      155
REMARK 921   NORMALIZED FREE ENERGY PREDICTED BY IDOCK:   -3.41 KCAL/MOL
REMARK 922        TOTAL FREE ENERGY PREDICTED BY IDOCK:   -4.74 KCAL/MOL
REMARK 923 INTER-LIGAND FREE ENERGY PREDICTED BY IDOCK:   -4.86 KCAL/MOL
REMARK 924 INTRA-LIGAND FREE ENERGY PREDICTED BY IDOCK:    0.13 KCAL/MOL
REMARK 927      BINDING AFFINITY PREDICTED BY RF-SCORE:    0.00 PKD
ROOT
HETATM    1  C   UNL     1     -11.105   9.787  68.732  1.00  0.00    -0.095 C  
ENDROOT
BRANCH   1   2
HETATM    2  N   UNL     1     -10.579   8.936  67.611  1.00  0.00    -0.251 NA 
HETATM    3  S   UNL     1      -8.110   6.345  64.853  1.00  0.00    -0.097 SA 
HETATM    4  C   UNL     1      -9.040   7.214  65.975  1.00  0.00    -0.069 A  
HETATM    5  C   UNL     1      -7.112   7.705  64.563  1.00  0.00    -0.065 A  
HETATM    6  C   UNL     1     -10.184   6.619  66.719  1.00  0.00    -0.263 C  
HETATM    7  C   UNL     1     -10.501   7.496  67.950  1.00  0.00    -0.204 C  
HETATM    8  C   UNL     1      -9.276   9.458  67.121  1.00  0.00    -0.134 C  
HETATM    9  C   UNL     1      -7.502   8.802  65.303  1.00  0.00    -0.086 A  
HETATM   10  C   UNL     1      -8.635   8.523  66.131  1.00  0.00    -0.154 A  
ENDBRANCH   1   2
BRANCH   1  11
HETATM   11  C   UNL     1     -10.944  11.307  68.435  1.00  0.00    -0.219 C  
HETATM   12  O   UNL     1      -9.968  11.992  68.713  1.00  0.00    -0.176 OA 
BRANCH  11  13
HETATM   13  O   UNL     1     -12.015  11.777  67.723  1.00  0.00    -0.586 OA 
HETATM   14  C   UNL     1     -11.664  12.762  66.747  1.00  0.00    -0.392 C  
ENDBRANCH  11  13
ENDBRANCH   1  11
BRANCH   1  15
HETATM   15  C   UNL     1     -10.561   9.362  70.110  1.00  0.00    -0.279 A  
HETATM   16  C   UNL     1      -8.671   8.726  71.551  1.00  0.00    -0.274 A  
HETATM   17  C   UNL     1     -10.899   8.693  72.443  1.00  0.00    -0.312 A  
HETATM   18  C   UNL     1      -9.530   8.497  72.613  1.00  0.00    -0.295 A  
HETATM   19  C   UNL     1      -9.180   9.147  70.320  1.00  0.00    -0.249 A  
HETATM   20  C   UNL     1     -11.412   9.122  71.208  1.00  0.00    -0.335 A  
HETATM   21 CL   UNL     1     -13.126   9.345  71.120  1.00  0.00    -0.329 Cl 
ENDBRANCH   1  15
TORSDOF 4
ENDMDL
MODEL      156
REMARK 921   NORMALIZED FREE ENERGY PREDICTED BY IDOCK:   -3.39 KCAL/MOL
REMARK 922        TOTAL FREE ENERGY PREDICTED BY IDOCK:   -4.71 KCAL/MOL
REMARK 923 INTER-LIGAND FREE ENERGY PREDICTED BY IDOCK:   -5.03 KCAL/MOL
REMARK 924 INTRA-LIGAND FREE ENERGY PREDICTED BY IDOCK:    0.32 KCAL/MOL
REMARK 927      BINDING AFFINITY PREDICTED BY RF-SCORE:    0.00 PKD
ROOT
HETATM    1  C   UNL     1      -9.563   9.433  68.757  1.00  0.00    -0.154 C  
ENDROOT
BRANCH   1   2
HETATM    2  N   UNL     1     -10.136  10.811  68.585  1.00  0.00    -0.176 NA 
HETATM    3  S   UNL     1     -11.239  14.963  67.186  1.00  0.00    -0.338 SA 
HETATM    4  C   UNL     1     -10.890  13.356  67.603  1.00  0.00    -0.259 A  
HETATM    5  C   UNL     1      -9.643  15.453  67.564  1.00  0.00    -0.206 A  
HETATM    6  C   UNL     1     -11.887  12.255  67.501  1.00  0.00    -0.331 C  
HETATM    7  C   UNL     1     -11.147  10.899  67.506  1.00  0.00    -0.310 C  
HETATM    8  C   UNL     1      -9.052  11.813  68.408  1.00  0.00    -0.176 C  
HETATM    9  C   UNL     1      -8.872  14.402  68.016  1.00  0.00    -0.178 A  
HETATM   10  C   UNL     1      -9.598  13.169  68.045  1.00  0.00    -0.220 A  
ENDBRANCH   1   2
BRANCH   1  11
HETATM   11  C   UNL     1     -10.150   8.424  67.727  1.00  0.00    -0.207 C  
HETATM   12  O   UNL     1      -9.937   8.426  66.520  1.00  0.00    -0.258 OA 
BRANCH  11  13
HETATM   13  O   UNL     1     -10.877   7.452  68.361  1.00  0.00    -0.135 OA 
HETATM   14  C   UNL     1     -10.736   6.157  67.771  1.00  0.00    -0.303 C  
ENDBRANCH  11  13
ENDBRANCH   1  11
BRANCH   1  15
HETATM   15  C   UNL     1      -9.625   8.939  70.216  1.00  0.00    -0.212 A  
HETATM   16  C   UNL     1      -8.584   7.773  72.117  1.00  0.00    -0.166 A  
HETATM   17  C   UNL     1     -10.831   8.591  72.320  1.00  0.00    -0.418 A  
HETATM   18  C   UNL     1      -9.734   7.936  72.873  1.00  0.00    -0.339 A  
HETATM   19  C   UNL     1      -8.534   8.264  70.810  1.00  0.00    -0.139 A  
HETATM   20  C   UNL     1     -10.782   9.089  71.007  1.00  0.00    -0.269 A  
HETATM   21 CL   UNL     1     -12.201   9.897  70.435  1.00  0.00    -0.237 Cl 
ENDBRANCH   1  15
TORSDOF 4
ENDMDL
MODEL      157
REMARK 921   NORMALIZED FREE ENERGY PREDICTED BY IDOCK:   -3.36 KCAL/MOL
REMARK 922        TOTAL FREE ENERGY PREDICTED BY IDOCK:   -4.68 KCAL/MOL
REMARK 923 INTER-LIGAND FREE ENERGY PREDICTED BY IDOCK:   -4.82 KCAL/MOL
REMARK 924 INTRA-LIGAND FREE ENERGY PREDICTED BY IDOCK:    0.15 KCAL/MOL
REMARK 927      BINDING AFFINITY PREDICTED BY RF-SCORE:    0.00 PKD
ROOT
HETATM    1  C   UNL     1      -9.209  12.405  66.866  1.00  0.00    -0.209 C  
ENDROOT
BRANCH   1   2
HETATM    2  N   UNL     1     -10.319  12.174  67.852  1.00  0.00    -0.201 NA 
HETATM    3  S   UNL     1     -12.840  11.328  71.503  1.00  0.00    -0.355 SA 
HETATM    4  C   UNL     1     -11.856  11.762  70.191  1.00  0.00    -0.324 A  
HETATM    5  C   UNL     1     -12.277   9.713  71.448  1.00  0.00    -0.385 A  
HETATM    6  C   UNL     1     -11.798  13.143  69.639  1.00  0.00    -0.390 C  
HETATM    7  C   UNL     1     -10.513  13.298  68.796  1.00  0.00    -0.169 C  
HETATM    8  C   UNL     1     -10.129  10.883  68.563  1.00  0.00    -0.183 C  
HETATM    9  C   UNL     1     -11.367   9.516  70.430  1.00  0.00    -0.318 A  
HETATM   10  C   UNL     1     -11.117  10.713  69.686  1.00  0.00    -0.342 A  
ENDBRANCH   1   2
BRANCH   1  11
HETATM   11  C   UNL     1      -8.757  13.895  66.835  1.00  0.00    -0.158 C  
HETATM   12  O   UNL     1      -9.136  14.743  66.035  1.00  0.00    -0.209 OA 
BRANCH  11  13
HETATM   13  O   UNL     1      -7.936  14.174  67.894  1.00  0.00    -0.129 OA 
HETATM   14  C   UNL     1      -7.434  15.514  67.890  1.00  0.00    -0.137 C  
ENDBRANCH  11  13
ENDBRANCH   1  11
BRANCH   1  15
HETATM   15  C   UNL     1      -9.516  11.820  65.473  1.00  0.00    -0.185 A  
HETATM   16  C   UNL     1      -8.749  10.728  63.405  1.00  0.00    -0.123 A  
HETATM   17  C   UNL     1     -11.048  11.389  63.610  1.00  0.00    -0.411 A  
HETATM   18  C   UNL     1     -10.023  10.809  62.866  1.00  0.00    -0.229 A  
HETATM   19  C   UNL     1      -8.501  11.230  64.685  1.00  0.00     0.417 A  
HETATM   20  C   UNL     1     -10.801  11.890  64.899  1.00  0.00    -0.305 A  
HETATM   21 CL   UNL     1     -12.154  12.574  65.733  1.00  0.00    -0.479 Cl 
ENDBRANCH   1  15
TORSDOF 4
ENDMDL
MODEL      158
REMARK 921   NORMALIZED FREE ENERGY PREDICTED BY IDOCK:   -3.32 KCAL/MOL
REMARK 922        TOTAL FREE ENERGY PREDICTED BY IDOCK:   -4.63 KCAL/MOL
REMARK 923 INTER-LIGAND FREE ENERGY PREDICTED BY IDOCK:   -4.87 KCAL/MOL
REMARK 924 INTRA-LIGAND FREE ENERGY PREDICTED BY IDOCK:    0.24 KCAL/MOL
REMARK 927      BINDING AFFINITY PREDICTED BY RF-SCORE:    0.00 PKD
ROOT
HETATM    1  C   UNL     1      -9.953  14.262  68.218  1.00  0.00    -0.239 C  
ENDROOT
BRANCH   1   2
HETATM    2  N   UNL     1      -9.599  12.866  67.791  1.00  0.00    -0.205 NA 
HETATM    3  S   UNL     1      -8.145   9.170  65.638  1.00  0.00    -0.118 SA 
HETATM    4  C   UNL     1      -8.562  10.593  66.463  1.00  0.00    -0.142 A  
HETATM    5  C   UNL     1      -9.371   9.435  64.473  1.00  0.00    -0.004 A  
HETATM    6  C   UNL     1      -7.848  11.066  67.680  1.00  0.00    -0.114 C  
HETATM    7  C   UNL     1      -8.154  12.564  67.898  1.00  0.00    -0.163 C  
HETATM    8  C   UNL     1     -10.122  12.585  66.427  1.00  0.00    -0.243 C  
HETATM    9  C   UNL     1     -10.091  10.584  64.731  1.00  0.00    -0.406 A  
HETATM   10  C   UNL     1      -9.624  11.267  65.898  1.00  0.00    -0.249 A  
ENDBRANCH   1   2
BRANCH   1  11
HETATM   11  C   UNL     1      -8.691  15.095  68.589  1.00  0.00    -0.174 C  
HETATM   12  O   UNL     1      -7.914  14.851  69.504  1.00  0.00    -0.169 OA 
BRANCH  11  13
HETATM   13  O   UNL     1      -8.498  16.109  67.689  1.00  0.00    -0.164 OA 
HETATM   14  C   UNL     1      -9.220  15.933  66.467  1.00  0.00    -0.279 C  
ENDBRANCH  11  13
ENDBRANCH   1  11
BRANCH   1  15
HETATM   15  C   UNL     1     -11.058  14.297  69.292  1.00  0.00    -0.297 A  
HETATM   16  C   UNL     1     -12.590  13.113  70.811  1.00  0.00    -0.338 A  
HETATM   17  C   UNL     1     -12.687  15.507  70.665  1.00  0.00    -0.487 A  
HETATM   18  C   UNL     1     -13.154  14.314  71.211  1.00  0.00    -0.425 A  
HETATM   19  C   UNL     1     -11.562  13.107  69.865  1.00  0.00    -0.255 A  
HETATM   20  C   UNL     1     -11.651  15.503  69.717  1.00  0.00    -0.334 A  
HETATM   21 CL   UNL     1     -11.144  17.046  69.120  1.00  0.00    -0.065 Cl 
ENDBRANCH   1  15
TORSDOF 4
ENDMDL
MODEL      159
REMARK 921   NORMALIZED FREE ENERGY PREDICTED BY IDOCK:   -3.26 KCAL/MOL
REMARK 922        TOTAL FREE ENERGY PREDICTED BY IDOCK:   -4.54 KCAL/MOL
REMARK 923 INTER-LIGAND FREE ENERGY PREDICTED BY IDOCK:   -4.24 KCAL/MOL
REMARK 924 INTRA-LIGAND FREE ENERGY PREDICTED BY IDOCK:   -0.30 KCAL/MOL
REMARK 927      BINDING AFFINITY PREDICTED BY RF-SCORE:    0.00 PKD
ROOT
HETATM    1  C   UNL     1      -8.736   8.348  68.456  1.00  0.00    -0.136 C  
ENDROOT
BRANCH   1   2
HETATM    2  N   UNL     1      -9.960   8.951  69.084  1.00  0.00    -0.184 NA 
HETATM    3  S   UNL     1     -13.118  10.552  71.890  1.00  0.00    -0.381 SA 
HETATM    4  C   UNL     1     -11.854  10.054  70.874  1.00  0.00    -0.368 A  
HETATM    5  C   UNL     1     -13.397   8.943  72.403  1.00  0.00    -0.440 A  
HETATM    6  C   UNL     1     -11.054  10.999  70.047  1.00  0.00    -0.236 C  
HETATM    7  C   UNL     1      -9.738  10.313  69.621  1.00  0.00    -0.185 C  
HETATM    8  C   UNL     1     -10.527   8.038  70.112  1.00  0.00    -0.225 C  
HETATM    9  C   UNL     1     -12.545   8.048  71.789  1.00  0.00    -0.353 A  
HETATM   10  C   UNL     1     -11.639   8.693  70.888  1.00  0.00    -0.307 A  
ENDBRANCH   1   2
BRANCH   1  11
HETATM   11  C   UNL     1      -8.368   9.041  67.112  1.00  0.00    -0.110 C  
HETATM   12  O   UNL     1      -7.234   9.281  66.714  1.00  0.00    -0.082 OA 
BRANCH  11  13
HETATM   13  O   UNL     1      -9.491   9.275  66.364  1.00  0.00    -0.182 OA 
HETATM   14  C   UNL     1      -9.310  10.272  65.355  1.00  0.00    -0.207 C  
ENDBRANCH  11  13
ENDBRANCH   1  11
BRANCH   1  15
HETATM   15  C   UNL     1      -8.808   6.811  68.362  1.00  0.00    -0.122 A  
HETATM   16  C   UNL     1      -9.853   4.779  67.449  1.00  0.00    -0.214 A  
HETATM   17  C   UNL     1      -8.097   4.576  69.073  1.00  0.00    -0.073 A  
HETATM   18  C   UNL     1      -9.030   3.980  68.227  1.00  0.00    -0.156 A  
HETATM   19  C   UNL     1      -9.745   6.170  67.520  1.00  0.00    -0.126 A  
HETATM   20  C   UNL     1      -7.983   5.975  69.142  1.00  0.00    -0.103 A  
HETATM   21 CL   UNL     1      -6.780   6.599  70.217  1.00  0.00    -0.051 Cl 
ENDBRANCH   1  15
TORSDOF 4
ENDMDL
MODEL      160
REMARK 921   NORMALIZED FREE ENERGY PREDICTED BY IDOCK:   -3.24 KCAL/MOL
REMARK 922        TOTAL FREE ENERGY PREDICTED BY IDOCK:   -4.53 KCAL/MOL
REMARK 923 INTER-LIGAND FREE ENERGY PREDICTED BY IDOCK:   -4.77 KCAL/MOL
REMARK 924 INTRA-LIGAND FREE ENERGY PREDICTED BY IDOCK:    0.24 KCAL/MOL
REMARK 927      BINDING AFFINITY PREDICTED BY RF-SCORE:    0.00 PKD
ROOT
HETATM    1  C   UNL     1     -10.684   8.166  69.938  1.00  0.00    -0.241 C  
ENDROOT
BRANCH   1   2
HETATM    2  N   UNL     1     -11.256   9.549  69.815  1.00  0.00    -0.191 NA 
HETATM    3  S   UNL     1     -12.450  13.871  70.367  1.00  0.00    -0.307 SA 
HETATM    4  C   UNL     1     -11.875  12.291  70.138  1.00  0.00    -0.272 A  
HETATM    5  C   UNL     1     -13.391  13.381  71.710  1.00  0.00    -0.394 A  
HETATM    6  C   UNL     1     -10.909  11.924  69.067  1.00  0.00    -0.235 C  
HETATM    7  C   UNL     1     -10.258  10.567  69.413  1.00  0.00    -0.221 C  
HETATM    8  C   UNL     1     -11.969   9.936  71.061  1.00  0.00    -0.365 C  
HETATM    9  C   UNL     1     -13.274  12.028  71.958  1.00  0.00    -0.481 A  
HETATM   10  C   UNL     1     -12.389  11.382  71.038  1.00  0.00    -0.448 A  
ENDBRANCH   1   2
BRANCH   1  11
HETATM   11  C   UNL     1     -10.532   7.729  71.425  1.00  0.00    -0.208 C  
HETATM   12  O   UNL     1      -9.838   8.284  72.268  1.00  0.00    -0.235 OA 
BRANCH  11  13
HETATM   13  O   UNL     1     -11.361   6.676  71.707  1.00  0.00    -0.253 OA 
HETATM   14  C   UNL     1     -12.124   6.231  70.582  1.00  0.00     0.109 C  
ENDBRANCH  11  13
ENDBRANCH   1  11
BRANCH   1  15
HETATM   15  C   UNL     1      -9.405   7.971  69.100  1.00  0.00    -0.151 A  
HETATM   16  C   UNL     1      -6.957   8.100  68.888  1.00  0.00    -0.062 A  
HETATM   17  C   UNL     1      -8.274   7.446  66.991  1.00  0.00    -0.121 A  
HETATM   18  C   UNL     1      -7.030   7.707  67.561  1.00  0.00    -0.081 A  
HETATM   19  C   UNL     1      -8.126   8.232  69.641  1.00  0.00    -0.116 A  
HETATM   20  C   UNL     1      -9.450   7.574  67.748  1.00  0.00    -0.141 A  
HETATM   21 CL   UNL     1     -10.935   7.209  66.937  1.00  0.00    -0.360 Cl 
ENDBRANCH   1  15
TORSDOF 4
ENDMDL
MODEL      161
REMARK 921   NORMALIZED FREE ENERGY PREDICTED BY IDOCK:   -3.24 KCAL/MOL
REMARK 922        TOTAL FREE ENERGY PREDICTED BY IDOCK:   -4.52 KCAL/MOL
REMARK 923 INTER-LIGAND FREE ENERGY PREDICTED BY IDOCK:   -5.03 KCAL/MOL
REMARK 924 INTRA-LIGAND FREE ENERGY PREDICTED BY IDOCK:    0.51 KCAL/MOL
REMARK 927      BINDING AFFINITY PREDICTED BY RF-SCORE:    0.00 PKD
ROOT
HETATM    1  C   UNL     1      -9.992  12.203  67.974  1.00  0.00    -0.203 C  
ENDROOT
BRANCH   1   2
HETATM    2  N   UNL     1     -11.054  12.871  68.801  1.00  0.00    -0.253 NA 
HETATM    3  S   UNL     1     -13.577  14.649  72.100  1.00  0.00    -0.463 SA 
HETATM    4  C   UNL     1     -12.541  14.081  70.882  1.00  0.00    -0.361 A  
HETATM    5  C   UNL     1     -13.832  13.060  72.684  1.00  0.00    -0.120 A  
HETATM    6  C   UNL     1     -11.862  14.978  69.908  1.00  0.00    -0.362 C  
HETATM    7  C   UNL     1     -10.676  14.225  69.265  1.00  0.00    -0.172 C  
HETATM    8  C   UNL     1     -11.467  11.996  69.930  1.00  0.00    -0.162 C  
HETATM    9  C   UNL     1     -13.146  12.120  71.943  1.00  0.00    -0.475 A  
HETATM   10  C   UNL     1     -12.389  12.711  70.882  1.00  0.00    -0.352 A  
ENDBRANCH   1   2
BRANCH   1  11
HETATM   11  C   UNL     1     -10.558  11.654  66.632  1.00  0.00    -0.243 C  
HETATM   12  O   UNL     1     -10.310  10.558  66.144  1.00  0.00    -0.241 OA 
BRANCH  11  13
HETATM   13  O   UNL     1     -11.463  12.529  66.093  1.00  0.00    -0.335 OA 
HETATM   14  C   UNL     1     -12.143  12.014  64.945  1.00  0.00    -0.174 C  
ENDBRANCH  11  13
ENDBRANCH   1  11
BRANCH   1  15
HETATM   15  C   UNL     1      -9.174  11.169  68.773  1.00  0.00    -0.151 A  
HETATM   16  C   UNL     1      -9.087   9.190  70.232  1.00  0.00    -0.247 A  
HETATM   17  C   UNL     1      -7.051  10.323  69.656  1.00  0.00    -0.125 A  
HETATM   18  C   UNL     1      -7.709   9.294  70.327  1.00  0.00    -0.133 A  
HETATM   19  C   UNL     1      -9.806  10.115  69.471  1.00  0.00    -0.255 A  
HETATM   20  C   UNL     1      -7.772  11.252  68.886  1.00  0.00    -0.125 A  
HETATM   21 CL   UNL     1      -6.846  12.476  68.088  1.00  0.00    -0.075 Cl 
ENDBRANCH   1  15
TORSDOF 4
ENDMDL
MODEL      162
REMARK 921   NORMALIZED FREE ENERGY PREDICTED BY IDOCK:   -3.23 KCAL/MOL
REMARK 922        TOTAL FREE ENERGY PREDICTED BY IDOCK:   -4.51 KCAL/MOL
REMARK 923 INTER-LIGAND FREE ENERGY PREDICTED BY IDOCK:   -5.28 KCAL/MOL
REMARK 924 INTRA-LIGAND FREE ENERGY PREDICTED BY IDOCK:    0.77 KCAL/MOL
REMARK 927      BINDING AFFINITY PREDICTED BY RF-SCORE:    0.00 PKD
ROOT
HETATM    1  C   UNL     1     -10.628  13.984  66.373  1.00  0.00    -0.280 C  
ENDROOT
BRANCH   1   2
HETATM    2  N   UNL     1      -9.287  14.661  66.390  1.00  0.00    -0.291 NA 
HETATM    3  S   UNL     1      -5.719  17.313  67.193  1.00  0.00    -0.166 SA 
HETATM    4  C   UNL     1      -7.042  16.266  67.015  1.00  0.00    -0.224 A  
HETATM    5  C   UNL     1      -6.590  18.604  66.482  1.00  0.00    -0.193 A  
HETATM    6  C   UNL     1      -7.024  14.848  67.469  1.00  0.00    -0.203 C  
HETATM    7  C   UNL     1      -8.476  14.334  67.585  1.00  0.00    -0.180 C  
HETATM    8  C   UNL     1      -9.437  16.129  66.210  1.00  0.00    -0.316 C  
HETATM    9  C   UNL     1      -7.862  18.225  66.104  1.00  0.00    -0.239 A  
HETATM   10  C   UNL     1      -8.133  16.853  66.411  1.00  0.00    -0.350 A  
ENDBRANCH   1   2
BRANCH   1  11
HETATM   11  C   UNL     1     -11.590  14.568  67.449  1.00  0.00    -0.385 C  
HETATM   12  O   UNL     1     -12.771  14.275  67.590  1.00  0.00     0.233 OA 
BRANCH  11  13
HETATM   13  O   UNL     1     -10.916  15.403  68.299  1.00  0.00    -0.265 OA 
HETATM   14  C   UNL     1     -11.630  15.690  69.505  1.00  0.00    -0.357 C  
ENDBRANCH  11  13
ENDBRANCH   1  11
BRANCH   1  15
HETATM   15  C   UNL     1     -10.521  12.446  66.406  1.00  0.00    -0.267 A  
HETATM   16  C   UNL     1     -10.555  10.335  67.669  1.00  0.00    -0.312 A  
HETATM   17  C   UNL     1     -10.072  10.297  65.318  1.00  0.00    -0.359 A  
HETATM   18  C   UNL     1     -10.247   9.620  66.522  1.00  0.00    -0.294 A  
HETATM   19  C   UNL     1     -10.686  11.724  67.610  1.00  0.00    -0.254 A  
HETATM   20  C   UNL     1     -10.207  11.694  65.256  1.00  0.00    -0.272 A  
HETATM   21 CL   UNL     1      -9.982  12.423  63.702  1.00  0.00    -0.311 Cl 
ENDBRANCH   1  15
TORSDOF 4
ENDMDL
MODEL      163
REMARK 921   NORMALIZED FREE ENERGY PREDICTED BY IDOCK:   -3.20 KCAL/MOL
REMARK 922        TOTAL FREE ENERGY PREDICTED BY IDOCK:   -4.48 KCAL/MOL
REMARK 923 INTER-LIGAND FREE ENERGY PREDICTED BY IDOCK:   -4.15 KCAL/MOL
REMARK 924 INTRA-LIGAND FREE ENERGY PREDICTED BY IDOCK:   -0.33 KCAL/MOL
REMARK 927      BINDING AFFINITY PREDICTED BY RF-SCORE:    0.00 PKD
ROOT
HETATM    1  C   UNL     1      -8.576   7.576  68.621  1.00  0.00    -0.129 C  
ENDROOT
BRANCH   1   2
HETATM    2  N   UNL     1      -9.722   8.486  68.963  1.00  0.00    -0.167 NA 
HETATM    3  S   UNL     1     -12.634  11.330  70.921  1.00  0.00    -0.338 SA 
HETATM    4  C   UNL     1     -11.452  10.364  70.181  1.00  0.00    -0.319 A  
HETATM    5  C   UNL     1     -13.036  10.076  72.015  1.00  0.00    -0.441 A  
HETATM    6  C   UNL     1     -10.601  10.839  69.056  1.00  0.00    -0.250 C  
HETATM    7  C   UNL     1      -9.364   9.922  68.934  1.00  0.00    -0.170 C  
HETATM    8  C   UNL     1     -10.333   8.096  70.262  1.00  0.00    -0.209 C  
HETATM    9  C   UNL     1     -12.286   8.939  71.797  1.00  0.00    -0.424 A  
HETATM   10  C   UNL     1     -11.357   9.099  70.721  1.00  0.00    -0.337 A  
ENDBRANCH   1   2
BRANCH   1  11
HETATM   11  C   UNL     1      -8.376   7.444  67.083  1.00  0.00    -0.118 C  
HETATM   12  O   UNL     1      -9.268   7.425  66.243  1.00  0.00    -0.169 OA 
BRANCH  11  13
HETATM   13  O   UNL     1      -7.044   7.445  66.766  1.00  0.00    -0.074 OA 
HETATM   14  C   UNL     1      -6.419   8.721  66.927  1.00  0.00    -0.061 C  
ENDBRANCH  11  13
ENDBRANCH   1  11
BRANCH   1  15
HETATM   15  C   UNL     1      -8.647   6.223  69.357  1.00  0.00    -0.125 A  
HETATM   16  C   UNL     1      -9.699   4.020  69.669  1.00  0.00    -0.245 A  
HETATM   17  C   UNL     1      -7.927   4.702  71.137  1.00  0.00    -0.087 A  
HETATM   18  C   UNL     1      -8.867   3.752  70.744  1.00  0.00    -0.137 A  
HETATM   19  C   UNL     1      -9.592   5.237  68.991  1.00  0.00    -0.199 A  
HETATM   20  C   UNL     1      -7.814   5.924  70.454  1.00  0.00    -0.105 A  
HETATM   21 CL   UNL     1      -6.601   7.018  71.024  1.00  0.00    -0.048 Cl 
ENDBRANCH   1  15
TORSDOF 4
ENDMDL
MODEL      164
REMARK 921   NORMALIZED FREE ENERGY PREDICTED BY IDOCK:   -3.20 KCAL/MOL
REMARK 922        TOTAL FREE ENERGY PREDICTED BY IDOCK:   -4.48 KCAL/MOL
REMARK 923 INTER-LIGAND FREE ENERGY PREDICTED BY IDOCK:   -4.79 KCAL/MOL
REMARK 924 INTRA-LIGAND FREE ENERGY PREDICTED BY IDOCK:    0.31 KCAL/MOL
REMARK 927      BINDING AFFINITY PREDICTED BY RF-SCORE:    0.00 PKD
ROOT
HETATM    1  C   UNL     1     -10.256   7.850  70.493  1.00  0.00    -0.198 C  
ENDROOT
BRANCH   1   2
HETATM    2  N   UNL     1     -10.799   8.887  69.552  1.00  0.00    -0.198 NA 
HETATM    3  S   UNL     1     -11.581  12.573  67.059  1.00  0.00    -0.367 SA 
HETATM    4  C   UNL     1     -11.179  11.166  67.918  1.00  0.00    -0.302 A  
HETATM    5  C   UNL     1     -11.930  13.411  68.510  1.00  0.00    -0.328 A  
HETATM    6  C   UNL     1     -10.720   9.913  67.258  1.00  0.00    -0.304 C  
HETATM    7  C   UNL     1     -10.017   9.018  68.302  1.00  0.00    -0.173 C  
HETATM    8  C   UNL     1     -10.956  10.194  70.244  1.00  0.00    -0.317 C  
HETATM    9  C   UNL     1     -11.755  12.615  69.623  1.00  0.00    -0.373 A  
HETATM   10  C   UNL     1     -11.318  11.295  69.283  1.00  0.00    -0.354 A  
ENDBRANCH   1   2
BRANCH   1  11
HETATM   11  C   UNL     1     -10.431   8.265  71.983  1.00  0.00    -0.280 C  
HETATM   12  O   UNL     1      -9.571   8.775  72.691  1.00  0.00    -0.224 OA 
BRANCH  11  13
HETATM   13  O   UNL     1     -11.724   8.073  72.391  1.00  0.00    -0.343 OA 
HETATM   14  C   UNL     1     -12.256   6.798  72.020  1.00  0.00    -0.291 C  
ENDBRANCH  11  13
ENDBRANCH   1  11
BRANCH   1  15
HETATM   15  C   UNL     1      -8.822   7.411  70.134  1.00  0.00    -0.147 A  
HETATM   16  C   UNL     1      -6.426   7.929  69.921  1.00  0.00    -0.037 A  
HETATM   17  C   UNL     1      -7.233   5.772  69.245  1.00  0.00    -0.066 A  
HETATM   18  C   UNL     1      -6.178   6.668  69.404  1.00  0.00    -0.034 A  
HETATM   19  C   UNL     1      -7.727   8.293  70.276  1.00  0.00    -0.084 A  
HETATM   20  C   UNL     1      -8.541   6.135  69.605  1.00  0.00    -0.128 A  
HETATM   21 CL   UNL     1      -9.766   4.934  69.376  1.00  0.00    -0.243 Cl 
ENDBRANCH   1  15
TORSDOF 4
ENDMDL
MODEL      165
REMARK 921   NORMALIZED FREE ENERGY PREDICTED BY IDOCK:   -3.20 KCAL/MOL
REMARK 922        TOTAL FREE ENERGY PREDICTED BY IDOCK:   -4.47 KCAL/MOL
REMARK 923 INTER-LIGAND FREE ENERGY PREDICTED BY IDOCK:   -6.15 KCAL/MOL
REMARK 924 INTRA-LIGAND FREE ENERGY PREDICTED BY IDOCK:    1.68 KCAL/MOL
REMARK 927      BINDING AFFINITY PREDICTED BY RF-SCORE:    0.00 PKD
ROOT
HETATM    1  C   UNL     1      -9.999  15.001  68.047  1.00  0.00    -0.219 C  
ENDROOT
BRANCH   1   2
HETATM    2  N   UNL     1     -10.656  14.525  66.783  1.00  0.00    -0.273 NA 
HETATM    3  S   UNL     1     -12.603  12.140  63.477  1.00  0.00    -0.383 SA 
HETATM    4  C   UNL     1     -11.983  13.014  64.792  1.00  0.00    -0.395 A  
HETATM    5  C   UNL     1     -11.098  11.362  63.229  1.00  0.00    -0.113 A  
HETATM    6  C   UNL     1     -12.799  13.969  65.591  1.00  0.00    -0.442 C  
HETATM    7  C   UNL     1     -12.098  14.228  66.943  1.00  0.00    -0.409 C  
HETATM    8  C   UNL     1      -9.916  13.372  66.207  1.00  0.00    -0.296 C  
HETATM    9  C   UNL     1     -10.142  11.784  64.130  1.00  0.00    -0.344 A  
HETATM   10  C   UNL     1     -10.653  12.756  65.048  1.00  0.00    -0.330 A  
ENDBRANCH   1   2
BRANCH   1  11
HETATM   11  C   UNL     1      -8.559  14.432  68.205  1.00  0.00    -0.170 C  
HETATM   12  O   UNL     1      -8.241  13.461  68.883  1.00  0.00     0.006 OA 
BRANCH  11  13
HETATM   13  O   UNL     1      -7.680  15.107  67.401  1.00  0.00    -0.165 OA 
HETATM   14  C   UNL     1      -6.308  14.868  67.727  1.00  0.00    -0.155 C  
ENDBRANCH  11  13
ENDBRANCH   1  11
BRANCH   1  15
HETATM   15  C   UNL     1     -10.886  14.802  69.293  1.00  0.00    -0.275 A  
HETATM   16  C   UNL     1     -11.917  15.700  71.339  1.00  0.00    -0.476 A  
HETATM   17  C   UNL     1     -12.201  13.380  70.792  1.00  0.00    -0.409 A  
HETATM   18  C   UNL     1     -12.443  14.455  71.644  1.00  0.00    -0.427 A  
HETATM   19  C   UNL     1     -11.149  15.867  70.184  1.00  0.00    -0.369 A  
HETATM   20  C   UNL     1     -11.432  13.547  69.628  1.00  0.00    -0.217 A  
HETATM   21 CL   UNL     1     -11.212  12.144  68.641  1.00  0.00    -0.288 Cl 
ENDBRANCH   1  15
TORSDOF 4
ENDMDL
MODEL      166
REMARK 921   NORMALIZED FREE ENERGY PREDICTED BY IDOCK:   -3.19 KCAL/MOL
REMARK 922        TOTAL FREE ENERGY PREDICTED BY IDOCK:   -4.46 KCAL/MOL
REMARK 923 INTER-LIGAND FREE ENERGY PREDICTED BY IDOCK:   -4.97 KCAL/MOL
REMARK 924 INTRA-LIGAND FREE ENERGY PREDICTED BY IDOCK:    0.52 KCAL/MOL
REMARK 927      BINDING AFFINITY PREDICTED BY RF-SCORE:    0.00 PKD
ROOT
HETATM    1  C   UNL     1      -8.844   9.698  67.836  1.00  0.00    -0.119 C  
ENDROOT
BRANCH   1   2
HETATM    2  N   UNL     1      -9.550  10.841  67.164  1.00  0.00    -0.160 NA 
HETATM    3  S   UNL     1     -12.411  13.525  64.924  1.00  0.00    -0.359 SA 
HETATM    4  C   UNL     1     -11.430  12.508  65.863  1.00  0.00    -0.373 A  
HETATM    5  C   UNL     1     -12.014  12.665  63.499  1.00  0.00    -0.548 A  
HETATM    6  C   UNL     1     -11.282  12.654  67.337  1.00  0.00    -0.337 C  
HETATM    7  C   UNL     1     -10.718  11.341  67.923  1.00  0.00    -0.207 C  
HETATM    8  C   UNL     1      -9.911  10.486  65.766  1.00  0.00    -0.258 C  
HETATM    9  C   UNL     1     -11.132  11.632  63.746  1.00  0.00    -0.499 A  
HETATM   10  C   UNL     1     -10.783  11.536  65.130  1.00  0.00    -0.348 A  
ENDBRANCH   1   2
BRANCH   1  11
HETATM   11  C   UNL     1      -7.297   9.806  67.699  1.00  0.00    -0.090 C  
HETATM   12  O   UNL     1      -6.694  10.603  66.990  1.00  0.00    -0.077 OA 
BRANCH  11  13
HETATM   13  O   UNL     1      -6.672   8.943  68.559  1.00  0.00    -0.058 OA 
HETATM   14  C   UNL     1      -6.742   9.350  69.928  1.00  0.00    -0.058 C  
ENDBRANCH  11  13
ENDBRANCH   1  11
BRANCH   1  15
HETATM   15  C   UNL     1      -9.408   8.323  67.426  1.00  0.00    -0.171 A  
HETATM   16  C   UNL     1     -10.978   6.466  67.806  1.00  0.00    -0.425 A  
HETATM   17  C   UNL     1      -9.362   6.305  66.038  1.00  0.00    -0.068 A  
HETATM   18  C   UNL     1     -10.420   5.753  66.757  1.00  0.00    -0.350 A  
HETATM   19  C   UNL     1     -10.476   7.727  68.136  1.00  0.00    -0.230 A  
HETATM   20  C   UNL     1      -8.860   7.575  66.365  1.00  0.00    -0.156 A  
HETATM   21 CL   UNL     1      -7.555   8.163  65.392  1.00  0.00    -0.084 Cl 
ENDBRANCH   1  15
TORSDOF 4
ENDMDL
MODEL      167
REMARK 921   NORMALIZED FREE ENERGY PREDICTED BY IDOCK:   -3.12 KCAL/MOL
REMARK 922        TOTAL FREE ENERGY PREDICTED BY IDOCK:   -4.38 KCAL/MOL
REMARK 923 INTER-LIGAND FREE ENERGY PREDICTED BY IDOCK:   -4.46 KCAL/MOL
REMARK 924 INTRA-LIGAND FREE ENERGY PREDICTED BY IDOCK:    0.09 KCAL/MOL
REMARK 927      BINDING AFFINITY PREDICTED BY RF-SCORE:    0.00 PKD
ROOT
HETATM    1  C   UNL     1     -10.260   8.613  69.534  1.00  0.00    -0.209 C  
ENDROOT
BRANCH   1   2
HETATM    2  N   UNL     1      -9.015   9.392  69.220  1.00  0.00    -0.147 NA 
HETATM    3  S   UNL     1      -5.783  12.522  68.806  1.00  0.00    -0.065 SA 
HETATM    4  C   UNL     1      -6.969  11.344  69.093  1.00  0.00    -0.118 A  
HETATM    5  C   UNL     1      -6.832  13.387  67.766  1.00  0.00    -0.160 A  
HETATM    6  C   UNL     1      -6.758  10.181  69.999  1.00  0.00    -0.127 C  
HETATM    7  C   UNL     1      -8.129   9.587  70.390  1.00  0.00    -0.183 C  
HETATM    8  C   UNL     1      -9.354  10.683  68.564  1.00  0.00    -0.170 C  
HETATM    9  C   UNL     1      -8.058  12.767  67.636  1.00  0.00    -0.175 A  
HETATM   10  C   UNL     1      -8.145  11.566  68.409  1.00  0.00    -0.149 A  
ENDBRANCH   1   2
BRANCH   1  11
HETATM   11  C   UNL     1     -11.001   9.176  70.781  1.00  0.00    -0.270 C  
HETATM   12  O   UNL     1     -10.595   9.135  71.936  1.00  0.00    -0.348 OA 
BRANCH  11  13
HETATM   13  O   UNL     1     -12.150   9.824  70.410  1.00  0.00    -0.215 OA 
HETATM   14  C   UNL     1     -12.875  10.377  71.512  1.00  0.00    -0.464 C  
ENDBRANCH  11  13
ENDBRANCH   1  11
BRANCH   1  15
HETATM   15  C   UNL     1     -10.014   7.092  69.592  1.00  0.00    -0.177 A  
HETATM   16  C   UNL     1      -9.175   5.114  70.792  1.00  0.00    -0.188 A  
HETATM   17  C   UNL     1     -10.024   4.870  68.561  1.00  0.00    -0.185 A  
HETATM   18  C   UNL     1      -9.465   4.306  69.705  1.00  0.00    -0.260 A  
HETATM   19  C   UNL     1      -9.442   6.484  70.733  1.00  0.00    -0.180 A  
HETATM   20  C   UNL     1     -10.298   6.246  68.501  1.00  0.00    -0.203 A  
HETATM   21 CL   UNL     1     -11.006   6.830  67.034  1.00  0.00    -0.471 Cl 
ENDBRANCH   1  15
TORSDOF 4
ENDMDL
MODEL      168
REMARK 921   NORMALIZED FREE ENERGY PREDICTED BY IDOCK:   -3.09 KCAL/MOL
REMARK 922        TOTAL FREE ENERGY PREDICTED BY IDOCK:   -4.34 KCAL/MOL
REMARK 923 INTER-LIGAND FREE ENERGY PREDICTED BY IDOCK:   -4.14 KCAL/MOL
REMARK 924 INTRA-LIGAND FREE ENERGY PREDICTED BY IDOCK:   -0.20 KCAL/MOL
REMARK 927      BINDING AFFINITY PREDICTED BY RF-SCORE:    0.00 PKD
ROOT
HETATM    1  C   UNL     1     -10.211   7.540  70.363  1.00  0.00    -0.202 C  
ENDROOT
BRANCH   1   2
HETATM    2  N   UNL     1      -9.742   6.131  70.139  1.00  0.00    -0.161 NA 
HETATM    3  S   UNL     1      -7.594   2.157  70.201  1.00  0.00    -0.042 SA 
HETATM    4  C   UNL     1      -8.444   3.622  70.303  1.00  0.00    -0.056 A  
HETATM    5  C   UNL     1      -6.251   2.935  69.481  1.00  0.00    -0.028 A  
HETATM    6  C   UNL     1      -9.806   3.733  70.893  1.00  0.00    -0.192 C  
HETATM    7  C   UNL     1     -10.087   5.210  71.246  1.00  0.00    -0.210 C  
HETATM    8  C   UNL     1      -8.288   6.103  69.831  1.00  0.00    -0.128 C  
HETATM    9  C   UNL     1      -6.466   4.288  69.310  1.00  0.00    -0.036 A  
HETATM   10  C   UNL     1      -7.752   4.697  69.787  1.00  0.00    -0.058 A  
ENDBRANCH   1   2
BRANCH   1  11
HETATM   11  C   UNL     1     -11.649   7.588  70.958  1.00  0.00    -0.283 C  
HETATM   12  O   UNL     1     -12.596   6.896  70.602  1.00  0.00    -0.278 OA 
BRANCH  11  13
HETATM   13  O   UNL     1     -11.707   8.455  72.016  1.00  0.00    -0.304 OA 
HETATM   14  C   UNL     1     -12.724   9.452  71.884  1.00  0.00    -0.401 C  
ENDBRANCH  11  13
ENDBRANCH   1  11
BRANCH   1  15
HETATM   15  C   UNL     1     -10.020   8.438  69.125  1.00  0.00    -0.197 A  
HETATM   16  C   UNL     1      -9.324  10.580  68.133  1.00  0.00    -0.150 A  
HETATM   17  C   UNL     1     -10.284   8.885  66.730  1.00  0.00    -0.348 A  
HETATM   18  C   UNL     1      -9.733  10.156  66.879  1.00  0.00    -0.233 A  
HETATM   19  C   UNL     1      -9.470   9.735  69.236  1.00  0.00    -0.201 A  
HETATM   20  C   UNL     1     -10.427   8.033  67.838  1.00  0.00    -0.197 A  
HETATM   21 CL   UNL     1     -11.112   6.474  67.528  1.00  0.00    -0.430 Cl 
ENDBRANCH   1  15
TORSDOF 4
ENDMDL
MODEL      169
REMARK 921   NORMALIZED FREE ENERGY PREDICTED BY IDOCK:   -3.08 KCAL/MOL
REMARK 922        TOTAL FREE ENERGY PREDICTED BY IDOCK:   -4.33 KCAL/MOL
REMARK 923 INTER-LIGAND FREE ENERGY PREDICTED BY IDOCK:   -4.40 KCAL/MOL
REMARK 924 INTRA-LIGAND FREE ENERGY PREDICTED BY IDOCK:    0.08 KCAL/MOL
REMARK 927      BINDING AFFINITY PREDICTED BY RF-SCORE:    0.00 PKD
ROOT
HETATM    1  C   UNL     1     -11.473   6.970  70.989  1.00  0.00    -0.303 C  
ENDROOT
BRANCH   1   2
HETATM    2  N   UNL     1     -10.679   6.808  69.724  1.00  0.00    -0.233 NA 
HETATM    3  S   UNL     1      -8.485   5.273  66.086  1.00  0.00    -0.121 SA 
HETATM    4  C   UNL     1      -9.423   5.810  67.392  1.00  0.00    -0.112 A  
HETATM    5  C   UNL     1      -7.325   4.589  67.143  1.00  0.00    -0.074 A  
HETATM    6  C   UNL     1     -10.711   6.538  67.224  1.00  0.00    -0.427 C  
HETATM    7  C   UNL     1     -11.509   6.469  68.545  1.00  0.00     0.097 C  
HETATM    8  C   UNL     1      -9.574   5.832  69.919  1.00  0.00    -0.159 C  
HETATM    9  C   UNL     1      -7.652   4.789  68.469  1.00  0.00    -0.073 A  
HETATM   10  C   UNL     1      -8.880   5.507  68.623  1.00  0.00    -0.108 A  
ENDBRANCH   1   2
BRANCH   1  11
HETATM   11  C   UNL     1     -11.995   8.426  71.167  1.00  0.00    -0.272 C  
HETATM   12  O   UNL     1     -11.583   9.414  70.569  1.00  0.00    -0.266 OA 
BRANCH  11  13
HETATM   13  O   UNL     1     -13.060   8.458  72.026  1.00  0.00    -0.335 OA 
HETATM   14  C   UNL     1     -13.436   9.779  72.422  1.00  0.00    -0.272 C  
ENDBRANCH  11  13
ENDBRANCH   1  11
BRANCH   1  15
HETATM   15  C   UNL     1     -10.743   6.416  72.228  1.00  0.00    -0.253 A  
HETATM   16  C   UNL     1     -10.544   4.725  74.004  1.00  0.00    -0.351 A  
HETATM   17  C   UNL     1      -9.034   6.591  73.975  1.00  0.00    -0.169 A  
HETATM   18  C   UNL     1      -9.477   5.409  74.565  1.00  0.00    -0.151 A  
HETATM   19  C   UNL     1     -11.167   5.224  72.858  1.00  0.00    -0.375 A  
HETATM   20  C   UNL     1      -9.657   7.091  72.820  1.00  0.00    -0.148 A  
HETATM   21 CL   UNL     1      -9.010   8.559  72.170  1.00  0.00    -0.295 Cl 
ENDBRANCH   1  15
TORSDOF 4
ENDMDL
MODEL      170
REMARK 921   NORMALIZED FREE ENERGY PREDICTED BY IDOCK:   -3.08 KCAL/MOL
REMARK 922        TOTAL FREE ENERGY PREDICTED BY IDOCK:   -4.32 KCAL/MOL
REMARK 923 INTER-LIGAND FREE ENERGY PREDICTED BY IDOCK:   -4.44 KCAL/MOL
REMARK 924 INTRA-LIGAND FREE ENERGY PREDICTED BY IDOCK:    0.12 KCAL/MOL
REMARK 927      BINDING AFFINITY PREDICTED BY RF-SCORE:    0.00 PKD
ROOT
HETATM    1  C   UNL     1     -10.579  13.752  66.869  1.00  0.00    -0.276 C  
ENDROOT
BRANCH   1   2
HETATM    2  N   UNL     1      -9.375  13.052  67.434  1.00  0.00    -0.201 NA 
HETATM    3  S   UNL     1      -5.989  11.530  70.009  1.00  0.00    -0.153 SA 
HETATM    4  C   UNL     1      -7.345  12.036  69.124  1.00  0.00     0.048 A  
HETATM    5  C   UNL     1      -5.295  13.092  69.920  1.00  0.00    -0.096 A  
HETATM    6  C   UNL     1      -8.486  11.136  68.797  1.00  0.00    -0.134 C  
HETATM    7  C   UNL     1      -9.712  11.992  68.410  1.00  0.00    -0.199 C  
HETATM    8  C   UNL     1      -8.413  14.036  67.998  1.00  0.00    -0.171 C  
HETATM    9  C   UNL     1      -6.086  13.971  69.210  1.00  0.00    -0.100 A  
HETATM   10  C   UNL     1      -7.289  13.358  68.737  1.00  0.00    -0.076 A  
ENDBRANCH   1   2
BRANCH   1  11
HETATM   11  C   UNL     1     -10.888  13.295  65.413  1.00  0.00    -0.291 C  
HETATM   12  O   UNL     1     -10.207  13.540  64.425  1.00  0.00    -0.399 OA 
BRANCH  11  13
HETATM   13  O   UNL     1     -11.993  12.488  65.383  1.00  0.00    -0.406 OA 
HETATM   14  C   UNL     1     -12.076  11.676  64.209  1.00  0.00    -0.050 C  
ENDBRANCH  11  13
ENDBRANCH   1  11
BRANCH   1  15
HETATM   15  C   UNL     1     -10.515  15.282  67.040  1.00  0.00    -0.292 A  
HETATM   16  C   UNL     1      -9.595  17.464  66.372  1.00  0.00    -0.291 A  
HETATM   17  C   UNL     1     -11.119  17.342  68.222  1.00  0.00    -0.064 A  
HETATM   18  C   UNL     1     -10.306  18.096  67.380  1.00  0.00    -0.402 A  
HETATM   19  C   UNL     1      -9.697  16.081  66.209  1.00  0.00    -0.332 A  
HETATM   20  C   UNL     1     -11.226  15.951  68.057  1.00  0.00    -0.319 A  
HETATM   21 CL   UNL     1     -12.278  15.123  69.154  1.00  0.00    -0.238 Cl 
ENDBRANCH   1  15
TORSDOF 4
ENDMDL
MODEL      171
REMARK 921   NORMALIZED FREE ENERGY PREDICTED BY IDOCK:   -3.07 KCAL/MOL
REMARK 922        TOTAL FREE ENERGY PREDICTED BY IDOCK:   -4.32 KCAL/MOL
REMARK 923 INTER-LIGAND FREE ENERGY PREDICTED BY IDOCK:   -5.03 KCAL/MOL
REMARK 924 INTRA-LIGAND FREE ENERGY PREDICTED BY IDOCK:    0.71 KCAL/MOL
REMARK 927      BINDING AFFINITY PREDICTED BY RF-SCORE:    0.00 PKD
ROOT
HETATM    1  C   UNL     1      -9.607  15.642  68.451  1.00  0.00    -0.199 C  
ENDROOT
BRANCH   1   2
HETATM    2  N   UNL     1      -9.508  14.301  67.779  1.00  0.00    -0.211 NA 
HETATM    3  S   UNL     1     -10.265  10.227  65.981  1.00  0.00    -0.194 SA 
HETATM    4  C   UNL     1     -10.055  11.809  66.556  1.00  0.00    -0.203 A  
HETATM    5  C   UNL     1     -10.538   9.640  67.566  1.00  0.00    -0.277 A  
HETATM    6  C   UNL     1      -9.779  12.969  65.665  1.00  0.00    -0.110 C  
HETATM    7  C   UNL     1     -10.098  14.277  66.421  1.00  0.00    -0.288 C  
HETATM    8  C   UNL     1     -10.077  13.236  68.646  1.00  0.00    -0.146 C  
HETATM    9  C   UNL     1     -10.450  10.642  68.511  1.00  0.00    -0.212 A  
HETATM   10  C   UNL     1     -10.164  11.917  67.926  1.00  0.00    -0.203 A  
ENDBRANCH   1   2
BRANCH   1  11
HETATM   11  C   UNL     1     -11.080  16.020  68.784  1.00  0.00    -0.338 C  
HETATM   12  O   UNL     1     -11.973  16.213  67.967  1.00  0.00     0.038 OA 
BRANCH  11  13
HETATM   13  O   UNL     1     -11.286  16.020  70.137  1.00  0.00    -0.324 OA 
HETATM   14  C   UNL     1     -12.568  15.515  70.520  1.00  0.00    -0.416 C  
ENDBRANCH  11  13
ENDBRANCH   1  11
BRANCH   1  15
HETATM   15  C   UNL     1      -8.837  16.745  67.698  1.00  0.00    -0.207 A  
HETATM   16  C   UNL     1      -7.154  17.410  66.031  1.00  0.00    -0.259 A  
HETATM   17  C   UNL     1      -8.258  19.098  67.333  1.00  0.00    -0.302 A  
HETATM   18  C   UNL     1      -7.336  18.746  66.349  1.00  0.00    -0.268 A  
HETATM   19  C   UNL     1      -7.890  16.428  66.698  1.00  0.00    -0.316 A  
HETATM   20  C   UNL     1      -9.002  18.112  68.002  1.00  0.00    -0.283 A  
HETATM   21 CL   UNL     1     -10.126  18.669  69.193  1.00  0.00    -0.311 Cl 
ENDBRANCH   1  15
TORSDOF 4
ENDMDL
MODEL      172
REMARK 921   NORMALIZED FREE ENERGY PREDICTED BY IDOCK:   -3.05 KCAL/MOL
REMARK 922        TOTAL FREE ENERGY PREDICTED BY IDOCK:   -4.29 KCAL/MOL
REMARK 923 INTER-LIGAND FREE ENERGY PREDICTED BY IDOCK:   -4.05 KCAL/MOL
REMARK 924 INTRA-LIGAND FREE ENERGY PREDICTED BY IDOCK:   -0.24 KCAL/MOL
REMARK 927      BINDING AFFINITY PREDICTED BY RF-SCORE:    0.00 PKD
ROOT
HETATM    1  C   UNL     1      -9.524  12.263  66.661  1.00  0.00    -0.226 C  
ENDROOT
BRANCH   1   2
HETATM    2  N   UNL     1      -8.661  12.680  67.818  1.00  0.00    -0.168 NA 
HETATM    3  S   UNL     1      -5.279  13.525  70.691  1.00  0.00    -0.140 SA 
HETATM    4  C   UNL     1      -6.496  13.301  69.530  1.00  0.00    -0.078 A  
HETATM    5  C   UNL     1      -5.133  11.836  70.927  1.00  0.00    -0.130 A  
HETATM    6  C   UNL     1      -7.149  14.427  68.808  1.00  0.00    -0.114 C  
HETATM    7  C   UNL     1      -7.843  13.883  67.540  1.00  0.00    -0.181 C  
HETATM    8  C   UNL     1      -7.828  11.543  68.289  1.00  0.00    -0.138 C  
HETATM    9  C   UNL     1      -6.016  11.125  70.140  1.00  0.00    -0.136 A  
HETATM   10  C   UNL     1      -6.821  11.978  69.320  1.00  0.00    -0.066 A  
ENDBRANCH   1   2
BRANCH   1  11
HETATM   11  C   UNL     1     -10.834  13.099  66.578  1.00  0.00    -0.280 C  
HETATM   12  O   UNL     1     -11.324  13.757  67.489  1.00  0.00    -0.284 OA 
BRANCH  11  13
HETATM   13  O   UNL     1     -11.338  13.086  65.305  1.00  0.00    -0.289 OA 
HETATM   14  C   UNL     1     -11.175  14.328  64.614  1.00  0.00    -0.366 C  
ENDBRANCH  11  13
ENDBRANCH   1  11
BRANCH   1  15
HETATM   15  C   UNL     1      -9.755  10.740  66.606  1.00  0.00    -0.227 A  
HETATM   16  C   UNL     1     -10.708   8.693  67.586  1.00  0.00    -0.194 A  
HETATM   17  C   UNL     1      -9.366   8.539  65.601  1.00  0.00    -0.122 A  
HETATM   18  C   UNL     1     -10.131   7.923  66.589  1.00  0.00    -0.310 A  
HETATM   19  C   UNL     1     -10.519  10.078  67.594  1.00  0.00    -0.297 A  
HETATM   20  C   UNL     1      -9.179   9.931  65.606  1.00  0.00    -0.194 A  
HETATM   21 CL   UNL     1      -8.222  10.585  64.320  1.00  0.00    -0.113 Cl 
ENDBRANCH   1  15
TORSDOF 4
ENDMDL
MODEL      173
REMARK 921   NORMALIZED FREE ENERGY PREDICTED BY IDOCK:   -3.00 KCAL/MOL
REMARK 922        TOTAL FREE ENERGY PREDICTED BY IDOCK:   -4.23 KCAL/MOL
REMARK 923 INTER-LIGAND FREE ENERGY PREDICTED BY IDOCK:   -5.31 KCAL/MOL
REMARK 924 INTRA-LIGAND FREE ENERGY PREDICTED BY IDOCK:    1.08 KCAL/MOL
REMARK 927      BINDING AFFINITY PREDICTED BY RF-SCORE:    0.00 PKD
ROOT
HETATM    1  C   UNL     1      -6.548  16.549  67.494  1.00  0.00    -0.151 C  
ENDROOT
BRANCH   1   2
HETATM    2  N   UNL     1      -7.774  15.703  67.296  1.00  0.00    -0.187 NA 
HETATM    3  S   UNL     1     -11.970  14.052  67.022  1.00  0.00    -0.422 SA 
HETATM    4  C   UNL     1     -10.425  14.752  67.021  1.00  0.00    -0.270 A  
HETATM    5  C   UNL     1     -12.053  14.134  68.730  1.00  0.00    -0.291 A  
HETATM    6  C   UNL     1      -9.660  15.033  65.775  1.00  0.00    -0.327 C  
HETATM    7  C   UNL     1      -8.546  16.058  66.084  1.00  0.00    -0.280 C  
HETATM    8  C   UNL     1      -8.625  15.717  68.516  1.00  0.00    -0.183 C  
HETATM    9  C   UNL     1     -10.908  14.673  69.279  1.00  0.00    -0.272 A  
HETATM   10  C   UNL     1      -9.947  15.035  68.283  1.00  0.00    -0.225 A  
ENDBRANCH   1   2
BRANCH   1  11
HETATM   11  C   UNL     1      -6.151  16.657  68.996  1.00  0.00    -0.162 C  
HETATM   12  O   UNL     1      -6.310  15.787  69.844  1.00  0.00    -0.173 OA 
BRANCH  11  13
HETATM   13  O   UNL     1      -5.500  17.836  69.241  1.00  0.00    -0.182 OA 
HETATM   14  C   UNL     1      -5.311  18.106  70.633  1.00  0.00    -0.259 C  
ENDBRANCH  11  13
ENDBRANCH   1  11
BRANCH   1  15
HETATM   15  C   UNL     1      -6.640  17.911  66.777  1.00  0.00    -0.216 A  
HETATM   16  C   UNL     1      -5.847  19.459  65.036  1.00  0.00    -0.268 A  
HETATM   17  C   UNL     1      -7.550  20.176  66.568  1.00  0.00    -0.316 A  
HETATM   18  C   UNL     1      -6.718  20.440  65.483  1.00  0.00    -0.285 A  
HETATM   19  C   UNL     1      -5.808  18.218  65.676  1.00  0.00    -0.254 A  
HETATM   20  C   UNL     1      -7.515  18.927  67.210  1.00  0.00    -0.225 A  
HETATM   21 CL   UNL     1      -8.605  18.710  68.537  1.00  0.00    -0.364 Cl 
ENDBRANCH   1  15
TORSDOF 4
ENDMDL
MODEL      174
REMARK 921   NORMALIZED FREE ENERGY PREDICTED BY IDOCK:   -3.00 KCAL/MOL
REMARK 922        TOTAL FREE ENERGY PREDICTED BY IDOCK:   -4.23 KCAL/MOL
REMARK 923 INTER-LIGAND FREE ENERGY PREDICTED BY IDOCK:   -4.70 KCAL/MOL
REMARK 924 INTRA-LIGAND FREE ENERGY PREDICTED BY IDOCK:    0.47 KCAL/MOL
REMARK 927      BINDING AFFINITY PREDICTED BY RF-SCORE:    0.00 PKD
ROOT
HETATM    1  C   UNL     1     -10.912   8.863  68.428  1.00  0.00     0.125 C  
ENDROOT
BRANCH   1   2
HETATM    2  N   UNL     1     -11.368  10.239  68.034  1.00  0.00    -0.299 NA 
HETATM    3  S   UNL     1     -11.767  14.663  67.215  1.00  0.00    -0.344 SA 
HETATM    4  C   UNL     1     -11.524  12.998  67.425  1.00  0.00    -0.332 A  
HETATM    5  C   UNL     1     -11.794  14.917  68.908  1.00  0.00    -0.301 A  
HETATM    6  C   UNL     1     -11.372  12.048  66.289  1.00  0.00    -0.415 C  
HETATM    7  C   UNL     1     -10.723  10.743  66.801  1.00  0.00    -0.231 C  
HETATM    8  C   UNL     1     -11.211  11.189  69.167  1.00  0.00    -0.264 C  
HETATM    9  C   UNL     1     -11.636  13.740  69.610  1.00  0.00    -0.343 A  
HETATM   10  C   UNL     1     -11.480  12.609  68.747  1.00  0.00    -0.349 A  
ENDBRANCH   1   2
BRANCH   1  11
HETATM   11  C   UNL     1     -10.925   8.663  69.972  1.00  0.00    -0.203 C  
HETATM   12  O   UNL     1     -11.910   8.743  70.697  1.00  0.00    -0.232 OA 
BRANCH  11  13
HETATM   13  O   UNL     1      -9.689   8.287  70.423  1.00  0.00    -0.167 OA 
HETATM   14  C   UNL     1      -9.306   8.927  71.644  1.00  0.00    -0.258 C  
ENDBRANCH  11  13
ENDBRANCH   1  11
BRANCH   1  15
HETATM   15  C   UNL     1      -9.581   8.460  67.762  1.00  0.00    -0.185 A  
HETATM   16  C   UNL     1      -7.212   8.924  67.285  1.00  0.00    -0.083 A  
HETATM   17  C   UNL     1      -8.260   7.000  66.304  1.00  0.00    -0.120 A  
HETATM   18  C   UNL     1      -7.132   7.800  66.480  1.00  0.00    -0.078 A  
HETATM   19  C   UNL     1      -8.417   9.249  67.912  1.00  0.00    -0.117 A  
HETATM   20  C   UNL     1      -9.472   7.323  66.937  1.00  0.00    -0.164 A  
HETATM   21 CL   UNL     1     -10.799   6.249  66.656  1.00  0.00    -0.337 Cl 
ENDBRANCH   1  15
TORSDOF 4
ENDMDL
MODEL      175
REMARK 921   NORMALIZED FREE ENERGY PREDICTED BY IDOCK:   -2.98 KCAL/MOL
REMARK 922        TOTAL FREE ENERGY PREDICTED BY IDOCK:   -4.21 KCAL/MOL
REMARK 923 INTER-LIGAND FREE ENERGY PREDICTED BY IDOCK:   -4.97 KCAL/MOL
REMARK 924 INTRA-LIGAND FREE ENERGY PREDICTED BY IDOCK:    0.76 KCAL/MOL
REMARK 927      BINDING AFFINITY PREDICTED BY RF-SCORE:    0.00 PKD
ROOT
HETATM    1  C   UNL     1     -10.903  11.890  67.056  1.00  0.00    -0.259 C  
ENDROOT
BRANCH   1   2
HETATM    2  N   UNL     1      -9.478  11.414  67.071  1.00  0.00    -0.172 NA 
HETATM    3  S   UNL     1      -5.469   9.595  68.083  1.00  0.00    -0.040 SA 
HETATM    4  C   UNL     1      -7.023  10.152  67.694  1.00  0.00    -0.085 A  
HETATM    5  C   UNL     1      -5.298  10.788  69.299  1.00  0.00    -0.041 A  
HETATM    6  C   UNL     1      -7.872   9.528  66.642  1.00  0.00    -0.101 C  
HETATM    7  C   UNL     1      -9.341   9.955  66.856  1.00  0.00    -0.152 C  
HETATM    8  C   UNL     1      -8.790  11.856  68.313  1.00  0.00    -0.174 C  
HETATM    9  C   UNL     1      -6.409  11.602  69.386  1.00  0.00    -0.106 A  
HETATM   10  C   UNL     1      -7.424  11.237  68.445  1.00  0.00    -0.108 A  
ENDBRANCH   1   2
BRANCH   1  11
HETATM   11  C   UNL     1     -11.095  13.128  66.132  1.00  0.00    -0.282 C  
HETATM   12  O   UNL     1     -10.212  13.899  65.774  1.00  0.00    -0.298 OA 
BRANCH  11  13
HETATM   13  O   UNL     1     -12.385  13.202  65.681  1.00  0.00    -0.443 OA 
HETATM   14  C   UNL     1     -12.490  13.285  64.257  1.00  0.00    -0.269 C  
ENDBRANCH  11  13
ENDBRANCH   1  11
BRANCH   1  15
HETATM   15  C   UNL     1     -11.487  12.074  68.471  1.00  0.00    -0.345 A  
HETATM   16  C   UNL     1     -12.565  11.127  70.470  1.00  0.00    -0.360 A  
HETATM   17  C   UNL     1     -12.162  13.491  70.352  1.00  0.00    -0.426 A  
HETATM   18  C   UNL     1     -12.649  12.385  71.045  1.00  0.00    -0.349 A  
HETATM   19  C   UNL     1     -11.996  10.977  69.203  1.00  0.00    -0.394 A  
HETATM   20  C   UNL     1     -11.586  13.341  69.079  1.00  0.00    -0.312 A  
HETATM   21 CL   UNL     1     -11.004  14.783  68.321  1.00  0.00    -0.253 Cl 
ENDBRANCH   1  15
TORSDOF 4
ENDMDL
MODEL      176
REMARK 921   NORMALIZED FREE ENERGY PREDICTED BY IDOCK:   -2.98 KCAL/MOL
REMARK 922        TOTAL FREE ENERGY PREDICTED BY IDOCK:   -4.21 KCAL/MOL
REMARK 923 INTER-LIGAND FREE ENERGY PREDICTED BY IDOCK:   -4.25 KCAL/MOL
REMARK 924 INTRA-LIGAND FREE ENERGY PREDICTED BY IDOCK:    0.05 KCAL/MOL
REMARK 927      BINDING AFFINITY PREDICTED BY RF-SCORE:    0.00 PKD
ROOT
HETATM    1  C   UNL     1      -8.528  17.336  67.834  1.00  0.00    -0.218 C  
ENDROOT
BRANCH   1   2
HETATM    2  N   UNL     1      -8.057  16.074  68.500  1.00  0.00    -0.160 NA 
HETATM    3  S   UNL     1      -5.837  12.356  69.787  1.00  0.00    -0.136 SA 
HETATM    4  C   UNL     1      -6.567  13.824  69.352  1.00  0.00    -0.100 A  
HETATM    5  C   UNL     1      -6.276  11.645  68.293  1.00  0.00    -0.049 A  
HETATM    6  C   UNL     1      -6.566  15.025  70.232  1.00  0.00    -0.068 C  
HETATM    7  C   UNL     1      -6.886  16.276  69.384  1.00  0.00    -0.213 C  
HETATM    8  C   UNL     1      -7.811  15.009  67.493  1.00  0.00    -0.182 C  
HETATM    9  C   UNL     1      -6.982  12.519  67.491  1.00  0.00    -0.149 A  
HETATM   10  C   UNL     1      -7.160  13.798  68.108  1.00  0.00    -0.118 A  
ENDBRANCH   1   2
BRANCH   1  11
HETATM   11  C   UNL     1      -9.767  17.087  66.925  1.00  0.00    -0.262 C  
HETATM   12  O   UNL     1      -9.780  17.138  65.701  1.00  0.00    -0.545 OA 
BRANCH  11  13
HETATM   13  O   UNL     1     -10.848  16.702  67.673  1.00  0.00    -0.324 OA 
HETATM   14  C   UNL     1     -11.530  15.560  67.147  1.00  0.00    -0.067 C  
ENDBRANCH  11  13
ENDBRANCH   1  11
BRANCH   1  15
HETATM   15  C   UNL     1      -7.389  18.104  67.135  1.00  0.00    -0.216 A  
HETATM   16  C   UNL     1      -5.867  18.381  65.222  1.00  0.00    -0.248 A  
HETATM   17  C   UNL     1      -5.663  19.843  67.115  1.00  0.00    -0.180 A  
HETATM   18  C   UNL     1      -5.235  19.441  65.852  1.00  0.00    -0.170 A  
HETATM   19  C   UNL     1      -6.923  17.723  65.857  1.00  0.00    -0.291 A  
HETATM   20  C   UNL     1      -6.728  19.185  67.753  1.00  0.00    -0.209 A  
HETATM   21 CL   UNL     1      -7.180  19.782  69.313  1.00  0.00    -0.349 Cl 
ENDBRANCH   1  15
TORSDOF 4
ENDMDL
MODEL      177
REMARK 921   NORMALIZED FREE ENERGY PREDICTED BY IDOCK:   -2.96 KCAL/MOL
REMARK 922        TOTAL FREE ENERGY PREDICTED BY IDOCK:   -4.18 KCAL/MOL
REMARK 923 INTER-LIGAND FREE ENERGY PREDICTED BY IDOCK:   -4.47 KCAL/MOL
REMARK 924 INTRA-LIGAND FREE ENERGY PREDICTED BY IDOCK:    0.28 KCAL/MOL
REMARK 927      BINDING AFFINITY PREDICTED BY RF-SCORE:    0.00 PKD
ROOT
HETATM    1  C   UNL     1      -9.217   8.678  69.139  1.00  0.00    -0.152 C  
ENDROOT
BRANCH   1   2
HETATM    2  N   UNL     1      -9.548  10.031  68.574  1.00  0.00    -0.148 NA 
HETATM    3  S   UNL     1     -11.360  13.566  66.424  1.00  0.00    -0.326 SA 
HETATM    4  C   UNL     1     -10.789  12.238  67.311  1.00  0.00    -0.245 A  
HETATM    5  C   UNL     1     -10.885  12.840  64.948  1.00  0.00    -0.299 A  
HETATM    6  C   UNL     1     -10.889  12.146  68.794  1.00  0.00    -0.265 C  
HETATM    7  C   UNL     1     -10.713  10.673  69.223  1.00  0.00    -0.238 C  
HETATM    8  C   UNL     1      -9.708   9.959  67.098  1.00  0.00    -0.178 C  
HETATM    9  C   UNL     1     -10.286  11.613  65.144  1.00  0.00    -0.326 A  
HETATM   10  C   UNL     1     -10.223  11.254  66.528  1.00  0.00    -0.269 A  
ENDBRANCH   1   2
BRANCH   1  11
HETATM   11  C   UNL     1      -7.798   8.644  69.778  1.00  0.00    -0.093 C  
HETATM   12  O   UNL     1      -6.780   8.226  69.240  1.00  0.00    -0.042 OA 
BRANCH  11  13
HETATM   13  O   UNL     1      -7.808   9.238  71.012  1.00  0.00    -0.240 OA 
HETATM   14  C   UNL     1      -8.590   8.532  71.980  1.00  0.00    -0.183 C  
ENDBRANCH  11  13
ENDBRANCH   1  11
BRANCH   1  15
HETATM   15  C   UNL     1      -9.476   7.534  68.138  1.00  0.00    -0.147 A  
HETATM   16  C   UNL     1      -8.922   6.372  66.041  1.00  0.00    -0.143 A  
HETATM   17  C   UNL     1     -10.783   5.616  67.354  1.00  0.00    -0.283 A  
HETATM   18  C   UNL     1      -9.975   5.491  66.227  1.00  0.00    -0.174 A  
HETATM   19  C   UNL     1      -8.681   7.378  66.980  1.00  0.00    -0.123 A  
HETATM   20  C   UNL     1     -10.540   6.624  68.302  1.00  0.00    -0.241 A  
HETATM   21 CL   UNL     1     -11.601   6.672  69.668  1.00  0.00    -0.354 Cl 
ENDBRANCH   1  15
TORSDOF 4
ENDMDL
MODEL      178
REMARK 921   NORMALIZED FREE ENERGY PREDICTED BY IDOCK:   -2.95 KCAL/MOL
REMARK 922        TOTAL FREE ENERGY PREDICTED BY IDOCK:   -4.16 KCAL/MOL
REMARK 923 INTER-LIGAND FREE ENERGY PREDICTED BY IDOCK:   -5.31 KCAL/MOL
REMARK 924 INTRA-LIGAND FREE ENERGY PREDICTED BY IDOCK:    1.15 KCAL/MOL
REMARK 927      BINDING AFFINITY PREDICTED BY RF-SCORE:    0.00 PKD
ROOT
HETATM    1  C   UNL     1     -11.487   9.901  68.412  1.00  0.00     0.143 C  
ENDROOT
BRANCH   1   2
HETATM    2  N   UNL     1     -11.586  11.233  67.724  1.00  0.00    -0.531 NA 
HETATM    3  S   UNL     1     -10.853  15.328  65.963  1.00  0.00    -0.318 SA 
HETATM    4  C   UNL     1     -11.044  13.741  66.531  1.00  0.00    -0.306 A  
HETATM    5  C   UNL     1     -10.735  15.932  67.560  1.00  0.00    -0.318 A  
HETATM    6  C   UNL     1     -11.197  12.567  65.629  1.00  0.00    -0.352 C  
HETATM    7  C   UNL     1     -10.888  11.276  66.419  1.00  0.00    -0.251 C  
HETATM    8  C   UNL     1     -11.135  12.325  68.627  1.00  0.00    -0.249 C  
HETATM    9  C   UNL     1     -10.859  14.932  68.503  1.00  0.00    -0.249 A  
HETATM   10  C   UNL     1     -11.043  13.644  67.906  1.00  0.00    -0.283 A  
ENDBRANCH   1   2
BRANCH   1  11
HETATM   11  C   UNL     1     -11.553  10.039  69.961  1.00  0.00    -0.214 C  
HETATM   12  O   UNL     1     -10.591  10.058  70.721  1.00  0.00    -0.287 OA 
BRANCH  11  13
HETATM   13  O   UNL     1     -12.843  10.234  70.376  1.00  0.00    -0.273 OA 
HETATM   14  C   UNL     1     -12.949  11.041  71.553  1.00  0.00    -0.448 C  
ENDBRANCH  11  13
ENDBRANCH   1  11
BRANCH   1  15
HETATM   15  C   UNL     1     -10.297   9.058  67.913  1.00  0.00    -0.290 A  
HETATM   16  C   UNL     1      -9.430   6.998  66.884  1.00  0.00    -0.199 A  
HETATM   17  C   UNL     1      -7.892   8.671  67.655  1.00  0.00    -0.103 A  
HETATM   18  C   UNL     1      -8.126   7.435  67.059  1.00  0.00    -0.113 A  
HETATM   19  C   UNL     1     -10.495   7.795  67.308  1.00  0.00    -0.392 A  
HETATM   20  C   UNL     1      -8.962   9.477  68.078  1.00  0.00    -0.123 A  
HETATM   21 CL   UNL     1      -8.548  10.998  68.792  1.00  0.00    -0.156 Cl 
ENDBRANCH   1  15
TORSDOF 4
ENDMDL
MODEL      179
REMARK 921   NORMALIZED FREE ENERGY PREDICTED BY IDOCK:   -2.91 KCAL/MOL
REMARK 922        TOTAL FREE ENERGY PREDICTED BY IDOCK:   -4.12 KCAL/MOL
REMARK 923 INTER-LIGAND FREE ENERGY PREDICTED BY IDOCK:   -4.73 KCAL/MOL
REMARK 924 INTRA-LIGAND FREE ENERGY PREDICTED BY IDOCK:    0.61 KCAL/MOL
REMARK 927      BINDING AFFINITY PREDICTED BY RF-SCORE:    0.00 PKD
ROOT
HETATM    1  C   UNL     1      -8.686   7.612  69.317  1.00  0.00    -0.136 C  
ENDROOT
BRANCH   1   2
HETATM    2  N   UNL     1      -9.764   7.937  70.311  1.00  0.00    -0.182 NA 
HETATM    3  S   UNL     1     -13.558   9.191  72.418  1.00  0.00    -0.438 SA 
HETATM    4  C   UNL     1     -12.203   8.616  71.576  1.00  0.00    -0.318 A  
HETATM    5  C   UNL     1     -13.217  10.803  71.952  1.00  0.00    -0.419 A  
HETATM    6  C   UNL     1     -11.837   7.174  71.511  1.00  0.00    -0.348 C  
HETATM    7  C   UNL     1     -10.867   6.949  70.330  1.00  0.00    -0.261 C  
HETATM    8  C   UNL     1     -10.267   9.321  70.106  1.00  0.00    -0.215 C  
HETATM    9  C   UNL     1     -12.075  10.889  71.182  1.00  0.00    -0.386 A  
HETATM   10  C   UNL     1     -11.473   9.610  70.960  1.00  0.00    -0.444 A  
ENDBRANCH   1   2
BRANCH   1  11
HETATM   11  C   UNL     1      -8.059   8.894  68.696  1.00  0.00    -0.111 C  
HETATM   12  O   UNL     1      -7.258   9.640  69.247  1.00  0.00    -0.063 OA 
BRANCH  11  13
HETATM   13  O   UNL     1      -8.448   9.040  67.391  1.00  0.00    -0.115 OA 
HETATM   14  C   UNL     1      -7.857  10.169  66.742  1.00  0.00    -0.108 C  
ENDBRANCH  11  13
ENDBRANCH   1  11
BRANCH   1  15
HETATM   15  C   UNL     1      -9.132   6.569  68.272  1.00  0.00    -0.119 A  
HETATM   16  C   UNL     1     -10.816   5.727  66.688  1.00  0.00    -0.290 A  
HETATM   17  C   UNL     1      -8.796   4.478  67.041  1.00  0.00    -0.113 A  
HETATM   18  C   UNL     1     -10.027   4.624  66.404  1.00  0.00    -0.267 A  
HETATM   19  C   UNL     1     -10.375   6.680  67.609  1.00  0.00    -0.248 A  
HETATM   20  C   UNL     1      -8.350   5.438  67.964  1.00  0.00    -0.098 A  
HETATM   21 CL   UNL     1      -6.800   5.157  68.681  1.00  0.00    -0.050 Cl 
ENDBRANCH   1  15
TORSDOF 4
ENDMDL
MODEL      180
REMARK 921   NORMALIZED FREE ENERGY PREDICTED BY IDOCK:   -2.90 KCAL/MOL
REMARK 922        TOTAL FREE ENERGY PREDICTED BY IDOCK:   -4.10 KCAL/MOL
REMARK 923 INTER-LIGAND FREE ENERGY PREDICTED BY IDOCK:   -5.10 KCAL/MOL
REMARK 924 INTRA-LIGAND FREE ENERGY PREDICTED BY IDOCK:    0.99 KCAL/MOL
REMARK 927      BINDING AFFINITY PREDICTED BY RF-SCORE:    0.00 PKD
ROOT
HETATM    1  C   UNL     1     -10.781  14.184  67.217  1.00  0.00    -0.279 C  
ENDROOT
BRANCH   1   2
HETATM    2  N   UNL     1     -10.015  12.892  67.223  1.00  0.00    -0.222 NA 
HETATM    3  S   UNL     1      -8.661   8.591  66.951  1.00  0.00    -0.118 SA 
HETATM    4  C   UNL     1      -9.184  10.204  66.919  1.00  0.00    -0.146 A  
HETATM    5  C   UNL     1      -9.635   8.257  68.319  1.00  0.00    -0.147 A  
HETATM    6  C   UNL     1      -8.731  11.186  65.896  1.00  0.00    -0.167 C  
HETATM    7  C   UNL     1      -9.712  12.379  65.868  1.00  0.00    -0.228 C  
HETATM    8  C   UNL     1     -10.708  11.874  68.056  1.00  0.00    -0.209 C  
HETATM    9  C   UNL     1     -10.329   9.371  68.745  1.00  0.00    -0.230 A  
HETATM   10  C   UNL     1     -10.067  10.518  67.930  1.00  0.00    -0.204 A  
ENDBRANCH   1   2
BRANCH   1  11
HETATM   11  C   UNL     1     -11.476  14.443  65.848  1.00  0.00    -0.341 C  
HETATM   12  O   UNL     1     -10.998  15.069  64.908  1.00  0.00    -0.388 OA 
BRANCH  11  13
HETATM   13  O   UNL     1     -12.678  13.792  65.783  1.00  0.00    -0.490 OA 
HETATM   14  C   UNL     1     -12.798  12.922  64.654  1.00  0.00    -0.246 C  
ENDBRANCH  11  13
ENDBRANCH   1  11
BRANCH   1  15
HETATM   15  C   UNL     1      -9.946  15.376  67.725  1.00  0.00    -0.225 A  
HETATM   16  C   UNL     1      -9.818  17.701  68.522  1.00  0.00    -0.346 A  
HETATM   17  C   UNL     1      -7.797  16.441  68.223  1.00  0.00    -0.168 A  
HETATM   18  C   UNL     1      -8.435  17.625  68.585  1.00  0.00    -0.266 A  
HETATM   19  C   UNL     1     -10.558  16.596  68.095  1.00  0.00    -0.336 A  
HETATM   20  C   UNL     1      -8.540  15.327  67.798  1.00  0.00    -0.158 A  
HETATM   21 CL   UNL     1      -7.638  13.908  67.389  1.00  0.00    -0.184 Cl 
ENDBRANCH   1  15
TORSDOF 4
ENDMDL
MODEL      181
REMARK 921   NORMALIZED FREE ENERGY PREDICTED BY IDOCK:   -2.90 KCAL/MOL
REMARK 922        TOTAL FREE ENERGY PREDICTED BY IDOCK:   -4.10 KCAL/MOL
REMARK 923 INTER-LIGAND FREE ENERGY PREDICTED BY IDOCK:   -4.29 KCAL/MOL
REMARK 924 INTRA-LIGAND FREE ENERGY PREDICTED BY IDOCK:    0.18 KCAL/MOL
REMARK 927      BINDING AFFINITY PREDICTED BY RF-SCORE:    0.00 PKD
ROOT
HETATM    1  C   UNL     1      -9.719  12.951  66.548  1.00  0.00    -0.257 C  
ENDROOT
BRANCH   1   2
HETATM    2  N   UNL     1      -9.248  14.227  67.188  1.00  0.00    -0.213 NA 
HETATM    3  S   UNL     1      -6.879  17.763  68.703  1.00  0.00    -0.251 SA 
HETATM    4  C   UNL     1      -7.750  16.483  68.009  1.00  0.00    -0.159 A  
HETATM    5  C   UNL     1      -6.064  16.691  69.760  1.00  0.00    -0.221 A  
HETATM    6  C   UNL     1      -8.732  16.671  66.906  1.00  0.00    -0.241 C  
HETATM    7  C   UNL     1      -8.986  15.313  66.216  1.00  0.00    -0.279 C  
HETATM    8  C   UNL     1      -8.071  13.973  68.061  1.00  0.00    -0.152 C  
HETATM    9  C   UNL     1      -6.471  15.384  69.588  1.00  0.00    -0.171 A  
HETATM   10  C   UNL     1      -7.463  15.255  68.565  1.00  0.00    -0.121 A  
ENDBRANCH   1   2
BRANCH   1  11
HETATM   11  C   UNL     1     -11.166  13.080  65.989  1.00  0.00    -0.292 C  
HETATM   12  O   UNL     1     -11.799  12.194  65.427  1.00  0.00    -0.375 OA 
BRANCH  11  13
HETATM   13  O   UNL     1     -11.695  14.306  66.291  1.00  0.00    -0.367 OA 
HETATM   14  C   UNL     1     -12.388  14.337  67.542  1.00  0.00    -0.049 C  
ENDBRANCH  11  13
ENDBRANCH   1  11
BRANCH   1  15
HETATM   15  C   UNL     1      -9.508  11.718  67.449  1.00  0.00    -0.174 A  
HETATM   16  C   UNL     1     -10.036  10.461  69.497  1.00  0.00    -0.229 A  
HETATM   17  C   UNL     1      -8.344   9.636  68.007  1.00  0.00    -0.117 A  
HETATM   18  C   UNL     1      -9.087   9.503  69.178  1.00  0.00    -0.152 A  
HETATM   19  C   UNL     1     -10.238  11.551  68.647  1.00  0.00    -0.217 A  
HETATM   20  C   UNL     1      -8.549  10.729  67.149  1.00  0.00    -0.128 A  
HETATM   21 CL   UNL     1      -7.578  10.780  65.718  1.00  0.00    -0.121 Cl 
ENDBRANCH   1  15
TORSDOF 4
ENDMDL
MODEL      182
REMARK 921   NORMALIZED FREE ENERGY PREDICTED BY IDOCK:   -2.86 KCAL/MOL
REMARK 922        TOTAL FREE ENERGY PREDICTED BY IDOCK:   -4.06 KCAL/MOL
REMARK 923 INTER-LIGAND FREE ENERGY PREDICTED BY IDOCK:   -3.79 KCAL/MOL
REMARK 924 INTRA-LIGAND FREE ENERGY PREDICTED BY IDOCK:   -0.27 KCAL/MOL
REMARK 927      BINDING AFFINITY PREDICTED BY RF-SCORE:    0.00 PKD
ROOT
HETATM    1  C   UNL     1      -9.479   6.581  69.691  1.00  0.00    -0.145 C  
ENDROOT
BRANCH   1   2
HETATM    2  N   UNL     1      -9.224   5.400  68.798  1.00  0.00    -0.120 NA 
HETATM    3  S   UNL     1      -7.558   1.762  66.701  1.00  0.00    -0.066 SA 
HETATM    4  C   UNL     1      -8.203   3.050  67.597  1.00  0.00    -0.080 A  
HETATM    5  C   UNL     1      -6.312   2.759  66.082  1.00  0.00    -0.028 A  
HETATM    6  C   UNL     1      -9.396   2.913  68.476  1.00  0.00    -0.249 C  
HETATM    7  C   UNL     1      -9.435   4.097  69.467  1.00  0.00    -0.184 C  
HETATM    8  C   UNL     1      -7.874   5.491  68.181  1.00  0.00    -0.092 C  
HETATM    9  C   UNL     1      -6.407   4.055  66.546  1.00  0.00    -0.036 A  
HETATM   10  C   UNL     1      -7.516   4.235  67.432  1.00  0.00    -0.073 A  
ENDBRANCH   1   2
BRANCH   1  11
HETATM   11  C   UNL     1     -10.683   6.338  70.649  1.00  0.00    -0.264 C  
HETATM   12  O   UNL     1     -11.861   6.279  70.319  1.00  0.00    -0.344 OA 
BRANCH  11  13
HETATM   13  O   UNL     1     -10.246   6.098  71.924  1.00  0.00    -0.195 OA 
HETATM   14  C   UNL     1     -11.063   5.169  72.643  1.00  0.00    -0.234 C  
ENDBRANCH  11  13
ENDBRANCH   1  11
BRANCH   1  15
HETATM   15  C   UNL     1      -9.562   7.911  68.916  1.00  0.00    -0.155 A  
HETATM   16  C   UNL     1      -9.015  10.302  68.724  1.00  0.00    -0.155 A  
HETATM   17  C   UNL     1     -10.410   9.272  67.064  1.00  0.00    -0.325 A  
HETATM   18  C   UNL     1      -9.761  10.401  67.561  1.00  0.00    -0.195 A  
HETATM   19  C   UNL     1      -8.922   9.078  69.391  1.00  0.00    -0.145 A  
HETATM   20  C   UNL     1     -10.314   8.040  67.731  1.00  0.00    -0.231 A  
HETATM   21 CL   UNL     1     -11.150   6.706  67.012  1.00  0.00    -0.473 Cl 
ENDBRANCH   1  15
TORSDOF 4
ENDMDL
MODEL      183
REMARK 921   NORMALIZED FREE ENERGY PREDICTED BY IDOCK:   -2.77 KCAL/MOL
REMARK 922        TOTAL FREE ENERGY PREDICTED BY IDOCK:   -3.95 KCAL/MOL
REMARK 923 INTER-LIGAND FREE ENERGY PREDICTED BY IDOCK:   -3.62 KCAL/MOL
REMARK 924 INTRA-LIGAND FREE ENERGY PREDICTED BY IDOCK:   -0.33 KCAL/MOL
REMARK 927      BINDING AFFINITY PREDICTED BY RF-SCORE:    0.00 PKD
ROOT
HETATM    1  C   UNL     1      -9.013   5.634  68.902  1.00  0.00    -0.111 C  
ENDROOT
BRANCH   1   2
HETATM    2  N   UNL     1      -8.513   6.937  68.345  1.00  0.00    -0.123 NA 
HETATM    3  S   UNL     1      -6.146  10.632  67.273  1.00  0.00    -0.057 SA 
HETATM    4  C   UNL     1      -6.943   9.173  67.607  1.00  0.00    -0.078 A  
HETATM    5  C   UNL     1      -6.363  11.170  68.884  1.00  0.00    -0.050 A  
HETATM    6  C   UNL     1      -7.135   8.100  66.593  1.00  0.00    -0.077 C  
HETATM    7  C   UNL     1      -7.463   6.774  67.314  1.00  0.00    -0.096 C  
HETATM    8  C   UNL     1      -8.074   7.843  69.440  1.00  0.00    -0.125 C  
HETATM    9  C   UNL     1      -7.049  10.249  69.649  1.00  0.00    -0.125 A  
HETATM   10  C   UNL     1      -7.395   9.076  68.906  1.00  0.00    -0.074 A  
ENDBRANCH   1   2
BRANCH   1  11
HETATM   11  C   UNL     1      -9.478   4.661  67.780  1.00  0.00    -0.152 C  
HETATM   12  O   UNL     1      -9.379   3.440  67.804  1.00  0.00    -0.175 OA 
BRANCH  11  13
HETATM   13  O   UNL     1     -10.112   5.344  66.778  1.00  0.00    -0.168 OA 
HETATM   14  C   UNL     1     -10.521   4.513  65.688  1.00  0.00    -0.229 C  
ENDBRANCH  11  13
ENDBRANCH   1  11
BRANCH   1  15
HETATM   15  C   UNL     1     -10.048   5.824  70.029  1.00  0.00    -0.279 A  
HETATM   16  C   UNL     1     -12.192   6.737  70.820  1.00  0.00    -0.353 A  
HETATM   17  C   UNL     1     -10.758   5.584  72.361  1.00  0.00    -0.286 A  
HETATM   18  C   UNL     1     -11.942   6.270  72.100  1.00  0.00    -0.338 A  
HETATM   19  C   UNL     1     -11.258   6.520  69.804  1.00  0.00    -0.456 A  
HETATM   20  C   UNL     1      -9.819   5.361  71.340  1.00  0.00    -0.167 A  
HETATM   21 CL   UNL     1      -8.393   4.485  71.780  1.00  0.00    -0.105 Cl 
ENDBRANCH   1  15
TORSDOF 4
ENDMDL
MODEL      184
REMARK 921   NORMALIZED FREE ENERGY PREDICTED BY IDOCK:   -2.76 KCAL/MOL
REMARK 922        TOTAL FREE ENERGY PREDICTED BY IDOCK:   -3.93 KCAL/MOL
REMARK 923 INTER-LIGAND FREE ENERGY PREDICTED BY IDOCK:   -5.64 KCAL/MOL
REMARK 924 INTRA-LIGAND FREE ENERGY PREDICTED BY IDOCK:    1.71 KCAL/MOL
REMARK 927      BINDING AFFINITY PREDICTED BY RF-SCORE:    0.00 PKD
ROOT
HETATM    1  C   UNL     1     -10.761   9.612  68.543  1.00  0.00    -0.200 C  
ENDROOT
BRANCH   1   2
HETATM    2  N   UNL     1     -11.426  10.903  68.930  1.00  0.00    -0.276 NA 
HETATM    3  S   UNL     1     -12.727  14.748  70.912  1.00  0.00    -0.366 SA 
HETATM    4  C   UNL     1     -12.122  13.365  70.137  1.00  0.00    -0.344 A  
HETATM    5  C   UNL     1     -13.341  13.807  72.204  1.00  0.00    -0.476 A  
HETATM    6  C   UNL     1     -11.378  13.415  68.848  1.00  0.00    -0.331 C  
HETATM    7  C   UNL     1     -10.592  12.098  68.665  1.00  0.00    -0.223 C  
HETATM    8  C   UNL     1     -11.887  10.854  70.342  1.00  0.00    -0.357 C  
HETATM    9  C   UNL     1     -13.098  12.461  72.026  1.00  0.00    -0.470 A  
HETATM   10  C   UNL     1     -12.385  12.194  70.814  1.00  0.00    -0.391 A  
ENDBRANCH   1   2
BRANCH   1  11
HETATM   11  C   UNL     1     -10.242   8.828  69.784  1.00  0.00    -0.202 C  
HETATM   12  O   UNL     1      -9.566   9.293  70.695  1.00  0.00    -0.234 OA 
BRANCH  11  13
HETATM   13  O   UNL     1     -10.724   7.547  69.784  1.00  0.00    -0.241 OA 
HETATM   14  C   UNL     1      -9.946   6.644  70.575  1.00  0.00    -0.179 C  
ENDBRANCH  11  13
ENDBRANCH   1  11
BRANCH   1  15
HETATM   15  C   UNL     1      -9.703   9.793  67.437  1.00  0.00    -0.202 A  
HETATM   16  C   UNL     1      -9.059   9.674  65.064  1.00  0.00    -0.284 A  
HETATM   17  C   UNL     1      -7.413  10.270  66.707  1.00  0.00    -0.107 A  
HETATM   18  C   UNL     1      -7.758  10.031  65.378  1.00  0.00    -0.137 A  
HETATM   19  C   UNL     1     -10.013   9.554  66.078  1.00  0.00    -0.348 A  
HETATM   20  C   UNL     1      -8.372  10.154  67.727  1.00  0.00    -0.114 A  
HETATM   21 CL   UNL     1      -7.830  10.489  69.336  1.00  0.00    -0.155 Cl 
ENDBRANCH   1  15
TORSDOF 4
ENDMDL
MODEL      185
REMARK 921   NORMALIZED FREE ENERGY PREDICTED BY IDOCK:   -2.68 KCAL/MOL
REMARK 922        TOTAL FREE ENERGY PREDICTED BY IDOCK:   -3.83 KCAL/MOL
REMARK 923 INTER-LIGAND FREE ENERGY PREDICTED BY IDOCK:   -3.89 KCAL/MOL
REMARK 924 INTRA-LIGAND FREE ENERGY PREDICTED BY IDOCK:    0.05 KCAL/MOL
REMARK 927      BINDING AFFINITY PREDICTED BY RF-SCORE:    0.00 PKD
ROOT
HETATM    1  C   UNL     1      -8.854   9.234  69.672  1.00  0.00    -0.155 C  
ENDROOT
BRANCH   1   2
HETATM    2  N   UNL     1      -9.464  10.564  69.334  1.00  0.00    -0.179 NA 
HETATM    3  S   UNL     1     -11.105  14.251  67.303  1.00  0.00    -0.317 SA 
HETATM    4  C   UNL     1     -10.593  12.798  68.014  1.00  0.00    -0.226 A  
HETATM    5  C   UNL     1      -9.505  14.634  66.831  1.00  0.00    -0.246 A  
HETATM    6  C   UNL     1     -11.526  11.840  68.668  1.00  0.00    -0.346 C  
HETATM    7  C   UNL     1     -10.837  10.463  68.788  1.00  0.00    -0.232 C  
HETATM    8  C   UNL     1      -8.568  11.339  68.434  1.00  0.00    -0.155 C  
HETATM    9  C   UNL     1      -8.602  13.670  67.230  1.00  0.00    -0.220 A  
HETATM   10  C   UNL     1      -9.233  12.591  67.928  1.00  0.00    -0.200 A  
ENDBRANCH   1   2
BRANCH   1  11
HETATM   11  C   UNL     1      -8.004   9.296  70.975  1.00  0.00    -0.069 C  
HETATM   12  O   UNL     1      -6.855   9.711  71.062  1.00  0.00    -0.253 OA 
BRANCH  11  13
HETATM   13  O   UNL     1      -8.748   8.908  72.057  1.00  0.00    -0.365 OA 
HETATM   14  C   UNL     1      -9.592   7.783  71.797  1.00  0.00    -0.163 C  
ENDBRANCH  11  13
ENDBRANCH   1  11
BRANCH   1  15
HETATM   15  C   UNL     1      -8.116   8.594  68.479  1.00  0.00    -0.117 A  
HETATM   16  C   UNL     1      -6.104   8.397  67.076  1.00  0.00    -0.055 A  
HETATM   17  C   UNL     1      -8.070   7.144  66.505  1.00  0.00    -0.114 A  
HETATM   18  C   UNL     1      -6.750   7.501  66.239  1.00  0.00    -0.057 A  
HETATM   19  C   UNL     1      -6.779   8.936  68.175  1.00  0.00    -0.065 A  
HETATM   20  C   UNL     1      -8.749   7.681  67.611  1.00  0.00    -0.122 A  
HETATM   21 CL   UNL     1     -10.379   7.152  67.848  1.00  0.00    -0.229 Cl 
ENDBRANCH   1  15
TORSDOF 4
ENDMDL
MODEL      186
REMARK 921   NORMALIZED FREE ENERGY PREDICTED BY IDOCK:   -2.62 KCAL/MOL
REMARK 922        TOTAL FREE ENERGY PREDICTED BY IDOCK:   -3.76 KCAL/MOL
REMARK 923 INTER-LIGAND FREE ENERGY PREDICTED BY IDOCK:   -3.46 KCAL/MOL
REMARK 924 INTRA-LIGAND FREE ENERGY PREDICTED BY IDOCK:   -0.30 KCAL/MOL
REMARK 927      BINDING AFFINITY PREDICTED BY RF-SCORE:    0.00 PKD
ROOT
HETATM    1  C   UNL     1      -8.070   7.032  67.983  1.00  0.00    -0.119 C  
ENDROOT
BRANCH   1   2
HETATM    2  N   UNL     1      -9.296   7.838  68.304  1.00  0.00    -0.143 NA 
HETATM    3  S   UNL     1     -12.345  10.694  70.024  1.00  0.00    -0.205 SA 
HETATM    4  C   UNL     1     -11.133   9.730  69.332  1.00  0.00    -0.170 A  
HETATM    5  C   UNL     1     -12.346   9.745  71.449  1.00  0.00    -0.388 A  
HETATM    6  C   UNL     1     -10.559   9.988  67.982  1.00  0.00    -0.280 C  
HETATM    7  C   UNL     1      -9.210   9.246  67.854  1.00  0.00    -0.129 C  
HETATM    8  C   UNL     1      -9.625   7.740  69.751  1.00  0.00    -0.167 C  
HETATM    9  C   UNL     1     -11.445   8.702  71.378  1.00  0.00    -0.352 A  
HETATM   10  C   UNL     1     -10.732   8.685  70.137  1.00  0.00    -0.244 A  
ENDBRANCH   1   2
BRANCH   1  11
HETATM   11  C   UNL     1      -7.591   7.257  66.519  1.00  0.00    -0.092 C  
HETATM   12  O   UNL     1      -8.242   7.023  65.507  1.00  0.00    -0.126 OA 
BRANCH  11  13
HETATM   13  O   UNL     1      -6.357   7.850  66.498  1.00  0.00    -0.048 OA 
HETATM   14  C   UNL     1      -6.195   8.796  65.438  1.00  0.00    -0.059 C  
ENDBRANCH  11  13
ENDBRANCH   1  11
BRANCH   1  15
HETATM   15  C   UNL     1      -8.215   5.545  68.367  1.00  0.00    -0.099 A  
HETATM   16  C   UNL     1      -7.283   3.507  69.382  1.00  0.00    -0.049 A  
HETATM   17  C   UNL     1      -9.439   3.423  68.330  1.00  0.00    -0.210 A  
HETATM   18  C   UNL     1      -8.408   2.785  69.016  1.00  0.00    -0.085 A  
HETATM   19  C   UNL     1      -7.189   4.863  69.058  1.00  0.00    -0.053 A  
HETATM   20  C   UNL     1      -9.347   4.787  68.007  1.00  0.00    -0.133 A  
HETATM   21 CL   UNL     1     -10.695   5.473  67.166  1.00  0.00    -0.304 Cl 
ENDBRANCH   1  15
TORSDOF 4
ENDMDL
MODEL      187
REMARK 921   NORMALIZED FREE ENERGY PREDICTED BY IDOCK:   -2.50 KCAL/MOL
REMARK 922        TOTAL FREE ENERGY PREDICTED BY IDOCK:   -3.61 KCAL/MOL
REMARK 923 INTER-LIGAND FREE ENERGY PREDICTED BY IDOCK:   -4.16 KCAL/MOL
REMARK 924 INTRA-LIGAND FREE ENERGY PREDICTED BY IDOCK:    0.55 KCAL/MOL
REMARK 927      BINDING AFFINITY PREDICTED BY RF-SCORE:    0.00 PKD
ROOT
HETATM    1  C   UNL     1      -7.047  15.217  68.572  1.00  0.00    -0.110 C  
ENDROOT
BRANCH   1   2
HETATM    2  N   UNL     1      -7.668  13.850  68.545  1.00  0.00    -0.135 NA 
HETATM    3  S   UNL     1      -9.948  10.084  67.531  1.00  0.00    -0.201 SA 
HETATM    4  C   UNL     1      -9.010  11.470  67.808  1.00  0.00    -0.160 A  
HETATM    5  C   UNL     1     -11.397  10.961  67.783  1.00  0.00    -0.292 A  
HETATM    6  C   UNL     1      -7.523  11.475  67.732  1.00  0.00    -0.101 C  
HETATM    7  C   UNL     1      -7.028  12.930  67.577  1.00  0.00    -0.149 C  
HETATM    8  C   UNL     1      -9.136  13.944  68.329  1.00  0.00    -0.191 C  
HETATM    9  C   UNL     1     -11.154  12.284  68.090  1.00  0.00    -0.285 A  
HETATM   10  C   UNL     1      -9.756  12.590  68.109  1.00  0.00    -0.222 A  
ENDBRANCH   1   2
BRANCH   1  11
HETATM   11  C   UNL     1      -6.396  15.535  69.950  1.00  0.00    -0.151 C  
HETATM   12  O   UNL     1      -6.095  16.649  70.361  1.00  0.00    -0.072 OA 
BRANCH  11  13
HETATM   13  O   UNL     1      -6.281  14.399  70.705  1.00  0.00    -0.198 OA 
HETATM   14  C   UNL     1      -5.164  14.415  71.597  1.00  0.00    -0.170 C  
ENDBRANCH  11  13
ENDBRANCH   1  11
BRANCH   1  15
HETATM   15  C   UNL     1      -8.002  16.318  68.068  1.00  0.00    -0.151 A  
HETATM   16  C   UNL     1     -10.209  17.406  68.111  1.00  0.00    -0.350 A  
HETATM   17  C   UNL     1      -8.538  18.182  66.572  1.00  0.00    -0.282 A  
HETATM   18  C   UNL     1      -9.821  18.277  67.105  1.00  0.00    -0.329 A  
HETATM   19  C   UNL     1      -9.314  16.441  68.580  1.00  0.00    -0.225 A  
HETATM   20  C   UNL     1      -7.635  17.216  67.046  1.00  0.00    -0.190 A  
HETATM   21 CL   UNL     1      -6.065  17.204  66.319  1.00  0.00    -0.197 Cl 
ENDBRANCH   1  15
TORSDOF 4
ENDMDL
MODEL      188
REMARK 921   NORMALIZED FREE ENERGY PREDICTED BY IDOCK:   -2.48 KCAL/MOL
REMARK 922        TOTAL FREE ENERGY PREDICTED BY IDOCK:   -3.59 KCAL/MOL
REMARK 923 INTER-LIGAND FREE ENERGY PREDICTED BY IDOCK:   -4.90 KCAL/MOL
REMARK 924 INTRA-LIGAND FREE ENERGY PREDICTED BY IDOCK:    1.32 KCAL/MOL
REMARK 927      BINDING AFFINITY PREDICTED BY RF-SCORE:    0.00 PKD
ROOT
HETATM    1  C   UNL     1      -8.858  17.610  68.688  1.00  0.00    -0.259 C  
ENDROOT
BRANCH   1   2
HETATM    2  N   UNL     1      -8.489  16.165  68.868  1.00  0.00    -0.229 NA 
HETATM    3  S   UNL     1      -6.971  11.934  68.420  1.00  0.00    -0.085 SA 
HETATM    4  C   UNL     1      -7.412  13.563  68.592  1.00  0.00    -0.108 A  
HETATM    5  C   UNL     1      -8.173  11.689  67.227  1.00  0.00    -0.159 A  
HETATM    6  C   UNL     1      -6.726  14.498  69.526  1.00  0.00    -0.151 C  
HETATM    7  C   UNL     1      -7.044  15.952  69.113  1.00  0.00    -0.185 C  
HETATM    8  C   UNL     1      -8.981  15.350  67.726  1.00  0.00    -0.173 C  
HETATM    9  C   UNL     1      -8.904  12.834  66.986  1.00  0.00    -0.213 A  
HETATM   10  C   UNL     1      -8.465  13.937  67.785  1.00  0.00    -0.183 A  
ENDBRANCH   1   2
BRANCH   1  11
HETATM   11  C   UNL     1     -10.031  17.791  67.680  1.00  0.00    -0.322 C  
HETATM   12  O   UNL     1     -11.122  17.236  67.741  1.00  0.00    -0.257 OA 
BRANCH  11  13
HETATM   13  O   UNL     1      -9.722  18.739  66.742  1.00  0.00    -0.301 OA 
HETATM   14  C   UNL     1     -10.724  19.750  66.599  1.00  0.00    -0.404 C  
ENDBRANCH  11  13
ENDBRANCH   1  11
BRANCH   1  15
HETATM   15  C   UNL     1      -7.640  18.506  68.390  1.00  0.00    -0.312 A  
HETATM   16  C   UNL     1      -6.158  20.366  69.022  1.00  0.00    -0.376 A  
HETATM   17  C   UNL     1      -5.825  19.251  66.922  1.00  0.00    -0.167 A  
HETATM   18  C   UNL     1      -5.452  20.234  67.836  1.00  0.00    -0.224 A  
HETATM   19  C   UNL     1      -7.235  19.518  69.290  1.00  0.00    -0.346 A  
HETATM   20  C   UNL     1      -6.905  18.394  67.193  1.00  0.00    -0.194 A  
HETATM   21 CL   UNL     1      -7.265  17.203  65.990  1.00  0.00    -0.255 Cl 
ENDBRANCH   1  15
TORSDOF 4
ENDMDL
MODEL      189
REMARK 921   NORMALIZED FREE ENERGY PREDICTED BY IDOCK:   -2.43 KCAL/MOL
REMARK 922        TOTAL FREE ENERGY PREDICTED BY IDOCK:   -3.53 KCAL/MOL
REMARK 923 INTER-LIGAND FREE ENERGY PREDICTED BY IDOCK:   -3.92 KCAL/MOL
REMARK 924 INTRA-LIGAND FREE ENERGY PREDICTED BY IDOCK:    0.39 KCAL/MOL
REMARK 927      BINDING AFFINITY PREDICTED BY RF-SCORE:    0.00 PKD
ROOT
HETATM    1  C   UNL     1      -8.164   9.518  67.982  1.00  0.00    -0.114 C  
ENDROOT
BRANCH   1   2
HETATM    2  N   UNL     1      -9.163  10.497  67.432  1.00  0.00    -0.142 NA 
HETATM    3  S   UNL     1     -11.311  13.809  65.237  1.00  0.00    -0.315 SA 
HETATM    4  C   UNL     1     -10.490  12.503  65.942  1.00  0.00    -0.265 A  
HETATM    5  C   UNL     1     -10.420  14.931  66.173  1.00  0.00    -0.306 A  
HETATM    6  C   UNL     1     -10.747  11.085  65.570  1.00  0.00    -0.218 C  
HETATM    7  C   UNL     1      -9.556  10.216  66.033  1.00  0.00    -0.210 C  
HETATM    8  C   UNL     1      -8.677  11.892  67.599  1.00  0.00    -0.162 C  
HETATM    9  C   UNL     1      -9.527  14.306  67.019  1.00  0.00    -0.259 A  
HETATM   10  C   UNL     1      -9.564  12.881  66.891  1.00  0.00    -0.240 A  
ENDBRANCH   1   2
BRANCH   1  11
HETATM   11  C   UNL     1      -8.031   8.255  67.082  1.00  0.00    -0.105 C  
HETATM   12  O   UNL     1      -8.553   7.166  67.292  1.00  0.00    -0.120 OA 
BRANCH  11  13
HETATM   13  O   UNL     1      -7.317   8.540  65.949  1.00  0.00    -0.075 OA 
HETATM   14  C   UNL     1      -6.150   7.728  65.788  1.00  0.00    -0.038 C  
ENDBRANCH  11  13
ENDBRANCH   1  11
BRANCH   1  15
HETATM   15  C   UNL     1      -8.399   9.198  69.471  1.00  0.00    -0.126 A  
HETATM   16  C   UNL     1      -7.529   8.486  71.660  1.00  0.00    -0.128 A  
HETATM   17  C   UNL     1      -9.882   8.880  71.396  1.00  0.00    -0.376 A  
HETATM   18  C   UNL     1      -8.804   8.516  72.200  1.00  0.00    -0.286 A  
HETATM   19  C   UNL     1      -7.332   8.818  70.317  1.00  0.00    -0.058 A  
HETATM   20  C   UNL     1      -9.685   9.219  70.046  1.00  0.00    -0.207 A  
HETATM   21 CL   UNL     1     -11.096   9.669  69.151  1.00  0.00    -0.173 Cl 
ENDBRANCH   1  15
TORSDOF 4
ENDMDL
MODEL      190
REMARK 921   NORMALIZED FREE ENERGY PREDICTED BY IDOCK:   -2.37 KCAL/MOL
REMARK 922        TOTAL FREE ENERGY PREDICTED BY IDOCK:   -3.46 KCAL/MOL
REMARK 923 INTER-LIGAND FREE ENERGY PREDICTED BY IDOCK:   -3.45 KCAL/MOL
REMARK 924 INTRA-LIGAND FREE ENERGY PREDICTED BY IDOCK:   -0.01 KCAL/MOL
REMARK 927      BINDING AFFINITY PREDICTED BY RF-SCORE:    0.00 PKD
ROOT
HETATM    1  C   UNL     1      -8.150  11.222  68.478  1.00  0.00    -0.148 C  
ENDROOT
BRANCH   1   2
HETATM    2  N   UNL     1      -8.888  12.520  68.640  1.00  0.00    -0.030 NA 
HETATM    3  S   UNL     1     -11.157  16.382  68.053  1.00  0.00    -0.237 SA 
HETATM    4  C   UNL     1     -10.415  14.866  68.231  1.00  0.00    -0.239 A  
HETATM    5  C   UNL     1      -9.744  17.039  67.344  1.00  0.00    -0.252 A  
HETATM    6  C   UNL     1     -11.110  13.684  68.811  1.00  0.00    -0.302 C  
HETATM    7  C   UNL     1     -10.346  12.402  68.413  1.00  0.00    -0.229 C  
HETATM    8  C   UNL     1      -8.281  13.579  67.791  1.00  0.00    -0.176 C  
HETATM    9  C   UNL     1      -8.725  16.112  67.266  1.00  0.00    -0.202 A  
HETATM   10  C   UNL     1      -9.110  14.836  67.788  1.00  0.00    -0.186 A  
ENDBRANCH   1   2
BRANCH   1  11
HETATM   11  C   UNL     1      -6.618  11.390  68.700  1.00  0.00    -0.062 C  
HETATM   12  O   UNL     1      -5.787  11.619  67.829  1.00  0.00    -0.045 OA 
BRANCH  11  13
HETATM   13  O   UNL     1      -6.314  11.344  70.035  1.00  0.00    -0.139 OA 
HETATM   14  C   UNL     1      -5.601  12.494  70.499  1.00  0.00    -0.172 C  
ENDBRANCH  11  13
ENDBRANCH   1  11
BRANCH   1  15
HETATM   15  C   UNL     1      -8.510  10.488  67.171  1.00  0.00    -0.127 A  
HETATM   16  C   UNL     1      -8.637  10.452  64.714  1.00  0.00    -0.190 A  
HETATM   17  C   UNL     1      -9.486   8.590  65.968  1.00  0.00    -0.256 A  
HETATM   18  C   UNL     1      -9.241   9.205  64.742  1.00  0.00    -0.085 A  
HETATM   19  C   UNL     1      -8.282  11.083  65.909  1.00  0.00    -0.100 A  
HETATM   20  C   UNL     1      -9.126   9.221  67.170  1.00  0.00    -0.130 A  
HETATM   21 CL   UNL     1      -9.468   8.353  68.628  1.00  0.00    -0.146 Cl 
ENDBRANCH   1  15
TORSDOF 4
ENDMDL
MODEL      191
REMARK 921   NORMALIZED FREE ENERGY PREDICTED BY IDOCK:   -2.30 KCAL/MOL
REMARK 922        TOTAL FREE ENERGY PREDICTED BY IDOCK:   -3.36 KCAL/MOL
REMARK 923 INTER-LIGAND FREE ENERGY PREDICTED BY IDOCK:   -3.48 KCAL/MOL
REMARK 924 INTRA-LIGAND FREE ENERGY PREDICTED BY IDOCK:    0.11 KCAL/MOL
REMARK 927      BINDING AFFINITY PREDICTED BY RF-SCORE:    0.00 PKD
ROOT
HETATM    1  C   UNL     1      -8.220   5.485  68.258  1.00  0.00    -0.095 C  
ENDROOT
BRANCH   1   2
HETATM    2  N   UNL     1      -7.864   6.649  67.378  1.00  0.00    -0.111 NA 
HETATM    3  S   UNL     1      -6.125  10.392  65.542  1.00  0.00    -0.124 SA 
HETATM    4  C   UNL     1      -6.657   8.929  66.215  1.00  0.00    -0.066 A  
HETATM    5  C   UNL     1      -6.929  11.293  66.755  1.00  0.00    -0.141 A  
HETATM    6  C   UNL     1      -6.299   7.598  65.654  1.00  0.00    -0.042 C  
HETATM    7  C   UNL     1      -6.541   6.513  66.726  1.00  0.00    -0.048 C  
HETATM    8  C   UNL     1      -7.981   7.929  68.126  1.00  0.00    -0.125 C  
HETATM    9  C   UNL     1      -7.603  10.480  67.643  1.00  0.00    -0.093 A  
HETATM   10  C   UNL     1      -7.451   9.092  67.331  1.00  0.00    -0.085 A  
ENDBRANCH   1   2
BRANCH   1  11
HETATM   11  C   UNL     1      -8.510   4.197  67.432  1.00  0.00    -0.099 C  
HETATM   12  O   UNL     1      -8.825   3.106  67.892  1.00  0.00    -0.106 OA 
BRANCH  11  13
HETATM   13  O   UNL     1      -8.459   4.461  66.090  1.00  0.00    -0.112 OA 
HETATM   14  C   UNL     1      -9.298   3.606  65.307  1.00  0.00    -0.158 C  
ENDBRANCH  11  13
ENDBRANCH   1  11
BRANCH   1  15
HETATM   15  C   UNL     1      -9.320   5.826  69.283  1.00  0.00    -0.148 A  
HETATM   16  C   UNL     1     -10.076   5.999  71.618  1.00  0.00    -0.227 A  
HETATM   17  C   UNL     1     -11.621   6.459  69.840  1.00  0.00    -0.422 A  
HETATM   18  C   UNL     1     -11.347   6.361  71.202  1.00  0.00    -0.376 A  
HETATM   19  C   UNL     1      -9.083   5.732  70.673  1.00  0.00    -0.164 A  
HETATM   20  C   UNL     1     -10.622   6.196  68.888  1.00  0.00    -0.276 A  
HETATM   21 CL   UNL     1     -11.075   6.364  67.226  1.00  0.00    -0.456 Cl 
ENDBRANCH   1  15
TORSDOF 4
ENDMDL
MODEL      192
REMARK 921   NORMALIZED FREE ENERGY PREDICTED BY IDOCK:   -2.30 KCAL/MOL
REMARK 922        TOTAL FREE ENERGY PREDICTED BY IDOCK:   -3.36 KCAL/MOL
REMARK 923 INTER-LIGAND FREE ENERGY PREDICTED BY IDOCK:   -3.30 KCAL/MOL
REMARK 924 INTRA-LIGAND FREE ENERGY PREDICTED BY IDOCK:   -0.06 KCAL/MOL
REMARK 927      BINDING AFFINITY PREDICTED BY RF-SCORE:    0.00 PKD
ROOT
HETATM    1  C   UNL     1      -8.500  11.140  66.914  1.00  0.00    -0.147 C  
ENDROOT
BRANCH   1   2
HETATM    2  N   UNL     1      -9.158  12.400  67.401  1.00  0.00    -0.176 NA 
HETATM    3  S   UNL     1     -11.551  16.203  67.869  1.00  0.00     0.135 SA 
HETATM    4  C   UNL     1     -10.770  14.708  67.687  1.00  0.00    -0.271 A  
HETATM    5  C   UNL     1     -10.478  16.948  66.764  1.00  0.00    -0.260 A  
HETATM    6  C   UNL     1     -11.205  13.472  68.393  1.00  0.00    -0.309 C  
HETATM    7  C   UNL     1     -10.604  12.241  67.678  1.00  0.00    -0.215 C  
HETATM    8  C   UNL     1      -8.897  13.525  66.464  1.00  0.00     0.027 C  
HETATM    9  C   UNL     1      -9.533  16.064  66.284  1.00  0.00    -0.347 A  
HETATM   10  C   UNL     1      -9.696  14.749  66.824  1.00  0.00    -0.264 A  
ENDBRANCH   1   2
BRANCH   1  11
HETATM   11  C   UNL     1      -9.523  10.162  66.265  1.00  0.00    -0.180 C  
HETATM   12  O   UNL     1      -9.816  10.116  65.076  1.00  0.00    -0.296 OA 
BRANCH  11  13
HETATM   13  O   UNL     1      -9.998   9.272  67.191  1.00  0.00    -0.186 OA 
HETATM   14  C   UNL     1      -9.893   7.907  66.778  1.00  0.00    -0.248 C  
ENDBRANCH  11  13
ENDBRANCH   1  11
BRANCH   1  15
HETATM   15  C   UNL     1      -7.605  10.483  67.983  1.00  0.00    -0.091 A  
HETATM   16  C   UNL     1      -7.285   9.653  70.278  1.00  0.00    -0.137 A  
HETATM   17  C   UNL     1      -5.444   9.610  68.738  1.00  0.00    -0.036 A  
HETATM   18  C   UNL     1      -5.960   9.352  70.006  1.00  0.00    -0.036 A  
HETATM   19  C   UNL     1      -8.091  10.212  69.283  1.00  0.00    -0.149 A  
HETATM   20  C   UNL     1      -6.254  10.168  67.735  1.00  0.00    -0.057 A  
HETATM   21 CL   UNL     1      -5.506  10.429  66.197  1.00  0.00    -0.059 Cl 
ENDBRANCH   1  15
TORSDOF 4
ENDMDL
MODEL      193
REMARK 921   NORMALIZED FREE ENERGY PREDICTED BY IDOCK:   -2.26 KCAL/MOL
REMARK 922        TOTAL FREE ENERGY PREDICTED BY IDOCK:   -3.31 KCAL/MOL
REMARK 923 INTER-LIGAND FREE ENERGY PREDICTED BY IDOCK:   -3.05 KCAL/MOL
REMARK 924 INTRA-LIGAND FREE ENERGY PREDICTED BY IDOCK:   -0.26 KCAL/MOL
REMARK 927      BINDING AFFINITY PREDICTED BY RF-SCORE:    0.00 PKD
ROOT
HETATM    1  C   UNL     1      -8.637  10.203  68.868  1.00  0.00    -0.141 C  
ENDROOT
BRANCH   1   2
HETATM    2  N   UNL     1      -9.535  11.282  68.333  1.00  0.00    -0.186 NA 
HETATM    3  S   UNL     1     -11.698  15.142  67.424  1.00  0.00    -0.062 SA 
HETATM    4  C   UNL     1     -10.776  13.747  67.709  1.00  0.00    -0.246 A  
HETATM    5  C   UNL     1     -12.392  15.056  68.986  1.00  0.00    -0.021 A  
HETATM    6  C   UNL     1      -9.830  13.179  66.710  1.00  0.00    -0.251 C  
HETATM    7  C   UNL     1      -8.846  12.228  67.426  1.00  0.00    -0.185 C  
HETATM    8  C   UNL     1     -10.228  11.988  69.444  1.00  0.00     0.445 C  
HETATM    9  C   UNL     1     -11.933  13.966  69.697  1.00  0.00    -0.399 A  
HETATM   10  C   UNL     1     -10.986  13.192  68.953  1.00  0.00    -0.270 A  
ENDBRANCH   1   2
BRANCH   1  11
HETATM   11  C   UNL     1      -7.270  10.159  68.123  1.00  0.00    -0.081 C  
HETATM   12  O   UNL     1      -6.300  10.868  68.363  1.00  0.00    -0.052 OA 
BRANCH  11  13
HETATM   13  O   UNL     1      -7.251   9.144  67.205  1.00  0.00    -0.082 OA 
HETATM   14  C   UNL     1      -6.575   9.483  65.991  1.00  0.00    -0.077 C  
ENDBRANCH  11  13
ENDBRANCH   1  11
BRANCH   1  15
HETATM   15  C   UNL     1      -9.338   8.833  68.961  1.00  0.00    -0.145 A  
HETATM   16  C   UNL     1     -10.859   7.150  68.009  1.00  0.00    -0.193 A  
HETATM   17  C   UNL     1      -9.893   6.779  70.175  1.00  0.00    -0.187 A  
HETATM   18  C   UNL     1     -10.715   6.353  69.133  1.00  0.00    -0.339 A  
HETATM   19  C   UNL     1     -10.184   8.370  67.928  1.00  0.00    -0.273 A  
HETATM   20  C   UNL     1      -9.210   8.003  70.093  1.00  0.00    -0.152 A  
HETATM   21 CL   UNL     1      -8.208   8.419  71.441  1.00  0.00    -0.152 Cl 
ENDBRANCH   1  15
TORSDOF 4
ENDMDL
MODEL      194
REMARK 921   NORMALIZED FREE ENERGY PREDICTED BY IDOCK:   -2.25 KCAL/MOL
REMARK 922        TOTAL FREE ENERGY PREDICTED BY IDOCK:   -3.30 KCAL/MOL
REMARK 923 INTER-LIGAND FREE ENERGY PREDICTED BY IDOCK:   -3.45 KCAL/MOL
REMARK 924 INTRA-LIGAND FREE ENERGY PREDICTED BY IDOCK:    0.15 KCAL/MOL
REMARK 927      BINDING AFFINITY PREDICTED BY RF-SCORE:    0.00 PKD
ROOT
HETATM    1  C   UNL     1      -7.886  11.537  68.369  1.00  0.00    -0.136 C  
ENDROOT
BRANCH   1   2
HETATM    2  N   UNL     1      -8.522  12.891  68.234  1.00  0.00    -0.171 NA 
HETATM    3  S   UNL     1     -10.710  16.794  68.855  1.00  0.00    -0.313 SA 
HETATM    4  C   UNL     1      -9.794  15.374  68.707  1.00  0.00    -0.211 A  
HETATM    5  C   UNL     1     -12.164  15.896  68.965  1.00  0.00     0.055 A  
HETATM    6  C   UNL     1      -8.311  15.372  68.579  1.00  0.00    -0.151 C  
HETATM    7  C   UNL     1      -7.773  13.966  68.924  1.00  0.00    -0.041 C  
HETATM    8  C   UNL     1      -9.945  12.848  68.662  1.00  0.00    -0.092 C  
HETATM    9  C   UNL     1     -11.942  14.538  68.871  1.00  0.00    -0.326 A  
HETATM   10  C   UNL     1     -10.554  14.224  68.717  1.00  0.00    -0.255 A  
ENDBRANCH   1   2
BRANCH   1  11
HETATM   11  C   UNL     1      -6.590  11.414  67.515  1.00  0.00    -0.078 C  
HETATM   12  O   UNL     1      -5.876  12.343  67.156  1.00  0.00    -0.215 OA 
BRANCH  11  13
HETATM   13  O   UNL     1      -6.284  10.099  67.286  1.00  0.00    -0.057 OA 
HETATM   14  C   UNL     1      -5.158   9.635  68.035  1.00  0.00    -0.033 C  
ENDBRANCH  11  13
ENDBRANCH   1  11
BRANCH   1  15
HETATM   15  C   UNL     1      -8.885  10.383  68.152  1.00  0.00    -0.132 A  
HETATM   16  C   UNL     1     -10.128   8.449  69.028  1.00  0.00    -0.209 A  
HETATM   17  C   UNL     1     -10.309   9.015  66.702  1.00  0.00    -0.289 A  
HETATM   18  C   UNL     1     -10.655   8.193  67.772  1.00  0.00    -0.233 A  
HETATM   19  C   UNL     1      -9.255   9.524  69.211  1.00  0.00    -0.169 A  
HETATM   20  C   UNL     1      -9.435  10.099  66.886  1.00  0.00    -0.169 A  
HETATM   21 CL   UNL     1      -9.090  11.058  65.487  1.00  0.00    -0.221 Cl 
ENDBRANCH   1  15
TORSDOF 4
ENDMDL
MODEL      195
REMARK 921   NORMALIZED FREE ENERGY PREDICTED BY IDOCK:   -2.23 KCAL/MOL
REMARK 922        TOTAL FREE ENERGY PREDICTED BY IDOCK:   -3.28 KCAL/MOL
REMARK 923 INTER-LIGAND FREE ENERGY PREDICTED BY IDOCK:   -3.41 KCAL/MOL
REMARK 924 INTRA-LIGAND FREE ENERGY PREDICTED BY IDOCK:    0.13 KCAL/MOL
REMARK 927      BINDING AFFINITY PREDICTED BY RF-SCORE:    0.00 PKD
ROOT
HETATM    1  C   UNL     1      -8.024   7.540  68.005  1.00  0.00    -0.123 C  
ENDROOT
BRANCH   1   2
HETATM    2  N   UNL     1      -8.107   7.252  69.477  1.00  0.00    -0.127 NA 
HETATM    3  S   UNL     1      -9.319   5.980  73.639  1.00  0.00    -0.137 SA 
HETATM    4  C   UNL     1      -8.856   6.327  72.044  1.00  0.00    -0.138 A  
HETATM    5  C   UNL     1     -10.513   7.207  73.605  1.00  0.00    -0.370 A  
HETATM    6  C   UNL     1      -7.787   5.580  71.327  1.00  0.00    -0.110 C  
HETATM    7  C   UNL     1      -7.932   5.819  69.808  1.00  0.00    -0.100 C  
HETATM    8  C   UNL     1      -9.364   7.800  70.050  1.00  0.00    -0.157 C  
HETATM    9  C   UNL     1     -10.536   7.874  72.397  1.00  0.00    -0.339 A  
HETATM   10  C   UNL     1      -9.564   7.365  71.477  1.00  0.00    -0.163 A  
ENDBRANCH   1   2
BRANCH   1  11
HETATM   11  C   UNL     1      -8.400   9.015  67.678  1.00  0.00    -0.117 C  
HETATM   12  O   UNL     1      -7.778  10.009  68.033  1.00  0.00    -0.088 OA 
BRANCH  11  13
HETATM   13  O   UNL     1      -9.486   9.065  66.845  1.00  0.00    -0.148 OA 
HETATM   14  C   UNL     1     -10.033  10.379  66.698  1.00  0.00    -0.210 C  
ENDBRANCH  11  13
ENDBRANCH   1  11
BRANCH   1  15
HETATM   15  C   UNL     1      -8.778   6.503  67.149  1.00  0.00    -0.111 A  
HETATM   16  C   UNL     1     -10.774   5.122  66.744  1.00  0.00    -0.187 A  
HETATM   17  C   UNL     1      -8.876   4.910  65.291  1.00  0.00    -0.152 A  
HETATM   18  C   UNL     1     -10.168   4.531  65.647  1.00  0.00    -0.275 A  
HETATM   19  C   UNL     1     -10.088   6.089  67.483  1.00  0.00    -0.190 A  
HETATM   20  C   UNL     1      -8.186   5.885  66.030  1.00  0.00    -0.123 A  
HETATM   21 CL   UNL     1      -6.593   6.284  65.483  1.00  0.00    -0.046 Cl 
ENDBRANCH   1  15
TORSDOF 4
ENDMDL
MODEL      196
REMARK 921   NORMALIZED FREE ENERGY PREDICTED BY IDOCK:   -2.23 KCAL/MOL
REMARK 922        TOTAL FREE ENERGY PREDICTED BY IDOCK:   -3.27 KCAL/MOL
REMARK 923 INTER-LIGAND FREE ENERGY PREDICTED BY IDOCK:   -4.30 KCAL/MOL
REMARK 924 INTRA-LIGAND FREE ENERGY PREDICTED BY IDOCK:    1.02 KCAL/MOL
REMARK 927      BINDING AFFINITY PREDICTED BY RF-SCORE:    0.00 PKD
ROOT
HETATM    1  C   UNL     1      -6.500  17.642  67.293  1.00  0.00    -0.157 C  
ENDROOT
BRANCH   1   2
HETATM    2  N   UNL     1      -7.869  17.049  67.463  1.00  0.00    -0.168 NA 
HETATM    3  S   UNL     1     -11.540  14.800  68.836  1.00  0.00    -0.328 SA 
HETATM    4  C   UNL     1     -10.174  15.722  68.431  1.00  0.00    -0.223 A  
HETATM    5  C   UNL     1     -10.741  13.348  68.408  1.00  0.00    -0.256 A  
HETATM    6  C   UNL     1     -10.119  17.202  68.575  1.00  0.00    -0.329 C  
HETATM    7  C   UNL     1      -8.644  17.659  68.568  1.00  0.00    -0.285 C  
HETATM    8  C   UNL     1      -7.789  15.570  67.597  1.00  0.00    -0.155 C  
HETATM    9  C   UNL     1      -9.460  13.578  67.949  1.00  0.00    -0.215 A  
HETATM   10  C   UNL     1      -9.121  14.968  67.956  1.00  0.00    -0.178 A  
ENDBRANCH   1   2
BRANCH   1  11
HETATM   11  C   UNL     1      -6.067  18.475  68.535  1.00  0.00    -0.197 C  
HETATM   12  O   UNL     1      -5.741  18.020  69.626  1.00  0.00    -0.213 OA 
BRANCH  11  13
HETATM   13  O   UNL     1      -6.003  19.807  68.227  1.00  0.00    -0.223 OA 
HETATM   14  C   UNL     1      -5.400  20.603  69.251  1.00  0.00    -0.326 C  
ENDBRANCH  11  13
ENDBRANCH   1  11
BRANCH   1  15
HETATM   15  C   UNL     1      -6.334  18.390  65.956  1.00  0.00    -0.263 A  
HETATM   16  C   UNL     1      -5.228  18.627  63.770  1.00  0.00    -0.102 A  
HETATM   17  C   UNL     1      -6.842  20.264  64.462  1.00  0.00    -0.011 A  
HETATM   18  C   UNL     1      -5.938  19.790  63.514  1.00  0.00    -0.165 A  
HETATM   19  C   UNL     1      -5.422  17.943  64.973  1.00  0.00     0.118 A  
HETATM   20  C   UNL     1      -7.042  19.575  65.669  1.00  0.00    -0.285 A  
HETATM   21 CL   UNL     1      -8.201  20.251  66.762  1.00  0.00    -0.337 Cl 
ENDBRANCH   1  15
TORSDOF 4
ENDMDL
MODEL      197
REMARK 921   NORMALIZED FREE ENERGY PREDICTED BY IDOCK:   -1.80 KCAL/MOL
REMARK 922        TOTAL FREE ENERGY PREDICTED BY IDOCK:   -2.75 KCAL/MOL
REMARK 923 INTER-LIGAND FREE ENERGY PREDICTED BY IDOCK:   -2.56 KCAL/MOL
REMARK 924 INTRA-LIGAND FREE ENERGY PREDICTED BY IDOCK:   -0.19 KCAL/MOL
REMARK 927      BINDING AFFINITY PREDICTED BY RF-SCORE:    0.00 PKD
ROOT
HETATM    1  C   UNL     1      -8.047   8.410  68.077  1.00  0.00    -0.123 C  
ENDROOT
BRANCH   1   2
HETATM    2  N   UNL     1      -8.060   7.277  67.090  1.00  0.00    -0.113 NA 
HETATM    3  S   UNL     1      -7.049   4.086  64.057  1.00  0.00    -0.051 SA 
HETATM    4  C   UNL     1      -7.357   5.213  65.286  1.00  0.00    -0.068 A  
HETATM    5  C   UNL     1      -6.747   5.335  62.927  1.00  0.00    -0.026 A  
HETATM    6  C   UNL     1      -7.700   4.823  66.682  1.00  0.00    -0.095 C  
HETATM    7  C   UNL     1      -7.465   6.028  67.618  1.00  0.00    -0.078 C  
HETATM    8  C   UNL     1      -7.431   7.689  65.808  1.00  0.00    -0.079 C  
HETATM    9  C   UNL     1      -6.899   6.587  63.486  1.00  0.00    -0.049 A  
HETATM   10  C   UNL     1      -7.260   6.524  64.870  1.00  0.00    -0.067 A  
ENDBRANCH   1   2
BRANCH   1  11
HETATM   11  C   UNL     1      -8.798   8.048  69.391  1.00  0.00    -0.144 C  
HETATM   12  O   UNL     1      -9.388   6.998  69.614  1.00  0.00    -0.149 OA 
BRANCH  11  13
HETATM   13  O   UNL     1      -8.636   9.033  70.328  1.00  0.00    -0.143 OA 
HETATM   14  C   UNL     1      -9.861   9.445  70.941  1.00  0.00    -0.268 C  
ENDBRANCH  11  13
ENDBRANCH   1  11
BRANCH   1  15
HETATM   15  C   UNL     1      -8.493   9.748  67.455  1.00  0.00    -0.121 A  
HETATM   16  C   UNL     1     -10.184  11.090  66.274  1.00  0.00    -0.295 A  
HETATM   17  C   UNL     1      -8.048  12.061  66.778  1.00  0.00    -0.081 A  
HETATM   18  C   UNL     1      -9.320  12.172  66.223  1.00  0.00    -0.221 A  
HETATM   19  C   UNL     1      -9.774   9.898  66.877  1.00  0.00    -0.236 A  
HETATM   20  C   UNL     1      -7.635  10.865  67.388  1.00  0.00    -0.100 A  
HETATM   21 CL   UNL     1      -6.038  10.850  68.055  1.00  0.00    -0.050 Cl 
ENDBRANCH   1  15
TORSDOF 4
ENDMDL
MODEL      198
REMARK 921   NORMALIZED FREE ENERGY PREDICTED BY IDOCK:   -1.51 KCAL/MOL
REMARK 922        TOTAL FREE ENERGY PREDICTED BY IDOCK:   -2.40 KCAL/MOL
REMARK 923 INTER-LIGAND FREE ENERGY PREDICTED BY IDOCK:   -2.55 KCAL/MOL
REMARK 924 INTRA-LIGAND FREE ENERGY PREDICTED BY IDOCK:    0.15 KCAL/MOL
REMARK 927      BINDING AFFINITY PREDICTED BY RF-SCORE:    0.00 PKD
ROOT
HETATM    1  C   UNL     1      -8.525   8.382  67.318  1.00  0.00    -0.124 C  
ENDROOT
BRANCH   1   2
HETATM    2  N   UNL     1      -7.983   8.327  68.718  1.00  0.00    -0.112 NA 
HETATM    3  S   UNL     1      -6.638   7.124  72.860  1.00  0.00    -0.064 SA 
HETATM    4  C   UNL     1      -7.043   7.499  71.256  1.00  0.00    -0.058 A  
HETATM    5  C   UNL     1      -8.286   6.910  73.271  1.00  0.00    -0.112 A  
HETATM    6  C   UNL     1      -6.028   7.809  70.212  1.00  0.00    -0.029 C  
HETATM    7  C   UNL     1      -6.670   7.649  68.816  1.00  0.00    -0.054 C  
HETATM    8  C   UNL     1      -8.981   7.732  69.645  1.00  0.00    -0.143 C  
HETATM    9  C   UNL     1      -9.122   7.141  72.198  1.00  0.00    -0.143 A  
HETATM   10  C   UNL     1      -8.400   7.490  71.013  1.00  0.00    -0.113 A  
ENDBRANCH   1   2
BRANCH   1  11
HETATM   11  C   UNL     1      -9.917   9.077  67.259  1.00  0.00    -0.216 C  
HETATM   12  O   UNL     1     -10.965   8.554  66.899  1.00  0.00    -0.070 OA 
BRANCH  11  13
HETATM   13  O   UNL     1      -9.845  10.349  67.760  1.00  0.00    -0.164 OA 
HETATM   14  C   UNL     1     -11.122  10.976  67.912  1.00  0.00    -0.288 C  
ENDBRANCH  11  13
ENDBRANCH   1  11
BRANCH   1  15
HETATM   15  C   UNL     1      -8.482   7.016  66.606  1.00  0.00    -0.121 A  
HETATM   16  C   UNL     1      -8.572   4.559  66.705  1.00  0.00    -0.111 A  
HETATM   17  C   UNL     1      -8.151   5.642  64.605  1.00  0.00    -0.128 A  
HETATM   18  C   UNL     1      -8.323   4.474  65.344  1.00  0.00    -0.117 A  
HETATM   19  C   UNL     1      -8.646   5.809  67.324  1.00  0.00    -0.109 A  
HETATM   20  C   UNL     1      -8.229   6.900  65.225  1.00  0.00    -0.129 A  
HETATM   21 CL   UNL     1      -8.013   8.279  64.202  1.00  0.00    -0.145 Cl 
ENDBRANCH   1  15
TORSDOF 4
ENDMDL
MODEL      199
REMARK 921   NORMALIZED FREE ENERGY PREDICTED BY IDOCK:   -0.83 KCAL/MOL
REMARK 922        TOTAL FREE ENERGY PREDICTED BY IDOCK:   -1.55 KCAL/MOL
REMARK 923 INTER-LIGAND FREE ENERGY PREDICTED BY IDOCK:   -3.05 KCAL/MOL
REMARK 924 INTRA-LIGAND FREE ENERGY PREDICTED BY IDOCK:    1.50 KCAL/MOL
REMARK 927      BINDING AFFINITY PREDICTED BY RF-SCORE:    0.00 PKD
ROOT
HETATM    1  C   UNL     1     -10.170  14.017  67.634  1.00  0.00    -0.241 C  
ENDROOT
BRANCH   1   2
HETATM    2  N   UNL     1      -8.889  13.387  68.100  1.00  0.00    -0.176 NA 
HETATM    3  S   UNL     1      -5.308  10.722  68.799  1.00  0.00    -0.040 SA 
HETATM    4  C   UNL     1      -6.603  11.747  68.413  1.00  0.00    -0.055 A  
HETATM    5  C   UNL     1      -6.367   9.583  69.515  1.00  0.00    -0.040 A  
HETATM    6  C   UNL     1      -6.432  13.041  67.696  1.00  0.00    -0.162 C  
HETATM    7  C   UNL     1      -7.791  13.481  67.110  1.00  0.00    -0.007 C  
HETATM    8  C   UNL     1      -9.120  11.984  68.535  1.00  0.00    -0.106 C  
HETATM    9  C   UNL     1      -7.682   9.998  69.470  1.00  0.00    -0.146 A  
HETATM   10  C   UNL     1      -7.828  11.269  68.827  1.00  0.00    -0.139 A  
ENDBRANCH   1   2
BRANCH   1  11
HETATM   11  C   UNL     1     -10.493  13.656  66.154  1.00  0.00    -0.297 C  
HETATM   12  O   UNL     1     -10.678  12.528  65.715  1.00  0.00    -0.259 OA 
BRANCH  11  13
HETATM   13  O   UNL     1     -10.642  14.790  65.401  1.00  0.00    -0.325 OA 
HETATM   14  C   UNL     1     -11.418  14.591  64.216  1.00  0.00    -0.180 C  
ENDBRANCH  11  13
ENDBRANCH   1  11
BRANCH   1  15
HETATM   15  C   UNL     1     -10.237  15.527  67.934  1.00  0.00    -0.238 A  
HETATM   16  C   UNL     1     -11.285  17.423  69.102  1.00  0.00     0.701 A  
HETATM   17  C   UNL     1      -9.509  17.833  67.540  1.00  0.00    -0.257 A  
HETATM   18  C   UNL     1     -10.449  18.314  68.449  1.00  0.00    -0.292 A  
HETATM   19  C   UNL     1     -11.181  16.054  68.845  1.00  0.00    -0.353 A  
HETATM   20  C   UNL     1      -9.401  16.456  67.283  1.00  0.00    -0.221 A  
HETATM   21 CL   UNL     1      -8.188  15.977  66.147  1.00  0.00    -0.217 Cl 
ENDBRANCH   1  15
TORSDOF 4
ENDMDL
MODEL      200
REMARK 921   NORMALIZED FREE ENERGY PREDICTED BY IDOCK:    0.11 KCAL/MOL
REMARK 922        TOTAL FREE ENERGY PREDICTED BY IDOCK:   -0.40 KCAL/MOL
REMARK 923 INTER-LIGAND FREE ENERGY PREDICTED BY IDOCK:   -1.28 KCAL/MOL
REMARK 924 INTRA-LIGAND FREE ENERGY PREDICTED BY IDOCK:    0.89 KCAL/MOL
REMARK 927      BINDING AFFINITY PREDICTED BY RF-SCORE:    0.00 PKD
ROOT
HETATM    1  C   UNL     1      -6.134  14.613  69.022  1.00  0.00    -0.090 C  
ENDROOT
BRANCH   1   2
HETATM    2  N   UNL     1      -6.248  13.207  68.505  1.00  0.00    -0.073 NA 
HETATM    3  S   UNL     1      -6.985   9.470  66.076  1.00  0.00    -0.094 SA 
HETATM    4  C   UNL     1      -6.611  10.905  66.900  1.00  0.00    -0.101 A  
HETATM    5  C   UNL     1      -8.664   9.765  66.235  1.00  0.00    -0.139 A  
HETATM    6  C   UNL     1      -5.215  11.361  67.147  1.00  0.00    -0.073 C  
HETATM    7  C   UNL     1      -5.227  12.867  67.488  1.00  0.00    -0.046 C  
HETATM    8  C   UNL     1      -7.626  12.938  68.014  1.00  0.00    -0.137 C  
HETATM    9  C   UNL     1      -8.921  10.934  66.923  1.00  0.00    -0.158 A  
HETATM   10  C   UNL     1      -7.721  11.606  67.319  1.00  0.00    -0.154 A  
ENDBRANCH   1   2
BRANCH   1  11
HETATM   11  C   UNL     1      -6.572  14.724  70.512  1.00  0.00     0.035 C  
HETATM   12  O   UNL     1      -6.996  15.733  71.062  1.00  0.00     1.293 OA 
BRANCH  11  13
HETATM   13  O   UNL     1      -6.512  13.502  71.127  1.00  0.00     0.142 OA 
HETATM   14  C   UNL     1      -5.249  13.232  71.740  1.00  0.00    -0.146 C  
ENDBRANCH  11  13
ENDBRANCH   1  11
BRANCH   1  15
HETATM   15  C   UNL     1      -6.809  15.646  68.098  1.00  0.00    -0.130 A  
HETATM   16  C   UNL     1      -8.453  16.186  66.348  1.00  0.00    -0.369 A  
HETATM   17  C   UNL     1      -6.989  17.904  67.164  1.00  0.00    -0.202 A  
HETATM   18  C   UNL     1      -8.020  17.502  66.318  1.00  0.00    -0.303 A  
HETATM   19  C   UNL     1      -7.854  15.275  67.221  1.00  0.00    -0.240 A  
HETATM   20  C   UNL     1      -6.388  16.990  68.046  1.00  0.00    -0.141 A  
HETATM   21 CL   UNL     1      -5.128  17.609  69.058  1.00  0.00    -0.160 Cl 
ENDBRANCH   1  15
TORSDOF 4
ENDMDL
MODEL      201
REMARK 921   NORMALIZED FREE ENERGY PREDICTED BY IDOCK:    1.71 KCAL/MOL
REMARK 922        TOTAL FREE ENERGY PREDICTED BY IDOCK:    1.58 KCAL/MOL
REMARK 923 INTER-LIGAND FREE ENERGY PREDICTED BY IDOCK:    0.70 KCAL/MOL
REMARK 924 INTRA-LIGAND FREE ENERGY PREDICTED BY IDOCK:    0.88 KCAL/MOL
REMARK 927      BINDING AFFINITY PREDICTED BY RF-SCORE:    0.00 PKD
ROOT
HETATM    1  C   UNL     1     -10.501  17.297  66.717  1.00  0.00    -0.261 C  
ENDROOT
BRANCH   1   2
HETATM    2  N   UNL     1     -10.685  15.917  66.153  1.00  0.00    -0.301 NA 
HETATM    3  S   UNL     1     -11.019  12.257  63.526  1.00  0.00    -0.427 SA 
HETATM    4  C   UNL     1     -10.761  13.632  64.486  1.00  0.00    -0.407 A  
HETATM    5  C   UNL     1     -12.431  12.945  62.845  1.00  0.00     0.426 A  
HETATM    6  C   UNL     1      -9.603  13.772  65.411  1.00  0.00     0.056 C  
HETATM    7  C   UNL     1      -9.414  15.264  65.764  1.00  0.00    -0.275 C  
HETATM    8  C   UNL     1     -11.663  15.932  65.034  1.00  0.00     0.164 C  
HETATM    9  C   UNL     1     -12.700  14.195  63.362  1.00  0.00     0.873 A  
HETATM   10  C   UNL     1     -11.726  14.603  64.329  1.00  0.00    -0.291 A  
ENDBRANCH   1   2
BRANCH   1  11
HETATM   11  C   UNL     1      -9.226  17.991  66.154  1.00  0.00    -0.113 C  
HETATM   12  O   UNL     1      -8.077  17.579  66.262  1.00  0.00    -0.318 OA 
BRANCH  11  13
HETATM   13  O   UNL     1      -9.560  19.100  65.424  1.00  0.00    -0.029 OA 
HETATM   14  C   UNL     1     -10.734  19.766  65.900  1.00  0.00    -0.383 C  
ENDBRANCH  11  13
ENDBRANCH   1  11
BRANCH   1  15
HETATM   15  C   UNL     1     -10.599  17.333  68.255  1.00  0.00    -0.383 A  
HETATM   16  C   UNL     1     -10.072  18.419  70.399  1.00  0.00     1.753 A  
HETATM   17  C   UNL     1     -11.256  16.332  70.392  1.00  0.00    -0.336 A  
HETATM   18  C   UNL     1     -10.685  17.391  71.095  1.00  0.00     1.871 A  
HETATM   19  C   UNL     1     -10.027  18.387  69.003  1.00  0.00    -0.304 A  
HETATM   20  C   UNL     1     -11.217  16.300  68.988  1.00  0.00    -0.326 A  
HETATM   21 CL   UNL     1     -11.972  14.943  68.226  1.00  0.00    -0.295 Cl 
ENDBRANCH   1  15
TORSDOF 4
ENDMDL
MODEL      202
REMARK 921   NORMALIZED FREE ENERGY PREDICTED BY IDOCK:    6.99 KCAL/MOL
REMARK 922        TOTAL FREE ENERGY PREDICTED BY IDOCK:    8.10 KCAL/MOL
REMARK 923 INTER-LIGAND FREE ENERGY PREDICTED BY IDOCK:    5.28 KCAL/MOL
REMARK 924 INTRA-LIGAND FREE ENERGY PREDICTED BY IDOCK:    2.82 KCAL/MOL
REMARK 927      BINDING AFFINITY PREDICTED BY RF-SCORE:    0.00 PKD
ROOT
HETATM    1  C   UNL     1      -8.380  12.671  67.371  1.00  0.00    -0.184 C  
ENDROOT
BRANCH   1   2
HETATM    2  N   UNL     1      -8.137  13.396  68.663  1.00  0.00    -0.091 NA 
HETATM    3  S   UNL     1      -6.890  16.277  71.912  1.00  0.00     5.599 SA 
HETATM    4  C   UNL     1      -7.441  15.292  70.646  1.00  0.00     1.112 A  
HETATM    5  C   UNL     1      -5.271  15.790  71.644  1.00  0.00     0.048 A  
HETATM    6  C   UNL     1      -8.873  15.207  70.245  1.00  0.00     0.800 C  
HETATM    7  C   UNL     1      -8.966  14.613  68.822  1.00  0.00    -0.173 C  
HETATM    8  C   UNL     1      -6.690  13.689  68.837  1.00  0.00    -0.108 C  
HETATM    9  C   UNL     1      -5.168  14.878  70.614  1.00  0.00    -0.128 A  
HETATM   10  C   UNL     1      -6.438  14.578  70.026  1.00  0.00    -0.160 A  
ENDBRANCH   1   2
BRANCH   1  11
HETATM   11  C   UNL     1      -9.610  13.240  66.605  1.00  0.00    -0.262 C  
HETATM   12  O   UNL     1      -9.650  13.509  65.410  1.00  0.00    -0.068 OA 
BRANCH  11  13
HETATM   13  O   UNL     1     -10.701  13.319  67.429  1.00  0.00    -0.254 OA 
HETATM   14  C   UNL     1     -11.415  14.553  67.316  1.00  0.00    -0.365 C  
ENDBRANCH  11  13
ENDBRANCH   1  11
BRANCH   1  15
HETATM   15  C   UNL     1      -8.410  11.139  67.542  1.00  0.00    -0.122 A  
HETATM   16  C   UNL     1      -9.047   8.914  66.705  1.00  0.00    -0.177 A  
HETATM   17  C   UNL     1      -8.003   9.113  68.858  1.00  0.00    -0.099 A  
HETATM   18  C   UNL     1      -8.562   8.319  67.859  1.00  0.00    -0.132 A  
HETATM   19  C   UNL     1      -8.974  10.301  66.553  1.00  0.00    -0.161 A  
HETATM   20  C   UNL     1      -7.926  10.507  68.705  1.00  0.00    -0.124 A  
HETATM   21 CL   UNL     1      -7.198  11.387  70.005  1.00  0.00     0.331 Cl 
ENDBRANCH   1  15
TORSDOF 4
ENDMDL
MODEL      203
REMARK 921   NORMALIZED FREE ENERGY PREDICTED BY IDOCK:   44.55 KCAL/MOL
REMARK 922        TOTAL FREE ENERGY PREDICTED BY IDOCK:   54.43 KCAL/MOL
REMARK 923 INTER-LIGAND FREE ENERGY PREDICTED BY IDOCK:   45.27 KCAL/MOL
REMARK 924 INTRA-LIGAND FREE ENERGY PREDICTED BY IDOCK:    9.17 KCAL/MOL
REMARK 927      BINDING AFFINITY PREDICTED BY RF-SCORE:    0.00 PKD
ROOT
HETATM    1  C   UNL     1      -8.019  16.148  69.733  1.00  0.00     0.386 C  
ENDROOT
BRANCH   1   2
HETATM    2  N   UNL     1      -8.957  16.453  68.600  1.00  0.00    -0.223 NA 
HETATM    3  S   UNL     1     -12.392  16.625  65.671  1.00  0.00     3.886 SA 
HETATM    4  C   UNL     1     -11.185  16.615  66.863  1.00  0.00     0.337 A  
HETATM    5  C   UNL     1     -11.959  15.051  65.157  1.00  0.00    -0.135 A  
HETATM    6  C   UNL     1     -10.957  17.750  67.800  1.00  0.00    -0.103 C  
HETATM    7  C   UNL     1     -10.135  17.252  69.009  1.00  0.00    -0.302 C  
HETATM    8  C   UNL     1      -9.354  15.206  67.895  1.00  0.00    -0.185 C  
HETATM    9  C   UNL     1     -10.898  14.544  65.879  1.00  0.00    -0.308 A  
HETATM   10  C   UNL     1     -10.436  15.458  66.880  1.00  0.00    -0.295 A  
ENDBRANCH   1   2
BRANCH   1  11
HETATM   11  C   UNL     1      -7.129  14.906  69.434  1.00  0.00    -0.175 C  
HETATM   12  O   UNL     1      -7.460  13.929  68.772  1.00  0.00    -0.121 OA 
BRANCH  11  13
HETATM   13  O   UNL     1      -5.867  15.081  69.936  1.00  0.00    -0.113 OA 
HETATM   14  C   UNL     1      -5.686  14.513  71.236  1.00  0.00    -0.124 C  
ENDBRANCH  11  13
ENDBRANCH   1  11
BRANCH   1  15
HETATM   15  C   UNL     1      -8.730  16.088  71.099  1.00  0.00     4.444 A  
HETATM   16  C   UNL     1      -8.623  15.909  73.551  1.00  0.00    15.340 A  
HETATM   17  C   UNL     1     -10.762  15.968  72.463  1.00  0.00     2.064 A  
HETATM   18  C   UNL     1     -10.006  15.890  73.631  1.00  0.00     8.937 A  
HETATM   19  C   UNL     1      -7.998  16.002  72.305  1.00  0.00    10.342 A  
HETATM   20  C   UNL     1     -10.135  16.067  71.210  1.00  0.00     1.964 A  
HETATM   21 CL   UNL     1     -11.177  16.172  69.832  1.00  0.00    -0.347 Cl 
ENDBRANCH   1  15
TORSDOF 4
ENDMDL
