MODEL        1
REMARK 921   NORMALIZED FREE ENERGY PREDICTED BY IDOCK:   -7.48 KCAL/MOL
REMARK 922        TOTAL FREE ENERGY PREDICTED BY IDOCK:   -8.15 KCAL/MOL
REMARK 923 INTER-LIGAND FREE ENERGY PREDICTED BY IDOCK:   -7.92 KCAL/MOL
REMARK 924 INTRA-LIGAND FREE ENERGY PREDICTED BY IDOCK:   -0.23 KCAL/MOL
REMARK 927      BINDING AFFINITY PREDICTED BY RF-SCORE:    0.00 PKD
ROOT
HETATM    1  C   UNL     1     -13.512  16.180  73.292  1.00  0.00    -0.371 C  
HETATM    2  N   UNL     1     -12.802  14.915  73.126  1.00  0.00    -0.481 NA 
HETATM    3  C   UNL     1     -13.590  13.940  72.346  1.00  0.00    -0.575 C  
HETATM    4  C   UNL     1     -13.709  14.243  70.835  1.00  0.00     0.029 C  
HETATM    5  N   UNL     1     -12.388  14.464  70.232  1.00  0.00    -0.332 NA 
HETATM    6  C   UNL     1     -11.533  15.413  70.958  1.00  0.00    -0.364 C  
HETATM    7  C   UNL     1     -11.486  15.097  72.470  1.00  0.00    -0.265 C  
ENDROOT
BRANCH   5   8
HETATM    8  C   UNL     1     -11.950  13.825  69.070  1.00  0.00    -0.360 C  
HETATM    9  N   UNL     1     -12.180  14.392  67.916  1.00  0.00    -0.620 NA 
HETATM   10  C   UNL     1     -11.810  13.867  66.663  1.00  0.00    -0.420 A  
HETATM   11  H   UNL     1     -12.667  15.289  67.924  1.00  0.00     0.000 HD 
HETATM   12  C   UNL     1     -12.775  13.926  65.647  1.00  0.00    -0.534 A  
HETATM   13  C   UNL     1     -12.501  13.476  64.352  1.00  0.00    -0.324 A  
HETATM   14  C   UNL     1     -11.245  12.965  64.048  1.00  0.00    -0.458 A  
HETATM   15  C   UNL     1     -10.258  12.927  65.031  1.00  0.00    -0.289 A  
HETATM   16  C   UNL     1     -10.529  13.391  66.328  1.00  0.00    -0.289 A  
HETATM   17  S   UNL     1      -9.214  13.299  67.535  1.00  0.00    -0.225 SA 
HETATM   18  C   UNL     1     -10.039  12.189  68.651  1.00  0.00    -0.151 A  
HETATM   19  C   UNL     1     -11.275  12.490  69.237  1.00  0.00    -0.256 A  
HETATM   20  C   UNL     1     -11.895  11.559  70.086  1.00  0.00    -0.440 A  
HETATM   21  C   UNL     1     -11.269  10.349  70.366  1.00  0.00    -0.321 A  
HETATM   22  C   UNL     1     -10.041  10.041  69.788  1.00  0.00    -0.284 A  
HETATM   23 CL   UNL     1     -12.005   9.241  71.457  1.00  0.00    -0.412 Cl 
HETATM   24  C   UNL     1      -9.431  10.955  68.927  1.00  0.00    -0.182 A  
ENDBRANCH   5   8
TORSDOF 1
ENDMDL
MODEL        2
REMARK 921   NORMALIZED FREE ENERGY PREDICTED BY IDOCK:   -7.37 KCAL/MOL
REMARK 922        TOTAL FREE ENERGY PREDICTED BY IDOCK:   -8.03 KCAL/MOL
REMARK 923 INTER-LIGAND FREE ENERGY PREDICTED BY IDOCK:   -7.59 KCAL/MOL
REMARK 924 INTRA-LIGAND FREE ENERGY PREDICTED BY IDOCK:   -0.44 KCAL/MOL
REMARK 927      BINDING AFFINITY PREDICTED BY RF-SCORE:    0.00 PKD
ROOT
HETATM    1  C   UNL     1      -8.087   8.001  67.996  1.00  0.00    -0.129 C  
HETATM    2  N   UNL     1      -8.963   8.788  67.132  1.00  0.00    -0.130 NA 
HETATM    3  C   UNL     1     -10.370   8.730  67.577  1.00  0.00    -0.268 C  
HETATM    4  C   UNL     1     -10.689   9.516  68.868  1.00  0.00    -0.195 C  
HETATM    5  N   UNL     1     -10.217  10.904  68.776  1.00  0.00    -0.188 NA 
HETATM    6  C   UNL     1      -8.825  11.050  68.325  1.00  0.00    -0.144 C  
HETATM    7  C   UNL     1      -8.545  10.208  67.061  1.00  0.00    -0.129 C  
ENDROOT
BRANCH   5   8
HETATM    8  C   UNL     1     -11.010  12.015  69.073  1.00  0.00    -0.210 C  
HETATM    9  N   UNL     1     -11.417  12.185  70.303  1.00  0.00    -0.492 NA 
HETATM   10  C   UNL     1     -12.228  13.245  70.752  1.00  0.00    -0.308 A  
HETATM   11  H   UNL     1     -11.124  11.493  70.994  1.00  0.00     0.000 HD 
HETATM   12  C   UNL     1     -13.285  12.908  71.610  1.00  0.00    -0.416 A  
HETATM   13  C   UNL     1     -14.125  13.885  72.153  1.00  0.00    -0.630 A  
HETATM   14  C   UNL     1     -13.913  15.225  71.852  1.00  0.00    -0.644 A  
HETATM   15  C   UNL     1     -12.849  15.588  71.029  1.00  0.00    -0.543 A  
HETATM   16  C   UNL     1     -11.997  14.608  70.495  1.00  0.00    -0.310 A  
HETATM   17  S   UNL     1     -10.661  15.155  69.441  1.00  0.00    -0.277 SA 
HETATM   18  C   UNL     1     -11.200  14.308  67.973  1.00  0.00    -0.280 A  
HETATM   19  C   UNL     1     -11.377  12.919  67.927  1.00  0.00    -0.336 A  
HETATM   20  C   UNL     1     -11.836  12.309  66.749  1.00  0.00    -0.349 A  
HETATM   21  C   UNL     1     -12.091  13.080  65.620  1.00  0.00    -0.454 A  
HETATM   22  C   UNL     1     -11.918  14.460  65.656  1.00  0.00    -0.356 A  
HETATM   23 CL   UNL     1     -12.592  12.317  64.162  1.00  0.00    -0.533 Cl 
HETATM   24  C   UNL     1     -11.481  15.073  66.832  1.00  0.00    -0.266 A  
ENDBRANCH   5   8
TORSDOF 1
ENDMDL
MODEL        3
REMARK 921   NORMALIZED FREE ENERGY PREDICTED BY IDOCK:   -7.33 KCAL/MOL
REMARK 922        TOTAL FREE ENERGY PREDICTED BY IDOCK:   -7.99 KCAL/MOL
REMARK 923 INTER-LIGAND FREE ENERGY PREDICTED BY IDOCK:   -8.25 KCAL/MOL
REMARK 924 INTRA-LIGAND FREE ENERGY PREDICTED BY IDOCK:    0.27 KCAL/MOL
REMARK 927      BINDING AFFINITY PREDICTED BY RF-SCORE:    0.00 PKD
ROOT
HETATM    1  C   UNL     1     -12.785  15.774  74.077  1.00  0.00    -0.580 C  
HETATM    2  N   UNL     1     -13.264  15.998  72.716  1.00  0.00    -0.474 NA 
HETATM    3  C   UNL     1     -12.152  16.225  71.771  1.00  0.00    -0.346 C  
HETATM    4  C   UNL     1     -11.309  14.976  71.429  1.00  0.00    -0.273 C  
HETATM    5  N   UNL     1     -12.162  13.864  70.989  1.00  0.00    -0.356 NA 
HETATM    6  C   UNL     1     -13.304  13.581  71.870  1.00  0.00    -0.443 C  
HETATM    7  C   UNL     1     -14.084  14.868  72.221  1.00  0.00    -0.499 C  
ENDROOT
BRANCH   5   8
HETATM    8  C   UNL     1     -11.936  13.127  69.824  1.00  0.00    -0.314 C  
HETATM    9  N   UNL     1     -11.965  13.746  68.674  1.00  0.00    -0.365 NA 
HETATM   10  C   UNL     1     -11.767  13.140  67.418  1.00  0.00    -0.370 A  
HETATM   11  H   UNL     1     -12.145  14.751  68.687  1.00  0.00     0.000 HD 
HETATM   12  C   UNL     1     -12.655  13.506  66.397  1.00  0.00    -0.244 A  
HETATM   13  C   UNL     1     -12.525  13.001  65.099  1.00  0.00    -0.552 A  
HETATM   14  C   UNL     1     -11.491  12.124  64.799  1.00  0.00    -0.377 A  
HETATM   15  C   UNL     1     -10.575  11.770  65.789  1.00  0.00    -0.312 A  
HETATM   16  C   UNL     1     -10.698  12.287  67.088  1.00  0.00    -0.233 A  
HETATM   17  S   UNL     1      -9.490  11.778  68.302  1.00  0.00    -0.188 SA 
HETATM   18  C   UNL     1     -10.633  10.976  69.403  1.00  0.00    -0.174 A  
HETATM   19  C   UNL     1     -11.717  11.647  69.983  1.00  0.00    -0.402 A  
HETATM   20  C   UNL     1     -12.606  10.952  70.819  1.00  0.00    -0.470 A  
HETATM   21  C   UNL     1     -12.395   9.605  71.092  1.00  0.00    -0.339 A  
HETATM   22  C   UNL     1     -11.322   8.930  70.520  1.00  0.00    -0.268 A  
HETATM   23 CL   UNL     1     -13.452   8.778  72.168  1.00  0.00    -0.429 Cl 
HETATM   24  C   UNL     1     -10.447   9.611  69.671  1.00  0.00    -0.246 A  
ENDBRANCH   5   8
TORSDOF 1
ENDMDL
MODEL        4
REMARK 921   NORMALIZED FREE ENERGY PREDICTED BY IDOCK:   -7.22 KCAL/MOL
REMARK 922        TOTAL FREE ENERGY PREDICTED BY IDOCK:   -7.87 KCAL/MOL
REMARK 923 INTER-LIGAND FREE ENERGY PREDICTED BY IDOCK:   -7.47 KCAL/MOL
REMARK 924 INTRA-LIGAND FREE ENERGY PREDICTED BY IDOCK:   -0.40 KCAL/MOL
REMARK 927      BINDING AFFINITY PREDICTED BY RF-SCORE:    0.00 PKD
ROOT
HETATM    1  C   UNL     1      -8.154   7.966  68.331  1.00  0.00    -0.123 C  
HETATM    2  N   UNL     1      -8.417   8.689  69.572  1.00  0.00    -0.127 NA 
HETATM    3  C   UNL     1      -7.953  10.090  69.501  1.00  0.00    -0.158 C  
HETATM    4  C   UNL     1      -8.797  11.022  68.603  1.00  0.00    -0.164 C  
HETATM    5  N   UNL     1     -10.222  10.951  68.954  1.00  0.00    -0.192 NA 
HETATM    6  C   UNL     1     -10.760   9.587  69.059  1.00  0.00    -0.202 C  
HETATM    7  C   UNL     1      -9.856   8.683  69.926  1.00  0.00    -0.183 C  
ENDROOT
BRANCH   5   8
HETATM    8  C   UNL     1     -11.020  12.073  69.187  1.00  0.00    -0.178 C  
HETATM    9  N   UNL     1     -11.474  12.280  70.395  1.00  0.00    -0.413 NA 
HETATM   10  C   UNL     1     -12.295  13.357  70.781  1.00  0.00    -0.354 A  
HETATM   11  H   UNL     1     -11.212  11.607  71.116  1.00  0.00     0.000 HD 
HETATM   12  C   UNL     1     -13.387  13.050  71.606  1.00  0.00    -0.379 A  
HETATM   13  C   UNL     1     -14.242  14.046  72.087  1.00  0.00    -0.628 A  
HETATM   14  C   UNL     1     -14.011  15.376  71.757  1.00  0.00    -0.626 A  
HETATM   15  C   UNL     1     -12.913  15.710  70.966  1.00  0.00    -0.518 A  
HETATM   16  C   UNL     1     -12.047  14.711  70.494  1.00  0.00    -0.321 A  
HETATM   17  S   UNL     1     -10.668  15.221  69.478  1.00  0.00    -0.281 SA 
HETATM   18  C   UNL     1     -11.153  14.334  68.015  1.00  0.00    -0.269 A  
HETATM   19  C   UNL     1     -11.336  12.945  68.002  1.00  0.00    -0.333 A  
HETATM   20  C   UNL     1     -11.753  12.304  66.825  1.00  0.00    -0.411 A  
HETATM   21  C   UNL     1     -11.959  13.043  65.666  1.00  0.00    -0.429 A  
HETATM   22  C   UNL     1     -11.779  14.423  65.669  1.00  0.00    -0.356 A  
HETATM   23 CL   UNL     1     -12.406  12.240  64.211  1.00  0.00    -0.521 Cl 
HETATM   24  C   UNL     1     -11.385  15.068  66.842  1.00  0.00    -0.302 A  
ENDBRANCH   5   8
TORSDOF 1
ENDMDL
MODEL        5
REMARK 921   NORMALIZED FREE ENERGY PREDICTED BY IDOCK:   -7.16 KCAL/MOL
REMARK 922        TOTAL FREE ENERGY PREDICTED BY IDOCK:   -7.81 KCAL/MOL
REMARK 923 INTER-LIGAND FREE ENERGY PREDICTED BY IDOCK:   -7.41 KCAL/MOL
REMARK 924 INTRA-LIGAND FREE ENERGY PREDICTED BY IDOCK:   -0.40 KCAL/MOL
REMARK 927      BINDING AFFINITY PREDICTED BY RF-SCORE:    0.00 PKD
ROOT
HETATM    1  C   UNL     1      -8.563  20.301  67.459  1.00  0.00    -0.314 C  
HETATM    2  N   UNL     1      -9.596  19.544  68.160  1.00  0.00    -0.349 NA 
HETATM    3  C   UNL     1     -10.757  19.264  67.291  1.00  0.00    -0.488 C  
HETATM    4  C   UNL     1     -10.520  18.206  66.190  1.00  0.00    -0.364 C  
HETATM    5  N   UNL     1      -9.965  16.968  66.752  1.00  0.00    -0.283 NA 
HETATM    6  C   UNL     1      -8.812  17.161  67.643  1.00  0.00    -0.218 C  
HETATM    7  C   UNL     1      -9.082  18.261  68.694  1.00  0.00    -0.283 C  
ENDROOT
BRANCH   5   8
HETATM    8  C   UNL     1     -10.482  15.697  66.490  1.00  0.00    -0.302 C  
HETATM    9  N   UNL     1     -10.576  15.301  65.249  1.00  0.00    -0.386 NA 
HETATM   10  C   UNL     1     -11.085  14.057  64.828  1.00  0.00    -0.387 A  
HETATM   11  H   UNL     1     -10.255  15.945  64.526  1.00  0.00     0.000 HD 
HETATM   12  C   UNL     1     -11.968  14.075  63.739  1.00  0.00    -0.230 A  
HETATM   13  C   UNL     1     -12.497  12.894  63.208  1.00  0.00    -0.315 A  
HETATM   14  C   UNL     1     -12.142  11.668  63.756  1.00  0.00    -0.339 A  
HETATM   15  C   UNL     1     -11.240  11.622  64.818  1.00  0.00    -0.300 A  
HETATM   16  C   UNL     1     -10.697  12.806  65.342  1.00  0.00    -0.284 A  
HETATM   17  S   UNL     1      -9.555  12.662  66.709  1.00  0.00    -0.246 SA 
HETATM   18  C   UNL     1     -10.533  13.564  67.888  1.00  0.00    -0.250 A  
HETATM   19  C   UNL     1     -10.940  14.888  67.674  1.00  0.00    -0.300 A  
HETATM   20  C   UNL     1     -11.740  15.539  68.626  1.00  0.00    -0.363 A  
HETATM   21  C   UNL     1     -12.107  14.879  69.794  1.00  0.00    -0.314 A  
HETATM   22  C   UNL     1     -11.709  13.564  70.015  1.00  0.00    -0.311 A  
HETATM   23 CL   UNL     1     -13.034  15.705  70.985  1.00  0.00    -0.540 Cl 
HETATM   24  C   UNL     1     -10.930  12.906  69.062  1.00  0.00    -0.244 A  
ENDBRANCH   5   8
TORSDOF 1
ENDMDL
MODEL        6
REMARK 921   NORMALIZED FREE ENERGY PREDICTED BY IDOCK:   -7.14 KCAL/MOL
REMARK 922        TOTAL FREE ENERGY PREDICTED BY IDOCK:   -7.79 KCAL/MOL
REMARK 923 INTER-LIGAND FREE ENERGY PREDICTED BY IDOCK:   -7.39 KCAL/MOL
REMARK 924 INTRA-LIGAND FREE ENERGY PREDICTED BY IDOCK:   -0.40 KCAL/MOL
REMARK 927      BINDING AFFINITY PREDICTED BY RF-SCORE:    0.00 PKD
ROOT
HETATM    1  C   UNL     1      -7.765  19.702  69.064  1.00  0.00    -0.256 C  
HETATM    2  N   UNL     1      -7.561  18.888  67.869  1.00  0.00    -0.254 NA 
HETATM    3  C   UNL     1      -7.251  17.484  68.207  1.00  0.00    -0.217 C  
HETATM    4  C   UNL     1      -8.438  16.657  68.751  1.00  0.00    -0.255 C  
HETATM    5  N   UNL     1      -9.601  16.744  67.858  1.00  0.00    -0.233 NA 
HETATM    6  C   UNL     1      -9.968  18.111  67.461  1.00  0.00    -0.332 C  
HETATM    7  C   UNL     1      -8.740  18.911  66.972  1.00  0.00    -0.294 C  
ENDROOT
BRANCH   5   8
HETATM    8  C   UNL     1     -10.310  15.633  67.396  1.00  0.00    -0.275 C  
HETATM    9  N   UNL     1     -10.329  15.389  66.113  1.00  0.00    -0.296 NA 
HETATM   10  C   UNL     1     -11.006  14.318  65.498  1.00  0.00    -0.319 A  
HETATM   11  H   UNL     1      -9.812  16.027  65.507  1.00  0.00     0.000 HD 
HETATM   12  C   UNL     1     -11.737  14.618  64.340  1.00  0.00    -0.358 A  
HETATM   13  C   UNL     1     -12.410  13.624  63.622  1.00  0.00    -0.328 A  
HETATM   14  C   UNL     1     -12.353  12.304  64.050  1.00  0.00    -0.569 A  
HETATM   15  C   UNL     1     -11.606  11.975  65.180  1.00  0.00    -0.330 A  
HETATM   16  C   UNL     1     -10.919  12.971  65.892  1.00  0.00    -0.271 A  
HETATM   17  S   UNL     1      -9.991  12.469  67.335  1.00  0.00    -0.209 SA 
HETATM   18  C   UNL     1     -10.917  13.423  68.515  1.00  0.00    -0.268 A  
HETATM   19  C   UNL     1     -11.044  14.815  68.424  1.00  0.00    -0.274 A  
HETATM   20  C   UNL     1     -11.816  15.512  69.367  1.00  0.00    -0.392 A  
HETATM   21  C   UNL     1     -12.433  14.824  70.406  1.00  0.00    -0.349 A  
HETATM   22  C   UNL     1     -12.313  13.442  70.504  1.00  0.00    -0.401 A  
HETATM   23 CL   UNL     1     -13.324  15.693  71.594  1.00  0.00    -0.564 Cl 
HETATM   24  C   UNL     1     -11.563  12.742  69.557  1.00  0.00    -0.342 A  
ENDBRANCH   5   8
TORSDOF 1
ENDMDL
MODEL        7
REMARK 921   NORMALIZED FREE ENERGY PREDICTED BY IDOCK:   -7.04 KCAL/MOL
REMARK 922        TOTAL FREE ENERGY PREDICTED BY IDOCK:   -7.68 KCAL/MOL
REMARK 923 INTER-LIGAND FREE ENERGY PREDICTED BY IDOCK:   -7.25 KCAL/MOL
REMARK 924 INTRA-LIGAND FREE ENERGY PREDICTED BY IDOCK:   -0.43 KCAL/MOL
REMARK 927      BINDING AFFINITY PREDICTED BY RF-SCORE:    0.00 PKD
ROOT
HETATM    1  C   UNL     1      -8.096   7.700  67.042  1.00  0.00    -0.117 C  
HETATM    2  N   UNL     1      -9.090   8.432  66.263  1.00  0.00    -0.182 NA 
HETATM    3  C   UNL     1     -10.401   8.471  66.943  1.00  0.00    -0.297 C  
HETATM    4  C   UNL     1     -10.476   9.391  68.182  1.00  0.00    -0.220 C  
HETATM    5  N   UNL     1      -9.998  10.744  67.869  1.00  0.00    -0.171 NA 
HETATM    6  C   UNL     1      -8.703  10.792  67.177  1.00  0.00    -0.131 C  
HETATM    7  C   UNL     1      -8.662   9.821  65.976  1.00  0.00    -0.141 C  
ENDROOT
BRANCH   5   8
HETATM    8  C   UNL     1     -10.706  11.908  68.180  1.00  0.00    -0.215 C  
HETATM    9  N   UNL     1     -10.959  12.172  69.434  1.00  0.00    -0.447 NA 
HETATM   10  C   UNL     1     -11.667  13.296  69.902  1.00  0.00    -0.259 A  
HETATM   11  H   UNL     1     -10.615  11.511  70.132  1.00  0.00     0.000 HD 
HETATM   12  C   UNL     1     -12.630  13.063  70.895  1.00  0.00    -0.364 A  
HETATM   13  C   UNL     1     -13.360  14.111  71.464  1.00  0.00    -0.424 A  
HETATM   14  C   UNL     1     -13.130  15.419  71.053  1.00  0.00    -0.565 A  
HETATM   15  C   UNL     1     -12.156  15.679  70.091  1.00  0.00    -0.400 A  
HETATM   16  C   UNL     1     -11.413  14.628  69.529  1.00  0.00    -0.297 A  
HETATM   17  S   UNL     1     -10.189  15.044  68.296  1.00  0.00    -0.225 SA 
HETATM   18  C   UNL     1     -10.929  14.135  66.959  1.00  0.00    -0.300 A  
HETATM   19  C   UNL     1     -11.167  12.757  67.026  1.00  0.00    -0.336 A  
HETATM   20  C   UNL     1     -11.786  12.098  65.952  1.00  0.00    -0.393 A  
HETATM   21  C   UNL     1     -12.139  12.810  64.810  1.00  0.00    -0.432 A  
HETATM   22  C   UNL     1     -11.907  14.180  64.735  1.00  0.00    -0.425 A  
HETATM   23 CL   UNL     1     -12.838  11.984  63.473  1.00  0.00    -0.595 Cl 
HETATM   24  C   UNL     1     -11.311  14.842  65.809  1.00  0.00    -0.314 A  
ENDBRANCH   5   8
TORSDOF 1
ENDMDL
MODEL        8
REMARK 921   NORMALIZED FREE ENERGY PREDICTED BY IDOCK:   -6.95 KCAL/MOL
REMARK 922        TOTAL FREE ENERGY PREDICTED BY IDOCK:   -7.59 KCAL/MOL
REMARK 923 INTER-LIGAND FREE ENERGY PREDICTED BY IDOCK:   -7.22 KCAL/MOL
REMARK 924 INTRA-LIGAND FREE ENERGY PREDICTED BY IDOCK:   -0.37 KCAL/MOL
REMARK 927      BINDING AFFINITY PREDICTED BY RF-SCORE:    0.00 PKD
ROOT
HETATM    1  C   UNL     1      -8.605  20.142  66.024  1.00  0.00    -0.127 C  
HETATM    2  N   UNL     1      -9.946  19.879  66.537  1.00  0.00    -0.438 NA 
HETATM    3  C   UNL     1     -10.486  18.599  66.036  1.00  0.00    -0.414 C  
HETATM    4  C   UNL     1      -9.844  17.329  66.639  1.00  0.00    -0.295 C  
HETATM    5  N   UNL     1      -9.857  17.373  68.108  1.00  0.00    -0.287 NA 
HETATM    6  C   UNL     1      -9.348  18.624  68.688  1.00  0.00    -0.341 C  
HETATM    7  C   UNL     1      -9.983  19.863  68.018  1.00  0.00    -0.429 C  
ENDROOT
BRANCH   5   8
HETATM    8  C   UNL     1     -10.324  16.330  68.911  1.00  0.00    -0.263 C  
HETATM    9  N   UNL     1     -11.276  16.578  69.771  1.00  0.00    -0.382 NA 
HETATM   10  C   UNL     1     -11.840  15.636  70.652  1.00  0.00    -0.376 A  
HETATM   11  H   UNL     1     -11.640  17.530  69.806  1.00  0.00     0.000 HD 
HETATM   12  C   UNL     1     -12.035  16.053  71.977  1.00  0.00    -0.622 A  
HETATM   13  C   UNL     1     -12.630  15.217  72.927  1.00  0.00    -0.512 A  
HETATM   14  C   UNL     1     -13.051  13.944  72.562  1.00  0.00    -0.533 A  
HETATM   15  C   UNL     1     -12.899  13.518  71.243  1.00  0.00    -0.420 A  
HETATM   16  C   UNL     1     -12.314  14.363  70.286  1.00  0.00    -0.348 A  
HETATM   17  S   UNL     1     -12.145  13.739  68.620  1.00  0.00    -0.190 SA 
HETATM   18  C   UNL     1     -10.370  13.805  68.556  1.00  0.00    -0.244 A  
HETATM   19  C   UNL     1      -9.653  14.992  68.752  1.00  0.00    -0.220 A  
HETATM   20  C   UNL     1      -8.249  14.977  68.723  1.00  0.00    -0.168 A  
HETATM   21  C   UNL     1      -7.572  13.789  68.473  1.00  0.00    -0.134 A  
HETATM   22  C   UNL     1      -8.275  12.605  68.277  1.00  0.00    -0.164 A  
HETATM   23 CL   UNL     1      -5.854  13.791  68.375  1.00  0.00    -0.091 Cl 
HETATM   24  C   UNL     1      -9.670  12.611  68.326  1.00  0.00    -0.216 A  
ENDBRANCH   5   8
TORSDOF 1
ENDMDL
MODEL        9
REMARK 921   NORMALIZED FREE ENERGY PREDICTED BY IDOCK:   -6.85 KCAL/MOL
REMARK 922        TOTAL FREE ENERGY PREDICTED BY IDOCK:   -7.49 KCAL/MOL
REMARK 923 INTER-LIGAND FREE ENERGY PREDICTED BY IDOCK:   -7.52 KCAL/MOL
REMARK 924 INTRA-LIGAND FREE ENERGY PREDICTED BY IDOCK:    0.04 KCAL/MOL
REMARK 927      BINDING AFFINITY PREDICTED BY RF-SCORE:    0.00 PKD
ROOT
HETATM    1  C   UNL     1     -13.051  14.896  73.264  1.00  0.00    -0.469 C  
HETATM    2  N   UNL     1     -13.812  14.463  72.095  1.00  0.00    -0.434 NA 
HETATM    3  C   UNL     1     -13.670  15.406  70.967  1.00  0.00    -0.342 C  
HETATM    4  C   UNL     1     -12.295  15.394  70.263  1.00  0.00    -0.388 C  
HETATM    5  N   UNL     1     -11.911  14.031  69.869  1.00  0.00    -0.317 NA 
HETATM    6  C   UNL     1     -12.038  13.026  70.934  1.00  0.00    -0.090 C  
HETATM    7  C   UNL     1     -13.410  13.112  71.638  1.00  0.00    -0.308 C  
ENDROOT
BRANCH   5   8
HETATM    8  C   UNL     1     -11.473  13.689  68.587  1.00  0.00    -0.307 C  
HETATM    9  N   UNL     1     -11.598  12.451  68.191  1.00  0.00    -0.321 NA 
HETATM   10  C   UNL     1     -11.194  11.953  66.937  1.00  0.00    -0.325 A  
HETATM   11  H   UNL     1     -12.022  11.790  68.843  1.00  0.00     0.000 HD 
HETATM   12  C   UNL     1     -10.506  10.731  66.938  1.00  0.00    -0.304 A  
HETATM   13  C   UNL     1     -10.098  10.122  65.747  1.00  0.00    -0.324 A  
HETATM   14  C   UNL     1     -10.383  10.724  64.528  1.00  0.00    -0.401 A  
HETATM   15  C   UNL     1     -11.094  11.923  64.500  1.00  0.00    -0.381 A  
HETATM   16  C   UNL     1     -11.515  12.528  65.695  1.00  0.00    -0.359 A  
HETATM   17  S   UNL     1     -12.414  14.068  65.573  1.00  0.00    -0.497 SA 
HETATM   18  C   UNL     1     -11.233  15.063  66.453  1.00  0.00    -0.310 A  
HETATM   19  C   UNL     1     -10.840  14.781  67.767  1.00  0.00    -0.278 A  
HETATM   20  C   UNL     1      -9.877  15.584  68.400  1.00  0.00    -0.210 A  
HETATM   21  C   UNL     1      -9.333  16.674  67.731  1.00  0.00    -0.222 A  
HETATM   22  C   UNL     1      -9.717  16.963  66.425  1.00  0.00    -0.301 A  
HETATM   23 CL   UNL     1      -8.202  17.691  68.536  1.00  0.00    -0.288 Cl 
HETATM   24  C   UNL     1     -10.658  16.155  65.785  1.00  0.00    -0.347 A  
ENDBRANCH   5   8
TORSDOF 1
ENDMDL
MODEL       10
REMARK 921   NORMALIZED FREE ENERGY PREDICTED BY IDOCK:   -6.82 KCAL/MOL
REMARK 922        TOTAL FREE ENERGY PREDICTED BY IDOCK:   -7.45 KCAL/MOL
REMARK 923 INTER-LIGAND FREE ENERGY PREDICTED BY IDOCK:   -7.08 KCAL/MOL
REMARK 924 INTRA-LIGAND FREE ENERGY PREDICTED BY IDOCK:   -0.37 KCAL/MOL
REMARK 927      BINDING AFFINITY PREDICTED BY RF-SCORE:    0.00 PKD
ROOT
HETATM    1  C   UNL     1     -12.479  12.250  63.513  1.00  0.00    -0.534 C  
HETATM    2  N   UNL     1     -12.719  12.491  64.933  1.00  0.00    -0.754 NA 
HETATM    3  C   UNL     1     -11.617  11.977  65.772  1.00  0.00    -0.290 C  
HETATM    4  C   UNL     1     -10.301  12.785  65.704  1.00  0.00    -0.279 C  
HETATM    5  N   UNL     1     -10.540  14.212  65.955  1.00  0.00    -0.290 NA 
HETATM    6  C   UNL     1     -11.634  14.799  65.168  1.00  0.00    -0.358 C  
HETATM    7  C   UNL     1     -12.910  13.930  65.229  1.00  0.00    -0.398 C  
ENDROOT
BRANCH   5   8
HETATM    8  C   UNL     1      -9.810  14.971  66.874  1.00  0.00    -0.238 C  
HETATM    9  N   UNL     1      -8.631  15.412  66.527  1.00  0.00    -0.350 NA 
HETATM   10  C   UNL     1      -7.776  16.177  67.344  1.00  0.00    -0.160 A  
HETATM   11  H   UNL     1      -8.302  15.185  65.588  1.00  0.00     0.000 HD 
HETATM   12  C   UNL     1      -6.424  15.808  67.358  1.00  0.00    -0.193 A  
HETATM   13  C   UNL     1      -5.478  16.525  68.098  1.00  0.00    -0.117 A  
HETATM   14  C   UNL     1      -5.871  17.637  68.832  1.00  0.00    -0.186 A  
HETATM   15  C   UNL     1      -7.204  18.044  68.808  1.00  0.00    -0.283 A  
HETATM   16  C   UNL     1      -8.152  17.332  68.054  1.00  0.00    -0.221 A  
HETATM   17  S   UNL     1      -9.841  17.912  68.083  1.00  0.00    -0.354 SA 
HETATM   18  C   UNL     1     -10.546  16.453  68.814  1.00  0.00    -0.310 A  
HETATM   19  C   UNL     1     -10.431  15.186  68.228  1.00  0.00    -0.241 A  
HETATM   20  C   UNL     1     -10.980  14.064  68.869  1.00  0.00    -0.283 A  
HETATM   21  C   UNL     1     -11.660  14.214  70.072  1.00  0.00    -0.248 A  
HETATM   22  C   UNL     1     -11.780  15.468  70.662  1.00  0.00    -0.389 A  
HETATM   23 CL   UNL     1     -12.385  12.844  70.818  1.00  0.00    -0.441 Cl 
HETATM   24  C   UNL     1     -11.218  16.584  70.039  1.00  0.00    -0.159 A  
ENDBRANCH   5   8
TORSDOF 1
ENDMDL
MODEL       11
REMARK 921   NORMALIZED FREE ENERGY PREDICTED BY IDOCK:   -6.66 KCAL/MOL
REMARK 922        TOTAL FREE ENERGY PREDICTED BY IDOCK:   -7.28 KCAL/MOL
REMARK 923 INTER-LIGAND FREE ENERGY PREDICTED BY IDOCK:   -6.90 KCAL/MOL
REMARK 924 INTRA-LIGAND FREE ENERGY PREDICTED BY IDOCK:   -0.38 KCAL/MOL
REMARK 927      BINDING AFFINITY PREDICTED BY RF-SCORE:    0.00 PKD
ROOT
HETATM    1  C   UNL     1     -11.812  12.245  63.572  1.00  0.00    -0.514 C  
HETATM    2  N   UNL     1     -11.288  13.569  63.894  1.00  0.00    -0.275 NA 
HETATM    3  C   UNL     1     -12.350  14.479  64.370  1.00  0.00    -0.413 C  
HETATM    4  C   UNL     1     -12.889  14.183  65.788  1.00  0.00    -0.329 C  
HETATM    5  N   UNL     1     -11.795  14.086  66.763  1.00  0.00    -0.402 NA 
HETATM    6  C   UNL     1     -10.688  13.207  66.358  1.00  0.00    -0.284 C  
HETATM    7  C   UNL     1     -10.218  13.511  64.917  1.00  0.00    -0.329 C  
ENDROOT
BRANCH   5   8
HETATM    8  C   UNL     1     -11.776  14.774  67.979  1.00  0.00    -0.333 C  
HETATM    9  N   UNL     1     -12.483  14.309  68.974  1.00  0.00    -0.538 NA 
HETATM   10  C   UNL     1     -12.573  14.895  70.251  1.00  0.00    -0.313 A  
HETATM   11  H   UNL     1     -13.013  13.452  68.812  1.00  0.00     0.000 HD 
HETATM   12  C   UNL     1     -13.854  14.979  70.815  1.00  0.00    -0.129 A  
HETATM   13  C   UNL     1     -14.055  15.501  72.097  1.00  0.00    -0.621 A  
HETATM   14  C   UNL     1     -12.969  15.939  72.844  1.00  0.00    -0.595 A  
HETATM   15  C   UNL     1     -11.682  15.835  72.319  1.00  0.00    -0.580 A  
HETATM   16  C   UNL     1     -11.479  15.299  71.037  1.00  0.00    -0.356 A  
HETATM   17  S   UNL     1      -9.800  15.208  70.433  1.00  0.00     0.658 SA 
HETATM   18  C   UNL     1     -10.025  16.292  69.042  1.00  0.00    -0.256 A  
HETATM   19  C   UNL     1     -10.965  16.040  68.035  1.00  0.00    -0.341 A  
HETATM   20  C   UNL     1     -11.121  16.950  66.977  1.00  0.00     0.195 A  
HETATM   21  C   UNL     1     -10.325  18.088  66.915  1.00  0.00    -0.370 A  
HETATM   22  C   UNL     1      -9.388  18.347  67.911  1.00  0.00    -0.291 A  
HETATM   23 CL   UNL     1     -10.478  19.165  65.583  1.00  0.00    -0.393 Cl 
HETATM   24  C   UNL     1      -9.243  17.456  68.976  1.00  0.00    -0.093 A  
ENDBRANCH   5   8
TORSDOF 1
ENDMDL
MODEL       12
REMARK 921   NORMALIZED FREE ENERGY PREDICTED BY IDOCK:   -6.51 KCAL/MOL
REMARK 922        TOTAL FREE ENERGY PREDICTED BY IDOCK:   -7.12 KCAL/MOL
REMARK 923 INTER-LIGAND FREE ENERGY PREDICTED BY IDOCK:   -6.71 KCAL/MOL
REMARK 924 INTRA-LIGAND FREE ENERGY PREDICTED BY IDOCK:   -0.40 KCAL/MOL
REMARK 927      BINDING AFFINITY PREDICTED BY RF-SCORE:    0.00 PKD
ROOT
HETATM    1  C   UNL     1      -7.646   8.209  66.926  1.00  0.00    -0.095 C  
HETATM    2  N   UNL     1      -7.713   8.999  68.152  1.00  0.00    -0.095 NA 
HETATM    3  C   UNL     1      -7.366  10.415  67.914  1.00  0.00    -0.086 C  
HETATM    4  C   UNL     1      -8.428  11.237  67.150  1.00  0.00    -0.149 C  
HETATM    5  N   UNL     1      -9.751  11.111  67.777  1.00  0.00    -0.169 NA 
HETATM    6  C   UNL     1     -10.166   9.730  68.062  1.00  0.00    -0.190 C  
HETATM    7  C   UNL     1      -9.053   8.937  68.782  1.00  0.00    -0.134 C  
ENDROOT
BRANCH   5   8
HETATM    8  C   UNL     1     -10.562  12.201  68.101  1.00  0.00    -0.216 C  
HETATM    9  N   UNL     1     -10.789  12.462  69.361  1.00  0.00    -0.454 NA 
HETATM   10  C   UNL     1     -11.591  13.515  69.841  1.00  0.00    -0.201 A  
HETATM   11  H   UNL     1     -10.349  11.854  70.052  1.00  0.00     0.000 HD 
HETATM   12  C   UNL     1     -12.482  13.204  70.879  1.00  0.00    -0.407 A  
HETATM   13  C   UNL     1     -13.293  14.182  71.463  1.00  0.00    -0.424 A  
HETATM   14  C   UNL     1     -13.218  15.497  71.023  1.00  0.00    -0.539 A  
HETATM   15  C   UNL     1     -12.317  15.838  70.016  1.00  0.00    -0.248 A  
HETATM   16  C   UNL     1     -11.493  14.859  69.438  1.00  0.00    -0.299 A  
HETATM   17  S   UNL     1     -10.371  15.375  68.147  1.00  0.00    -0.243 SA 
HETATM   18  C   UNL     1     -11.067  14.369  66.857  1.00  0.00    -0.323 A  
HETATM   19  C   UNL     1     -11.156  12.975  66.955  1.00  0.00    -0.311 A  
HETATM   20  C   UNL     1     -11.747  12.235  65.919  1.00  0.00    -0.451 A  
HETATM   21  C   UNL     1     -12.220  12.884  64.783  1.00  0.00    -0.445 A  
HETATM   22  C   UNL     1     -12.136  14.268  64.677  1.00  0.00    -0.478 A  
HETATM   23 CL   UNL     1     -12.884  11.964  63.490  1.00  0.00    -0.587 Cl 
HETATM   24  C   UNL     1     -11.568  15.010  65.714  1.00  0.00    -0.171 A  
ENDBRANCH   5   8
TORSDOF 1
ENDMDL
MODEL       13
REMARK 921   NORMALIZED FREE ENERGY PREDICTED BY IDOCK:   -6.50 KCAL/MOL
REMARK 922        TOTAL FREE ENERGY PREDICTED BY IDOCK:   -7.11 KCAL/MOL
REMARK 923 INTER-LIGAND FREE ENERGY PREDICTED BY IDOCK:   -7.39 KCAL/MOL
REMARK 924 INTRA-LIGAND FREE ENERGY PREDICTED BY IDOCK:    0.28 KCAL/MOL
REMARK 927      BINDING AFFINITY PREDICTED BY RF-SCORE:    0.00 PKD
ROOT
HETATM    1  C   UNL     1     -13.617  13.860  72.757  1.00  0.00    -0.380 C  
HETATM    2  N   UNL     1     -13.599  15.268  72.373  1.00  0.00    -0.441 NA 
HETATM    3  C   UNL     1     -12.269  15.877  72.576  1.00  0.00    -0.500 C  
HETATM    4  C   UNL     1     -11.179  15.435  71.574  1.00  0.00    -0.336 C  
HETATM    5  N   UNL     1     -11.633  15.601  70.187  1.00  0.00    -0.324 NA 
HETATM    6  C   UNL     1     -12.959  15.034  69.904  1.00  0.00     0.107 C  
HETATM    7  C   UNL     1     -14.001  15.465  70.960  1.00  0.00    -0.210 C  
ENDROOT
BRANCH   5   8
HETATM    8  C   UNL     1     -10.890  16.255  69.201  1.00  0.00    -0.314 C  
HETATM    9  N   UNL     1     -10.585  17.512  69.375  1.00  0.00    -0.350 NA 
HETATM   10  C   UNL     1      -9.854  18.305  68.469  1.00  0.00    -0.381 A  
HETATM   11  H   UNL     1     -10.901  17.957  70.237  1.00  0.00     0.000 HD 
HETATM   12  C   UNL     1     -10.348  19.594  68.221  1.00  0.00    -0.539 A  
HETATM   13  C   UNL     1      -9.677  20.483  67.375  1.00  0.00    -0.587 A  
HETATM   14  C   UNL     1      -8.490  20.097  66.766  1.00  0.00    -0.365 A  
HETATM   15  C   UNL     1      -7.961  18.833  67.023  1.00  0.00    -0.254 A  
HETATM   16  C   UNL     1      -8.627  17.945  67.883  1.00  0.00    -0.252 A  
HETATM   17  S   UNL     1      -7.889  16.340  68.153  1.00  0.00    -0.160 SA 
HETATM   18  C   UNL     1      -9.226  15.385  67.475  1.00  0.00    -0.199 A  
HETATM   19  C   UNL     1     -10.533  15.458  67.975  1.00  0.00    -0.257 A  
HETATM   20  C   UNL     1     -11.556  14.704  67.378  1.00  0.00    -0.408 A  
HETATM   21  C   UNL     1     -11.267  13.865  66.307  1.00  0.00    -0.309 A  
HETATM   22  C   UNL     1      -9.972  13.786  65.804  1.00  0.00    -0.293 A  
HETATM   23 CL   UNL     1     -12.512  12.896  65.623  1.00  0.00    -0.484 Cl 
HETATM   24  C   UNL     1      -8.956  14.549  66.381  1.00  0.00    -0.153 A  
ENDBRANCH   5   8
TORSDOF 1
ENDMDL
MODEL       14
REMARK 921   NORMALIZED FREE ENERGY PREDICTED BY IDOCK:   -6.42 KCAL/MOL
REMARK 922        TOTAL FREE ENERGY PREDICTED BY IDOCK:   -7.03 KCAL/MOL
REMARK 923 INTER-LIGAND FREE ENERGY PREDICTED BY IDOCK:   -6.59 KCAL/MOL
REMARK 924 INTRA-LIGAND FREE ENERGY PREDICTED BY IDOCK:   -0.44 KCAL/MOL
REMARK 927      BINDING AFFINITY PREDICTED BY RF-SCORE:    0.00 PKD
ROOT
HETATM    1  C   UNL     1     -10.307  19.620  66.422  1.00  0.00    -0.504 C  
HETATM    2  N   UNL     1      -9.271  18.737  66.951  1.00  0.00    -0.297 NA 
HETATM    3  C   UNL     1      -9.448  18.487  68.396  1.00  0.00    -0.341 C  
HETATM    4  C   UNL     1     -10.633  17.568  68.769  1.00  0.00    -0.241 C  
HETATM    5  N   UNL     1     -10.587  16.309  68.013  1.00  0.00    -0.296 NA 
HETATM    6  C   UNL     1     -10.398  16.470  66.564  1.00  0.00    -0.305 C  
HETATM    7  C   UNL     1      -9.235  17.436  66.245  1.00  0.00    -0.208 C  
ENDROOT
BRANCH   5   8
HETATM    8  C   UNL     1     -10.696  15.047  68.601  1.00  0.00    -0.244 C  
HETATM    9  N   UNL     1     -11.813  14.728  69.199  1.00  0.00    -0.341 NA 
HETATM   10  C   UNL     1     -12.068  13.502  69.844  1.00  0.00    -0.341 A  
HETATM   11  H   UNL     1     -12.560  15.423  69.199  1.00  0.00     0.000 HD 
HETATM   12  C   UNL     1     -12.695  13.570  71.097  1.00  0.00    -0.425 A  
HETATM   13  C   UNL     1     -13.038  12.414  71.806  1.00  0.00    -0.446 A  
HETATM   14  C   UNL     1     -12.767  11.164  71.264  1.00  0.00    -0.531 A  
HETATM   15  C   UNL     1     -12.175  11.070  70.006  1.00  0.00    -0.418 A  
HETATM   16  C   UNL     1     -11.843  12.230  69.288  1.00  0.00    -0.306 A  
HETATM   17  S   UNL     1     -11.078  12.025  67.686  1.00  0.00    -0.284 SA 
HETATM   18  C   UNL     1      -9.545  12.830  68.087  1.00  0.00    -0.223 A  
HETATM   19  C   UNL     1      -9.485  14.156  68.536  1.00  0.00    -0.202 A  
HETATM   20  C   UNL     1      -8.248  14.728  68.870  1.00  0.00    -0.165 A  
HETATM   21  C   UNL     1      -7.078  13.989  68.729  1.00  0.00    -0.108 A  
HETATM   22  C   UNL     1      -7.128  12.672  68.283  1.00  0.00    -0.105 A  
HETATM   23 CL   UNL     1      -5.561  14.719  69.078  1.00  0.00    -0.092 Cl 
HETATM   24  C   UNL     1      -8.358  12.091  67.970  1.00  0.00    -0.162 A  
ENDBRANCH   5   8
TORSDOF 1
ENDMDL
MODEL       15
REMARK 921   NORMALIZED FREE ENERGY PREDICTED BY IDOCK:   -6.39 KCAL/MOL
REMARK 922        TOTAL FREE ENERGY PREDICTED BY IDOCK:   -6.99 KCAL/MOL
REMARK 923 INTER-LIGAND FREE ENERGY PREDICTED BY IDOCK:   -6.63 KCAL/MOL
REMARK 924 INTRA-LIGAND FREE ENERGY PREDICTED BY IDOCK:   -0.36 KCAL/MOL
REMARK 927      BINDING AFFINITY PREDICTED BY RF-SCORE:    0.00 PKD
ROOT
HETATM    1  C   UNL     1      -9.079   9.671  64.373  1.00  0.00    -0.229 C  
HETATM    2  N   UNL     1      -8.456   9.589  65.691  1.00  0.00    -0.128 NA 
HETATM    3  C   UNL     1      -8.299  10.921  66.308  1.00  0.00    -0.164 C  
HETATM    4  C   UNL     1      -9.606  11.581  66.802  1.00  0.00    -0.186 C  
HETATM    5  N   UNL     1     -10.361  10.675  67.677  1.00  0.00    -0.197 NA 
HETATM    6  C   UNL     1     -10.550   9.319  67.141  1.00  0.00    -0.216 C  
HETATM    7  C   UNL     1      -9.224   8.724  66.617  1.00  0.00    -0.177 C  
ENDROOT
BRANCH   5   8
HETATM    8  C   UNL     1     -10.858  11.042  68.930  1.00  0.00    -0.217 C  
HETATM    9  N   UNL     1     -11.597  12.115  69.022  1.00  0.00    -0.296 NA 
HETATM   10  C   UNL     1     -12.158  12.616  70.213  1.00  0.00    -0.294 A  
HETATM   11  H   UNL     1     -11.784  12.631  68.162  1.00  0.00     0.000 HD 
HETATM   12  C   UNL     1     -12.057  13.999  70.422  1.00  0.00    -0.426 A  
HETATM   13  C   UNL     1     -12.619  14.611  71.547  1.00  0.00    -0.410 A  
HETATM   14  C   UNL     1     -13.304  13.845  72.482  1.00  0.00    -0.656 A  
HETATM   15  C   UNL     1     -13.447  12.473  72.280  1.00  0.00    -0.490 A  
HETATM   16  C   UNL     1     -12.895  11.861  71.143  1.00  0.00    -0.249 A  
HETATM   17  S   UNL     1     -13.115  10.097  70.962  1.00  0.00    -0.316 SA 
HETATM   18  C   UNL     1     -11.390   9.670  71.013  1.00  0.00    -0.374 A  
HETATM   19  C   UNL     1     -10.459  10.185  70.101  1.00  0.00    -0.311 A  
HETATM   20  C   UNL     1      -9.103   9.838  70.211  1.00  0.00    -0.208 A  
HETATM   21  C   UNL     1      -8.688   8.963  71.209  1.00  0.00    -0.215 A  
HETATM   22  C   UNL     1      -9.605   8.447  72.120  1.00  0.00    -0.367 A  
HETATM   23 CL   UNL     1      -7.036   8.493  71.297  1.00  0.00    -0.067 Cl 
HETATM   24  C   UNL     1     -10.951   8.805  72.027  1.00  0.00    -0.438 A  
ENDBRANCH   5   8
TORSDOF 1
ENDMDL
MODEL       16
REMARK 921   NORMALIZED FREE ENERGY PREDICTED BY IDOCK:   -6.38 KCAL/MOL
REMARK 922        TOTAL FREE ENERGY PREDICTED BY IDOCK:   -6.98 KCAL/MOL
REMARK 923 INTER-LIGAND FREE ENERGY PREDICTED BY IDOCK:   -7.21 KCAL/MOL
REMARK 924 INTRA-LIGAND FREE ENERGY PREDICTED BY IDOCK:    0.23 KCAL/MOL
REMARK 927      BINDING AFFINITY PREDICTED BY RF-SCORE:    0.00 PKD
ROOT
HETATM    1  C   UNL     1     -11.920  12.834  63.297  1.00  0.00    -0.443 C  
HETATM    2  N   UNL     1     -10.800  13.127  64.187  1.00  0.00    -0.400 NA 
HETATM    3  C   UNL     1     -11.039  14.344  64.988  1.00  0.00    -0.380 C  
HETATM    4  C   UNL     1     -12.089  14.201  66.113  1.00  0.00    -0.435 C  
HETATM    5  N   UNL     1     -11.793  13.047  66.973  1.00  0.00    -0.381 NA 
HETATM    6  C   UNL     1     -11.528  11.795  66.249  1.00  0.00    -0.227 C  
HETATM    7  C   UNL     1     -10.510  12.002  65.106  1.00  0.00    -0.289 C  
ENDROOT
BRANCH   5   8
HETATM    8  C   UNL     1     -11.745  13.111  68.368  1.00  0.00    -0.351 C  
HETATM    9  N   UNL     1     -12.296  14.132  68.968  1.00  0.00    -0.537 NA 
HETATM   10  C   UNL     1     -12.319  14.340  70.361  1.00  0.00    -0.352 A  
HETATM   11  H   UNL     1     -12.745  14.835  68.381  1.00  0.00     0.000 HD 
HETATM   12  C   UNL     1     -12.022  15.636  70.807  1.00  0.00    -0.438 A  
HETATM   13  C   UNL     1     -12.061  15.967  72.165  1.00  0.00    -0.611 A  
HETATM   14  C   UNL     1     -12.410  15.004  73.104  1.00  0.00    -0.506 A  
HETATM   15  C   UNL     1     -12.742  13.718  72.682  1.00  0.00    -0.196 A  
HETATM   16  C   UNL     1     -12.716  13.388  71.317  1.00  0.00    -0.338 A  
HETATM   17  S   UNL     1     -13.147  11.716  70.859  1.00  0.00     0.265 SA 
HETATM   18  C   UNL     1     -11.575  11.289  70.144  1.00  0.00    -0.305 A  
HETATM   19  C   UNL     1     -11.015  12.003  69.077  1.00  0.00    -0.260 A  
HETATM   20  C   UNL     1      -9.754  11.641  68.576  1.00  0.00    -0.187 A  
HETATM   21  C   UNL     1      -9.075  10.557  69.121  1.00  0.00    -0.166 A  
HETATM   22  C   UNL     1      -9.624   9.841  70.180  1.00  0.00    -0.287 A  
HETATM   23 CL   UNL     1      -7.561  10.079  68.458  1.00  0.00    -0.086 Cl 
HETATM   24  C   UNL     1     -10.867  10.211  70.696  1.00  0.00    -0.305 A  
ENDBRANCH   5   8
TORSDOF 1
ENDMDL
MODEL       17
REMARK 921   NORMALIZED FREE ENERGY PREDICTED BY IDOCK:   -6.29 KCAL/MOL
REMARK 922        TOTAL FREE ENERGY PREDICTED BY IDOCK:   -6.89 KCAL/MOL
REMARK 923 INTER-LIGAND FREE ENERGY PREDICTED BY IDOCK:   -6.45 KCAL/MOL
REMARK 924 INTRA-LIGAND FREE ENERGY PREDICTED BY IDOCK:   -0.45 KCAL/MOL
REMARK 927      BINDING AFFINITY PREDICTED BY RF-SCORE:    0.00 PKD
ROOT
HETATM    1  C   UNL     1     -12.249  13.719  63.592  1.00  0.00    -0.256 C  
HETATM    2  N   UNL     1     -11.125  13.894  64.508  1.00  0.00    -0.380 NA 
HETATM    3  C   UNL     1     -11.570  14.321  65.850  1.00  0.00    -0.358 C  
HETATM    4  C   UNL     1     -12.277  13.233  66.689  1.00  0.00    -0.298 C  
HETATM    5  N   UNL     1     -11.470  12.008  66.761  1.00  0.00    -0.423 NA 
HETATM    6  C   UNL     1     -10.973  11.524  65.465  1.00  0.00    -0.229 C  
HETATM    7  C   UNL     1     -10.320  12.658  64.645  1.00  0.00    -0.330 C  
ENDROOT
BRANCH   5   8
HETATM    8  C   UNL     1     -11.170  11.346  67.954  1.00  0.00    -0.288 C  
HETATM    9  N   UNL     1     -12.143  10.791  68.625  1.00  0.00    -0.816 NA 
HETATM   10  C   UNL     1     -12.000  10.101  69.844  1.00  0.00    -0.086 A  
HETATM   11  H   UNL     1     -13.083  10.864  68.235  1.00  0.00     0.000 HD 
HETATM   12  C   UNL     1     -12.941  10.389  70.844  1.00  0.00    -0.475 A  
HETATM   13  C   UNL     1     -12.922   9.729  72.077  1.00  0.00    -0.515 A  
HETATM   14  C   UNL     1     -11.961   8.757  72.327  1.00  0.00    -0.415 A  
HETATM   15  C   UNL     1     -11.035   8.430  71.338  1.00  0.00    -0.311 A  
HETATM   16  C   UNL     1     -11.063   9.082  70.095  1.00  0.00    -0.207 A  
HETATM   17  S   UNL     1      -9.837   8.612  68.883  1.00  0.00    -0.184 SA 
HETATM   18  C   UNL     1      -9.043  10.199  68.769  1.00  0.00    -0.153 A  
HETATM   19  C   UNL     1      -9.733  11.361  68.401  1.00  0.00    -0.203 A  
HETATM   20  C   UNL     1      -9.061  12.593  68.361  1.00  0.00    -0.128 A  
HETATM   21  C   UNL     1      -7.704  12.655  68.660  1.00  0.00    -0.066 A  
HETATM   22  C   UNL     1      -7.010  11.506  69.026  1.00  0.00    -0.112 A  
HETATM   23 CL   UNL     1      -6.873  14.157  68.545  1.00  0.00    -0.094 Cl 
HETATM   24  C   UNL     1      -7.680  10.282  69.088  1.00  0.00    -0.119 A  
ENDBRANCH   5   8
TORSDOF 1
ENDMDL
MODEL       18
REMARK 921   NORMALIZED FREE ENERGY PREDICTED BY IDOCK:   -6.28 KCAL/MOL
REMARK 922        TOTAL FREE ENERGY PREDICTED BY IDOCK:   -6.87 KCAL/MOL
REMARK 923 INTER-LIGAND FREE ENERGY PREDICTED BY IDOCK:   -6.45 KCAL/MOL
REMARK 924 INTRA-LIGAND FREE ENERGY PREDICTED BY IDOCK:   -0.42 KCAL/MOL
REMARK 927      BINDING AFFINITY PREDICTED BY RF-SCORE:    0.00 PKD
ROOT
HETATM    1  C   UNL     1     -12.602  11.741  64.070  1.00  0.00    -0.185 C  
HETATM    2  N   UNL     1     -11.344  11.798  64.810  1.00  0.00    -0.284 NA 
HETATM    3  C   UNL     1     -10.414  12.792  64.237  1.00  0.00    -0.399 C  
HETATM    4  C   UNL     1     -10.795  14.270  64.478  1.00  0.00    -0.288 C  
HETATM    5  N   UNL     1     -11.042  14.531  65.902  1.00  0.00    -0.321 NA 
HETATM    6  C   UNL     1     -11.949  13.575  66.553  1.00  0.00    -0.413 C  
HETATM    7  C   UNL     1     -11.554  12.114  66.242  1.00  0.00    -0.360 C  
ENDROOT
BRANCH   5   8
HETATM    8  C   UNL     1     -10.462  15.587  66.609  1.00  0.00    -0.299 C  
HETATM    9  N   UNL     1     -10.908  16.798  66.407  1.00  0.00    -0.080 NA 
HETATM   10  C   UNL     1     -10.419  17.960  67.034  1.00  0.00    -0.340 A  
HETATM   11  H   UNL     1     -11.673  16.911  65.740  1.00  0.00     0.000 HD 
HETATM   12  C   UNL     1     -10.213  19.078  66.212  1.00  0.00    -0.510 A  
HETATM   13  C   UNL     1      -9.774  20.298  66.736  1.00  0.00    -0.571 A  
HETATM   14  C   UNL     1      -9.543  20.423  68.100  1.00  0.00    -0.242 A  
HETATM   15  C   UNL     1      -9.772  19.336  68.942  1.00  0.00    -0.493 A  
HETATM   16  C   UNL     1     -10.226  18.115  68.418  1.00  0.00    -0.387 A  
HETATM   17  S   UNL     1     -10.487  16.767  69.562  1.00  0.00    -0.197 SA 
HETATM   18  C   UNL     1      -9.275  15.670  68.865  1.00  0.00    -0.226 A  
HETATM   19  C   UNL     1      -9.321  15.248  67.530  1.00  0.00    -0.204 A  
HETATM   20  C   UNL     1      -8.316  14.407  67.025  1.00  0.00    -0.172 A  
HETATM   21  C   UNL     1      -7.291  13.971  67.857  1.00  0.00    -0.157 A  
HETATM   22  C   UNL     1      -7.238  14.385  69.185  1.00  0.00    -0.118 A  
HETATM   23 CL   UNL     1      -6.101  12.888  67.249  1.00  0.00    -0.093 Cl 
HETATM   24  C   UNL     1      -8.223  15.238  69.685  1.00  0.00    -0.115 A  
ENDBRANCH   5   8
TORSDOF 1
ENDMDL
MODEL       19
REMARK 921   NORMALIZED FREE ENERGY PREDICTED BY IDOCK:   -6.08 KCAL/MOL
REMARK 922        TOTAL FREE ENERGY PREDICTED BY IDOCK:   -6.67 KCAL/MOL
REMARK 923 INTER-LIGAND FREE ENERGY PREDICTED BY IDOCK:   -6.22 KCAL/MOL
REMARK 924 INTRA-LIGAND FREE ENERGY PREDICTED BY IDOCK:   -0.44 KCAL/MOL
REMARK 927      BINDING AFFINITY PREDICTED BY RF-SCORE:    0.00 PKD
ROOT
HETATM    1  C   UNL     1      -8.447   8.267  65.179  1.00  0.00    -0.146 C  
HETATM    2  N   UNL     1      -8.136   8.061  66.590  1.00  0.00    -0.102 NA 
HETATM    3  C   UNL     1      -7.765   9.324  67.261  1.00  0.00    -0.095 C  
HETATM    4  C   UNL     1      -8.929  10.309  67.507  1.00  0.00    -0.134 C  
HETATM    5  N   UNL     1     -10.048   9.650  68.195  1.00  0.00    -0.167 NA 
HETATM    6  C   UNL     1     -10.470   8.376  67.597  1.00  0.00    -0.239 C  
HETATM    7  C   UNL     1      -9.266   7.447  67.326  1.00  0.00    -0.131 C  
ENDROOT
BRANCH   5   8
HETATM    8  C   UNL     1     -10.668  10.164  69.336  1.00  0.00    -0.238 C  
HETATM    9  N   UNL     1     -11.394  11.244  69.224  1.00  0.00    -0.260 NA 
HETATM   10  C   UNL     1     -12.069  11.884  70.281  1.00  0.00    -0.325 A  
HETATM   11  H   UNL     1     -11.479  11.657  68.294  1.00  0.00     0.000 HD 
HETATM   12  C   UNL     1     -11.966  13.281  70.338  1.00  0.00    -0.350 A  
HETATM   13  C   UNL     1     -12.632  14.024  71.318  1.00  0.00    -0.444 A  
HETATM   14  C   UNL     1     -13.427  13.377  72.256  1.00  0.00    -0.683 A  
HETATM   15  C   UNL     1     -13.572  11.992  72.200  1.00  0.00    -0.236 A  
HETATM   16  C   UNL     1     -12.913  11.247  71.208  1.00  0.00    -0.327 A  
HETATM   17  S   UNL     1     -13.144   9.475  71.210  1.00  0.00    -0.295 SA 
HETATM   18  C   UNL     1     -11.442   9.048  71.495  1.00  0.00    -0.337 A  
HETATM   19  C   UNL     1     -10.411   9.448  70.635  1.00  0.00    -0.349 A  
HETATM   20  C   UNL     1      -9.080   9.109  70.929  1.00  0.00    -0.316 A  
HETATM   21  C   UNL     1      -8.789   8.355  72.061  1.00  0.00    -0.211 A  
HETATM   22  C   UNL     1      -9.806   7.954  72.921  1.00  0.00    -0.348 A  
HETATM   23 CL   UNL     1      -7.164   7.889  72.380  1.00  0.00    -0.090 Cl 
HETATM   24  C   UNL     1     -11.128   8.306  72.643  1.00  0.00    -0.400 A  
ENDBRANCH   5   8
TORSDOF 1
ENDMDL
MODEL       20
REMARK 921   NORMALIZED FREE ENERGY PREDICTED BY IDOCK:   -6.06 KCAL/MOL
REMARK 922        TOTAL FREE ENERGY PREDICTED BY IDOCK:   -6.65 KCAL/MOL
REMARK 923 INTER-LIGAND FREE ENERGY PREDICTED BY IDOCK:   -6.43 KCAL/MOL
REMARK 924 INTRA-LIGAND FREE ENERGY PREDICTED BY IDOCK:   -0.21 KCAL/MOL
REMARK 927      BINDING AFFINITY PREDICTED BY RF-SCORE:    0.00 PKD
ROOT
HETATM    1  C   UNL     1     -12.548   9.013  71.834  1.00  0.00    -0.382 C  
HETATM    2  N   UNL     1     -11.596  10.089  71.571  1.00  0.00    -0.314 NA 
HETATM    3  C   UNL     1     -10.430   9.614  70.798  1.00  0.00    -0.305 C  
HETATM    4  C   UNL     1     -10.707   9.293  69.312  1.00  0.00    -0.196 C  
HETATM    5  N   UNL     1     -11.368  10.420  68.639  1.00  0.00    -0.244 NA 
HETATM    6  C   UNL     1     -12.533  10.962  69.353  1.00  0.00     0.032 C  
HETATM    7  C   UNL     1     -12.219  11.219  70.844  1.00  0.00    -0.356 C  
ENDROOT
BRANCH   5   8
HETATM    8  C   UNL     1     -10.936  10.961  67.426  1.00  0.00    -0.293 C  
HETATM    9  N   UNL     1     -10.567  10.148  66.472  1.00  0.00    -0.154 NA 
HETATM   10  C   UNL     1     -10.099  10.542  65.204  1.00  0.00    -0.314 A  
HETATM   11  H   UNL     1     -10.622   9.147  66.662  1.00  0.00     0.000 HD 
HETATM   12  C   UNL     1      -8.968   9.872  64.715  1.00  0.00    -0.255 A  
HETATM   13  C   UNL     1      -8.446  10.150  63.448  1.00  0.00    -0.185 A  
HETATM   14  C   UNL     1      -9.056  11.101  62.640  1.00  0.00    -0.366 A  
HETATM   15  C   UNL     1     -10.201  11.757  63.090  1.00  0.00    -0.376 A  
HETATM   16  C   UNL     1     -10.734  11.468  64.357  1.00  0.00    -0.344 A  
HETATM   17  S   UNL     1     -12.198  12.358  64.863  1.00  0.00    -0.359 SA 
HETATM   18  C   UNL     1     -11.469  13.169  66.267  1.00  0.00    -0.334 A  
HETATM   19  C   UNL     1     -10.886  12.462  67.327  1.00  0.00    -0.279 A  
HETATM   20  C   UNL     1     -10.295  13.157  68.394  1.00  0.00    -0.257 A  
HETATM   21  C   UNL     1     -10.312  14.547  68.412  1.00  0.00    -0.241 A  
HETATM   22  C   UNL     1     -10.889  15.258  67.364  1.00  0.00    -0.304 A  
HETATM   23 CL   UNL     1      -9.643  15.390  69.754  1.00  0.00    -0.248 Cl 
HETATM   24  C   UNL     1     -11.459  14.572  66.291  1.00  0.00    -0.358 A  
ENDBRANCH   5   8
TORSDOF 1
ENDMDL
MODEL       21
REMARK 921   NORMALIZED FREE ENERGY PREDICTED BY IDOCK:   -6.04 KCAL/MOL
REMARK 922        TOTAL FREE ENERGY PREDICTED BY IDOCK:   -6.62 KCAL/MOL
REMARK 923 INTER-LIGAND FREE ENERGY PREDICTED BY IDOCK:   -6.22 KCAL/MOL
REMARK 924 INTRA-LIGAND FREE ENERGY PREDICTED BY IDOCK:   -0.40 KCAL/MOL
REMARK 927      BINDING AFFINITY PREDICTED BY RF-SCORE:    0.00 PKD
ROOT
HETATM    1  C   UNL     1     -11.910  14.428  63.956  1.00  0.00    -0.194 C  
HETATM    2  N   UNL     1     -12.777  13.464  64.627  1.00  0.00    -0.671 NA 
HETATM    3  C   UNL     1     -12.211  12.100  64.593  1.00  0.00    -0.298 C  
HETATM    4  C   UNL     1     -10.990  11.867  65.511  1.00  0.00    -0.297 C  
HETATM    5  N   UNL     1     -11.271  12.292  66.888  1.00  0.00    -0.293 NA 
HETATM    6  C   UNL     1     -11.851  13.637  67.009  1.00  0.00    -0.408 C  
HETATM    7  C   UNL     1     -13.036  13.835  66.038  1.00  0.00    -0.073 C  
ENDROOT
BRANCH   5   8
HETATM    8  C   UNL     1     -11.029  11.495  68.010  1.00  0.00    -0.231 C  
HETATM    9  N   UNL     1     -12.048  11.034  68.684  1.00  0.00    -0.748 NA 
HETATM   10  C   UNL     1     -11.964  10.230  69.837  1.00  0.00    -0.150 A  
HETATM   11  H   UNL     1     -12.981  11.275  68.346  1.00  0.00     0.000 HD 
HETATM   12  C   UNL     1     -12.815  10.567  70.901  1.00  0.00    -0.485 A  
HETATM   13  C   UNL     1     -12.849   9.811  72.076  1.00  0.00    -0.491 A  
HETATM   14  C   UNL     1     -12.034   8.692  72.204  1.00  0.00    -0.449 A  
HETATM   15  C   UNL     1     -11.205   8.318  71.148  1.00  0.00    -0.296 A  
HETATM   16  C   UNL     1     -11.181   9.069  69.962  1.00  0.00    -0.128 A  
HETATM   17  S   UNL     1     -10.083   8.529  68.660  1.00  0.00    -0.193 SA 
HETATM   18  C   UNL     1      -9.068   9.988  68.630  1.00  0.00    -0.139 A  
HETATM   19  C   UNL     1      -9.590  11.265  68.387  1.00  0.00    -0.195 A  
HETATM   20  C   UNL     1      -8.744  12.385  68.409  1.00  0.00    -0.132 A  
HETATM   21  C   UNL     1      -7.383  12.224  68.646  1.00  0.00    -0.106 A  
HETATM   22  C   UNL     1      -6.855  10.960  68.889  1.00  0.00    -0.076 A  
HETATM   23 CL   UNL     1      -6.344  13.594  68.607  1.00  0.00    -0.084 Cl 
HETATM   24  C   UNL     1      -7.696   9.846  68.888  1.00  0.00    -0.085 A  
ENDBRANCH   5   8
TORSDOF 1
ENDMDL
MODEL       22
REMARK 921   NORMALIZED FREE ENERGY PREDICTED BY IDOCK:   -5.93 KCAL/MOL
REMARK 922        TOTAL FREE ENERGY PREDICTED BY IDOCK:   -6.50 KCAL/MOL
REMARK 923 INTER-LIGAND FREE ENERGY PREDICTED BY IDOCK:   -6.07 KCAL/MOL
REMARK 924 INTRA-LIGAND FREE ENERGY PREDICTED BY IDOCK:   -0.43 KCAL/MOL
REMARK 927      BINDING AFFINITY PREDICTED BY RF-SCORE:    0.00 PKD
ROOT
HETATM    1  C   UNL     1     -11.187   7.230  70.794  1.00  0.00    -0.274 C  
HETATM    2  N   UNL     1     -10.074   8.146  70.563  1.00  0.00    -0.191 NA 
HETATM    3  C   UNL     1      -9.639   8.138  69.151  1.00  0.00    -0.157 C  
HETATM    4  C   UNL     1     -10.605   8.823  68.158  1.00  0.00    -0.147 C  
HETATM    5  N   UNL     1     -10.948  10.181  68.602  1.00  0.00    -0.236 NA 
HETATM    6  C   UNL     1     -11.378  10.278  70.004  1.00  0.00    -0.301 C  
HETATM    7  C   UNL     1     -10.407   9.536  70.950  1.00  0.00    -0.302 C  
ENDROOT
BRANCH   5   8
HETATM    8  C   UNL     1     -10.868  11.309  67.781  1.00  0.00    -0.235 C  
HETATM    9  N   UNL     1     -11.762  11.468  66.843  1.00  0.00    -0.513 NA 
HETATM   10  C   UNL     1     -11.806  12.543  65.935  1.00  0.00    -0.430 A  
HETATM   11  H   UNL     1     -12.489  10.755  66.762  1.00  0.00     0.000 HD 
HETATM   12  C   UNL     1     -12.051  12.221  64.592  1.00  0.00    -0.449 A  
HETATM   13  C   UNL     1     -12.161  13.213  63.612  1.00  0.00    -0.583 A  
HETATM   14  C   UNL     1     -12.037  14.551  63.963  1.00  0.00    -0.271 A  
HETATM   15  C   UNL     1     -11.826  14.898  65.297  1.00  0.00    -0.217 A  
HETATM   16  C   UNL     1     -11.730  13.903  66.283  1.00  0.00    -0.383 A  
HETATM   17  S   UNL     1     -11.450  14.429  67.968  1.00  0.00    -0.328 SA 
HETATM   18  C   UNL     1      -9.878  13.626  68.175  1.00  0.00    -0.236 A  
HETATM   19  C   UNL     1      -9.712  12.244  68.017  1.00  0.00    -0.205 A  
HETATM   20  C   UNL     1      -8.439  11.669  68.160  1.00  0.00    -0.156 A  
HETATM   21  C   UNL     1      -7.348  12.467  68.485  1.00  0.00    -0.115 A  
HETATM   22  C   UNL     1      -7.503  13.841  68.643  1.00  0.00    -0.116 A  
HETATM   23 CL   UNL     1      -5.804  11.746  68.722  1.00  0.00    -0.046 Cl 
HETATM   24  C   UNL     1      -8.763  14.420  68.481  1.00  0.00    -0.180 A  
ENDBRANCH   5   8
TORSDOF 1
ENDMDL
MODEL       23
REMARK 921   NORMALIZED FREE ENERGY PREDICTED BY IDOCK:   -5.90 KCAL/MOL
REMARK 922        TOTAL FREE ENERGY PREDICTED BY IDOCK:   -6.47 KCAL/MOL
REMARK 923 INTER-LIGAND FREE ENERGY PREDICTED BY IDOCK:   -6.56 KCAL/MOL
REMARK 924 INTRA-LIGAND FREE ENERGY PREDICTED BY IDOCK:    0.09 KCAL/MOL
REMARK 927      BINDING AFFINITY PREDICTED BY RF-SCORE:    0.00 PKD
ROOT
HETATM    1  C   UNL     1     -11.810  15.441  72.523  1.00  0.00    -0.462 C  
HETATM    2  N   UNL     1     -12.273  15.844  71.198  1.00  0.00    -0.419 NA 
HETATM    3  C   UNL     1     -11.161  16.317  70.348  1.00  0.00    -0.324 C  
HETATM    4  C   UNL     1     -10.200  15.218  69.842  1.00  0.00    -0.217 C  
HETATM    5  N   UNL     1     -10.937  14.125  69.195  1.00  0.00    -0.257 NA 
HETATM    6  C   UNL     1     -12.071  13.604  69.971  1.00  0.00    -0.348 C  
HETATM    7  C   UNL     1     -12.973  14.744  70.494  1.00  0.00    -0.286 C  
ENDROOT
BRANCH   5   8
HETATM    8  C   UNL     1     -10.615  13.611  67.936  1.00  0.00    -0.249 C  
HETATM    9  N   UNL     1     -10.096  12.415  67.860  1.00  0.00    -0.203 NA 
HETATM   10  C   UNL     1      -9.711  11.770  66.668  1.00  0.00    -0.202 A  
HETATM   11  H   UNL     1      -9.959  11.907  68.734  1.00  0.00     0.000 HD 
HETATM   12  C   UNL     1      -8.472  11.113  66.682  1.00  0.00    -0.164 A  
HETATM   13  C   UNL     1      -8.011  10.401  65.570  1.00  0.00    -0.153 A  
HETATM   14  C   UNL     1      -8.791  10.326  64.423  1.00  0.00    -0.229 A  
HETATM   15  C   UNL     1     -10.041  10.943  64.397  1.00  0.00    -0.402 A  
HETATM   16  C   UNL     1     -10.510  11.646  65.518  1.00  0.00    -0.273 A  
HETATM   17  S   UNL     1     -12.119  12.416  65.401  1.00  0.00    -0.276 SA 
HETATM   18  C   UNL     1     -11.560  14.090  65.616  1.00  0.00    -0.331 A  
HETATM   19  C   UNL     1     -10.853  14.508  66.751  1.00  0.00    -0.305 A  
HETATM   20  C   UNL     1     -10.407  15.836  66.851  1.00  0.00    -0.295 A  
HETATM   21  C   UNL     1     -10.690  16.742  65.835  1.00  0.00    -0.163 A  
HETATM   22  C   UNL     1     -11.391  16.336  64.704  1.00  0.00    -0.237 A  
HETATM   23 CL   UNL     1     -10.197  18.383  65.994  1.00  0.00    -0.386 Cl 
HETATM   24  C   UNL     1     -11.818  15.012  64.591  1.00  0.00    -0.378 A  
ENDBRANCH   5   8
TORSDOF 1
ENDMDL
MODEL       24
REMARK 921   NORMALIZED FREE ENERGY PREDICTED BY IDOCK:   -5.89 KCAL/MOL
REMARK 922        TOTAL FREE ENERGY PREDICTED BY IDOCK:   -6.46 KCAL/MOL
REMARK 923 INTER-LIGAND FREE ENERGY PREDICTED BY IDOCK:   -6.03 KCAL/MOL
REMARK 924 INTRA-LIGAND FREE ENERGY PREDICTED BY IDOCK:   -0.43 KCAL/MOL
REMARK 927      BINDING AFFINITY PREDICTED BY RF-SCORE:    0.00 PKD
ROOT
HETATM    1  C   UNL     1      -9.393   5.103  66.029  1.00  0.00    -0.158 C  
HETATM    2  N   UNL     1      -8.833   5.405  67.343  1.00  0.00    -0.107 NA 
HETATM    3  C   UNL     1      -8.362   6.802  67.431  1.00  0.00    -0.122 C  
HETATM    4  C   UNL     1      -9.474   7.873  67.495  1.00  0.00    -0.145 C  
HETATM    5  N   UNL     1     -10.444   7.570  68.555  1.00  0.00    -0.197 NA 
HETATM    6  C   UNL     1     -10.953   6.191  68.546  1.00  0.00    -0.320 C  
HETATM    7  C   UNL     1      -9.806   5.162  68.433  1.00  0.00    -0.152 C  
ENDROOT
BRANCH   5   8
HETATM    8  C   UNL     1     -10.856   8.496  69.517  1.00  0.00    -0.125 C  
HETATM    9  N   UNL     1     -11.469   9.580  69.123  1.00  0.00    -0.439 NA 
HETATM   10  C   UNL     1     -11.932  10.605  69.969  1.00  0.00    -0.329 A  
HETATM   11  H   UNL     1     -11.624   9.692  68.120  1.00  0.00     0.000 HD 
HETATM   12  C   UNL     1     -11.670  11.922  69.562  1.00  0.00    -0.410 A  
HETATM   13  C   UNL     1     -12.124  13.019  70.302  1.00  0.00    -0.388 A  
HETATM   14  C   UNL     1     -12.859  12.815  71.463  1.00  0.00    -0.369 A  
HETATM   15  C   UNL     1     -13.161  11.516  71.870  1.00  0.00    -0.492 A  
HETATM   16  C   UNL     1     -12.717  10.415  71.121  1.00  0.00    -0.415 A  
HETATM   17  S   UNL     1     -13.137   8.783  71.715  1.00  0.00    -0.383 SA 
HETATM   18  C   UNL     1     -11.469   8.226  71.978  1.00  0.00    -0.334 A  
HETATM   19  C   UNL     1     -10.517   8.187  70.951  1.00  0.00    -0.229 A  
HETATM   20  C   UNL     1      -9.205   7.770  71.225  1.00  0.00    -0.158 A  
HETATM   21  C   UNL     1      -8.857   7.370  72.511  1.00  0.00    -0.128 A  
HETATM   22  C   UNL     1      -9.796   7.405  73.537  1.00  0.00    -0.363 A  
HETATM   23 CL   UNL     1      -7.265   6.798  72.824  1.00  0.00    -0.079 Cl 
HETATM   24  C   UNL     1     -11.096   7.839  73.274  1.00  0.00    -0.190 A  
ENDBRANCH   5   8
TORSDOF 1
ENDMDL
MODEL       25
REMARK 921   NORMALIZED FREE ENERGY PREDICTED BY IDOCK:   -5.84 KCAL/MOL
REMARK 922        TOTAL FREE ENERGY PREDICTED BY IDOCK:   -6.41 KCAL/MOL
REMARK 923 INTER-LIGAND FREE ENERGY PREDICTED BY IDOCK:   -5.98 KCAL/MOL
REMARK 924 INTRA-LIGAND FREE ENERGY PREDICTED BY IDOCK:   -0.43 KCAL/MOL
REMARK 927      BINDING AFFINITY PREDICTED BY RF-SCORE:    0.00 PKD
ROOT
HETATM    1  C   UNL     1     -10.145   7.418  73.760  1.00  0.00    -0.278 C  
HETATM    2  N   UNL     1     -10.381   7.038  72.370  1.00  0.00    -0.198 NA 
HETATM    3  C   UNL     1     -11.579   7.700  71.815  1.00  0.00    -0.270 C  
HETATM    4  C   UNL     1     -11.428   9.212  71.533  1.00  0.00    -0.367 C  
HETATM    5  N   UNL     1     -10.241   9.483  70.711  1.00  0.00    -0.293 NA 
HETATM    6  C   UNL     1      -9.006   8.846  71.188  1.00  0.00    -0.241 C  
HETATM    7  C   UNL     1      -9.222   7.349  71.502  1.00  0.00    -0.140 C  
ENDROOT
BRANCH   5   8
HETATM    8  C   UNL     1     -10.261  10.268  69.555  1.00  0.00    -0.236 C  
HETATM    9  N   UNL     1     -10.608  11.523  69.655  1.00  0.00    -0.437 NA 
HETATM   10  C   UNL     1     -10.686  12.433  68.583  1.00  0.00    -0.232 A  
HETATM   11  H   UNL     1     -10.842  11.873  70.585  1.00  0.00     0.000 HD 
HETATM   12  C   UNL     1     -11.817  13.261  68.541  1.00  0.00    -0.384 A  
HETATM   13  C   UNL     1     -11.976  14.232  67.548  1.00  0.00    -0.411 A  
HETATM   14  C   UNL     1     -10.994  14.399  66.579  1.00  0.00    -0.316 A  
HETATM   15  C   UNL     1      -9.844  13.611  66.619  1.00  0.00    -0.284 A  
HETATM   16  C   UNL     1      -9.679  12.645  67.624  1.00  0.00    -0.197 A  
HETATM   17  S   UNL     1      -8.181  11.670  67.599  1.00  0.00    -0.150 SA 
HETATM   18  C   UNL     1      -8.969  10.093  67.364  1.00  0.00    -0.134 A  
HETATM   19  C   UNL     1      -9.918   9.584  68.259  1.00  0.00    -0.184 A  
HETATM   20  C   UNL     1     -10.531   8.347  68.003  1.00  0.00    -0.242 A  
HETATM   21  C   UNL     1     -10.177   7.616  66.875  1.00  0.00    -0.294 A  
HETATM   22  C   UNL     1      -9.235   8.113  65.980  1.00  0.00    -0.207 A  
HETATM   23 CL   UNL     1     -10.886   6.072  66.603  1.00  0.00    -0.343 Cl 
HETATM   24  C   UNL     1      -8.638   9.352  66.219  1.00  0.00    -0.142 A  
ENDBRANCH   5   8
TORSDOF 1
ENDMDL
MODEL       26
REMARK 921   NORMALIZED FREE ENERGY PREDICTED BY IDOCK:   -5.80 KCAL/MOL
REMARK 922        TOTAL FREE ENERGY PREDICTED BY IDOCK:   -6.37 KCAL/MOL
REMARK 923 INTER-LIGAND FREE ENERGY PREDICTED BY IDOCK:   -5.97 KCAL/MOL
REMARK 924 INTRA-LIGAND FREE ENERGY PREDICTED BY IDOCK:   -0.41 KCAL/MOL
REMARK 927      BINDING AFFINITY PREDICTED BY RF-SCORE:    0.00 PKD
ROOT
HETATM    1  C   UNL     1     -11.711  14.878  64.484  1.00  0.00    -0.382 C  
HETATM    2  N   UNL     1     -12.547  14.028  65.327  1.00  0.00    -0.591 NA 
HETATM    3  C   UNL     1     -12.514  12.618  64.890  1.00  0.00    -0.494 C  
HETATM    4  C   UNL     1     -11.196  11.866  65.181  1.00  0.00    -0.289 C  
HETATM    5  N   UNL     1     -10.810  11.994  66.592  1.00  0.00    -0.260 NA 
HETATM    6  C   UNL     1     -10.831  13.370  67.111  1.00  0.00    -0.276 C  
HETATM    7  C   UNL     1     -12.148  14.094  66.752  1.00  0.00    -0.442 C  
ENDROOT
BRANCH   5   8
HETATM    8  C   UNL     1     -10.462  10.911  67.403  1.00  0.00    -0.224 C  
HETATM    9  N   UNL     1     -11.220  10.625  68.427  1.00  0.00    -0.274 NA 
HETATM   10  C   UNL     1     -10.993   9.575  69.338  1.00  0.00    -0.170 A  
HETATM   11  H   UNL     1     -12.043  11.209  68.580  1.00  0.00     0.000 HD 
HETATM   12  C   UNL     1     -11.153   9.877  70.698  1.00  0.00    -0.409 A  
HETATM   13  C   UNL     1     -10.998   8.900  71.687  1.00  0.00    -0.415 A  
HETATM   14  C   UNL     1     -10.688   7.594  71.328  1.00  0.00    -0.248 A  
HETATM   15  C   UNL     1     -10.557   7.261  69.980  1.00  0.00    -0.247 A  
HETATM   16  C   UNL     1     -10.726   8.239  68.987  1.00  0.00    -0.079 A  
HETATM   17  S   UNL     1     -10.532   7.734  67.284  1.00  0.00    -0.318 SA 
HETATM   18  C   UNL     1      -9.144   8.783  66.917  1.00  0.00    -0.139 A  
HETATM   19  C   UNL     1      -9.196  10.176  67.053  1.00  0.00    -0.166 A  
HETATM   20  C   UNL     1      -8.057  10.951  66.781  1.00  0.00    -0.142 A  
HETATM   21  C   UNL     1      -6.886  10.337  66.349  1.00  0.00    -0.106 A  
HETATM   22  C   UNL     1      -6.825   8.954  66.211  1.00  0.00    -0.074 A  
HETATM   23 CL   UNL     1      -5.516  11.299  65.955  1.00  0.00    -0.125 Cl 
HETATM   24  C   UNL     1      -7.949   8.178  66.501  1.00  0.00    -0.101 A  
ENDBRANCH   5   8
TORSDOF 1
ENDMDL
MODEL       27
REMARK 921   NORMALIZED FREE ENERGY PREDICTED BY IDOCK:   -5.73 KCAL/MOL
REMARK 922        TOTAL FREE ENERGY PREDICTED BY IDOCK:   -6.30 KCAL/MOL
REMARK 923 INTER-LIGAND FREE ENERGY PREDICTED BY IDOCK:   -5.93 KCAL/MOL
REMARK 924 INTRA-LIGAND FREE ENERGY PREDICTED BY IDOCK:   -0.37 KCAL/MOL
REMARK 927      BINDING AFFINITY PREDICTED BY RF-SCORE:    0.00 PKD
ROOT
HETATM    1  C   UNL     1     -12.224  14.729  73.579  1.00  0.00    -0.297 C  
HETATM    2  N   UNL     1     -13.061  15.051  72.426  1.00  0.00    -0.341 NA 
HETATM    3  C   UNL     1     -12.474  16.129  71.605  1.00  0.00    -0.216 C  
HETATM    4  C   UNL     1     -11.231  15.730  70.779  1.00  0.00    -0.375 C  
HETATM    5  N   UNL     1     -11.491  14.529  69.973  1.00  0.00    -0.266 NA 
HETATM    6  C   UNL     1     -12.090  13.411  70.716  1.00  0.00    -0.250 C  
HETATM    7  C   UNL     1     -13.298  13.871  71.562  1.00  0.00    -0.335 C  
ENDROOT
BRANCH   5   8
HETATM    8  C   UNL     1     -11.214  14.437  68.607  1.00  0.00    -0.259 C  
HETATM    9  N   UNL     1     -12.183  14.121  67.791  1.00  0.00    -0.569 NA 
HETATM   10  C   UNL     1     -12.057  13.979  66.395  1.00  0.00    -0.455 A  
HETATM   11  H   UNL     1     -13.107  13.964  68.197  1.00  0.00     0.000 HD 
HETATM   12  C   UNL     1     -12.680  12.863  65.818  1.00  0.00     0.022 A  
HETATM   13  C   UNL     1     -12.658  12.647  64.436  1.00  0.00    -0.470 A  
HETATM   14  C   UNL     1     -12.017  13.556  63.604  1.00  0.00    -0.439 A  
HETATM   15  C   UNL     1     -11.420  14.691  64.150  1.00  0.00    -0.040 A  
HETATM   16  C   UNL     1     -11.453  14.914  65.536  1.00  0.00    -0.307 A  
HETATM   17  S   UNL     1     -10.656  16.388  66.158  1.00  0.00    -0.204 SA 
HETATM   18  C   UNL     1      -9.442  15.556  67.156  1.00  0.00    -0.215 A  
HETATM   19  C   UNL     1      -9.789  14.669  68.182  1.00  0.00    -0.224 A  
HETATM   20  C   UNL     1      -8.786  14.015  68.915  1.00  0.00     0.063 A  
HETATM   21  C   UNL     1      -7.447  14.270  68.640  1.00  0.00    -0.127 A  
HETATM   22  C   UNL     1      -7.091  15.150  67.623  1.00  0.00    -0.210 A  
HETATM   23 CL   UNL     1      -6.224  13.515  69.585  1.00  0.00    -0.120 Cl 
HETATM   24  C   UNL     1      -8.086  15.786  66.877  1.00  0.00    -0.292 A  
ENDBRANCH   5   8
TORSDOF 1
ENDMDL
MODEL       28
REMARK 921   NORMALIZED FREE ENERGY PREDICTED BY IDOCK:   -5.66 KCAL/MOL
REMARK 922        TOTAL FREE ENERGY PREDICTED BY IDOCK:   -6.22 KCAL/MOL
REMARK 923 INTER-LIGAND FREE ENERGY PREDICTED BY IDOCK:   -5.77 KCAL/MOL
REMARK 924 INTRA-LIGAND FREE ENERGY PREDICTED BY IDOCK:   -0.44 KCAL/MOL
REMARK 927      BINDING AFFINITY PREDICTED BY RF-SCORE:    0.00 PKD
ROOT
HETATM    1  C   UNL     1     -10.485  19.412  66.245  1.00  0.00    -0.493 C  
HETATM    2  N   UNL     1      -9.425  18.879  67.096  1.00  0.00    -0.299 NA 
HETATM    3  C   UNL     1      -9.949  18.398  68.391  1.00  0.00    -0.379 C  
HETATM    4  C   UNL     1     -10.764  17.088  68.329  1.00  0.00    -0.372 C  
HETATM    5  N   UNL     1     -10.021  16.030  67.631  1.00  0.00    -0.236 NA 
HETATM    6  C   UNL     1      -9.453  16.433  66.337  1.00  0.00    -0.293 C  
HETATM    7  C   UNL     1      -8.689  17.772  66.441  1.00  0.00    -0.228 C  
ENDROOT
BRANCH   5   8
HETATM    8  C   UNL     1      -9.840  14.742  68.141  1.00  0.00    -0.221 C  
HETATM    9  N   UNL     1     -10.886  13.975  68.292  1.00  0.00    -0.248 NA 
HETATM   10  C   UNL     1     -10.865  12.662  68.801  1.00  0.00    -0.231 A  
HETATM   11  H   UNL     1     -11.792  14.357  68.017  1.00  0.00     0.000 HD 
HETATM   12  C   UNL     1     -11.856  12.336  69.739  1.00  0.00    -0.388 A  
HETATM   13  C   UNL     1     -11.957  11.049  70.276  1.00  0.00    -0.452 A  
HETATM   14  C   UNL     1     -11.070  10.058  69.874  1.00  0.00    -0.336 A  
HETATM   15  C   UNL     1     -10.097  10.349  68.919  1.00  0.00    -0.213 A  
HETATM   16  C   UNL     1     -10.004  11.638  68.369  1.00  0.00    -0.201 A  
HETATM   17  S   UNL     1      -8.724  11.932  67.157  1.00  0.00    -0.182 SA 
HETATM   18  C   UNL     1      -7.840  13.162  68.088  1.00  0.00    -0.145 A  
HETATM   19  C   UNL     1      -8.439  14.350  68.525  1.00  0.00    -0.170 A  
HETATM   20  C   UNL     1      -7.700  15.270  69.286  1.00  0.00    -0.214 A  
HETATM   21  C   UNL     1      -6.366  15.013  69.584  1.00  0.00    -0.142 A  
HETATM   22  C   UNL     1      -5.762  13.835  69.154  1.00  0.00    -0.083 A  
HETATM   23 CL   UNL     1      -5.450  16.175  70.461  1.00  0.00    -0.164 Cl 
HETATM   24  C   UNL     1      -6.499  12.909  68.415  1.00  0.00    -0.082 A  
ENDBRANCH   5   8
TORSDOF 1
ENDMDL
MODEL       29
REMARK 921   NORMALIZED FREE ENERGY PREDICTED BY IDOCK:   -5.62 KCAL/MOL
REMARK 922        TOTAL FREE ENERGY PREDICTED BY IDOCK:   -6.18 KCAL/MOL
REMARK 923 INTER-LIGAND FREE ENERGY PREDICTED BY IDOCK:   -5.90 KCAL/MOL
REMARK 924 INTRA-LIGAND FREE ENERGY PREDICTED BY IDOCK:   -0.28 KCAL/MOL
REMARK 927      BINDING AFFINITY PREDICTED BY RF-SCORE:    0.00 PKD
ROOT
HETATM    1  C   UNL     1      -7.927   8.070  63.776  1.00  0.00    -0.123 C  
HETATM    2  N   UNL     1      -7.814   9.496  63.486  1.00  0.00    -0.127 NA 
HETATM    3  C   UNL     1      -9.138  10.144  63.392  1.00  0.00    -0.276 C  
HETATM    4  C   UNL     1      -9.884  10.323  64.733  1.00  0.00    -0.334 C  
HETATM    5  N   UNL     1      -9.035  10.990  65.729  1.00  0.00    -0.193 NA 
HETATM    6  C   UNL     1      -7.691  10.413  65.874  1.00  0.00    -0.145 C  
HETATM    7  C   UNL     1      -7.007  10.209  64.504  1.00  0.00    -0.117 C  
ENDROOT
BRANCH   5   8
HETATM    8  C   UNL     1      -9.443  12.095  66.481  1.00  0.00    -0.231 C  
HETATM    9  N   UNL     1      -9.109  13.290  66.072  1.00  0.00    -0.447 NA 
HETATM   10  C   UNL     1      -9.436  14.494  66.726  1.00  0.00    -0.269 A  
HETATM   11  H   UNL     1      -8.569  13.356  65.209  1.00  0.00     0.000 HD 
HETATM   12  C   UNL     1      -8.411  15.443  66.844  1.00  0.00    -0.290 A  
HETATM   13  C   UNL     1      -8.635  16.691  67.433  1.00  0.00    -0.203 A  
HETATM   14  C   UNL     1      -9.899  17.016  67.908  1.00  0.00    -0.269 A  
HETATM   15  C   UNL     1     -10.943  16.102  67.772  1.00  0.00    -0.293 A  
HETATM   16  C   UNL     1     -10.722  14.854  67.168  1.00  0.00    -0.296 A  
HETATM   17  S   UNL     1     -12.109  13.735  67.040  1.00  0.00    -0.354 SA 
HETATM   18  C   UNL     1     -11.423  12.443  68.049  1.00  0.00    -0.322 A  
HETATM   19  C   UNL     1     -10.208  11.816  67.746  1.00  0.00    -0.205 A  
HETATM   20  C   UNL     1      -9.698  10.824  68.599  1.00  0.00    -0.187 A  
HETATM   21  C   UNL     1     -10.413  10.444  69.730  1.00  0.00    -0.240 A  
HETATM   22  C   UNL     1     -11.621  11.062  70.039  1.00  0.00    -0.427 A  
HETATM   23 CL   UNL     1      -9.814   9.183  70.734  1.00  0.00    -0.306 Cl 
HETATM   24  C   UNL     1     -12.121  12.063  69.206  1.00  0.00    -0.249 A  
ENDBRANCH   5   8
TORSDOF 1
ENDMDL
MODEL       30
REMARK 921   NORMALIZED FREE ENERGY PREDICTED BY IDOCK:   -5.60 KCAL/MOL
REMARK 922        TOTAL FREE ENERGY PREDICTED BY IDOCK:   -6.16 KCAL/MOL
REMARK 923 INTER-LIGAND FREE ENERGY PREDICTED BY IDOCK:   -5.85 KCAL/MOL
REMARK 924 INTRA-LIGAND FREE ENERGY PREDICTED BY IDOCK:   -0.31 KCAL/MOL
REMARK 927      BINDING AFFINITY PREDICTED BY RF-SCORE:    0.00 PKD
ROOT
HETATM    1  C   UNL     1     -13.553  15.536  71.297  1.00  0.00    -0.439 C  
HETATM    2  N   UNL     1     -12.318  14.803  71.563  1.00  0.00    -0.326 NA 
HETATM    3  C   UNL     1     -12.408  13.397  71.119  1.00  0.00    -0.259 C  
HETATM    4  C   UNL     1     -12.382  13.183  69.589  1.00  0.00    -0.071 C  
HETATM    5  N   UNL     1     -11.232  13.861  68.977  1.00  0.00    -0.263 NA 
HETATM    6  C   UNL     1     -11.063  15.265  69.379  1.00  0.00    -0.280 C  
HETATM    7  C   UNL     1     -11.145  15.432  70.913  1.00  0.00    -0.332 C  
ENDROOT
BRANCH   5   8
HETATM    8  C   UNL     1     -10.346  13.241  68.092  1.00  0.00    -0.244 C  
HETATM    9  N   UNL     1      -9.203  12.807  68.550  1.00  0.00    -0.377 NA 
HETATM   10  C   UNL     1      -8.207  12.174  67.782  1.00  0.00    -0.154 A  
HETATM   11  H   UNL     1      -9.016  12.937  69.545  1.00  0.00     0.000 HD 
HETATM   12  C   UNL     1      -6.886  12.592  67.997  1.00  0.00    -0.095 A  
HETATM   13  C   UNL     1      -5.813  12.001  67.324  1.00  0.00    -0.142 A  
HETATM   14  C   UNL     1      -6.044  10.967  66.425  1.00  0.00    -0.141 A  
HETATM   15  C   UNL     1      -7.345  10.511  66.218  1.00  0.00    -0.133 A  
HETATM   16  C   UNL     1      -8.421  11.095  66.905  1.00  0.00    -0.147 A  
HETATM   17  S   UNL     1     -10.059  10.459  66.577  1.00  0.00    -0.232 SA 
HETATM   18  C   UNL     1     -10.735  11.966  65.918  1.00  0.00    -0.284 A  
HETATM   19  C   UNL     1     -10.767  13.160  66.650  1.00  0.00    -0.286 A  
HETATM   20  C   UNL     1     -11.282  14.328  66.064  1.00  0.00    -0.324 A  
HETATM   21  C   UNL     1     -11.786  14.292  64.769  1.00  0.00    -0.429 A  
HETATM   22  C   UNL     1     -11.758  13.110  64.035  1.00  0.00    -0.496 A  
HETATM   23 CL   UNL     1     -12.475  15.711  64.082  1.00  0.00    -0.027 Cl 
HETATM   24  C   UNL     1     -11.227  11.952  64.605  1.00  0.00    -0.364 A  
ENDBRANCH   5   8
TORSDOF 1
ENDMDL
MODEL       31
REMARK 921   NORMALIZED FREE ENERGY PREDICTED BY IDOCK:   -5.59 KCAL/MOL
REMARK 922        TOTAL FREE ENERGY PREDICTED BY IDOCK:   -6.15 KCAL/MOL
REMARK 923 INTER-LIGAND FREE ENERGY PREDICTED BY IDOCK:   -5.75 KCAL/MOL
REMARK 924 INTRA-LIGAND FREE ENERGY PREDICTED BY IDOCK:   -0.40 KCAL/MOL
REMARK 927      BINDING AFFINITY PREDICTED BY RF-SCORE:    0.00 PKD
ROOT
HETATM    1  C   UNL     1      -5.498  14.763  70.477  1.00  0.00    -0.136 C  
HETATM    2  N   UNL     1      -5.697  15.030  69.055  1.00  0.00    -0.096 NA 
HETATM    3  C   UNL     1      -5.548  13.806  68.240  1.00  0.00    -0.109 C  
HETATM    4  C   UNL     1      -6.701  12.785  68.363  1.00  0.00    -0.087 C  
HETATM    5  N   UNL     1      -8.004  13.423  68.132  1.00  0.00    -0.139 NA 
HETATM    6  C   UNL     1      -8.226  14.659  68.896  1.00  0.00    -0.145 C  
HETATM    7  C   UNL     1      -7.026  15.624  68.780  1.00  0.00    -0.121 C  
ENDROOT
BRANCH   5   8
HETATM    8  C   UNL     1      -8.966  12.925  67.250  1.00  0.00    -0.208 C  
HETATM    9  N   UNL     1      -9.335  13.666  66.240  1.00  0.00    -0.463 NA 
HETATM   10  C   UNL     1     -10.298  13.306  65.277  1.00  0.00    -0.312 A  
HETATM   11  H   UNL     1      -8.891  14.579  66.141  1.00  0.00     0.000 HD 
HETATM   12  C   UNL     1     -11.235  14.289  64.927  1.00  0.00    -0.381 A  
HETATM   13  C   UNL     1     -12.207  14.058  63.949  1.00  0.00    -0.336 A  
HETATM   14  C   UNL     1     -12.251  12.834  63.293  1.00  0.00    -0.500 A  
HETATM   15  C   UNL     1     -11.309  11.852  63.599  1.00  0.00    -0.536 A  
HETATM   16  C   UNL     1     -10.325  12.090  64.571  1.00  0.00    -0.296 A  
HETATM   17  S   UNL     1      -9.160  10.778  64.912  1.00  0.00    -0.186 SA 
HETATM   18  C   UNL     1      -9.612  10.541  66.615  1.00  0.00    -0.172 A  
HETATM   19  C   UNL     1      -9.542  11.570  67.562  1.00  0.00    -0.179 A  
HETATM   20  C   UNL     1      -9.944  11.333  68.887  1.00  0.00    -0.169 A  
HETATM   21  C   UNL     1     -10.386  10.070  69.263  1.00  0.00    -0.219 A  
HETATM   22  C   UNL     1     -10.459   9.041  68.329  1.00  0.00    -0.247 A  
HETATM   23 CL   UNL     1     -10.815   9.770  70.902  1.00  0.00    -0.399 Cl 
HETATM   24  C   UNL     1     -10.080   9.278  67.007  1.00  0.00    -0.313 A  
ENDBRANCH   5   8
TORSDOF 1
ENDMDL
MODEL       32
REMARK 921   NORMALIZED FREE ENERGY PREDICTED BY IDOCK:   -5.55 KCAL/MOL
REMARK 922        TOTAL FREE ENERGY PREDICTED BY IDOCK:   -6.11 KCAL/MOL
REMARK 923 INTER-LIGAND FREE ENERGY PREDICTED BY IDOCK:   -5.76 KCAL/MOL
REMARK 924 INTRA-LIGAND FREE ENERGY PREDICTED BY IDOCK:   -0.35 KCAL/MOL
REMARK 927      BINDING AFFINITY PREDICTED BY RF-SCORE:    0.00 PKD
ROOT
HETATM    1  C   UNL     1     -10.490  17.679  68.614  1.00  0.00    -0.317 C  
HETATM    2  N   UNL     1     -10.768  16.418  69.296  1.00  0.00    -0.304 NA 
HETATM    3  C   UNL     1     -11.729  15.586  68.543  1.00  0.00    -0.337 C  
HETATM    4  C   UNL     1     -11.175  14.939  67.253  1.00  0.00    -0.345 C  
HETATM    5  N   UNL     1      -9.930  14.207  67.518  1.00  0.00    -0.234 NA 
HETATM    6  C   UNL     1      -8.924  14.962  68.278  1.00  0.00    -0.177 C  
HETATM    7  C   UNL     1      -9.537  15.628  69.529  1.00  0.00    -0.279 C  
ENDROOT
BRANCH   5   8
HETATM    8  C   UNL     1      -9.701  12.892  67.105  1.00  0.00    -0.221 C  
HETATM    9  N   UNL     1      -9.314  12.679  65.876  1.00  0.00    -0.446 NA 
HETATM   10  C   UNL     1      -9.055  11.414  65.313  1.00  0.00    -0.074 A  
HETATM   11  H   UNL     1      -9.189  13.494  65.275  1.00  0.00     0.000 HD 
HETATM   12  C   UNL     1      -9.571  11.180  64.029  1.00  0.00    -0.288 A  
HETATM   13  C   UNL     1      -9.336   9.977  63.356  1.00  0.00    -0.300 A  
HETATM   14  C   UNL     1      -8.568   8.987  63.955  1.00  0.00    -0.151 A  
HETATM   15  C   UNL     1      -8.017   9.208  65.216  1.00  0.00    -0.111 A  
HETATM   16  C   UNL     1      -8.241  10.421  65.887  1.00  0.00    -0.150 A  
HETATM   17  S   UNL     1      -7.507  10.624  67.504  1.00  0.00    -0.094 SA 
HETATM   18  C   UNL     1      -9.033  10.799  68.399  1.00  0.00    -0.153 A  
HETATM   19  C   UNL     1      -9.965  11.804  68.111  1.00  0.00    -0.196 A  
HETATM   20  C   UNL     1     -11.169  11.872  68.830  1.00  0.00    -0.310 A  
HETATM   21  C   UNL     1     -11.424  10.959  69.847  1.00  0.00    -0.323 A  
HETATM   22  C   UNL     1     -10.504   9.957  70.141  1.00  0.00    -0.339 A  
HETATM   23 CL   UNL     1     -12.872  11.089  70.767  1.00  0.00    -0.386 Cl 
HETATM   24  C   UNL     1      -9.316   9.872  69.414  1.00  0.00    -0.226 A  
ENDBRANCH   5   8
TORSDOF 1
ENDMDL
MODEL       33
REMARK 921   NORMALIZED FREE ENERGY PREDICTED BY IDOCK:   -5.54 KCAL/MOL
REMARK 922        TOTAL FREE ENERGY PREDICTED BY IDOCK:   -6.10 KCAL/MOL
REMARK 923 INTER-LIGAND FREE ENERGY PREDICTED BY IDOCK:   -5.77 KCAL/MOL
REMARK 924 INTRA-LIGAND FREE ENERGY PREDICTED BY IDOCK:   -0.33 KCAL/MOL
REMARK 927      BINDING AFFINITY PREDICTED BY RF-SCORE:    0.00 PKD
ROOT
HETATM    1  C   UNL     1     -12.390  12.590  63.235  1.00  0.00    -0.371 C  
HETATM    2  N   UNL     1     -11.225  13.093  63.957  1.00  0.00    -0.391 NA 
HETATM    3  C   UNL     1     -11.590  13.635  65.281  1.00  0.00    -0.320 C  
HETATM    4  C   UNL     1     -11.979  12.582  66.343  1.00  0.00    -0.318 C  
HETATM    5  N   UNL     1     -10.950  11.539  66.459  1.00  0.00    -0.293 NA 
HETATM    6  C   UNL     1     -10.520  10.957  65.180  1.00  0.00    -0.246 C  
HETATM    7  C   UNL     1     -10.190  12.049  64.139  1.00  0.00    -0.339 C  
ENDROOT
BRANCH   5   8
HETATM    8  C   UNL     1     -10.398  11.127  67.675  1.00  0.00    -0.192 C  
HETATM    9  N   UNL     1     -11.042  10.241  68.388  1.00  0.00    -0.360 NA 
HETATM   10  C   UNL     1     -10.619   9.738  69.633  1.00  0.00    -0.239 A  
HETATM   11  H   UNL     1     -11.921   9.886  68.012  1.00  0.00     0.000 HD 
HETATM   12  C   UNL     1     -11.595   9.642  70.636  1.00  0.00    -0.371 A  
HETATM   13  C   UNL     1     -11.298   9.113  71.896  1.00  0.00    -0.416 A  
HETATM   14  C   UNL     1     -10.014   8.660  72.172  1.00  0.00    -0.386 A  
HETATM   15  C   UNL     1      -9.035   8.714  71.181  1.00  0.00    -0.253 A  
HETATM   16  C   UNL     1      -9.336   9.232  69.911  1.00  0.00    -0.198 A  
HETATM   17  S   UNL     1      -8.024   9.276  68.699  1.00  0.00    -0.101 SA 
HETATM   18  C   UNL     1      -7.987  11.042  68.501  1.00  0.00    -0.137 A  
HETATM   19  C   UNL     1      -9.108  11.777  68.095  1.00  0.00    -0.185 A  
HETATM   20  C   UNL     1      -9.029  13.175  67.988  1.00  0.00    -0.195 A  
HETATM   21  C   UNL     1      -7.831  13.827  68.259  1.00  0.00    -0.144 A  
HETATM   22  C   UNL     1      -6.712  13.104  68.663  1.00  0.00    -0.096 A  
HETATM   23 CL   UNL     1      -7.724  15.532  68.063  1.00  0.00    -0.126 Cl 
HETATM   24  C   UNL     1      -6.792  11.717  68.791  1.00  0.00    -0.090 A  
ENDBRANCH   5   8
TORSDOF 1
ENDMDL
MODEL       34
REMARK 921   NORMALIZED FREE ENERGY PREDICTED BY IDOCK:   -5.52 KCAL/MOL
REMARK 922        TOTAL FREE ENERGY PREDICTED BY IDOCK:   -6.07 KCAL/MOL
REMARK 923 INTER-LIGAND FREE ENERGY PREDICTED BY IDOCK:   -5.66 KCAL/MOL
REMARK 924 INTRA-LIGAND FREE ENERGY PREDICTED BY IDOCK:   -0.41 KCAL/MOL
REMARK 927      BINDING AFFINITY PREDICTED BY RF-SCORE:    0.00 PKD
ROOT
HETATM    1  C   UNL     1      -7.281   2.619  72.232  1.00  0.00    -0.038 C  
HETATM    2  N   UNL     1      -7.667   3.785  73.021  1.00  0.00    -0.072 NA 
HETATM    3  C   UNL     1      -7.144   5.039  72.440  1.00  0.00    -0.084 C  
HETATM    4  C   UNL     1      -7.835   5.503  71.139  1.00  0.00    -0.109 C  
HETATM    5  N   UNL     1      -9.294   5.561  71.303  1.00  0.00    -0.146 NA 
HETATM    6  C   UNL     1      -9.893   4.354  71.890  1.00  0.00    -0.180 C  
HETATM    7  C   UNL     1      -9.137   3.903  73.160  1.00  0.00    -0.106 C  
ENDROOT
BRANCH   5   8
HETATM    8  C   UNL     1     -10.072   6.667  70.950  1.00  0.00    -0.187 C  
HETATM    9  N   UNL     1     -10.691   7.325  71.893  1.00  0.00    -0.214 NA 
HETATM   10  C   UNL     1     -11.515   8.449  71.694  1.00  0.00    -0.287 A  
HETATM   11  H   UNL     1     -10.566   6.998  72.852  1.00  0.00     0.000 HD 
HETATM   12  C   UNL     1     -12.729   8.470  72.396  1.00  0.00    -0.394 A  
HETATM   13  C   UNL     1     -13.605   9.557  72.309  1.00  0.00    -0.494 A  
HETATM   14  C   UNL     1     -13.273  10.652  71.521  1.00  0.00    -0.460 A  
HETATM   15  C   UNL     1     -12.057  10.669  70.840  1.00  0.00    -0.489 A  
HETATM   16  C   UNL     1     -11.172   9.584  70.938  1.00  0.00    -0.341 A  
HETATM   17  S   UNL     1      -9.637   9.679  70.027  1.00  0.00    -0.247 SA 
HETATM   18  C   UNL     1      -9.936   8.276  68.977  1.00  0.00    -0.189 A  
HETATM   19  C   UNL     1     -10.172   6.992  69.484  1.00  0.00    -0.208 A  
HETATM   20  C   UNL     1     -10.435   5.928  68.607  1.00  0.00    -0.302 A  
HETATM   21  C   UNL     1     -10.436   6.143  67.233  1.00  0.00    -0.255 A  
HETATM   22  C   UNL     1     -10.203   7.415  66.719  1.00  0.00    -0.313 A  
HETATM   23 CL   UNL     1     -10.695   4.821  66.163  1.00  0.00    -0.296 Cl 
HETATM   24  C   UNL     1      -9.961   8.480  67.589  1.00  0.00    -0.253 A  
ENDBRANCH   5   8
TORSDOF 1
ENDMDL
MODEL       35
REMARK 921   NORMALIZED FREE ENERGY PREDICTED BY IDOCK:   -5.49 KCAL/MOL
REMARK 922        TOTAL FREE ENERGY PREDICTED BY IDOCK:   -6.04 KCAL/MOL
REMARK 923 INTER-LIGAND FREE ENERGY PREDICTED BY IDOCK:   -5.60 KCAL/MOL
REMARK 924 INTRA-LIGAND FREE ENERGY PREDICTED BY IDOCK:   -0.44 KCAL/MOL
REMARK 927      BINDING AFFINITY PREDICTED BY RF-SCORE:    0.00 PKD
ROOT
HETATM    1  C   UNL     1      -9.362   4.800  66.580  1.00  0.00    -0.143 C  
HETATM    2  N   UNL     1      -9.899   5.336  67.828  1.00  0.00    -0.143 NA 
HETATM    3  C   UNL     1      -8.866   6.040  68.614  1.00  0.00    -0.109 C  
HETATM    4  C   UNL     1      -8.418   7.405  68.046  1.00  0.00    -0.123 C  
HETATM    5  N   UNL     1      -9.571   8.276  67.783  1.00  0.00    -0.145 NA 
HETATM    6  C   UNL     1     -10.654   7.645  67.015  1.00  0.00    -0.336 C  
HETATM    7  C   UNL     1     -11.031   6.263  67.593  1.00  0.00    -0.342 C  
ENDROOT
BRANCH   5   8
HETATM    8  C   UNL     1      -9.663   9.598  68.227  1.00  0.00    -0.146 C  
HETATM    9  N   UNL     1      -8.900  10.501  67.674  1.00  0.00    -0.131 NA 
HETATM   10  C   UNL     1      -8.871  11.865  68.021  1.00  0.00    -0.177 A  
HETATM   11  H   UNL     1      -8.273  10.193  66.929  1.00  0.00     0.000 HD 
HETATM   12  C   UNL     1      -7.605  12.455  68.150  1.00  0.00    -0.129 A  
HETATM   13  C   UNL     1      -7.459  13.814  68.446  1.00  0.00    -0.119 A  
HETATM   14  C   UNL     1      -8.584  14.612  68.609  1.00  0.00    -0.172 A  
HETATM   15  C   UNL     1      -9.853  14.057  68.452  1.00  0.00    -0.232 A  
HETATM   16  C   UNL     1     -10.000  12.695  68.142  1.00  0.00    -0.225 A  
HETATM   17  S   UNL     1     -11.661  12.059  67.967  1.00  0.00    -0.336 SA 
HETATM   18  C   UNL     1     -11.575  10.895  69.308  1.00  0.00    -0.318 A  
HETATM   19  C   UNL     1     -10.618   9.873  69.358  1.00  0.00    -0.250 A  
HETATM   20  C   UNL     1     -10.577   9.003  70.459  1.00  0.00    -0.274 A  
HETATM   21  C   UNL     1     -11.504   9.139  71.487  1.00  0.00    -0.367 A  
HETATM   22  C   UNL     1     -12.458  10.151  71.446  1.00  0.00    -0.524 A  
HETATM   23 CL   UNL     1     -11.488   8.029  72.802  1.00  0.00    -0.465 Cl 
HETATM   24  C   UNL     1     -12.489  11.031  70.363  1.00  0.00    -0.397 A  
ENDBRANCH   5   8
TORSDOF 1
ENDMDL
MODEL       36
REMARK 921   NORMALIZED FREE ENERGY PREDICTED BY IDOCK:   -5.47 KCAL/MOL
REMARK 922        TOTAL FREE ENERGY PREDICTED BY IDOCK:   -6.02 KCAL/MOL
REMARK 923 INTER-LIGAND FREE ENERGY PREDICTED BY IDOCK:   -6.32 KCAL/MOL
REMARK 924 INTRA-LIGAND FREE ENERGY PREDICTED BY IDOCK:    0.31 KCAL/MOL
REMARK 927      BINDING AFFINITY PREDICTED BY RF-SCORE:    0.00 PKD
ROOT
HETATM    1  C   UNL     1     -12.636   8.248  71.920  1.00  0.00    -0.344 C  
HETATM    2  N   UNL     1     -11.789   9.437  71.899  1.00  0.00    -0.368 NA 
HETATM    3  C   UNL     1     -10.564   9.226  71.101  1.00  0.00    -0.332 C  
HETATM    4  C   UNL     1     -10.774   9.166  69.571  1.00  0.00    -0.215 C  
HETATM    5  N   UNL     1     -11.527  10.332  69.091  1.00  0.00    -0.190 NA 
HETATM    6  C   UNL     1     -12.757  10.620  69.844  1.00  0.00    -0.015 C  
HETATM    7  C   UNL     1     -12.505  10.621  71.368  1.00  0.00    -0.390 C  
ENDROOT
BRANCH   5   8
HETATM    8  C   UNL     1     -11.123  11.129  68.017  1.00  0.00    -0.276 C  
HETATM    9  N   UNL     1     -11.809  12.205  67.741  1.00  0.00    -0.514 NA 
HETATM   10  C   UNL     1     -11.532  13.098  66.687  1.00  0.00    -0.348 A  
HETATM   11  H   UNL     1     -12.611  12.415  68.336  1.00  0.00     0.000 HD 
HETATM   12  C   UNL     1     -12.627  13.530  65.925  1.00  0.00    -0.454 A  
HETATM   13  C   UNL     1     -12.475  14.451  64.885  1.00  0.00    -0.368 A  
HETATM   14  C   UNL     1     -11.218  14.967  64.595  1.00  0.00    -0.342 A  
HETATM   15  C   UNL     1     -10.119  14.579  65.360  1.00  0.00    -0.394 A  
HETATM   16  C   UNL     1     -10.274  13.664  66.413  1.00  0.00    -0.292 A  
HETATM   17  S   UNL     1      -8.815  13.210  67.340  1.00  0.00    -0.214 SA 
HETATM   18  C   UNL     1      -8.843  11.480  66.930  1.00  0.00    -0.182 A  
HETATM   19  C   UNL     1      -9.935  10.654  67.224  1.00  0.00    -0.224 A  
HETATM   20  C   UNL     1      -9.914   9.302  66.846  1.00  0.00    -0.298 A  
HETATM   21  C   UNL     1      -8.798   8.777  66.204  1.00  0.00    -0.168 A  
HETATM   22  C   UNL     1      -7.708   9.590  65.908  1.00  0.00    -0.100 A  
HETATM   23 CL   UNL     1      -8.754   7.105  65.803  1.00  0.00    -0.151 Cl 
HETATM   24  C   UNL     1      -7.733  10.940  66.263  1.00  0.00    -0.147 A  
ENDBRANCH   5   8
TORSDOF 1
ENDMDL
MODEL       37
REMARK 921   NORMALIZED FREE ENERGY PREDICTED BY IDOCK:   -5.44 KCAL/MOL
REMARK 922        TOTAL FREE ENERGY PREDICTED BY IDOCK:   -5.99 KCAL/MOL
REMARK 923 INTER-LIGAND FREE ENERGY PREDICTED BY IDOCK:   -5.60 KCAL/MOL
REMARK 924 INTRA-LIGAND FREE ENERGY PREDICTED BY IDOCK:   -0.39 KCAL/MOL
REMARK 927      BINDING AFFINITY PREDICTED BY RF-SCORE:    0.00 PKD
ROOT
HETATM    1  C   UNL     1      -7.840   7.656  64.466  1.00  0.00    -0.134 C  
HETATM    2  N   UNL     1      -8.102   7.918  65.878  1.00  0.00    -0.112 NA 
HETATM    3  C   UNL     1      -7.214   8.968  66.416  1.00  0.00    -0.087 C  
HETATM    4  C   UNL     1      -7.522  10.405  65.938  1.00  0.00    -0.139 C  
HETATM    5  N   UNL     1      -8.936  10.744  66.150  1.00  0.00    -0.171 NA 
HETATM    6  C   UNL     1      -9.888   9.740  65.654  1.00  0.00    -0.301 C  
HETATM    7  C   UNL     1      -9.509   8.316  66.118  1.00  0.00    -0.171 C  
ENDROOT
BRANCH   5   8
HETATM    8  C   UNL     1      -9.368  11.913  66.782  1.00  0.00    -0.201 C  
HETATM    9  N   UNL     1      -8.960  13.064  66.318  1.00  0.00    -0.450 NA 
HETATM   10  C   UNL     1      -9.300  14.322  66.853  1.00  0.00    -0.257 A  
HETATM   11  H   UNL     1      -8.347  13.050  65.502  1.00  0.00     0.000 HD 
HETATM   12  C   UNL     1      -8.256  15.248  66.991  1.00  0.00    -0.267 A  
HETATM   13  C   UNL     1      -8.486  16.542  67.467  1.00  0.00    -0.189 A  
HETATM   14  C   UNL     1      -9.774  16.936  67.806  1.00  0.00    -0.250 A  
HETATM   15  C   UNL     1     -10.834  16.045  67.647  1.00  0.00    -0.311 A  
HETATM   16  C   UNL     1     -10.605  14.749  67.155  1.00  0.00    -0.285 A  
HETATM   17  S   UNL     1     -12.014  13.664  66.989  1.00  0.00    -0.391 SA 
HETATM   18  C   UNL     1     -11.460  12.431  68.144  1.00  0.00    -0.318 A  
HETATM   19  C   UNL     1     -10.246  11.750  67.993  1.00  0.00    -0.202 A  
HETATM   20  C   UNL     1      -9.844  10.810  68.956  1.00  0.00    -0.208 A  
HETATM   21  C   UNL     1     -10.664  10.536  70.045  1.00  0.00    -0.224 A  
HETATM   22  C   UNL     1     -11.873  11.208  70.203  1.00  0.00    -0.449 A  
HETATM   23 CL   UNL     1     -10.196   9.337  71.185  1.00  0.00    -0.381 Cl 
HETATM   24  C   UNL     1     -12.266  12.159  69.259  1.00  0.00    -0.106 A  
ENDBRANCH   5   8
TORSDOF 1
ENDMDL
MODEL       38
REMARK 921   NORMALIZED FREE ENERGY PREDICTED BY IDOCK:   -5.44 KCAL/MOL
REMARK 922        TOTAL FREE ENERGY PREDICTED BY IDOCK:   -5.99 KCAL/MOL
REMARK 923 INTER-LIGAND FREE ENERGY PREDICTED BY IDOCK:   -5.54 KCAL/MOL
REMARK 924 INTRA-LIGAND FREE ENERGY PREDICTED BY IDOCK:   -0.44 KCAL/MOL
REMARK 927      BINDING AFFINITY PREDICTED BY RF-SCORE:    0.00 PKD
ROOT
HETATM    1  C   UNL     1     -10.122  14.309  66.055  1.00  0.00    -0.318 C  
HETATM    2  N   UNL     1     -10.791  13.710  67.207  1.00  0.00    -0.282 NA 
HETATM    3  C   UNL     1     -11.729  12.642  66.804  1.00  0.00    -0.392 C  
HETATM    4  C   UNL     1     -11.070  11.333  66.316  1.00  0.00    -0.166 C  
HETATM    5  N   UNL     1     -10.086  10.838  67.288  1.00  0.00    -0.190 NA 
HETATM    6  C   UNL     1      -9.122  11.845  67.752  1.00  0.00    -0.180 C  
HETATM    7  C   UNL     1      -9.826  13.152  68.183  1.00  0.00    -0.228 C  
ENDROOT
BRANCH   5   8
HETATM    8  C   UNL     1     -10.056   9.523  67.761  1.00  0.00    -0.198 C  
HETATM    9  N   UNL     1      -9.797   8.559  66.919  1.00  0.00    -0.217 NA 
HETATM   10  C   UNL     1      -9.743   7.190  67.243  1.00  0.00    -0.155 A  
HETATM   11  H   UNL     1      -9.619   8.819  65.949  1.00  0.00     0.000 HD 
HETATM   12  C   UNL     1     -10.383   6.309  66.359  1.00  0.00    -0.072 A  
HETATM   13  C   UNL     1     -10.354   4.925  66.557  1.00  0.00    -0.311 A  
HETATM   14  C   UNL     1      -9.671   4.396  67.645  1.00  0.00    -0.198 A  
HETATM   15  C   UNL     1      -8.999   5.248  68.520  1.00  0.00    -0.118 A  
HETATM   16  C   UNL     1      -9.017   6.637  68.313  1.00  0.00    -0.122 A  
HETATM   17  S   UNL     1      -8.139   7.661  69.485  1.00  0.00    -0.129 SA 
HETATM   18  C   UNL     1      -9.556   8.562  70.070  1.00  0.00    -0.169 A  
HETATM   19  C   UNL     1     -10.374   9.315  69.217  1.00  0.00    -0.222 A  
HETATM   20  C   UNL     1     -11.500   9.978  69.731  1.00  0.00    -0.240 A  
HETATM   21  C   UNL     1     -11.787   9.911  71.090  1.00  0.00    -0.386 A  
HETATM   22  C   UNL     1     -10.979   9.167  71.944  1.00  0.00    -0.372 A  
HETATM   23 CL   UNL     1     -13.130  10.780  71.722  1.00  0.00    -0.583 Cl 
HETATM   24  C   UNL     1      -9.871   8.488  71.435  1.00  0.00    -0.296 A  
ENDBRANCH   5   8
TORSDOF 1
ENDMDL
MODEL       39
REMARK 921   NORMALIZED FREE ENERGY PREDICTED BY IDOCK:   -5.37 KCAL/MOL
REMARK 922        TOTAL FREE ENERGY PREDICTED BY IDOCK:   -5.92 KCAL/MOL
REMARK 923 INTER-LIGAND FREE ENERGY PREDICTED BY IDOCK:   -5.53 KCAL/MOL
REMARK 924 INTRA-LIGAND FREE ENERGY PREDICTED BY IDOCK:   -0.39 KCAL/MOL
REMARK 927      BINDING AFFINITY PREDICTED BY RF-SCORE:    0.00 PKD
ROOT
HETATM    1  C   UNL     1     -10.102  18.316  69.255  1.00  0.00    -0.036 C  
HETATM    2  N   UNL     1      -9.284  17.795  68.163  1.00  0.00    -0.269 NA 
HETATM    3  C   UNL     1      -8.380  16.719  68.618  1.00  0.00    -0.252 C  
HETATM    4  C   UNL     1      -9.066  15.374  68.945  1.00  0.00    -0.218 C  
HETATM    5  N   UNL     1      -9.912  14.923  67.832  1.00  0.00    -0.218 NA 
HETATM    6  C   UNL     1     -10.833  15.943  67.310  1.00  0.00    -0.279 C  
HETATM    7  C   UNL     1     -10.109  17.282  67.045  1.00  0.00    -0.303 C  
ENDROOT
BRANCH   5   8
HETATM    8  C   UNL     1      -9.855  13.639  67.285  1.00  0.00    -0.241 C  
HETATM    9  N   UNL     1      -9.571  13.508  66.017  1.00  0.00    -0.462 NA 
HETATM   10  C   UNL     1      -9.488  12.285  65.324  1.00  0.00     0.074 A  
HETATM   11  H   UNL     1      -9.394  14.362  65.486  1.00  0.00     0.000 HD 
HETATM   12  C   UNL     1     -10.104  12.234  64.065  1.00  0.00    -0.351 A  
HETATM   13  C   UNL     1     -10.046  11.085  63.270  1.00  0.00    -0.400 A  
HETATM   14  C   UNL     1      -9.356   9.966  63.719  1.00  0.00    -0.250 A  
HETATM   15  C   UNL     1      -8.707  10.004  64.952  1.00  0.00    -0.201 A  
HETATM   16  C   UNL     1      -8.755  11.162  65.745  1.00  0.00    -0.150 A  
HETATM   17  S   UNL     1      -7.905  11.127  67.317  1.00  0.00    -0.144 SA 
HETATM   18  C   UNL     1      -9.344  11.370  68.332  1.00  0.00    -0.194 A  
HETATM   19  C   UNL     1     -10.175  12.491  68.204  1.00  0.00    -0.231 A  
HETATM   20  C   UNL     1     -11.317  12.613  69.012  1.00  0.00    -0.345 A  
HETATM   21  C   UNL     1     -11.609  11.635  69.957  1.00  0.00    -0.255 A  
HETATM   22  C   UNL     1     -10.789  10.519  70.091  1.00  0.00    -0.291 A  
HETATM   23 CL   UNL     1     -12.974  11.824  70.986  1.00  0.00    -0.283 Cl 
HETATM   24  C   UNL     1      -9.664  10.383  69.276  1.00  0.00    -0.231 A  
ENDBRANCH   5   8
TORSDOF 1
ENDMDL
MODEL       40
REMARK 921   NORMALIZED FREE ENERGY PREDICTED BY IDOCK:   -5.35 KCAL/MOL
REMARK 922        TOTAL FREE ENERGY PREDICTED BY IDOCK:   -5.89 KCAL/MOL
REMARK 923 INTER-LIGAND FREE ENERGY PREDICTED BY IDOCK:   -5.50 KCAL/MOL
REMARK 924 INTRA-LIGAND FREE ENERGY PREDICTED BY IDOCK:   -0.39 KCAL/MOL
REMARK 927      BINDING AFFINITY PREDICTED BY RF-SCORE:    0.00 PKD
ROOT
HETATM    1  C   UNL     1     -10.801   6.038  73.385  1.00  0.00    -0.231 C  
HETATM    2  N   UNL     1     -10.756   7.495  73.308  1.00  0.00    -0.393 NA 
HETATM    3  C   UNL     1      -9.476   7.978  72.750  1.00  0.00    -0.269 C  
HETATM    4  C   UNL     1      -9.284   7.742  71.236  1.00  0.00    -0.141 C  
HETATM    5  N   UNL     1     -10.425   8.257  70.468  1.00  0.00    -0.207 NA 
HETATM    6  C   UNL     1     -11.741   7.833  70.968  1.00  0.00    -0.281 C  
HETATM    7  C   UNL     1     -11.866   8.044  72.493  1.00  0.00    -0.361 C  
ENDROOT
BRANCH   5   8
HETATM    8  C   UNL     1     -10.299   9.094  69.357  1.00  0.00    -0.216 C  
HETATM    9  N   UNL     1     -10.649  10.348  69.473  1.00  0.00    -0.232 NA 
HETATM   10  C   UNL     1     -10.589  11.307  68.444  1.00  0.00    -0.197 A  
HETATM   11  H   UNL     1     -10.993  10.656  70.383  1.00  0.00     0.000 HD 
HETATM   12  C   UNL     1     -11.702  12.148  68.304  1.00  0.00    -0.401 A  
HETATM   13  C   UNL     1     -11.732  13.167  67.346  1.00  0.00    -0.419 A  
HETATM   14  C   UNL     1     -10.639  13.367  66.513  1.00  0.00    -0.287 A  
HETATM   15  C   UNL     1      -9.507  12.565  66.655  1.00  0.00    -0.242 A  
HETATM   16  C   UNL     1      -9.471  11.551  67.626  1.00  0.00    -0.168 A  
HETATM   17  S   UNL     1      -7.988  10.561  67.738  1.00  0.00    -0.106 SA 
HETATM   18  C   UNL     1      -8.750   9.007  67.333  1.00  0.00    -0.119 A  
HETATM   19  C   UNL     1      -9.804   8.467  68.082  1.00  0.00    -0.192 A  
HETATM   20  C   UNL     1     -10.389   7.251  67.695  1.00  0.00    -0.290 A  
HETATM   21  C   UNL     1      -9.904   6.568  66.584  1.00  0.00    -0.148 A  
HETATM   22  C   UNL     1      -8.857   7.096  65.835  1.00  0.00    -0.128 A  
HETATM   23 CL   UNL     1     -10.583   5.047  66.155  1.00  0.00    -0.352 Cl 
HETATM   24  C   UNL     1      -8.286   8.315  66.204  1.00  0.00    -0.125 A  
ENDBRANCH   5   8
TORSDOF 1
ENDMDL
MODEL       41
REMARK 921   NORMALIZED FREE ENERGY PREDICTED BY IDOCK:   -5.34 KCAL/MOL
REMARK 922        TOTAL FREE ENERGY PREDICTED BY IDOCK:   -5.88 KCAL/MOL
REMARK 923 INTER-LIGAND FREE ENERGY PREDICTED BY IDOCK:   -5.44 KCAL/MOL
REMARK 924 INTRA-LIGAND FREE ENERGY PREDICTED BY IDOCK:   -0.45 KCAL/MOL
REMARK 927      BINDING AFFINITY PREDICTED BY RF-SCORE:    0.00 PKD
ROOT
HETATM    1  C   UNL     1     -10.771  18.798  66.731  1.00  0.00    -0.312 C  
HETATM    2  N   UNL     1      -9.584  18.014  67.061  1.00  0.00    -0.278 NA 
HETATM    3  C   UNL     1      -9.626  17.513  68.450  1.00  0.00    -0.303 C  
HETATM    4  C   UNL     1     -10.636  16.373  68.712  1.00  0.00    -0.310 C  
HETATM    5  N   UNL     1     -10.456  15.273  67.755  1.00  0.00    -0.249 NA 
HETATM    6  C   UNL     1     -10.390  15.690  66.347  1.00  0.00    -0.296 C  
HETATM    7  C   UNL     1      -9.405  16.863  66.146  1.00  0.00    -0.236 C  
ENDROOT
BRANCH   5   8
HETATM    8  C   UNL     1     -10.340  13.931  68.127  1.00  0.00    -0.247 C  
HETATM    9  N   UNL     1     -11.367  13.342  68.679  1.00  0.00    -0.266 NA 
HETATM   10  C   UNL     1     -11.399  12.004  69.115  1.00  0.00    -0.281 A  
HETATM   11  H   UNL     1     -12.215  13.897  68.804  1.00  0.00     0.000 HD 
HETATM   12  C   UNL     1     -11.978  11.766  70.370  1.00  0.00    -0.422 A  
HETATM   13  C   UNL     1     -12.104  10.471  70.883  1.00  0.00    -0.487 A  
HETATM   14  C   UNL     1     -11.659   9.385  70.139  1.00  0.00    -0.117 A  
HETATM   15  C   UNL     1     -11.111   9.593  68.874  1.00  0.00    -0.097 A  
HETATM   16  C   UNL     1     -10.996  10.892  68.354  1.00  0.00    -0.237 A  
HETATM   17  S   UNL     1     -10.273  11.075  66.730  1.00  0.00    -0.237 SA 
HETATM   18  C   UNL     1      -8.873  12.045  67.238  1.00  0.00    -0.183 A  
HETATM   19  C   UNL     1      -9.007  13.272  67.900  1.00  0.00    -0.199 A  
HETATM   20  C   UNL     1      -7.864  13.978  68.307  1.00  0.00    -0.140 A  
HETATM   21  C   UNL     1      -6.598  13.472  68.030  1.00  0.00    -0.137 A  
HETATM   22  C   UNL     1      -6.455  12.254  67.374  1.00  0.00    -0.157 A  
HETATM   23 CL   UNL     1      -5.203  14.375  68.476  1.00  0.00    -0.093 Cl 
HETATM   24  C   UNL     1      -7.589  11.538  66.985  1.00  0.00    -0.154 A  
ENDBRANCH   5   8
TORSDOF 1
ENDMDL
MODEL       42
REMARK 921   NORMALIZED FREE ENERGY PREDICTED BY IDOCK:   -5.32 KCAL/MOL
REMARK 922        TOTAL FREE ENERGY PREDICTED BY IDOCK:   -5.87 KCAL/MOL
REMARK 923 INTER-LIGAND FREE ENERGY PREDICTED BY IDOCK:   -5.46 KCAL/MOL
REMARK 924 INTRA-LIGAND FREE ENERGY PREDICTED BY IDOCK:   -0.40 KCAL/MOL
REMARK 927      BINDING AFFINITY PREDICTED BY RF-SCORE:    0.00 PKD
ROOT
HETATM    1  C   UNL     1      -6.560  17.551  69.501  1.00  0.00    -0.160 C  
HETATM    2  N   UNL     1      -7.437  17.430  68.340  1.00  0.00    -0.224 NA 
HETATM    3  C   UNL     1      -6.796  16.677  67.243  1.00  0.00    -0.178 C  
HETATM    4  C   UNL     1      -6.651  15.157  67.479  1.00  0.00    -0.138 C  
HETATM    5  N   UNL     1      -7.935  14.553  67.859  1.00  0.00    -0.134 NA 
HETATM    6  C   UNL     1      -8.646  15.253  68.938  1.00  0.00    -0.207 C  
HETATM    7  C   UNL     1      -8.722  16.774  68.678  1.00  0.00    -0.255 C  
ENDROOT
BRANCH   5   8
HETATM    8  C   UNL     1      -8.466  13.414  67.249  1.00  0.00    -0.200 C  
HETATM    9  N   UNL     1      -7.759  12.316  67.245  1.00  0.00    -0.163 NA 
HETATM   10  C   UNL     1      -8.154  11.097  66.663  1.00  0.00    -0.159 A  
HETATM   11  H   UNL     1      -6.845  12.345  67.699  1.00  0.00     0.000 HD 
HETATM   12  C   UNL     1      -7.189  10.422  65.901  1.00  0.00    -0.135 A  
HETATM   13  C   UNL     1      -7.457   9.180  65.315  1.00  0.00    -0.097 A  
HETATM   14  C   UNL     1      -8.700   8.586  65.492  1.00  0.00    -0.208 A  
HETATM   15  C   UNL     1      -9.665   9.221  66.272  1.00  0.00    -0.340 A  
HETATM   16  C   UNL     1      -9.391  10.461  66.872  1.00  0.00    -0.162 A  
HETATM   17  S   UNL     1     -10.684  11.214  67.849  1.00  0.00    -0.235 SA 
HETATM   18  C   UNL     1     -10.873  12.672  66.848  1.00  0.00    -0.254 A  
HETATM   19  C   UNL     1      -9.815  13.555  66.597  1.00  0.00    -0.279 A  
HETATM   20  C   UNL     1     -10.016  14.673  65.771  1.00  0.00    -0.365 A  
HETATM   21  C   UNL     1     -11.271  14.917  65.224  1.00  0.00    -0.369 A  
HETATM   22  C   UNL     1     -12.327  14.045  65.468  1.00  0.00    -0.503 A  
HETATM   23 CL   UNL     1     -11.524  16.324  64.267  1.00  0.00    -0.267 Cl 
HETATM   24  C   UNL     1     -12.127  12.921  66.272  1.00  0.00    -0.433 A  
ENDBRANCH   5   8
TORSDOF 1
ENDMDL
MODEL       43
REMARK 921   NORMALIZED FREE ENERGY PREDICTED BY IDOCK:   -5.30 KCAL/MOL
REMARK 922        TOTAL FREE ENERGY PREDICTED BY IDOCK:   -5.84 KCAL/MOL
REMARK 923 INTER-LIGAND FREE ENERGY PREDICTED BY IDOCK:   -5.46 KCAL/MOL
REMARK 924 INTRA-LIGAND FREE ENERGY PREDICTED BY IDOCK:   -0.38 KCAL/MOL
REMARK 927      BINDING AFFINITY PREDICTED BY RF-SCORE:    0.00 PKD
ROOT
HETATM    1  C   UNL     1     -12.128  14.273  66.611  1.00  0.00    -0.420 C  
HETATM    2  N   UNL     1     -10.805  13.787  66.992  1.00  0.00    -0.283 NA 
HETATM    3  C   UNL     1     -10.684  13.611  68.454  1.00  0.00    -0.258 C  
HETATM    4  C   UNL     1     -11.458  12.410  69.042  1.00  0.00    -0.300 C  
HETATM    5  N   UNL     1     -11.135  11.168  68.328  1.00  0.00    -0.229 NA 
HETATM    6  C   UNL     1     -11.219  11.263  66.863  1.00  0.00    -0.230 C  
HETATM    7  C   UNL     1     -10.470  12.504  66.330  1.00  0.00    -0.246 C  
ENDROOT
BRANCH   5   8
HETATM    8  C   UNL     1     -10.762   9.981  68.965  1.00  0.00    -0.220 C  
HETATM    9  N   UNL     1     -11.547   9.491  69.887  1.00  0.00    -0.442 NA 
HETATM   10  C   UNL     1     -11.301   8.314  70.621  1.00  0.00    -0.244 A  
HETATM   11  H   UNL     1     -12.407  10.001  70.091  1.00  0.00     0.000 HD 
HETATM   12  C   UNL     1     -11.536   8.375  72.002  1.00  0.00    -0.418 A  
HETATM   13  C   UNL     1     -11.370   7.254  72.822  1.00  0.00    -0.318 A  
HETATM   14  C   UNL     1     -10.973   6.044  72.267  1.00  0.00    -0.310 A  
HETATM   15  C   UNL     1     -10.766   5.949  70.892  1.00  0.00    -0.338 A  
HETATM   16  C   UNL     1     -10.946   7.071  70.067  1.00  0.00    -0.270 A  
HETATM   17  S   UNL     1     -10.651   6.870  68.316  1.00  0.00    -0.210 SA 
HETATM   18  C   UNL     1      -9.309   8.030  68.200  1.00  0.00    -0.139 A  
HETATM   19  C   UNL     1      -9.444   9.376  68.564  1.00  0.00    -0.150 A  
HETATM   20  C   UNL     1      -8.339  10.239  68.483  1.00  0.00    -0.116 A  
HETATM   21  C   UNL     1      -7.119   9.764  68.016  1.00  0.00    -0.079 A  
HETATM   22  C   UNL     1      -6.975   8.428  67.654  1.00  0.00    -0.075 A  
HETATM   23 CL   UNL     1      -5.788  10.842  67.859  1.00  0.00    -0.046 Cl 
HETATM   24  C   UNL     1      -8.065   7.562  67.752  1.00  0.00    -0.119 A  
ENDBRANCH   5   8
TORSDOF 1
ENDMDL
MODEL       44
REMARK 921   NORMALIZED FREE ENERGY PREDICTED BY IDOCK:   -5.28 KCAL/MOL
REMARK 922        TOTAL FREE ENERGY PREDICTED BY IDOCK:   -5.82 KCAL/MOL
REMARK 923 INTER-LIGAND FREE ENERGY PREDICTED BY IDOCK:   -5.65 KCAL/MOL
REMARK 924 INTRA-LIGAND FREE ENERGY PREDICTED BY IDOCK:   -0.17 KCAL/MOL
REMARK 927      BINDING AFFINITY PREDICTED BY RF-SCORE:    0.00 PKD
ROOT
HETATM    1  C   UNL     1     -11.635  15.863  68.381  1.00  0.00    -0.315 C  
HETATM    2  N   UNL     1     -11.001  15.117  67.297  1.00  0.00    -0.321 NA 
HETATM    3  C   UNL     1      -9.626  14.704  67.646  1.00  0.00    -0.212 C  
HETATM    4  C   UNL     1      -9.521  13.569  68.689  1.00  0.00    -0.055 C  
HETATM    5  N   UNL     1     -10.343  12.414  68.303  1.00  0.00    -0.222 NA 
HETATM    6  C   UNL     1     -11.725  12.742  67.926  1.00  0.00    -0.357 C  
HETATM    7  C   UNL     1     -11.778  13.914  66.920  1.00  0.00    -0.399 C  
ENDROOT
BRANCH   5   8
HETATM    8  C   UNL     1      -9.868  11.100  68.273  1.00  0.00    -0.189 C  
HETATM    9  N   UNL     1      -9.296  10.664  67.183  1.00  0.00    -0.154 NA 
HETATM   10  C   UNL     1      -8.781   9.366  66.999  1.00  0.00    -0.127 A  
HETATM   11  H   UNL     1      -9.217  11.316  66.402  1.00  0.00     0.000 HD 
HETATM   12  C   UNL     1      -9.083   8.737  65.782  1.00  0.00    -0.267 A  
HETATM   13  C   UNL     1      -8.585   7.467  65.474  1.00  0.00    -0.093 A  
HETATM   14  C   UNL     1      -7.764   6.806  66.378  1.00  0.00    -0.098 A  
HETATM   15  C   UNL     1      -7.422   7.425  67.580  1.00  0.00    -0.100 A  
HETATM   16  C   UNL     1      -7.910   8.705  67.884  1.00  0.00    -0.103 A  
HETATM   17  S   UNL     1      -7.433   9.426  69.448  1.00  0.00    -0.086 SA 
HETATM   18  C   UNL     1      -9.071   9.542  70.128  1.00  0.00    -0.240 A  
HETATM   19  C   UNL     1     -10.097  10.263  69.503  1.00  0.00    -0.260 A  
HETATM   20  C   UNL     1     -11.381  10.292  70.070  1.00  0.00    -0.370 A  
HETATM   21  C   UNL     1     -11.628   9.625  71.265  1.00  0.00    -0.393 A  
HETATM   22  C   UNL     1     -10.616   8.906  71.893  1.00  0.00    -0.419 A  
HETATM   23 CL   UNL     1     -13.187   9.718  71.986  1.00  0.00    -0.533 Cl 
HETATM   24  C   UNL     1      -9.343   8.857  71.322  1.00  0.00    -0.336 A  
ENDBRANCH   5   8
TORSDOF 1
ENDMDL
MODEL       45
REMARK 921   NORMALIZED FREE ENERGY PREDICTED BY IDOCK:   -5.18 KCAL/MOL
REMARK 922        TOTAL FREE ENERGY PREDICTED BY IDOCK:   -5.71 KCAL/MOL
REMARK 923 INTER-LIGAND FREE ENERGY PREDICTED BY IDOCK:   -5.27 KCAL/MOL
REMARK 924 INTRA-LIGAND FREE ENERGY PREDICTED BY IDOCK:   -0.44 KCAL/MOL
REMARK 927      BINDING AFFINITY PREDICTED BY RF-SCORE:    0.00 PKD
ROOT
HETATM    1  C   UNL     1      -8.324  19.264  68.676  1.00  0.00    -0.372 C  
HETATM    2  N   UNL     1      -9.151  18.594  67.676  1.00  0.00    -0.277 NA 
HETATM    3  C   UNL     1      -8.333  17.875  66.678  1.00  0.00    -0.261 C  
HETATM    4  C   UNL     1      -7.645  16.589  67.189  1.00  0.00    -0.179 C  
HETATM    5  N   UNL     1      -8.611  15.689  67.832  1.00  0.00    -0.160 NA 
HETATM    6  C   UNL     1      -9.477  16.332  68.832  1.00  0.00    -0.252 C  
HETATM    7  C   UNL     1     -10.101  17.637  68.290  1.00  0.00    -0.362 C  
ENDROOT
BRANCH   5   8
HETATM    8  C   UNL     1      -8.729  14.331  67.527  1.00  0.00    -0.199 C  
HETATM    9  N   UNL     1      -7.722  13.540  67.784  1.00  0.00    -0.146 NA 
HETATM   10  C   UNL     1      -7.687  12.157  67.523  1.00  0.00    -0.159 A  
HETATM   11  H   UNL     1      -6.893  13.959  68.207  1.00  0.00     0.000 HD 
HETATM   12  C   UNL     1      -6.514  11.656  66.940  1.00  0.00    -0.134 A  
HETATM   13  C   UNL     1      -6.352  10.292  66.680  1.00  0.00    -0.074 A  
HETATM   14  C   UNL     1      -7.363   9.399  67.011  1.00  0.00    -0.087 A  
HETATM   15  C   UNL     1      -8.525   9.867  67.622  1.00  0.00    -0.114 A  
HETATM   16  C   UNL     1      -8.682  11.236  67.896  1.00  0.00    -0.138 A  
HETATM   17  S   UNL     1     -10.205  11.757  68.673  1.00  0.00    -0.168 SA 
HETATM   18  C   UNL     1     -10.763  12.803  67.347  1.00  0.00    -0.230 A  
HETATM   19  C   UNL     1     -10.011  13.886  66.875  1.00  0.00    -0.264 A  
HETATM   20  C   UNL     1     -10.487  14.657  65.803  1.00  0.00    -0.338 A  
HETATM   21  C   UNL     1     -11.718  14.361  65.227  1.00  0.00    -0.364 A  
HETATM   22  C   UNL     1     -12.472  13.287  65.689  1.00  0.00    -0.510 A  
HETATM   23 CL   UNL     1     -12.324  15.349  63.956  1.00  0.00    -0.151 Cl 
HETATM   24  C   UNL     1     -11.992  12.505  66.741  1.00  0.00    -0.327 A  
ENDBRANCH   5   8
TORSDOF 1
ENDMDL
MODEL       46
REMARK 921   NORMALIZED FREE ENERGY PREDICTED BY IDOCK:   -5.18 KCAL/MOL
REMARK 922        TOTAL FREE ENERGY PREDICTED BY IDOCK:   -5.71 KCAL/MOL
REMARK 923 INTER-LIGAND FREE ENERGY PREDICTED BY IDOCK:   -5.28 KCAL/MOL
REMARK 924 INTRA-LIGAND FREE ENERGY PREDICTED BY IDOCK:   -0.43 KCAL/MOL
REMARK 927      BINDING AFFINITY PREDICTED BY RF-SCORE:    0.00 PKD
ROOT
HETATM    1  C   UNL     1      -6.741   8.978  66.121  1.00  0.00    -0.070 C  
HETATM    2  N   UNL     1      -7.719   9.758  65.367  1.00  0.00    -0.117 NA 
HETATM    3  C   UNL     1      -9.095   9.531  65.852  1.00  0.00    -0.184 C  
HETATM    4  C   UNL     1      -9.426  10.162  67.222  1.00  0.00    -0.154 C  
HETATM    5  N   UNL     1      -9.082  11.590  67.247  1.00  0.00    -0.162 NA 
HETATM    6  C   UNL     1      -7.730  11.904  66.764  1.00  0.00    -0.051 C  
HETATM    7  C   UNL     1      -7.431  11.210  65.417  1.00  0.00     0.400 C  
ENDROOT
BRANCH   5   8
HETATM    8  C   UNL     1      -9.957  12.592  67.675  1.00  0.00    -0.201 C  
HETATM    9  N   UNL     1     -10.203  12.706  68.953  1.00  0.00    -0.425 NA 
HETATM   10  C   UNL     1     -11.067  13.655  69.533  1.00  0.00    -0.072 A  
HETATM   11  H   UNL     1      -9.731  12.054  69.581  1.00  0.00     0.000 HD 
HETATM   12  C   UNL     1     -11.941  13.185  70.524  1.00  0.00    -0.303 A  
HETATM   13  C   UNL     1     -12.810  14.048  71.200  1.00  0.00    -0.427 A  
HETATM   14  C   UNL     1     -12.811  15.404  70.901  1.00  0.00    -0.536 A  
HETATM   15  C   UNL     1     -11.928  15.900  69.943  1.00  0.00    -0.283 A  
HETATM   16  C   UNL     1     -11.046  15.037  69.274  1.00  0.00    -0.272 A  
HETATM   17  S   UNL     1      -9.951  15.750  68.054  1.00  0.00    -0.224 SA 
HETATM   18  C   UNL     1     -10.584  14.846  66.660  1.00  0.00    -0.305 A  
HETATM   19  C   UNL     1     -10.592  13.446  66.611  1.00  0.00    -0.282 A  
HETATM   20  C   UNL     1     -11.135  12.786  65.497  1.00  0.00    -0.318 A  
HETATM   21  C   UNL     1     -11.641  13.522  64.431  1.00  0.00    -0.396 A  
HETATM   22  C   UNL     1     -11.637  14.913  64.471  1.00  0.00    -0.356 A  
HETATM   23 CL   UNL     1     -12.245  12.706  63.043  1.00  0.00    -0.308 Cl 
HETATM   24  C   UNL     1     -11.117  15.573  65.586  1.00  0.00    -0.235 A  
ENDBRANCH   5   8
TORSDOF 1
ENDMDL
MODEL       47
REMARK 921   NORMALIZED FREE ENERGY PREDICTED BY IDOCK:   -5.10 KCAL/MOL
REMARK 922        TOTAL FREE ENERGY PREDICTED BY IDOCK:   -5.63 KCAL/MOL
REMARK 923 INTER-LIGAND FREE ENERGY PREDICTED BY IDOCK:   -5.20 KCAL/MOL
REMARK 924 INTRA-LIGAND FREE ENERGY PREDICTED BY IDOCK:   -0.43 KCAL/MOL
REMARK 927      BINDING AFFINITY PREDICTED BY RF-SCORE:    0.00 PKD
ROOT
HETATM    1  C   UNL     1      -9.571  13.403  66.894  1.00  0.00    -0.257 C  
HETATM    2  N   UNL     1      -9.472  11.979  66.587  1.00  0.00    -0.211 NA 
HETATM    3  C   UNL     1      -8.304  11.355  67.240  1.00  0.00    -0.149 C  
HETATM    4  C   UNL     1      -8.422  11.170  68.770  1.00  0.00    -0.134 C  
HETATM    5  N   UNL     1      -9.666  10.474  69.127  1.00  0.00    -0.212 NA 
HETATM    6  C   UNL     1     -10.878  11.026  68.504  1.00  0.00    -0.213 C  
HETATM    7  C   UNL     1     -10.692  11.238  66.985  1.00  0.00    -0.260 C  
ENDROOT
BRANCH   5   8
HETATM    8  C   UNL     1      -9.719   9.366  69.975  1.00  0.00    -0.224 C  
HETATM    9  N   UNL     1      -9.534   9.546  71.256  1.00  0.00    -0.321 NA 
HETATM   10  C   UNL     1      -9.547   8.530  72.230  1.00  0.00    -0.307 A  
HETATM   11  H   UNL     1      -9.366  10.501  71.575  1.00  0.00     0.000 HD 
HETATM   12  C   UNL     1      -8.527   8.569  73.193  1.00  0.00    -0.086 A  
HETATM   13  C   UNL     1      -8.469   7.637  74.234  1.00  0.00    -0.282 A  
HETATM   14  C   UNL     1      -9.442   6.650  74.335  1.00  0.00    -0.279 A  
HETATM   15  C   UNL     1     -10.484   6.611  73.410  1.00  0.00    -0.313 A  
HETATM   16  C   UNL     1     -10.550   7.555  72.373  1.00  0.00    -0.251 A  
HETATM   17  S   UNL     1     -11.913   7.431  71.223  1.00  0.00    -0.325 SA 
HETATM   18  C   UNL     1     -10.929   7.130  69.773  1.00  0.00    -0.231 A  
HETATM   19  C   UNL     1      -9.944   8.024  69.333  1.00  0.00    -0.190 A  
HETATM   20  C   UNL     1      -9.175   7.717  68.199  1.00  0.00    -0.138 A  
HETATM   21  C   UNL     1      -9.409   6.539  67.498  1.00  0.00    -0.122 A  
HETATM   22  C   UNL     1     -10.385   5.646  67.927  1.00  0.00    -0.260 A  
HETATM   23 CL   UNL     1      -8.506   6.202  66.073  1.00  0.00    -0.135 Cl 
HETATM   24  C   UNL     1     -11.138   5.936  69.066  1.00  0.00    -0.295 A  
ENDBRANCH   5   8
TORSDOF 1
ENDMDL
MODEL       48
REMARK 921   NORMALIZED FREE ENERGY PREDICTED BY IDOCK:   -5.05 KCAL/MOL
REMARK 922        TOTAL FREE ENERGY PREDICTED BY IDOCK:   -5.58 KCAL/MOL
REMARK 923 INTER-LIGAND FREE ENERGY PREDICTED BY IDOCK:   -5.13 KCAL/MOL
REMARK 924 INTRA-LIGAND FREE ENERGY PREDICTED BY IDOCK:   -0.45 KCAL/MOL
REMARK 927      BINDING AFFINITY PREDICTED BY RF-SCORE:    0.00 PKD
ROOT
HETATM    1  C   UNL     1     -11.218   5.496  72.706  1.00  0.00    -0.305 C  
HETATM    2  N   UNL     1     -11.520   6.898  72.432  1.00  0.00    -0.268 NA 
HETATM    3  C   UNL     1     -10.331   7.759  72.599  1.00  0.00    -0.292 C  
HETATM    4  C   UNL     1      -9.254   7.621  71.501  1.00  0.00    -0.135 C  
HETATM    5  N   UNL     1      -9.838   7.774  70.161  1.00  0.00    -0.184 NA 
HETATM    6  C   UNL     1     -11.036   6.960  69.918  1.00  0.00    -0.288 C  
HETATM    7  C   UNL     1     -12.060   7.095  71.066  1.00  0.00    -0.350 C  
ENDROOT
BRANCH   5   8
HETATM    8  C   UNL     1      -9.323   8.630  69.184  1.00  0.00    -0.153 C  
HETATM    9  N   UNL     1      -8.141   8.378  68.689  1.00  0.00    -0.120 NA 
HETATM   10  C   UNL     1      -7.488   9.152  67.710  1.00  0.00    -0.085 A  
HETATM   11  H   UNL     1      -7.651   7.554  69.039  1.00  0.00     0.000 HD 
HETATM   12  C   UNL     1      -6.130   9.426  67.929  1.00  0.00    -0.053 A  
HETATM   13  C   UNL     1      -5.371  10.145  67.000  1.00  0.00    -0.041 A  
HETATM   14  C   UNL     1      -5.960  10.597  65.826  1.00  0.00    -0.137 A  
HETATM   15  C   UNL     1      -7.300  10.309  65.570  1.00  0.00    -0.149 A  
HETATM   16  C   UNL     1      -8.058   9.574  66.496  1.00  0.00    -0.112 A  
HETATM   17  S   UNL     1      -9.771   9.255  66.098  1.00  0.00    -0.289 SA 
HETATM   18  C   UNL     1     -10.468  10.137  67.475  1.00  0.00    -0.253 A  
HETATM   19  C   UNL     1     -10.165   9.819  68.805  1.00  0.00    -0.210 A  
HETATM   20  C   UNL     1     -10.720  10.573  69.851  1.00  0.00    -0.301 A  
HETATM   21  C   UNL     1     -11.592  11.618  69.568  1.00  0.00    -0.331 A  
HETATM   22  C   UNL     1     -11.899  11.942  68.250  1.00  0.00    -0.343 A  
HETATM   23 CL   UNL     1     -12.318  12.495  70.857  1.00  0.00    -0.431 Cl 
HETATM   24  C   UNL     1     -11.333  11.209  67.206  1.00  0.00    -0.302 A  
ENDBRANCH   5   8
TORSDOF 1
ENDMDL
MODEL       49
REMARK 921   NORMALIZED FREE ENERGY PREDICTED BY IDOCK:   -5.03 KCAL/MOL
REMARK 922        TOTAL FREE ENERGY PREDICTED BY IDOCK:   -5.56 KCAL/MOL
REMARK 923 INTER-LIGAND FREE ENERGY PREDICTED BY IDOCK:   -5.25 KCAL/MOL
REMARK 924 INTRA-LIGAND FREE ENERGY PREDICTED BY IDOCK:   -0.31 KCAL/MOL
REMARK 927      BINDING AFFINITY PREDICTED BY RF-SCORE:    0.00 PKD
ROOT
HETATM    1  C   UNL     1     -12.156  15.001  64.137  1.00  0.00    -0.223 C  
HETATM    2  N   UNL     1     -12.553  13.600  64.241  1.00  0.00    -0.664 NA 
HETATM    3  C   UNL     1     -11.664  12.717  63.458  1.00  0.00    -0.530 C  
HETATM    4  C   UNL     1     -10.249  12.515  64.045  1.00  0.00    -0.364 C  
HETATM    5  N   UNL     1     -10.311  12.095  65.452  1.00  0.00    -0.261 NA 
HETATM    6  C   UNL     1     -11.189  12.916  66.298  1.00  0.00    -0.301 C  
HETATM    7  C   UNL     1     -12.573  13.129  65.645  1.00  0.00    -0.351 C  
ENDROOT
BRANCH   5   8
HETATM    8  C   UNL     1      -9.614  10.999  65.966  1.00  0.00    -0.215 C  
HETATM    9  N   UNL     1     -10.248   9.867  66.116  1.00  0.00    -0.237 NA 
HETATM   10  C   UNL     1      -9.685   8.683  66.629  1.00  0.00    -0.247 A  
HETATM   11  H   UNL     1     -11.230   9.838  65.839  1.00  0.00     0.000 HD 
HETATM   12  C   UNL     1     -10.454   7.976  67.566  1.00  0.00    -0.331 A  
HETATM   13  C   UNL     1     -10.014   6.764  68.106  1.00  0.00    -0.161 A  
HETATM   14  C   UNL     1      -8.795   6.230  67.709  1.00  0.00    -0.111 A  
HETATM   15  C   UNL     1      -8.027   6.897  66.755  1.00  0.00    -0.108 A  
HETATM   16  C   UNL     1      -8.475   8.107  66.202  1.00  0.00    -0.136 A  
HETATM   17  S   UNL     1      -7.429   8.904  64.992  1.00  0.00    -0.100 SA 
HETATM   18  C   UNL     1      -7.138  10.391  65.922  1.00  0.00    -0.135 A  
HETATM   19  C   UNL     1      -8.178  11.225  66.354  1.00  0.00    -0.150 A  
HETATM   20  C   UNL     1      -7.890  12.369  67.114  1.00  0.00    -0.138 A  
HETATM   21  C   UNL     1      -6.571  12.690  67.415  1.00  0.00    -0.144 A  
HETATM   22  C   UNL     1      -5.531  11.869  66.990  1.00  0.00    -0.119 A  
HETATM   23 CL   UNL     1      -6.222  14.129  68.292  1.00  0.00    -0.104 Cl 
HETATM   24  C   UNL     1      -5.814  10.718  66.252  1.00  0.00    -0.122 A  
ENDBRANCH   5   8
TORSDOF 1
ENDMDL
MODEL       50
REMARK 921   NORMALIZED FREE ENERGY PREDICTED BY IDOCK:   -5.00 KCAL/MOL
REMARK 922        TOTAL FREE ENERGY PREDICTED BY IDOCK:   -5.52 KCAL/MOL
REMARK 923 INTER-LIGAND FREE ENERGY PREDICTED BY IDOCK:   -5.13 KCAL/MOL
REMARK 924 INTRA-LIGAND FREE ENERGY PREDICTED BY IDOCK:   -0.39 KCAL/MOL
REMARK 927      BINDING AFFINITY PREDICTED BY RF-SCORE:    0.00 PKD
ROOT
HETATM    1  C   UNL     1     -12.142  12.816  65.793  1.00  0.00    -0.448 C  
HETATM    2  N   UNL     1     -11.269  13.151  66.914  1.00  0.00    -0.287 NA 
HETATM    3  C   UNL     1     -11.809  12.656  68.197  1.00  0.00    -0.315 C  
HETATM    4  C   UNL     1     -11.734  11.127  68.401  1.00  0.00    -0.279 C  
HETATM    5  N   UNL     1     -10.373  10.625  68.168  1.00  0.00    -0.168 NA 
HETATM    6  C   UNL     1      -9.757  11.084  66.915  1.00  0.00    -0.188 C  
HETATM    7  C   UNL     1      -9.901  12.612  66.735  1.00  0.00    -0.235 C  
ENDROOT
BRANCH   5   8
HETATM    8  C   UNL     1      -9.691   9.790  69.056  1.00  0.00    -0.177 C  
HETATM    9  N   UNL     1      -8.695  10.283  69.742  1.00  0.00    -0.372 NA 
HETATM   10  C   UNL     1      -7.908   9.566  70.664  1.00  0.00    -0.117 A  
HETATM   11  H   UNL     1      -8.468  11.268  69.599  1.00  0.00     0.000 HD 
HETATM   12  C   UNL     1      -6.521   9.760  70.592  1.00  0.00    -0.109 A  
HETATM   13  C   UNL     1      -5.648   9.135  71.488  1.00  0.00    -0.059 A  
HETATM   14  C   UNL     1      -6.153   8.307  72.483  1.00  0.00    -0.066 A  
HETATM   15  C   UNL     1      -7.531   8.125  72.596  1.00  0.00    -0.156 A  
HETATM   16  C   UNL     1      -8.408   8.763  71.706  1.00  0.00    -0.094 A  
HETATM   17  S   UNL     1     -10.159   8.471  71.912  1.00  0.00    -0.324 SA 
HETATM   18  C   UNL     1     -10.426   7.706  70.329  1.00  0.00    -0.224 A  
HETATM   19  C   UNL     1     -10.135   8.354  69.121  1.00  0.00    -0.206 A  
HETATM   20  C   UNL     1     -10.335   7.687  67.902  1.00  0.00    -0.270 A  
HETATM   21  C   UNL     1     -10.846   6.394  67.892  1.00  0.00    -0.322 A  
HETATM   22  C   UNL     1     -11.138   5.743  69.087  1.00  0.00    -0.218 A  
HETATM   23 CL   UNL     1     -11.149   5.608  66.392  1.00  0.00    -0.120 Cl 
HETATM   24  C   UNL     1     -10.921   6.394  70.302  1.00  0.00    -0.378 A  
ENDBRANCH   5   8
TORSDOF 1
ENDMDL
MODEL       51
REMARK 921   NORMALIZED FREE ENERGY PREDICTED BY IDOCK:   -4.99 KCAL/MOL
REMARK 922        TOTAL FREE ENERGY PREDICTED BY IDOCK:   -5.51 KCAL/MOL
REMARK 923 INTER-LIGAND FREE ENERGY PREDICTED BY IDOCK:   -5.12 KCAL/MOL
REMARK 924 INTRA-LIGAND FREE ENERGY PREDICTED BY IDOCK:   -0.39 KCAL/MOL
REMARK 927      BINDING AFFINITY PREDICTED BY RF-SCORE:    0.00 PKD
ROOT
HETATM    1  C   UNL     1      -8.353   4.060  64.073  1.00  0.00    -0.094 C  
HETATM    2  N   UNL     1      -8.340   3.828  65.515  1.00  0.00    -0.104 NA 
HETATM    3  C   UNL     1      -7.471   4.793  66.219  1.00  0.00    -0.086 C  
HETATM    4  C   UNL     1      -8.017   6.236  66.305  1.00  0.00    -0.110 C  
HETATM    5  N   UNL     1      -9.382   6.256  66.847  1.00  0.00    -0.131 NA 
HETATM    6  C   UNL     1     -10.310   5.311  66.209  1.00  0.00    -0.239 C  
HETATM    7  C   UNL     1      -9.698   3.896  66.102  1.00  0.00    -0.160 C  
ENDROOT
BRANCH   5   8
HETATM    8  C   UNL     1      -9.789   7.085  67.895  1.00  0.00    -0.138 C  
HETATM    9  N   UNL     1     -10.278   6.538  68.975  1.00  0.00    -0.167 NA 
HETATM   10  C   UNL     1     -10.738   7.241  70.106  1.00  0.00    -0.244 A  
HETATM   11  H   UNL     1     -10.331   5.519  69.002  1.00  0.00     0.000 HD 
HETATM   12  C   UNL     1     -11.953   6.813  70.660  1.00  0.00    -0.418 A  
HETATM   13  C   UNL     1     -12.480   7.408  71.811  1.00  0.00    -0.367 A  
HETATM   14  C   UNL     1     -11.792   8.441  72.434  1.00  0.00    -0.452 A  
HETATM   15  C   UNL     1     -10.566   8.862  71.922  1.00  0.00    -0.419 A  
HETATM   16  C   UNL     1     -10.029   8.255  70.775  1.00  0.00    -0.190 A  
HETATM   17  S   UNL     1      -8.457   8.858  70.175  1.00  0.00    -0.162 SA 
HETATM   18  C   UNL     1      -9.045   9.422  68.595  1.00  0.00    -0.132 A  
HETATM   19  C   UNL     1      -9.670   8.570  67.676  1.00  0.00    -0.201 A  
HETATM   20  C   UNL     1     -10.144   9.079  66.456  1.00  0.00    -0.354 A  
HETATM   21  C   UNL     1      -9.968  10.424  66.149  1.00  0.00    -0.231 A  
HETATM   22  C   UNL     1      -9.348  11.278  67.055  1.00  0.00    -0.183 A  
HETATM   23 CL   UNL     1     -10.493  11.026  64.625  1.00  0.00    -0.401 Cl 
HETATM   24  C   UNL     1      -8.894  10.781  68.278  1.00  0.00    -0.139 A  
ENDBRANCH   5   8
TORSDOF 1
ENDMDL
MODEL       52
REMARK 921   NORMALIZED FREE ENERGY PREDICTED BY IDOCK:   -4.96 KCAL/MOL
REMARK 922        TOTAL FREE ENERGY PREDICTED BY IDOCK:   -5.48 KCAL/MOL
REMARK 923 INTER-LIGAND FREE ENERGY PREDICTED BY IDOCK:   -5.06 KCAL/MOL
REMARK 924 INTRA-LIGAND FREE ENERGY PREDICTED BY IDOCK:   -0.43 KCAL/MOL
REMARK 927      BINDING AFFINITY PREDICTED BY RF-SCORE:    0.00 PKD
ROOT
HETATM    1  C   UNL     1      -7.912   6.135  68.117  1.00  0.00    -0.107 C  
HETATM    2  N   UNL     1      -7.309   7.458  68.246  1.00  0.00    -0.097 NA 
HETATM    3  C   UNL     1      -7.082   8.090  66.930  1.00  0.00    -0.081 C  
HETATM    4  C   UNL     1      -8.355   8.577  66.202  1.00  0.00    -0.119 C  
HETATM    5  N   UNL     1      -9.170   9.436  67.072  1.00  0.00    -0.140 NA 
HETATM    6  C   UNL     1      -9.429   8.885  68.409  1.00  0.00    -0.140 C  
HETATM    7  C   UNL     1      -8.134   8.368  69.074  1.00  0.00    -0.116 C  
ENDROOT
BRANCH   5   8
HETATM    8  C   UNL     1      -9.658  10.688  66.688  1.00  0.00    -0.175 C  
HETATM    9  N   UNL     1     -10.644  10.742  65.834  1.00  0.00    -0.192 NA 
HETATM   10  C   UNL     1     -11.233  11.925  65.346  1.00  0.00    -0.295 A  
HETATM   11  H   UNL     1     -11.017   9.856  65.492  1.00  0.00     0.000 HD 
HETATM   12  C   UNL     1     -11.482  11.980  63.967  1.00  0.00    -0.484 A  
HETATM   13  C   UNL     1     -12.106  13.086  63.381  1.00  0.00    -0.591 A  
HETATM   14  C   UNL     1     -12.501  14.157  64.172  1.00  0.00    -0.267 A  
HETATM   15  C   UNL     1     -12.294  14.112  65.549  1.00  0.00    -0.472 A  
HETATM   16  C   UNL     1     -11.681  12.995  66.140  1.00  0.00    -0.394 A  
HETATM   17  S   UNL     1     -11.443  13.018  67.911  1.00  0.00    -0.333 SA 
HETATM   18  C   UNL     1      -9.667  12.943  67.879  1.00  0.00    -0.218 A  
HETATM   19  C   UNL     1      -8.969  11.895  67.265  1.00  0.00    -0.176 A  
HETATM   20  C   UNL     1      -7.565  11.906  67.242  1.00  0.00    -0.154 A  
HETATM   21  C   UNL     1      -6.868  12.943  67.853  1.00  0.00    -0.120 A  
HETATM   22  C   UNL     1      -7.553  13.987  68.466  1.00  0.00    -0.130 A  
HETATM   23 CL   UNL     1      -5.148  12.915  67.878  1.00  0.00    -0.094 Cl 
HETATM   24  C   UNL     1      -8.949  13.991  68.473  1.00  0.00    -0.160 A  
ENDBRANCH   5   8
TORSDOF 1
ENDMDL
MODEL       53
REMARK 921   NORMALIZED FREE ENERGY PREDICTED BY IDOCK:   -4.95 KCAL/MOL
REMARK 922        TOTAL FREE ENERGY PREDICTED BY IDOCK:   -5.47 KCAL/MOL
REMARK 923 INTER-LIGAND FREE ENERGY PREDICTED BY IDOCK:   -5.05 KCAL/MOL
REMARK 924 INTRA-LIGAND FREE ENERGY PREDICTED BY IDOCK:   -0.42 KCAL/MOL
REMARK 927      BINDING AFFINITY PREDICTED BY RF-SCORE:    0.00 PKD
ROOT
HETATM    1  C   UNL     1      -8.923   9.468  64.327  1.00  0.00    -0.205 C  
HETATM    2  N   UNL     1      -9.470   9.763  65.649  1.00  0.00    -0.226 NA 
HETATM    3  C   UNL     1      -8.421  10.198  66.593  1.00  0.00    -0.126 C  
HETATM    4  C   UNL     1      -7.854  11.614  66.347  1.00  0.00     0.035 C  
HETATM    5  N   UNL     1      -8.931  12.609  66.253  1.00  0.00    -0.055 NA 
HETATM    6  C   UNL     1     -10.025  12.245  65.341  1.00  0.00    -0.244 C  
HETATM    7  C   UNL     1     -10.523  10.805  65.596  1.00  0.00    -0.186 C  
ENDROOT
BRANCH   5   8
HETATM    8  C   UNL     1      -8.945  13.806  66.973  1.00  0.00    -0.238 C  
HETATM    9  N   UNL     1      -7.960  14.647  66.812  1.00  0.00    -0.327 NA 
HETATM   10  C   UNL     1      -7.830  15.884  67.473  1.00  0.00    -0.153 A  
HETATM   11  H   UNL     1      -7.224  14.388  66.153  1.00  0.00     0.000 HD 
HETATM   12  C   UNL     1      -6.561  16.193  67.985  1.00  0.00    -0.142 A  
HETATM   13  C   UNL     1      -6.306  17.413  68.619  1.00  0.00    -0.179 A  
HETATM   14  C   UNL     1      -7.321  18.354  68.743  1.00  0.00    -0.304 A  
HETATM   15  C   UNL     1      -8.581  18.084  68.212  1.00  0.00    -0.293 A  
HETATM   16  C   UNL     1      -8.834  16.865  67.564  1.00  0.00    -0.209 A  
HETATM   17  S   UNL     1     -10.478  16.592  66.919  1.00  0.00    -0.230 SA 
HETATM   18  C   UNL     1     -10.864  15.184  67.934  1.00  0.00    -0.291 A  
HETATM   19  C   UNL     1     -10.091  14.016  67.926  1.00  0.00    -0.237 A  
HETATM   20  C   UNL     1     -10.425  12.948  68.774  1.00  0.00    -0.183 A  
HETATM   21  C   UNL     1     -11.538  13.040  69.603  1.00  0.00    -0.253 A  
HETATM   22  C   UNL     1     -12.311  14.196  69.618  1.00  0.00    -0.304 A  
HETATM   23 CL   UNL     1     -11.978  11.703  70.591  1.00  0.00    -0.424 Cl 
HETATM   24  C   UNL     1     -11.971  15.269  68.791  1.00  0.00    -0.279 A  
ENDBRANCH   5   8
TORSDOF 1
ENDMDL
MODEL       54
REMARK 921   NORMALIZED FREE ENERGY PREDICTED BY IDOCK:   -4.92 KCAL/MOL
REMARK 922        TOTAL FREE ENERGY PREDICTED BY IDOCK:   -5.43 KCAL/MOL
REMARK 923 INTER-LIGAND FREE ENERGY PREDICTED BY IDOCK:   -5.11 KCAL/MOL
REMARK 924 INTRA-LIGAND FREE ENERGY PREDICTED BY IDOCK:   -0.33 KCAL/MOL
REMARK 927      BINDING AFFINITY PREDICTED BY RF-SCORE:    0.00 PKD
ROOT
HETATM    1  C   UNL     1      -6.701   7.786  65.608  1.00  0.00    -0.045 C  
HETATM    2  N   UNL     1      -7.977   8.495  65.607  1.00  0.00    -0.101 NA 
HETATM    3  C   UNL     1      -9.048   7.700  66.241  1.00  0.00    -0.162 C  
HETATM    4  C   UNL     1      -8.952   7.569  67.778  1.00  0.00    -0.131 C  
HETATM    5  N   UNL     1      -8.817   8.885  68.417  1.00  0.00    -0.134 NA 
HETATM    6  C   UNL     1      -7.778   9.746  67.833  1.00  0.00    -0.087 C  
HETATM    7  C   UNL     1      -7.887   9.805  66.293  1.00  0.00    -0.106 C  
ENDROOT
BRANCH   5   8
HETATM    8  C   UNL     1      -9.608   9.314  69.485  1.00  0.00    -0.173 C  
HETATM    9  N   UNL     1     -10.611  10.113  69.242  1.00  0.00    -0.215 NA 
HETATM   10  C   UNL     1     -11.488  10.636  70.212  1.00  0.00    -0.337 A  
HETATM   11  H   UNL     1     -10.773  10.380  68.270  1.00  0.00     0.000 HD 
HETATM   12  C   UNL     1     -11.799  12.000  70.108  1.00  0.00    -0.383 A  
HETATM   13  C   UNL     1     -12.694  12.614  70.989  1.00  0.00    -0.316 A  
HETATM   14  C   UNL     1     -13.305  11.868  71.988  1.00  0.00    -0.425 A  
HETATM   15  C   UNL     1     -13.038  10.503  72.091  1.00  0.00    -0.413 A  
HETATM   16  C   UNL     1     -12.149   9.883  71.198  1.00  0.00    -0.374 A  
HETATM   17  S   UNL     1     -11.853   8.133  71.403  1.00  0.00    -0.302 SA 
HETATM   18  C   UNL     1     -10.115   8.259  71.751  1.00  0.00    -0.224 A  
HETATM   19  C   UNL     1      -9.209   8.849  70.860  1.00  0.00    -0.286 A  
HETATM   20  C   UNL     1      -7.852   8.951  71.204  1.00  0.00    -0.172 A  
HETATM   21  C   UNL     1      -7.402   8.442  72.417  1.00  0.00    -0.090 A  
HETATM   22  C   UNL     1      -8.294   7.855  73.309  1.00  0.00    -0.248 A  
HETATM   23 CL   UNL     1      -5.727   8.513  72.803  1.00  0.00    -0.065 Cl 
HETATM   24  C   UNL     1      -9.648   7.770  72.980  1.00  0.00    -0.320 A  
ENDBRANCH   5   8
TORSDOF 1
ENDMDL
MODEL       55
REMARK 921   NORMALIZED FREE ENERGY PREDICTED BY IDOCK:   -4.86 KCAL/MOL
REMARK 922        TOTAL FREE ENERGY PREDICTED BY IDOCK:   -5.37 KCAL/MOL
REMARK 923 INTER-LIGAND FREE ENERGY PREDICTED BY IDOCK:   -4.98 KCAL/MOL
REMARK 924 INTRA-LIGAND FREE ENERGY PREDICTED BY IDOCK:   -0.39 KCAL/MOL
REMARK 927      BINDING AFFINITY PREDICTED BY RF-SCORE:    0.00 PKD
ROOT
HETATM    1  C   UNL     1      -6.341  20.785  64.387  1.00  0.00    -0.306 C  
HETATM    2  N   UNL     1      -6.163  20.494  65.807  1.00  0.00    -0.218 NA 
HETATM    3  C   UNL     1      -7.446  20.517  66.538  1.00  0.00    -0.179 C  
HETATM    4  C   UNL     1      -8.388  19.325  66.259  1.00  0.00    -0.319 C  
HETATM    5  N   UNL     1      -7.694  18.044  66.444  1.00  0.00    -0.256 NA 
HETATM    6  C   UNL     1      -6.398  17.944  65.758  1.00  0.00    -0.223 C  
HETATM    7  C   UNL     1      -5.513  19.181  66.029  1.00  0.00    -0.155 C  
ENDROOT
BRANCH   5   8
HETATM    8  C   UNL     1      -8.196  16.993  67.216  1.00  0.00    -0.186 C  
HETATM    9  N   UNL     1      -9.380  16.519  66.936  1.00  0.00    -0.225 NA 
HETATM   10  C   UNL     1     -10.022  15.474  67.628  1.00  0.00    -0.233 A  
HETATM   11  H   UNL     1      -9.881  16.939  66.152  1.00  0.00     0.000 HD 
HETATM   12  C   UNL     1     -11.377  15.664  67.937  1.00  0.00    -0.302 A  
HETATM   13  C   UNL     1     -12.125  14.673  68.581  1.00  0.00    -0.237 A  
HETATM   14  C   UNL     1     -11.528  13.465  68.920  1.00  0.00    -0.347 A  
HETATM   15  C   UNL     1     -10.192  13.240  68.594  1.00  0.00    -0.178 A  
HETATM   16  C   UNL     1      -9.444  14.229  67.935  1.00  0.00    -0.212 A  
HETATM   17  S   UNL     1      -7.735  13.866  67.560  1.00  0.00    -0.162 SA 
HETATM   18  C   UNL     1      -7.029  15.161  68.552  1.00  0.00    -0.105 A  
HETATM   19  C   UNL     1      -7.339  16.513  68.356  1.00  0.00    -0.179 A  
HETATM   20  C   UNL     1      -6.776  17.490  69.192  1.00  0.00    -0.243 A  
HETATM   21  C   UNL     1      -5.890  17.118  70.198  1.00  0.00    -0.184 A  
HETATM   22  C   UNL     1      -5.577  15.778  70.400  1.00  0.00    -0.142 A  
HETATM   23 CL   UNL     1      -5.155  18.327  71.176  1.00  0.00    -0.266 Cl 
HETATM   24  C   UNL     1      -6.150  14.801  69.584  1.00  0.00    -0.121 A  
ENDBRANCH   5   8
TORSDOF 1
ENDMDL
MODEL       56
REMARK 921   NORMALIZED FREE ENERGY PREDICTED BY IDOCK:   -4.85 KCAL/MOL
REMARK 922        TOTAL FREE ENERGY PREDICTED BY IDOCK:   -5.36 KCAL/MOL
REMARK 923 INTER-LIGAND FREE ENERGY PREDICTED BY IDOCK:   -4.93 KCAL/MOL
REMARK 924 INTRA-LIGAND FREE ENERGY PREDICTED BY IDOCK:   -0.43 KCAL/MOL
REMARK 927      BINDING AFFINITY PREDICTED BY RF-SCORE:    0.00 PKD
ROOT
HETATM    1  C   UNL     1      -6.711   6.835  66.644  1.00  0.00    -0.053 C  
HETATM    2  N   UNL     1      -7.633   6.995  67.764  1.00  0.00    -0.108 NA 
HETATM    3  C   UNL     1      -7.099   7.915  68.789  1.00  0.00    -0.072 C  
HETATM    4  C   UNL     1      -7.083   9.408  68.395  1.00  0.00    -0.072 C  
HETATM    5  N   UNL     1      -8.403   9.847  67.922  1.00  0.00    -0.113 NA 
HETATM    6  C   UNL     1      -9.013   8.976  66.908  1.00  0.00    -0.123 C  
HETATM    7  C   UNL     1      -8.960   7.490  67.327  1.00  0.00    -0.124 C  
ENDROOT
BRANCH   5   8
HETATM    8  C   UNL     1      -9.055  10.990  68.394  1.00  0.00    -0.161 C  
HETATM    9  N   UNL     1      -8.605  12.162  68.036  1.00  0.00    -0.167 NA 
HETATM   10  C   UNL     1      -9.147  13.398  68.437  1.00  0.00    -0.142 A  
HETATM   11  H   UNL     1      -7.794  12.184  67.416  1.00  0.00     0.000 HD 
HETATM   12  C   UNL     1      -8.234  14.386  68.834  1.00  0.00    -0.082 A  
HETATM   13  C   UNL     1      -8.658  15.665  69.207  1.00  0.00    -0.262 A  
HETATM   14  C   UNL     1     -10.010  15.982  69.180  1.00  0.00    -0.246 A  
HETATM   15  C   UNL     1     -10.934  15.028  68.758  1.00  0.00    -0.259 A  
HETATM   16  C   UNL     1     -10.507  13.748  68.369  1.00  0.00    -0.252 A  
HETATM   17  S   UNL     1     -11.755  12.579  67.850  1.00  0.00    -0.334 SA 
HETATM   18  C   UNL     1     -11.463  11.385  69.133  1.00  0.00    -0.299 A  
HETATM   19  C   UNL     1     -10.216  10.777  69.327  1.00  0.00    -0.217 A  
HETATM   20  C   UNL     1     -10.036   9.865  70.379  1.00  0.00    -0.258 A  
HETATM   21  C   UNL     1     -11.103   9.545  71.213  1.00  0.00    -0.379 A  
HETATM   22  C   UNL     1     -12.345  10.143  71.028  1.00  0.00    -0.474 A  
HETATM   23 CL   UNL     1     -10.891   8.378  72.459  1.00  0.00    -0.412 Cl 
HETATM   24  C   UNL     1     -12.523  11.066  69.996  1.00  0.00    -0.319 A  
ENDBRANCH   5   8
TORSDOF 1
ENDMDL
MODEL       57
REMARK 921   NORMALIZED FREE ENERGY PREDICTED BY IDOCK:   -4.81 KCAL/MOL
REMARK 922        TOTAL FREE ENERGY PREDICTED BY IDOCK:   -5.33 KCAL/MOL
REMARK 923 INTER-LIGAND FREE ENERGY PREDICTED BY IDOCK:   -4.89 KCAL/MOL
REMARK 924 INTRA-LIGAND FREE ENERGY PREDICTED BY IDOCK:   -0.44 KCAL/MOL
REMARK 927      BINDING AFFINITY PREDICTED BY RF-SCORE:    0.00 PKD
ROOT
HETATM    1  C   UNL     1      -9.562   7.082  72.639  1.00  0.00    -0.143 C  
HETATM    2  N   UNL     1      -9.369   6.895  71.203  1.00  0.00    -0.162 NA 
HETATM    3  C   UNL     1     -10.569   7.278  70.433  1.00  0.00    -0.226 C  
HETATM    4  C   UNL     1     -10.844   8.796  70.349  1.00  0.00    -0.228 C  
HETATM    5  N   UNL     1      -9.658   9.527  69.884  1.00  0.00    -0.208 NA 
HETATM    6  C   UNL     1      -8.414   9.191  70.593  1.00  0.00    -0.209 C  
HETATM    7  C   UNL     1      -8.210   7.663  70.692  1.00  0.00    -0.113 C  
ENDROOT
BRANCH   5   8
HETATM    8  C   UNL     1      -9.679  10.460  68.844  1.00  0.00    -0.198 C  
HETATM    9  N   UNL     1     -10.382  11.551  68.995  1.00  0.00    -0.364 NA 
HETATM   10  C   UNL     1     -10.509  12.574  68.036  1.00  0.00    -0.219 A  
HETATM   11  H   UNL     1     -10.879  11.671  69.878  1.00  0.00     0.000 HD 
HETATM   12  C   UNL     1     -11.800  13.081  67.825  1.00  0.00    -0.395 A  
HETATM   13  C   UNL     1     -12.036  14.130  66.930  1.00  0.00    -0.479 A  
HETATM   14  C   UNL     1     -10.976  14.699  66.235  1.00  0.00    -0.327 A  
HETATM   15  C   UNL     1      -9.679  14.235  66.453  1.00  0.00    -0.315 A  
HETATM   16  C   UNL     1      -9.440  13.192  67.361  1.00  0.00    -0.214 A  
HETATM   17  S   UNL     1      -7.751  12.649  67.576  1.00  0.00    -0.166 SA 
HETATM   18  C   UNL     1      -7.997  10.985  67.001  1.00  0.00    -0.137 A  
HETATM   19  C   UNL     1      -8.915  10.110  67.597  1.00  0.00    -0.134 A  
HETATM   20  C   UNL     1      -9.090   8.817  67.077  1.00  0.00    -0.160 A  
HETATM   21  C   UNL     1      -8.333   8.396  65.989  1.00  0.00    -0.126 A  
HETATM   22  C   UNL     1      -7.419   9.259  65.391  1.00  0.00    -0.098 A  
HETATM   23 CL   UNL     1      -8.508   6.790  65.400  1.00  0.00    -0.132 Cl 
HETATM   24  C   UNL     1      -7.257  10.552  65.891  1.00  0.00    -0.135 A  
ENDBRANCH   5   8
TORSDOF 1
ENDMDL
MODEL       58
REMARK 921   NORMALIZED FREE ENERGY PREDICTED BY IDOCK:   -4.80 KCAL/MOL
REMARK 922        TOTAL FREE ENERGY PREDICTED BY IDOCK:   -5.31 KCAL/MOL
REMARK 923 INTER-LIGAND FREE ENERGY PREDICTED BY IDOCK:   -4.86 KCAL/MOL
REMARK 924 INTRA-LIGAND FREE ENERGY PREDICTED BY IDOCK:   -0.45 KCAL/MOL
REMARK 927      BINDING AFFINITY PREDICTED BY RF-SCORE:    0.00 PKD
ROOT
HETATM    1  C   UNL     1     -10.336   4.333  73.532  1.00  0.00    -0.178 C  
HETATM    2  N   UNL     1     -11.059   5.578  73.287  1.00  0.00    -0.287 NA 
HETATM    3  C   UNL     1     -10.348   6.746  73.846  1.00  0.00    -0.368 C  
HETATM    4  C   UNL     1      -9.068   7.165  73.091  1.00  0.00    -0.141 C  
HETATM    5  N   UNL     1      -9.329   7.340  71.656  1.00  0.00    -0.151 NA 
HETATM    6  C   UNL     1     -10.048   6.224  71.024  1.00  0.00    -0.185 C  
HETATM    7  C   UNL     1     -11.292   5.811  71.842  1.00  0.00    -0.204 C  
ENDROOT
BRANCH   5   8
HETATM    8  C   UNL     1      -8.950   8.471  70.930  1.00  0.00    -0.172 C  
HETATM    9  N   UNL     1      -7.677   8.702  70.747  1.00  0.00    -0.079 NA 
HETATM   10  C   UNL     1      -7.142   9.802  70.049  1.00  0.00    -0.118 A  
HETATM   11  H   UNL     1      -7.017   8.030  71.142  1.00  0.00     0.000 HD 
HETATM   12  C   UNL     1      -6.053  10.454  70.644  1.00  0.00    -0.096 A  
HETATM   13  C   UNL     1      -5.414  11.529  70.018  1.00  0.00    -0.094 A  
HETATM   14  C   UNL     1      -5.851  11.965  68.774  1.00  0.00    -0.050 A  
HETATM   15  C   UNL     1      -6.911  11.311  68.146  1.00  0.00    -0.067 A  
HETATM   16  C   UNL     1      -7.543  10.223  68.769  1.00  0.00    -0.093 A  
HETATM   17  S   UNL     1      -8.900   9.446  67.903  1.00  0.00    -0.123 SA 
HETATM   18  C   UNL     1     -10.149   9.804  69.116  1.00  0.00    -0.192 A  
HETATM   19  C   UNL     1     -10.052   9.374  70.446  1.00  0.00    -0.310 A  
HETATM   20  C   UNL     1     -11.054   9.716  71.368  1.00  0.00    -0.397 A  
HETATM   21  C   UNL     1     -12.155  10.459  70.956  1.00  0.00    -0.385 A  
HETATM   22  C   UNL     1     -12.259  10.891  69.637  1.00  0.00    -0.354 A  
HETATM   23 CL   UNL     1     -13.409  10.819  72.077  1.00  0.00    -0.506 Cl 
HETATM   24  C   UNL     1     -11.255  10.571  68.722  1.00  0.00    -0.317 A  
ENDBRANCH   5   8
TORSDOF 1
ENDMDL
MODEL       59
REMARK 921   NORMALIZED FREE ENERGY PREDICTED BY IDOCK:   -4.78 KCAL/MOL
REMARK 922        TOTAL FREE ENERGY PREDICTED BY IDOCK:   -5.29 KCAL/MOL
REMARK 923 INTER-LIGAND FREE ENERGY PREDICTED BY IDOCK:   -4.85 KCAL/MOL
REMARK 924 INTRA-LIGAND FREE ENERGY PREDICTED BY IDOCK:   -0.44 KCAL/MOL
REMARK 927      BINDING AFFINITY PREDICTED BY RF-SCORE:    0.00 PKD
ROOT
HETATM    1  C   UNL     1     -10.386   8.324  72.758  1.00  0.00    -0.260 C  
HETATM    2  N   UNL     1     -10.397   7.479  71.567  1.00  0.00    -0.196 NA 
HETATM    3  C   UNL     1     -11.590   7.723  70.731  1.00  0.00    -0.255 C  
HETATM    4  C   UNL     1     -11.596   9.063  69.962  1.00  0.00     0.099 C  
HETATM    5  N   UNL     1     -10.360   9.239  69.189  1.00  0.00    -0.206 NA 
HETATM    6  C   UNL     1      -9.123   9.000  69.947  1.00  0.00    -0.168 C  
HETATM    7  C   UNL     1      -9.186   7.673  70.735  1.00  0.00    -0.157 C  
ENDROOT
BRANCH   5   8
HETATM    8  C   UNL     1     -10.333   9.590  67.837  1.00  0.00    -0.227 C  
HETATM    9  N   UNL     1     -10.796  10.759  67.483  1.00  0.00    -0.267 NA 
HETATM   10  C   UNL     1     -10.846  11.249  66.164  1.00  0.00    -0.222 A  
HETATM   11  H   UNL     1     -11.150  11.367  68.223  1.00  0.00     0.000 HD 
HETATM   12  C   UNL     1     -12.035  11.881  65.772  1.00  0.00     0.022 A  
HETATM   13  C   UNL     1     -12.179  12.445  64.501  1.00  0.00    -0.509 A  
HETATM   14  C   UNL     1     -11.124  12.394  63.598  1.00  0.00    -0.535 A  
HETATM   15  C   UNL     1      -9.921  11.800  63.975  1.00  0.00    -0.320 A  
HETATM   16  C   UNL     1      -9.772  11.246  65.256  1.00  0.00    -0.239 A  
HETATM   17  S   UNL     1      -8.201  10.496  65.659  1.00  0.00    -0.154 SA 
HETATM   18  C   UNL     1      -8.821   8.851  65.921  1.00  0.00    -0.179 A  
HETATM   19  C   UNL     1      -9.806   8.561  66.874  1.00  0.00    -0.310 A  
HETATM   20  C   UNL     1     -10.282   7.247  67.014  1.00  0.00    -0.348 A  
HETATM   21  C   UNL     1      -9.757   6.230  66.225  1.00  0.00    -0.041 A  
HETATM   22  C   UNL     1      -8.778   6.508  65.276  1.00  0.00     0.031 A  
HETATM   23 CL   UNL     1     -10.299   4.613  66.447  1.00  0.00    -0.294 Cl 
HETATM   24  C   UNL     1      -8.317   7.817  65.119  1.00  0.00    -0.113 A  
ENDBRANCH   5   8
TORSDOF 1
ENDMDL
MODEL       60
REMARK 921   NORMALIZED FREE ENERGY PREDICTED BY IDOCK:   -4.78 KCAL/MOL
REMARK 922        TOTAL FREE ENERGY PREDICTED BY IDOCK:   -5.29 KCAL/MOL
REMARK 923 INTER-LIGAND FREE ENERGY PREDICTED BY IDOCK:   -4.87 KCAL/MOL
REMARK 924 INTRA-LIGAND FREE ENERGY PREDICTED BY IDOCK:   -0.42 KCAL/MOL
REMARK 927      BINDING AFFINITY PREDICTED BY RF-SCORE:    0.00 PKD
ROOT
HETATM    1  C   UNL     1     -11.231  14.743  65.539  1.00  0.00    -0.346 C  
HETATM    2  N   UNL     1     -11.796  13.828  66.526  1.00  0.00    -0.383 NA 
HETATM    3  C   UNL     1     -12.137  12.520  65.930  1.00  0.00    -0.352 C  
HETATM    4  C   UNL     1     -10.931  11.623  65.569  1.00  0.00    -0.270 C  
HETATM    5  N   UNL     1     -10.023  11.467  66.713  1.00  0.00    -0.205 NA 
HETATM    6  C   UNL     1      -9.646  12.725  67.373  1.00  0.00    -0.199 C  
HETATM    7  C   UNL     1     -10.880  13.606  67.669  1.00  0.00    -0.256 C  
ENDROOT
BRANCH   5   8
HETATM    8  C   UNL     1      -9.553  10.232  67.167  1.00  0.00    -0.168 C  
HETATM    9  N   UNL     1      -8.866   9.482  66.347  1.00  0.00    -0.141 NA 
HETATM   10  C   UNL     1      -8.337   8.214  66.655  1.00  0.00    -0.111 A  
HETATM   11  H   UNL     1      -8.699   9.845  65.408  1.00  0.00     0.000 HD 
HETATM   12  C   UNL     1      -8.506   7.211  65.689  1.00  0.00    -0.141 A  
HETATM   13  C   UNL     1      -7.982   5.928  65.868  1.00  0.00    -0.109 A  
HETATM   14  C   UNL     1      -7.267   5.627  67.021  1.00  0.00    -0.075 A  
HETATM   15  C   UNL     1      -7.056   6.616  67.981  1.00  0.00    -0.089 A  
HETATM   16  C   UNL     1      -7.571   7.909  67.794  1.00  0.00    -0.109 A  
HETATM   17  S   UNL     1      -7.266   9.116  69.075  1.00  0.00    -0.073 SA 
HETATM   18  C   UNL     1      -8.969   9.394  69.503  1.00  0.00    -0.164 A  
HETATM   19  C   UNL     1      -9.917   9.837  68.572  1.00  0.00    -0.177 A  
HETATM   20  C   UNL     1     -11.256  10.007  68.961  1.00  0.00    -0.180 A  
HETATM   21  C   UNL     1     -11.635   9.761  70.276  1.00  0.00    -0.220 A  
HETATM   22  C   UNL     1     -10.701   9.320  71.207  1.00  0.00    -0.422 A  
HETATM   23 CL   UNL     1     -13.264  10.033  70.758  1.00  0.00    -0.356 Cl 
HETATM   24  C   UNL     1      -9.373   9.130  70.821  1.00  0.00    -0.325 A  
ENDBRANCH   5   8
TORSDOF 1
ENDMDL
MODEL       61
REMARK 921   NORMALIZED FREE ENERGY PREDICTED BY IDOCK:   -4.78 KCAL/MOL
REMARK 922        TOTAL FREE ENERGY PREDICTED BY IDOCK:   -5.29 KCAL/MOL
REMARK 923 INTER-LIGAND FREE ENERGY PREDICTED BY IDOCK:   -4.98 KCAL/MOL
REMARK 924 INTRA-LIGAND FREE ENERGY PREDICTED BY IDOCK:   -0.31 KCAL/MOL
REMARK 927      BINDING AFFINITY PREDICTED BY RF-SCORE:    0.00 PKD
ROOT
HETATM    1  C   UNL     1     -11.666  15.578  69.424  1.00  0.00    -0.367 C  
HETATM    2  N   UNL     1     -11.143  15.479  68.065  1.00  0.00    -0.311 NA 
HETATM    3  C   UNL     1      -9.712  15.115  68.051  1.00  0.00    -0.209 C  
HETATM    4  C   UNL     1      -9.397  13.653  68.439  1.00  0.00    -0.181 C  
HETATM    5  N   UNL     1     -10.194  12.709  67.643  1.00  0.00    -0.214 NA 
HETATM    6  C   UNL     1     -11.632  13.010  67.593  1.00  0.00    -0.355 C  
HETATM    7  C   UNL     1     -11.892  14.494  67.250  1.00  0.00    -0.392 C  
ENDROOT
BRANCH   5   8
HETATM    8  C   UNL     1      -9.651  11.614  66.967  1.00  0.00    -0.184 C  
HETATM    9  N   UNL     1      -9.419  11.720  65.686  1.00  0.00    -0.309 NA 
HETATM   10  C   UNL     1      -8.887  10.704  64.869  1.00  0.00    -0.190 A  
HETATM   11  H   UNL     1      -9.641  12.611  65.241  1.00  0.00     0.000 HD 
HETATM   12  C   UNL     1      -9.506  10.508  63.626  1.00  0.00    -0.347 A  
HETATM   13  C   UNL     1      -9.032   9.558  62.716  1.00  0.00    -0.243 A  
HETATM   14  C   UNL     1      -7.918   8.790  63.032  1.00  0.00    -0.161 A  
HETATM   15  C   UNL     1      -7.265   8.990  64.248  1.00  0.00    -0.091 A  
HETATM   16  C   UNL     1      -7.732   9.953  65.156  1.00  0.00    -0.131 A  
HETATM   17  S   UNL     1      -6.845  10.141  66.696  1.00  0.00    -0.088 SA 
HETATM   18  C   UNL     1      -8.191   9.681  67.763  1.00  0.00    -0.114 A  
HETATM   19  C   UNL     1      -9.414  10.364  67.770  1.00  0.00    -0.159 A  
HETATM   20  C   UNL     1     -10.452   9.934  68.612  1.00  0.00    -0.231 A  
HETATM   21  C   UNL     1     -10.258   8.848  69.458  1.00  0.00    -0.204 A  
HETATM   22  C   UNL     1      -9.046   8.164  69.458  1.00  0.00    -0.151 A  
HETATM   23 CL   UNL     1     -11.513   8.369  70.532  1.00  0.00    -0.231 Cl 
HETATM   24  C   UNL     1      -8.018   8.574  68.608  1.00  0.00    -0.116 A  
ENDBRANCH   5   8
TORSDOF 1
ENDMDL
MODEL       62
REMARK 921   NORMALIZED FREE ENERGY PREDICTED BY IDOCK:   -4.75 KCAL/MOL
REMARK 922        TOTAL FREE ENERGY PREDICTED BY IDOCK:   -5.26 KCAL/MOL
REMARK 923 INTER-LIGAND FREE ENERGY PREDICTED BY IDOCK:   -4.95 KCAL/MOL
REMARK 924 INTRA-LIGAND FREE ENERGY PREDICTED BY IDOCK:   -0.31 KCAL/MOL
REMARK 927      BINDING AFFINITY PREDICTED BY RF-SCORE:    0.00 PKD
ROOT
HETATM    1  C   UNL     1      -6.150   8.473  64.627  1.00  0.00    -0.065 C  
HETATM    2  N   UNL     1      -7.509   8.823  64.221  1.00  0.00    -0.104 NA 
HETATM    3  C   UNL     1      -8.523   8.099  65.013  1.00  0.00    -0.099 C  
HETATM    4  C   UNL     1      -8.679   8.570  66.477  1.00  0.00    -0.132 C  
HETATM    5  N   UNL     1      -8.885  10.023  66.549  1.00  0.00    -0.138 NA 
HETATM    6  C   UNL     1      -7.923  10.818  65.773  1.00  0.00    -0.122 C  
HETATM    7  C   UNL     1      -7.767  10.278  64.334  1.00  0.00    -0.104 C  
ENDROOT
BRANCH   5   8
HETATM    8  C   UNL     1      -9.914  10.625  67.277  1.00  0.00    -0.188 C  
HETATM    9  N   UNL     1     -10.107  10.255  68.515  1.00  0.00    -0.159 NA 
HETATM   10  C   UNL     1     -11.106  10.761  69.368  1.00  0.00    -0.268 A  
HETATM   11  H   UNL     1      -9.482   9.542  68.894  1.00  0.00     0.000 HD 
HETATM   12  C   UNL     1     -11.816   9.822  70.131  1.00  0.00    -0.141 A  
HETATM   13  C   UNL     1     -12.798  10.216  71.045  1.00  0.00    -0.474 A  
HETATM   14  C   UNL     1     -13.081  11.564  71.220  1.00  0.00    -0.281 A  
HETATM   15  C   UNL     1     -12.366  12.519  70.498  1.00  0.00    -0.345 A  
HETATM   16  C   UNL     1     -11.370  12.125  69.590  1.00  0.00    -0.153 A  
HETATM   17  S   UNL     1     -10.506  13.409  68.696  1.00  0.00    -0.189 SA 
HETATM   18  C   UNL     1     -11.025  12.911  67.071  1.00  0.00    -0.262 A  
HETATM   19  C   UNL     1     -10.762  11.636  66.553  1.00  0.00    -0.313 A  
HETATM   20  C   UNL     1     -11.226  11.288  65.275  1.00  0.00    -0.067 A  
HETATM   21  C   UNL     1     -11.924  12.218  64.511  1.00  0.00    -0.383 A  
HETATM   22  C   UNL     1     -12.191  13.486  65.017  1.00  0.00    -0.453 A  
HETATM   23 CL   UNL     1     -12.433  11.805  62.921  1.00  0.00    -0.115 Cl 
HETATM   24  C   UNL     1     -11.749  13.830  66.296  1.00  0.00    -0.400 A  
ENDBRANCH   5   8
TORSDOF 1
ENDMDL
MODEL       63
REMARK 921   NORMALIZED FREE ENERGY PREDICTED BY IDOCK:   -4.73 KCAL/MOL
REMARK 922        TOTAL FREE ENERGY PREDICTED BY IDOCK:   -5.24 KCAL/MOL
REMARK 923 INTER-LIGAND FREE ENERGY PREDICTED BY IDOCK:   -4.81 KCAL/MOL
REMARK 924 INTRA-LIGAND FREE ENERGY PREDICTED BY IDOCK:   -0.44 KCAL/MOL
REMARK 927      BINDING AFFINITY PREDICTED BY RF-SCORE:    0.00 PKD
ROOT
HETATM    1  C   UNL     1     -11.741  12.165  64.934  1.00  0.00    -0.313 C  
HETATM    2  N   UNL     1     -10.537  12.171  65.759  1.00  0.00    -0.252 NA 
HETATM    3  C   UNL     1     -10.855  12.309  67.195  1.00  0.00    -0.244 C  
HETATM    4  C   UNL     1     -11.483  11.062  67.857  1.00  0.00    -0.282 C  
HETATM    5  N   UNL     1     -10.674   9.862  67.604  1.00  0.00    -0.272 NA 
HETATM    6  C   UNL     1     -10.301   9.659  66.197  1.00  0.00    -0.132 C  
HETATM    7  C   UNL     1      -9.724  10.947  65.569  1.00  0.00    -0.233 C  
ENDROOT
BRANCH   5   8
HETATM    8  C   UNL     1     -10.266   8.977  68.605  1.00  0.00    -0.205 C  
HETATM    9  N   UNL     1     -11.157   8.198  69.156  1.00  0.00    -0.424 NA 
HETATM   10  C   UNL     1     -10.901   7.265  70.180  1.00  0.00    -0.256 A  
HETATM   11  H   UNL     1     -12.117   8.271  68.817  1.00  0.00     0.000 HD 
HETATM   12  C   UNL     1     -11.817   7.231  71.242  1.00  0.00    -0.340 A  
HETATM   13  C   UNL     1     -11.686   6.314  72.289  1.00  0.00    -0.344 A  
HETATM   14  C   UNL     1     -10.637   5.404  72.286  1.00  0.00    -0.280 A  
HETATM   15  C   UNL     1      -9.733   5.395  71.225  1.00  0.00    -0.215 A  
HETATM   16  C   UNL     1      -9.872   6.307  70.166  1.00  0.00    -0.170 A  
HETATM   17  S   UNL     1      -8.667   6.238  68.848  1.00  0.00    -0.124 SA 
HETATM   18  C   UNL     1      -8.015   7.876  69.082  1.00  0.00    -0.118 A  
HETATM   19  C   UNL     1      -8.816   9.023  69.008  1.00  0.00    -0.136 A  
HETATM   20  C   UNL     1      -8.252  10.288  69.234  1.00  0.00    -0.164 A  
HETATM   21  C   UNL     1      -6.893  10.405  69.506  1.00  0.00    -0.093 A  
HETATM   22  C   UNL     1      -6.090   9.272  69.581  1.00  0.00    -0.039 A  
HETATM   23 CL   UNL     1      -6.197  11.964  69.718  1.00  0.00    -0.133 Cl 
HETATM   24  C   UNL     1      -6.650   8.010  69.377  1.00  0.00    -0.035 A  
ENDBRANCH   5   8
TORSDOF 1
ENDMDL
MODEL       64
REMARK 921   NORMALIZED FREE ENERGY PREDICTED BY IDOCK:   -4.72 KCAL/MOL
REMARK 922        TOTAL FREE ENERGY PREDICTED BY IDOCK:   -5.22 KCAL/MOL
REMARK 923 INTER-LIGAND FREE ENERGY PREDICTED BY IDOCK:   -4.93 KCAL/MOL
REMARK 924 INTRA-LIGAND FREE ENERGY PREDICTED BY IDOCK:   -0.29 KCAL/MOL
REMARK 927      BINDING AFFINITY PREDICTED BY RF-SCORE:    0.00 PKD
ROOT
HETATM    1  C   UNL     1      -9.880   4.519  65.594  1.00  0.00    -0.216 C  
HETATM    2  N   UNL     1      -9.530   4.941  66.948  1.00  0.00    -0.138 NA 
HETATM    3  C   UNL     1      -8.357   5.838  66.958  1.00  0.00    -0.108 C  
HETATM    4  C   UNL     1      -8.609   7.264  66.418  1.00  0.00    -0.138 C  
HETATM    5  N   UNL     1      -9.761   7.888  67.082  1.00  0.00    -0.174 NA 
HETATM    6  C   UNL     1     -10.970   7.052  67.127  1.00  0.00    -0.323 C  
HETATM    7  C   UNL     1     -10.656   5.624  67.627  1.00  0.00    -0.204 C  
ENDROOT
BRANCH   5   8
HETATM    8  C   UNL     1      -9.734   9.165  67.646  1.00  0.00    -0.159 C  
HETATM    9  N   UNL     1      -9.234  10.149  66.948  1.00  0.00    -0.145 NA 
HETATM   10  C   UNL     1      -9.128  11.484  67.384  1.00  0.00    -0.166 A  
HETATM   11  H   UNL     1      -8.892   9.933  66.011  1.00  0.00     0.000 HD 
HETATM   12  C   UNL     1      -7.912  12.135  67.126  1.00  0.00    -0.170 A  
HETATM   13  C   UNL     1      -7.713  13.475  67.474  1.00  0.00    -0.182 A  
HETATM   14  C   UNL     1      -8.737  14.193  68.079  1.00  0.00    -0.177 A  
HETATM   15  C   UNL     1      -9.965  13.578  68.315  1.00  0.00    -0.237 A  
HETATM   16  C   UNL     1     -10.170  12.237  67.954  1.00  0.00    -0.200 A  
HETATM   17  S   UNL     1     -11.770  11.519  68.299  1.00  0.00    -0.269 SA 
HETATM   18  C   UNL     1     -11.195  10.268  69.422  1.00  0.00    -0.239 A  
HETATM   19  C   UNL     1     -10.249   9.302  69.054  1.00  0.00    -0.217 A  
HETATM   20  C   UNL     1      -9.807   8.358  69.994  1.00  0.00    -0.182 A  
HETATM   21  C   UNL     1     -10.327   8.365  71.284  1.00  0.00    -0.214 A  
HETATM   22  C   UNL     1     -11.266   9.320  71.659  1.00  0.00    -0.449 A  
HETATM   23 CL   UNL     1      -9.828   7.165  72.411  1.00  0.00    -0.169 Cl 
HETATM   24  C   UNL     1     -11.693  10.274  70.734  1.00  0.00    -0.453 A  
ENDBRANCH   5   8
TORSDOF 1
ENDMDL
MODEL       65
REMARK 921   NORMALIZED FREE ENERGY PREDICTED BY IDOCK:   -4.70 KCAL/MOL
REMARK 922        TOTAL FREE ENERGY PREDICTED BY IDOCK:   -5.21 KCAL/MOL
REMARK 923 INTER-LIGAND FREE ENERGY PREDICTED BY IDOCK:   -4.93 KCAL/MOL
REMARK 924 INTRA-LIGAND FREE ENERGY PREDICTED BY IDOCK:   -0.28 KCAL/MOL
REMARK 927      BINDING AFFINITY PREDICTED BY RF-SCORE:    0.00 PKD
ROOT
HETATM    1  C   UNL     1      -9.178   7.514  71.906  1.00  0.00    -0.132 C  
HETATM    2  N   UNL     1      -9.003   8.940  71.648  1.00  0.00    -0.324 NA 
HETATM    3  C   UNL     1      -7.854   9.201  70.758  1.00  0.00    -0.149 C  
HETATM    4  C   UNL     1      -8.061   8.807  69.278  1.00  0.00    -0.110 C  
HETATM    5  N   UNL     1      -9.296   9.392  68.739  1.00  0.00    -0.145 NA 
HETATM    6  C   UNL     1     -10.487   9.189  69.576  1.00  0.00    -0.219 C  
HETATM    7  C   UNL     1     -10.215   9.551  71.053  1.00  0.00    -0.262 C  
ENDROOT
BRANCH   5   8
HETATM    8  C   UNL     1      -9.357  10.103  67.538  1.00  0.00    -0.151 C  
HETATM    9  N   UNL     1      -9.544   9.442  66.427  1.00  0.00    -0.204 NA 
HETATM   10  C   UNL     1      -9.617  10.016  65.143  1.00  0.00    -0.291 A  
HETATM   11  H   UNL     1      -9.645   8.429  66.495  1.00  0.00     0.000 HD 
HETATM   12  C   UNL     1      -8.904   9.367  64.124  1.00  0.00    -0.216 A  
HETATM   13  C   UNL     1      -8.942   9.822  62.802  1.00  0.00    -0.274 A  
HETATM   14  C   UNL     1      -9.708  10.934  62.474  1.00  0.00    -0.171 A  
HETATM   15  C   UNL     1     -10.452  11.576  63.463  1.00  0.00    -0.486 A  
HETATM   16  C   UNL     1     -10.424  11.111  64.788  1.00  0.00    -0.323 A  
HETATM   17  S   UNL     1     -11.398  11.995  65.998  1.00  0.00    -0.320 SA 
HETATM   18  C   UNL     1     -10.037  12.506  67.021  1.00  0.00    -0.216 A  
HETATM   19  C   UNL     1      -9.156  11.593  67.615  1.00  0.00    -0.174 A  
HETATM   20  C   UNL     1      -8.078  12.057  68.386  1.00  0.00    -0.154 A  
HETATM   21  C   UNL     1      -7.901  13.422  68.583  1.00  0.00    -0.073 A  
HETATM   22  C   UNL     1      -8.771  14.337  67.997  1.00  0.00    -0.177 A  
HETATM   23 CL   UNL     1      -6.617  13.979  69.582  1.00  0.00    -0.121 Cl 
HETATM   24  C   UNL     1      -9.831  13.881  67.213  1.00  0.00    -0.244 A  
ENDBRANCH   5   8
TORSDOF 1
ENDMDL
MODEL       66
REMARK 921   NORMALIZED FREE ENERGY PREDICTED BY IDOCK:   -4.64 KCAL/MOL
REMARK 922        TOTAL FREE ENERGY PREDICTED BY IDOCK:   -5.15 KCAL/MOL
REMARK 923 INTER-LIGAND FREE ENERGY PREDICTED BY IDOCK:   -4.71 KCAL/MOL
REMARK 924 INTRA-LIGAND FREE ENERGY PREDICTED BY IDOCK:   -0.43 KCAL/MOL
REMARK 927      BINDING AFFINITY PREDICTED BY RF-SCORE:    0.00 PKD
ROOT
HETATM    1  C   UNL     1      -9.438   4.205  70.994  1.00  0.00    -0.163 C  
HETATM    2  N   UNL     1     -10.237   5.374  71.353  1.00  0.00    -0.208 NA 
HETATM    3  C   UNL     1      -9.475   6.325  72.187  1.00  0.00    -0.150 C  
HETATM    4  C   UNL     1      -8.373   7.118  71.449  1.00  0.00    -0.112 C  
HETATM    5  N   UNL     1      -8.905   7.772  70.246  1.00  0.00    -0.143 NA 
HETATM    6  C   UNL     1      -9.690   6.895  69.366  1.00  0.00    -0.157 C  
HETATM    7  C   UNL     1     -10.743   6.089  70.159  1.00  0.00    -0.311 C  
ENDROOT
BRANCH   5   8
HETATM    8  C   UNL     1      -8.707   9.123  69.946  1.00  0.00    -0.163 C  
HETATM    9  N   UNL     1      -7.486   9.554  69.769  1.00  0.00    -0.084 NA 
HETATM   10  C   UNL     1      -7.129  10.883  69.474  1.00  0.00    -0.123 A  
HETATM   11  H   UNL     1      -6.731   8.872  69.853  1.00  0.00     0.000 HD 
HETATM   12  C   UNL     1      -6.044  11.415  70.185  1.00  0.00    -0.154 A  
HETATM   13  C   UNL     1      -5.573  12.709  69.940  1.00  0.00    -0.111 A  
HETATM   14  C   UNL     1      -6.178  13.493  68.966  1.00  0.00    -0.095 A  
HETATM   15  C   UNL     1      -7.237  12.975  68.222  1.00  0.00    -0.113 A  
HETATM   16  C   UNL     1      -7.701  11.671  68.459  1.00  0.00    -0.134 A  
HETATM   17  S   UNL     1      -9.068  11.084  67.469  1.00  0.00    -0.138 SA 
HETATM   18  C   UNL     1     -10.206  10.846  68.814  1.00  0.00    -0.196 A  
HETATM   19  C   UNL     1      -9.930   9.997  69.893  1.00  0.00    -0.280 A  
HETATM   20  C   UNL     1     -10.853   9.875  70.944  1.00  0.00    -0.357 A  
HETATM   21  C   UNL     1     -12.053  10.576  70.900  1.00  0.00    -0.383 A  
HETATM   22  C   UNL     1     -12.336  11.422  69.832  1.00  0.00    -0.280 A  
HETATM   23 CL   UNL     1     -13.207  10.371  72.160  1.00  0.00    -0.512 Cl 
HETATM   24  C   UNL     1     -11.412  11.563  68.796  1.00  0.00    -0.349 A  
ENDBRANCH   5   8
TORSDOF 1
ENDMDL
MODEL       67
REMARK 921   NORMALIZED FREE ENERGY PREDICTED BY IDOCK:   -4.63 KCAL/MOL
REMARK 922        TOTAL FREE ENERGY PREDICTED BY IDOCK:   -5.13 KCAL/MOL
REMARK 923 INTER-LIGAND FREE ENERGY PREDICTED BY IDOCK:   -4.70 KCAL/MOL
REMARK 924 INTRA-LIGAND FREE ENERGY PREDICTED BY IDOCK:   -0.43 KCAL/MOL
REMARK 927      BINDING AFFINITY PREDICTED BY RF-SCORE:    0.00 PKD
ROOT
HETATM    1  C   UNL     1     -10.814   6.355  70.499  1.00  0.00    -0.279 C  
HETATM    2  N   UNL     1      -9.641   6.750  69.724  1.00  0.00    -0.151 NA 
HETATM    3  C   UNL     1      -9.932   6.806  68.277  1.00  0.00    -0.146 C  
HETATM    4  C   UNL     1     -10.816   7.991  67.825  1.00  0.00    -0.011 C  
HETATM    5  N   UNL     1     -10.280   9.269  68.310  1.00  0.00    -0.193 NA 
HETATM    6  C   UNL     1      -9.949   9.293  69.742  1.00  0.00    -0.199 C  
HETATM    7  C   UNL     1      -9.107   8.064  70.153  1.00  0.00    -0.151 C  
ENDROOT
BRANCH   5   8
HETATM    8  C   UNL     1     -10.076  10.385  67.494  1.00  0.00    -0.192 C  
HETATM    9  N   UNL     1     -11.117  11.051  67.070  1.00  0.00    -0.279 NA 
HETATM   10  C   UNL     1     -11.072  12.184  66.236  1.00  0.00    -0.310 A  
HETATM   11  H   UNL     1     -12.036  10.723  67.368  1.00  0.00     0.000 HD 
HETATM   12  C   UNL     1     -11.989  12.221  65.176  1.00  0.00    -0.395 A  
HETATM   13  C   UNL     1     -12.065  13.319  64.313  1.00  0.00    -0.475 A  
HETATM   14  C   UNL     1     -11.226  14.409  64.504  1.00  0.00    -0.314 A  
HETATM   15  C   UNL     1     -10.329  14.411  65.571  1.00  0.00    -0.382 A  
HETATM   16  C   UNL     1     -10.262  13.315  66.446  1.00  0.00    -0.292 A  
HETATM   17  S   UNL     1      -9.079  13.391  67.783  1.00  0.00    -0.213 SA 
HETATM   18  C   UNL     1      -8.108  11.991  67.276  1.00  0.00    -0.174 A  
HETATM   19  C   UNL     1      -8.654  10.710  67.124  1.00  0.00    -0.127 A  
HETATM   20  C   UNL     1      -7.845   9.649  66.688  1.00  0.00    -0.105 A  
HETATM   21  C   UNL     1      -6.495   9.864  66.433  1.00  0.00    -0.072 A  
HETATM   22  C   UNL     1      -5.943  11.132  66.581  1.00  0.00    -0.130 A  
HETATM   23 CL   UNL     1      -5.496   8.545  65.962  1.00  0.00    -0.034 Cl 
HETATM   24  C   UNL     1      -6.748  12.195  66.994  1.00  0.00    -0.072 A  
ENDBRANCH   5   8
TORSDOF 1
ENDMDL
MODEL       68
REMARK 921   NORMALIZED FREE ENERGY PREDICTED BY IDOCK:   -4.62 KCAL/MOL
REMARK 922        TOTAL FREE ENERGY PREDICTED BY IDOCK:   -5.12 KCAL/MOL
REMARK 923 INTER-LIGAND FREE ENERGY PREDICTED BY IDOCK:   -4.72 KCAL/MOL
REMARK 924 INTRA-LIGAND FREE ENERGY PREDICTED BY IDOCK:   -0.40 KCAL/MOL
REMARK 927      BINDING AFFINITY PREDICTED BY RF-SCORE:    0.00 PKD
ROOT
HETATM    1  C   UNL     1      -8.255   7.510  64.602  1.00  0.00    -0.049 C  
HETATM    2  N   UNL     1      -7.646   8.798  64.282  1.00  0.00    -0.112 NA 
HETATM    3  C   UNL     1      -8.663   9.827  63.983  1.00  0.00    -0.216 C  
HETATM    4  C   UNL     1      -9.463  10.340  65.202  1.00  0.00    -0.252 C  
HETATM    5  N   UNL     1      -8.567  10.774  66.282  1.00  0.00    -0.156 NA 
HETATM    6  C   UNL     1      -7.515   9.809  66.631  1.00  0.00    -0.095 C  
HETATM    7  C   UNL     1      -6.778   9.291  65.376  1.00  0.00    -0.073 C  
ENDROOT
BRANCH   5   8
HETATM    8  C   UNL     1      -8.676  12.006  66.932  1.00  0.00    -0.193 C  
HETATM    9  N   UNL     1      -7.748  12.903  66.736  1.00  0.00    -0.359 NA 
HETATM   10  C   UNL     1      -7.714  14.181  67.327  1.00  0.00    -0.108 A  
HETATM   11  H   UNL     1      -6.985  12.658  66.103  1.00  0.00     0.000 HD 
HETATM   12  C   UNL     1      -6.478  14.605  67.837  1.00  0.00    -0.177 A  
HETATM   13  C   UNL     1      -6.318  15.873  68.404  1.00  0.00    -0.110 A  
HETATM   14  C   UNL     1      -7.397  16.747  68.460  1.00  0.00    -0.205 A  
HETATM   15  C   UNL     1      -8.627  16.362  67.930  1.00  0.00    -0.175 A  
HETATM   16  C   UNL     1      -8.784  15.093  67.348  1.00  0.00    -0.190 A  
HETATM   17  S   UNL     1     -10.394  14.672  66.699  1.00  0.00    -0.279 SA 
HETATM   18  C   UNL     1     -10.700  13.300  67.787  1.00  0.00    -0.244 A  
HETATM   19  C   UNL     1      -9.850  12.189  67.856  1.00  0.00    -0.199 A  
HETATM   20  C   UNL     1     -10.124  11.150  68.760  1.00  0.00    -0.211 A  
HETATM   21  C   UNL     1     -11.255  11.211  69.567  1.00  0.00    -0.277 A  
HETATM   22  C   UNL     1     -12.106  12.310  69.505  1.00  0.00    -0.260 A  
HETATM   23 CL   UNL     1     -11.619   9.904  70.624  1.00  0.00    -0.382 Cl 
HETATM   24  C   UNL     1     -11.825  13.355  68.623  1.00  0.00    -0.397 A  
ENDBRANCH   5   8
TORSDOF 1
ENDMDL
MODEL       69
REMARK 921   NORMALIZED FREE ENERGY PREDICTED BY IDOCK:   -4.59 KCAL/MOL
REMARK 922        TOTAL FREE ENERGY PREDICTED BY IDOCK:   -5.08 KCAL/MOL
REMARK 923 INTER-LIGAND FREE ENERGY PREDICTED BY IDOCK:   -4.74 KCAL/MOL
REMARK 924 INTRA-LIGAND FREE ENERGY PREDICTED BY IDOCK:   -0.34 KCAL/MOL
REMARK 927      BINDING AFFINITY PREDICTED BY RF-SCORE:    0.00 PKD
ROOT
HETATM    1  C   UNL     1     -10.487  12.872  66.909  1.00  0.00    -0.246 C  
HETATM    2  N   UNL     1      -9.435  11.877  66.720  1.00  0.00    -0.195 NA 
HETATM    3  C   UNL     1      -8.714  11.593  67.978  1.00  0.00    -0.157 C  
HETATM    4  C   UNL     1      -9.506  10.775  69.023  1.00  0.00    -0.166 C  
HETATM    5  N   UNL     1     -10.053   9.546  68.434  1.00  0.00    -0.169 NA 
HETATM    6  C   UNL     1     -10.775   9.741  67.169  1.00  0.00    -0.202 C  
HETATM    7  C   UNL     1      -9.964  10.604  66.177  1.00  0.00    -0.228 C  
ENDROOT
BRANCH   5   8
HETATM    8  C   UNL     1      -9.902   8.279  69.003  1.00  0.00    -0.176 C  
HETATM    9  N   UNL     1      -9.415   7.316  68.268  1.00  0.00    -0.141 NA 
HETATM   10  C   UNL     1      -9.214   5.989  68.695  1.00  0.00    -0.115 A  
HETATM   11  H   UNL     1      -9.159   7.543  67.306  1.00  0.00     0.000 HD 
HETATM   12  C   UNL     1      -9.618   4.977  67.812  1.00  0.00    -0.178 A  
HETATM   13  C   UNL     1      -9.424   3.625  68.114  1.00  0.00    -0.215 A  
HETATM   14  C   UNL     1      -8.811   3.262  69.306  1.00  0.00    -0.156 A  
HETATM   15  C   UNL     1      -8.370   4.250  70.185  1.00  0.00    -0.081 A  
HETATM   16  C   UNL     1      -8.552   5.608  69.876  1.00  0.00    -0.125 A  
HETATM   17  S   UNL     1      -7.968   6.814  71.059  1.00  0.00    -0.103 SA 
HETATM   18  C   UNL     1      -9.554   7.534  71.416  1.00  0.00    -0.155 A  
HETATM   19  C   UNL     1     -10.359   8.110  70.426  1.00  0.00    -0.208 A  
HETATM   20  C   UNL     1     -11.618   8.634  70.763  1.00  0.00    -0.273 A  
HETATM   21  C   UNL     1     -12.053   8.604  72.083  1.00  0.00    -0.381 A  
HETATM   22  C   UNL     1     -11.260   8.033  73.074  1.00  0.00    -0.279 A  
HETATM   23 CL   UNL     1     -13.568   9.306  72.498  1.00  0.00    -0.512 Cl 
HETATM   24  C   UNL     1     -10.017   7.493  72.740  1.00  0.00    -0.280 A  
ENDBRANCH   5   8
TORSDOF 1
ENDMDL
MODEL       70
REMARK 921   NORMALIZED FREE ENERGY PREDICTED BY IDOCK:   -4.58 KCAL/MOL
REMARK 922        TOTAL FREE ENERGY PREDICTED BY IDOCK:   -5.08 KCAL/MOL
REMARK 923 INTER-LIGAND FREE ENERGY PREDICTED BY IDOCK:   -4.77 KCAL/MOL
REMARK 924 INTRA-LIGAND FREE ENERGY PREDICTED BY IDOCK:   -0.31 KCAL/MOL
REMARK 927      BINDING AFFINITY PREDICTED BY RF-SCORE:    0.00 PKD
ROOT
HETATM    1  C   UNL     1     -11.007   4.823  72.837  1.00  0.00    -0.238 C  
HETATM    2  N   UNL     1     -11.384   6.231  72.914  1.00  0.00    -0.201 NA 
HETATM    3  C   UNL     1     -10.202   7.117  72.918  1.00  0.00    -0.230 C  
HETATM    4  C   UNL     1      -9.459   7.235  71.569  1.00  0.00    -0.152 C  
HETATM    5  N   UNL     1     -10.382   7.586  70.482  1.00  0.00    -0.212 NA 
HETATM    6  C   UNL     1     -11.595   6.758  70.416  1.00  0.00    -0.367 C  
HETATM    7  C   UNL     1     -12.273   6.631  71.799  1.00  0.00    -0.353 C  
ENDROOT
BRANCH   5   8
HETATM    8  C   UNL     1     -10.157   8.627  69.578  1.00  0.00    -0.203 C  
HETATM    9  N   UNL     1     -10.746   9.774  69.783  1.00  0.00    -0.240 NA 
HETATM   10  C   UNL     1     -10.625  10.909  68.957  1.00  0.00    -0.216 A  
HETATM   11  H   UNL     1     -11.342   9.855  70.607  1.00  0.00     0.000 HD 
HETATM   12  C   UNL     1     -11.810  11.598  68.659  1.00  0.00    -0.370 A  
HETATM   13  C   UNL     1     -11.803  12.764  67.887  1.00  0.00    -0.392 A  
HETATM   14  C   UNL     1     -10.601  13.268  67.406  1.00  0.00    -0.250 A  
HETATM   15  C   UNL     1      -9.407  12.620  67.717  1.00  0.00    -0.198 A  
HETATM   16  C   UNL     1      -9.412  11.457  68.503  1.00  0.00    -0.183 A  
HETATM   17  S   UNL     1      -7.840  10.681  68.849  1.00  0.00    -0.138 SA 
HETATM   18  C   UNL     1      -8.191   9.139  68.036  1.00  0.00    -0.112 A  
HETATM   19  C   UNL     1      -9.274   8.327  68.397  1.00  0.00    -0.135 A  
HETATM   20  C   UNL     1      -9.521   7.135  67.696  1.00  0.00    -0.141 A  
HETATM   21  C   UNL     1      -8.676   6.748  66.662  1.00  0.00    -0.127 A  
HETATM   22  C   UNL     1      -7.598   7.549  66.296  1.00  0.00    -0.088 A  
HETATM   23 CL   UNL     1      -8.948   5.256  65.851  1.00  0.00    -0.144 Cl 
HETATM   24  C   UNL     1      -7.361   8.745  66.976  1.00  0.00    -0.080 A  
ENDBRANCH   5   8
TORSDOF 1
ENDMDL
MODEL       71
REMARK 921   NORMALIZED FREE ENERGY PREDICTED BY IDOCK:   -4.56 KCAL/MOL
REMARK 922        TOTAL FREE ENERGY PREDICTED BY IDOCK:   -5.06 KCAL/MOL
REMARK 923 INTER-LIGAND FREE ENERGY PREDICTED BY IDOCK:   -4.83 KCAL/MOL
REMARK 924 INTRA-LIGAND FREE ENERGY PREDICTED BY IDOCK:   -0.23 KCAL/MOL
REMARK 927      BINDING AFFINITY PREDICTED BY RF-SCORE:    0.00 PKD
ROOT
HETATM    1  C   UNL     1      -9.031   5.033  65.402  1.00  0.00    -0.152 C  
HETATM    2  N   UNL     1      -9.052   5.112  66.860  1.00  0.00    -0.115 NA 
HETATM    3  C   UNL     1      -8.116   6.136  67.368  1.00  0.00    -0.109 C  
HETATM    4  C   UNL     1      -8.547   7.601  67.133  1.00  0.00    -0.121 C  
HETATM    5  N   UNL     1      -9.912   7.839  67.621  1.00  0.00    -0.166 NA 
HETATM    6  C   UNL     1     -10.905   6.853  67.170  1.00  0.00    -0.377 C  
HETATM    7  C   UNL     1     -10.407   5.406  67.382  1.00  0.00    -0.204 C  
ENDROOT
BRANCH   5   8
HETATM    8  C   UNL     1     -10.263   8.901  68.459  1.00  0.00    -0.197 C  
HETATM    9  N   UNL     1     -10.645  10.027  67.918  1.00  0.00    -0.232 NA 
HETATM   10  C   UNL     1     -11.017  11.184  68.628  1.00  0.00    -0.220 A  
HETATM   11  H   UNL     1     -10.675  10.071  66.899  1.00  0.00     0.000 HD 
HETATM   12  C   UNL     1     -10.502  12.402  68.160  1.00  0.00    -0.228 A  
HETATM   13  C   UNL     1     -10.842  13.618  68.760  1.00  0.00    -0.279 A  
HETATM   14  C   UNL     1     -11.717  13.637  69.839  1.00  0.00    -0.346 A  
HETATM   15  C   UNL     1     -12.268  12.444  70.302  1.00  0.00    -0.345 A  
HETATM   16  C   UNL     1     -11.937  11.223  69.691  1.00  0.00    -0.353 A  
HETATM   17  S   UNL     1     -12.679   9.737  70.350  1.00  0.00     0.221 SA 
HETATM   18  C   UNL     1     -11.162   8.954  70.844  1.00  0.00    -0.279 A  
HETATM   19  C   UNL     1     -10.129   8.674  69.940  1.00  0.00    -0.197 A  
HETATM   20  C   UNL     1      -8.939   8.084  70.395  1.00  0.00    -0.146 A  
HETATM   21  C   UNL     1      -8.796   7.753  71.738  1.00  0.00    -0.119 A  
HETATM   22  C   UNL     1      -9.817   8.026  72.643  1.00  0.00    -0.347 A  
HETATM   23 CL   UNL     1      -7.361   6.971  72.276  1.00  0.00    -0.084 Cl 
HETATM   24  C   UNL     1     -10.994   8.632  72.199  1.00  0.00    -0.434 A  
ENDBRANCH   5   8
TORSDOF 1
ENDMDL
MODEL       72
REMARK 921   NORMALIZED FREE ENERGY PREDICTED BY IDOCK:   -4.56 KCAL/MOL
REMARK 922        TOTAL FREE ENERGY PREDICTED BY IDOCK:   -5.06 KCAL/MOL
REMARK 923 INTER-LIGAND FREE ENERGY PREDICTED BY IDOCK:   -4.61 KCAL/MOL
REMARK 924 INTRA-LIGAND FREE ENERGY PREDICTED BY IDOCK:   -0.45 KCAL/MOL
REMARK 927      BINDING AFFINITY PREDICTED BY RF-SCORE:    0.00 PKD
ROOT
HETATM    1  C   UNL     1      -9.302  12.144  66.397  1.00  0.00    -0.224 C  
HETATM    2  N   UNL     1     -10.217  11.746  67.463  1.00  0.00    -0.194 NA 
HETATM    3  C   UNL     1     -11.024  10.569  67.084  1.00  0.00    -0.228 C  
HETATM    4  C   UNL     1     -10.257   9.228  67.038  1.00  0.00    -0.262 C  
HETATM    5  N   UNL     1      -9.525   8.991  68.289  1.00  0.00    -0.145 NA 
HETATM    6  C   UNL     1      -8.706  10.123  68.744  1.00  0.00    -0.138 C  
HETATM    7  C   UNL     1      -9.503  11.447  68.726  1.00  0.00    -0.119 C  
ENDROOT
BRANCH   5   8
HETATM    8  C   UNL     1      -9.596   7.799  69.015  1.00  0.00    -0.155 C  
HETATM    9  N   UNL     1      -9.094   6.714  68.490  1.00  0.00    -0.129 NA 
HETATM   10  C   UNL     1      -9.100   5.441  69.093  1.00  0.00    -0.107 A  
HETATM   11  H   UNL     1      -8.664   6.794  67.567  1.00  0.00     0.000 HD 
HETATM   12  C   UNL     1      -9.454   4.359  68.274  1.00  0.00    -0.210 A  
HETATM   13  C   UNL     1      -9.448   3.046  68.755  1.00  0.00    -0.185 A  
HETATM   14  C   UNL     1      -9.076   2.792  70.069  1.00  0.00    -0.189 A  
HETATM   15  C   UNL     1      -8.688   3.847  70.893  1.00  0.00    -0.117 A  
HETATM   16  C   UNL     1      -8.681   5.164  70.406  1.00  0.00    -0.114 A  
HETATM   17  S   UNL     1      -8.179   6.461  71.528  1.00  0.00    -0.117 SA 
HETATM   18  C   UNL     1      -9.722   7.345  71.521  1.00  0.00    -0.159 A  
HETATM   19  C   UNL     1     -10.294   7.852  70.347  1.00  0.00    -0.212 A  
HETATM   20  C   UNL     1     -11.532   8.513  70.398  1.00  0.00    -0.135 A  
HETATM   21  C   UNL     1     -12.177   8.687  71.618  1.00  0.00    -0.333 A  
HETATM   22  C   UNL     1     -11.616   8.187  72.789  1.00  0.00    -0.371 A  
HETATM   23 CL   UNL     1     -13.661   9.555  71.681  1.00  0.00    -0.435 Cl 
HETATM   24  C   UNL     1     -10.396   7.511  72.740  1.00  0.00    -0.331 A  
ENDBRANCH   5   8
TORSDOF 1
ENDMDL
MODEL       73
REMARK 921   NORMALIZED FREE ENERGY PREDICTED BY IDOCK:   -4.55 KCAL/MOL
REMARK 922        TOTAL FREE ENERGY PREDICTED BY IDOCK:   -5.05 KCAL/MOL
REMARK 923 INTER-LIGAND FREE ENERGY PREDICTED BY IDOCK:   -5.07 KCAL/MOL
REMARK 924 INTRA-LIGAND FREE ENERGY PREDICTED BY IDOCK:    0.02 KCAL/MOL
REMARK 927      BINDING AFFINITY PREDICTED BY RF-SCORE:    0.00 PKD
ROOT
HETATM    1  C   UNL     1     -12.210  14.931  64.136  1.00  0.00    -0.255 C  
HETATM    2  N   UNL     1     -12.567  13.696  64.829  1.00  0.00    -0.644 NA 
HETATM    3  C   UNL     1     -12.333  12.505  63.986  1.00  0.00    -0.469 C  
HETATM    4  C   UNL     1     -10.850  12.130  63.768  1.00  0.00    -0.432 C  
HETATM    5  N   UNL     1     -10.135  12.026  65.047  1.00  0.00    -0.264 NA 
HETATM    6  C   UNL     1     -10.327  13.168  65.953  1.00  0.00    -0.290 C  
HETATM    7  C   UNL     1     -11.821  13.533  66.098  1.00  0.00    -0.389 C  
ENDROOT
BRANCH   5   8
HETATM    8  C   UNL     1      -9.340  10.934  65.405  1.00  0.00    -0.208 C  
HETATM    9  N   UNL     1      -8.751  10.250  64.461  1.00  0.00    -0.181 NA 
HETATM   10  C   UNL     1      -7.932   9.123  64.663  1.00  0.00    -0.125 A  
HETATM   11  H   UNL     1      -8.897  10.558  63.498  1.00  0.00     0.000 HD 
HETATM   12  C   UNL     1      -8.144   8.030  63.810  1.00  0.00    -0.096 A  
HETATM   13  C   UNL     1      -7.358   6.877  63.891  1.00  0.00    -0.080 A  
HETATM   14  C   UNL     1      -6.333   6.801  64.826  1.00  0.00    -0.039 A  
HETATM   15  C   UNL     1      -6.081   7.887  65.663  1.00  0.00    -0.038 A  
HETATM   16  C   UNL     1      -6.862   9.051  65.573  1.00  0.00    -0.073 A  
HETATM   17  S   UNL     1      -6.480  10.394  66.687  1.00  0.00    -0.087 SA 
HETATM   18  C   UNL     1      -8.043  10.405  67.536  1.00  0.00    -0.107 A  
HETATM   19  C   UNL     1      -9.260  10.599  66.870  1.00  0.00    -0.172 A  
HETATM   20  C   UNL     1     -10.466  10.564  67.588  1.00  0.00    -0.276 A  
HETATM   21  C   UNL     1     -10.450  10.364  68.964  1.00  0.00    -0.219 A  
HETATM   22  C   UNL     1      -9.246  10.172  69.634  1.00  0.00    -0.206 A  
HETATM   23 CL   UNL     1     -11.927  10.388  69.846  1.00  0.00    -0.308 Cl 
HETATM   24  C   UNL     1      -8.046  10.184  68.921  1.00  0.00    -0.117 A  
ENDBRANCH   5   8
TORSDOF 1
ENDMDL
MODEL       74
REMARK 921   NORMALIZED FREE ENERGY PREDICTED BY IDOCK:   -4.51 KCAL/MOL
REMARK 922        TOTAL FREE ENERGY PREDICTED BY IDOCK:   -5.01 KCAL/MOL
REMARK 923 INTER-LIGAND FREE ENERGY PREDICTED BY IDOCK:   -5.41 KCAL/MOL
REMARK 924 INTRA-LIGAND FREE ENERGY PREDICTED BY IDOCK:    0.41 KCAL/MOL
REMARK 927      BINDING AFFINITY PREDICTED BY RF-SCORE:    0.00 PKD
ROOT
HETATM    1  C   UNL     1     -11.788  14.863  64.207  1.00  0.00    -0.297 C  
HETATM    2  N   UNL     1     -12.307  13.499  64.255  1.00  0.00    -0.611 NA 
HETATM    3  C   UNL     1     -11.317  12.517  63.768  1.00  0.00    -0.466 C  
HETATM    4  C   UNL     1     -10.124  12.255  64.713  1.00  0.00    -0.246 C  
HETATM    5  N   UNL     1     -10.582  11.921  66.068  1.00  0.00    -0.256 NA 
HETATM    6  C   UNL     1     -11.582  12.845  66.623  1.00  0.00    -0.372 C  
HETATM    7  C   UNL     1     -12.728  13.111  65.621  1.00  0.00    -0.233 C  
ENDROOT
BRANCH   5   8
HETATM    8  C   UNL     1     -10.131  10.812  66.788  1.00  0.00    -0.222 C  
HETATM    9  N   UNL     1     -10.564  10.637  68.008  1.00  0.00    -0.194 NA 
HETATM   10  C   UNL     1     -10.193   9.578  68.859  1.00  0.00    -0.199 A  
HETATM   11  H   UNL     1     -11.225  11.324  68.374  1.00  0.00     0.000 HD 
HETATM   12  C   UNL     1      -9.889   9.915  70.185  1.00  0.00    -0.272 A  
HETATM   13  C   UNL     1      -9.553   8.938  71.128  1.00  0.00    -0.342 A  
HETATM   14  C   UNL     1      -9.526   7.599  70.759  1.00  0.00    -0.162 A  
HETATM   15  C   UNL     1      -9.857   7.236  69.454  1.00  0.00    -0.163 A  
HETATM   16  C   UNL     1     -10.207   8.215  68.511  1.00  0.00    -0.208 A  
HETATM   17  S   UNL     1     -10.609   7.669  66.858  1.00  0.00    -0.161 SA 
HETATM   18  C   UNL     1      -9.289   8.527  66.033  1.00  0.00    -0.199 A  
HETATM   19  C   UNL     1      -9.131   9.917  66.108  1.00  0.00    -0.193 A  
HETATM   20  C   UNL     1      -8.049  10.536  65.462  1.00  0.00    -0.155 A  
HETATM   21  C   UNL     1      -7.149   9.773  64.727  1.00  0.00    -0.126 A  
HETATM   22  C   UNL     1      -7.297   8.392  64.647  1.00  0.00    -0.093 A  
HETATM   23 CL   UNL     1      -5.863  10.546  63.886  1.00  0.00    -0.115 Cl 
HETATM   24  C   UNL     1      -8.360   7.769  65.304  1.00  0.00    -0.128 A  
ENDBRANCH   5   8
TORSDOF 1
ENDMDL
MODEL       75
REMARK 921   NORMALIZED FREE ENERGY PREDICTED BY IDOCK:   -4.48 KCAL/MOL
REMARK 922        TOTAL FREE ENERGY PREDICTED BY IDOCK:   -4.97 KCAL/MOL
REMARK 923 INTER-LIGAND FREE ENERGY PREDICTED BY IDOCK:   -4.55 KCAL/MOL
REMARK 924 INTRA-LIGAND FREE ENERGY PREDICTED BY IDOCK:   -0.42 KCAL/MOL
REMARK 927      BINDING AFFINITY PREDICTED BY RF-SCORE:    0.00 PKD
ROOT
HETATM    1  C   UNL     1     -13.145   9.056  72.254  1.00  0.00    -0.445 C  
HETATM    2  N   UNL     1     -11.831   8.436  72.400  1.00  0.00    -0.388 NA 
HETATM    3  C   UNL     1     -11.858   7.001  72.049  1.00  0.00    -0.298 C  
HETATM    4  C   UNL     1     -12.002   6.691  70.542  1.00  0.00    -0.316 C  
HETATM    5  N   UNL     1     -10.996   7.414  69.752  1.00  0.00    -0.232 NA 
HETATM    6  C   UNL     1     -10.895   8.849  70.052  1.00  0.00    -0.227 C  
HETATM    7  C   UNL     1     -10.803   9.108  71.573  1.00  0.00    -0.366 C  
ENDROOT
BRANCH   5   8
HETATM    8  C   UNL     1     -10.177   6.806  68.797  1.00  0.00    -0.175 C  
HETATM    9  N   UNL     1     -10.698   6.468  67.648  1.00  0.00    -0.267 NA 
HETATM   10  C   UNL     1     -10.005   5.841  66.594  1.00  0.00    -0.176 A  
HETATM   11  H   UNL     1     -11.686   6.675  67.502  1.00  0.00     0.000 HD 
HETATM   12  C   UNL     1     -10.657   4.773  65.961  1.00  0.00    -0.300 A  
HETATM   13  C   UNL     1     -10.082   4.107  64.874  1.00  0.00    -0.213 A  
HETATM   14  C   UNL     1      -8.842   4.509  64.393  1.00  0.00    -0.152 A  
HETATM   15  C   UNL     1      -8.189   5.590  64.984  1.00  0.00    -0.139 A  
HETATM   16  C   UNL     1      -8.773   6.267  66.067  1.00  0.00    -0.151 A  
HETATM   17  S   UNL     1      -7.868   7.636  66.774  1.00  0.00    -0.108 SA 
HETATM   18  C   UNL     1      -7.662   6.930  68.393  1.00  0.00    -0.116 A  
HETATM   19  C   UNL     1      -8.748   6.545  69.189  1.00  0.00    -0.129 A  
HETATM   20  C   UNL     1      -8.524   5.961  70.447  1.00  0.00    -0.131 A  
HETATM   21  C   UNL     1      -7.224   5.791  70.912  1.00  0.00    -0.080 A  
HETATM   22  C   UNL     1      -6.140   6.171  70.128  1.00  0.00    -0.030 A  
HETATM   23 CL   UNL     1      -6.960   5.135  72.480  1.00  0.00    -0.081 Cl 
HETATM   24  C   UNL     1      -6.357   6.732  68.868  1.00  0.00    -0.031 A  
ENDBRANCH   5   8
TORSDOF 1
ENDMDL
MODEL       76
REMARK 921   NORMALIZED FREE ENERGY PREDICTED BY IDOCK:   -4.44 KCAL/MOL
REMARK 922        TOTAL FREE ENERGY PREDICTED BY IDOCK:   -4.93 KCAL/MOL
REMARK 923 INTER-LIGAND FREE ENERGY PREDICTED BY IDOCK:   -4.51 KCAL/MOL
REMARK 924 INTRA-LIGAND FREE ENERGY PREDICTED BY IDOCK:   -0.42 KCAL/MOL
REMARK 927      BINDING AFFINITY PREDICTED BY RF-SCORE:    0.00 PKD
ROOT
HETATM    1  C   UNL     1     -12.065  14.174  64.250  1.00  0.00    -0.444 C  
HETATM    2  N   UNL     1     -10.703  13.863  64.675  1.00  0.00    -0.413 NA 
HETATM    3  C   UNL     1     -10.591  13.787  66.146  1.00  0.00    -0.291 C  
HETATM    4  C   UNL     1     -11.237  12.544  66.796  1.00  0.00    -0.296 C  
HETATM    5  N   UNL     1     -10.765  11.306  66.161  1.00  0.00    -0.266 NA 
HETATM    6  C   UNL     1     -10.831  11.305  64.693  1.00  0.00    -0.265 C  
HETATM    7  C   UNL     1     -10.216  12.590  64.095  1.00  0.00    -0.350 C  
ENDROOT
BRANCH   5   8
HETATM    8  C   UNL     1     -10.274  10.208  66.873  1.00  0.00    -0.236 C  
HETATM    9  N   UNL     1     -11.120   9.444  67.510  1.00  0.00    -0.415 NA 
HETATM   10  C   UNL     1     -10.776   8.313  68.275  1.00  0.00    -0.019 A  
HETATM   11  H   UNL     1     -12.109   9.686  67.448  1.00  0.00     0.000 HD 
HETATM   12  C   UNL     1     -11.408   8.182  69.521  1.00  0.00     0.276 A  
HETATM   13  C   UNL     1     -11.177   7.075  70.344  1.00  0.00    -0.339 A  
HETATM   14  C   UNL     1     -10.313   6.070  69.927  1.00  0.00    -0.288 A  
HETATM   15  C   UNL     1      -9.700   6.161  68.679  1.00  0.00    -0.145 A  
HETATM   16  C   UNL     1      -9.942   7.265  67.847  1.00  0.00    -0.158 A  
HETATM   17  S   UNL     1      -9.109   7.311  66.266  1.00  0.00    -0.117 SA 
HETATM   18  C   UNL     1      -8.174   8.792  66.571  1.00  0.00    -0.111 A  
HETATM   19  C   UNL     1      -8.781  10.015  66.886  1.00  0.00    -0.135 A  
HETATM   20  C   UNL     1      -7.990  11.144  67.150  1.00  0.00    -0.139 A  
HETATM   21  C   UNL     1      -6.604  11.055  67.072  1.00  0.00    -0.100 A  
HETATM   22  C   UNL     1      -5.992   9.845  66.760  1.00  0.00    -0.055 A  
HETATM   23 CL   UNL     1      -5.644  12.459  67.333  1.00  0.00    -0.131 Cl 
HETATM   24  C   UNL     1      -6.774   8.715  66.517  1.00  0.00    -0.071 A  
ENDBRANCH   5   8
TORSDOF 1
ENDMDL
MODEL       77
REMARK 921   NORMALIZED FREE ENERGY PREDICTED BY IDOCK:   -4.42 KCAL/MOL
REMARK 922        TOTAL FREE ENERGY PREDICTED BY IDOCK:   -4.91 KCAL/MOL
REMARK 923 INTER-LIGAND FREE ENERGY PREDICTED BY IDOCK:   -4.53 KCAL/MOL
REMARK 924 INTRA-LIGAND FREE ENERGY PREDICTED BY IDOCK:   -0.38 KCAL/MOL
REMARK 927      BINDING AFFINITY PREDICTED BY RF-SCORE:    0.00 PKD
ROOT
HETATM    1  C   UNL     1      -9.201   3.830  69.242  1.00  0.00    -0.160 C  
HETATM    2  N   UNL     1      -8.446   4.760  68.407  1.00  0.00    -0.094 NA 
HETATM    3  C   UNL     1      -9.335   5.644  67.626  1.00  0.00    -0.110 C  
HETATM    4  C   UNL     1     -10.066   6.734  68.441  1.00  0.00    -0.162 C  
HETATM    5  N   UNL     1      -9.123   7.513  69.254  1.00  0.00    -0.139 NA 
HETATM    6  C   UNL     1      -8.190   6.706  70.053  1.00  0.00    -0.130 C  
HETATM    7  C   UNL     1      -7.523   5.600  69.205  1.00  0.00    -0.083 C  
ENDROOT
BRANCH   5   8
HETATM    8  C   UNL     1      -9.084   8.909  69.273  1.00  0.00    -0.145 C  
HETATM    9  N   UNL     1      -7.969   9.511  68.957  1.00  0.00    -0.089 NA 
HETATM   10  C   UNL     1      -7.773  10.905  68.941  1.00  0.00    -0.135 A  
HETATM   11  H   UNL     1      -7.175   8.923  68.702  1.00  0.00     0.000 HD 
HETATM   12  C   UNL     1      -6.586  11.380  69.518  1.00  0.00    -0.129 A  
HETATM   13  C   UNL     1      -6.267  12.742  69.517  1.00  0.00    -0.120 A  
HETATM   14  C   UNL     1      -7.131  13.655  68.926  1.00  0.00    -0.102 A  
HETATM   15  C   UNL     1      -8.301  13.204  68.317  1.00  0.00    -0.152 A  
HETATM   16  C   UNL     1      -8.615  11.836  68.306  1.00  0.00    -0.162 A  
HETATM   17  S   UNL     1     -10.138  11.340  67.513  1.00  0.00    -0.187 SA 
HETATM   18  C   UNL     1     -10.911  10.661  68.963  1.00  0.00    -0.248 A  
HETATM   19  C   UNL     1     -10.338   9.621  69.705  1.00  0.00    -0.266 A  
HETATM   20  C   UNL     1     -10.979   9.148  70.862  1.00  0.00    -0.349 A  
HETATM   21  C   UNL     1     -12.196   9.694  71.254  1.00  0.00    -0.363 A  
HETATM   22  C   UNL     1     -12.774  10.727  70.523  1.00  0.00    -0.388 A  
HETATM   23 CL   UNL     1     -13.007   9.065  72.635  1.00  0.00    -0.425 Cl 
HETATM   24  C   UNL     1     -12.130  11.215  69.384  1.00  0.00    -0.396 A  
ENDBRANCH   5   8
TORSDOF 1
ENDMDL
MODEL       78
REMARK 921   NORMALIZED FREE ENERGY PREDICTED BY IDOCK:   -4.42 KCAL/MOL
REMARK 922        TOTAL FREE ENERGY PREDICTED BY IDOCK:   -4.91 KCAL/MOL
REMARK 923 INTER-LIGAND FREE ENERGY PREDICTED BY IDOCK:   -4.48 KCAL/MOL
REMARK 924 INTRA-LIGAND FREE ENERGY PREDICTED BY IDOCK:   -0.43 KCAL/MOL
REMARK 927      BINDING AFFINITY PREDICTED BY RF-SCORE:    0.00 PKD
ROOT
HETATM    1  C   UNL     1      -9.679  10.410  63.382  1.00  0.00    -0.263 C  
HETATM    2  N   UNL     1      -8.886  10.911  64.501  1.00  0.00    -0.124 NA 
HETATM    3  C   UNL     1      -9.678  11.788  65.387  1.00  0.00    -0.217 C  
HETATM    4  C   UNL     1     -10.731  11.069  66.261  1.00  0.00    -0.212 C  
HETATM    5  N   UNL     1     -10.130   9.958  67.011  1.00  0.00    -0.206 NA 
HETATM    6  C   UNL     1      -9.312   9.044  66.202  1.00  0.00    -0.232 C  
HETATM    7  C   UNL     1      -8.310   9.813  65.311  1.00  0.00    -0.142 C  
ENDROOT
BRANCH   5   8
HETATM    8  C   UNL     1     -10.296   9.770  68.385  1.00  0.00    -0.201 C  
HETATM    9  N   UNL     1     -11.501   9.582  68.852  1.00  0.00    -0.384 NA 
HETATM   10  C   UNL     1     -11.827   9.391  70.209  1.00  0.00    -0.018 A  
HETATM   11  H   UNL     1     -12.269   9.574  68.179  1.00  0.00     0.000 HD 
HETATM   12  C   UNL     1     -12.934  10.101  70.696  1.00  0.00    -0.296 A  
HETATM   13  C   UNL     1     -13.375   9.952  72.014  1.00  0.00    -0.532 A  
HETATM   14  C   UNL     1     -12.718   9.076  72.870  1.00  0.00     0.138 A  
HETATM   15  C   UNL     1     -11.636   8.334  72.400  1.00  0.00    -0.464 A  
HETATM   16  C   UNL     1     -11.201   8.473  71.072  1.00  0.00    -0.268 A  
HETATM   17  S   UNL     1      -9.801   7.493  70.549  1.00  0.00    -0.182 SA 
HETATM   18  C   UNL     1      -8.725   8.857  70.174  1.00  0.00    -0.161 A  
HETATM   19  C   UNL     1      -9.059   9.845  69.239  1.00  0.00    -0.196 A  
HETATM   20  C   UNL     1      -8.183  10.918  69.009  1.00  0.00    -0.126 A  
HETATM   21  C   UNL     1      -6.973  10.986  69.690  1.00  0.00    -0.110 A  
HETATM   22  C   UNL     1      -6.633  10.010  70.621  1.00  0.00    -0.088 A  
HETATM   23 CL   UNL     1      -5.877  12.269  69.354  1.00  0.00    -0.083 Cl 
HETATM   24  C   UNL     1      -7.510   8.952  70.868  1.00  0.00    -0.110 A  
ENDBRANCH   5   8
TORSDOF 1
ENDMDL
MODEL       79
REMARK 921   NORMALIZED FREE ENERGY PREDICTED BY IDOCK:   -4.41 KCAL/MOL
REMARK 922        TOTAL FREE ENERGY PREDICTED BY IDOCK:   -4.90 KCAL/MOL
REMARK 923 INTER-LIGAND FREE ENERGY PREDICTED BY IDOCK:   -4.53 KCAL/MOL
REMARK 924 INTRA-LIGAND FREE ENERGY PREDICTED BY IDOCK:   -0.37 KCAL/MOL
REMARK 927      BINDING AFFINITY PREDICTED BY RF-SCORE:    0.00 PKD
ROOT
HETATM    1  C   UNL     1      -9.735   6.629  71.547  1.00  0.00    -0.164 C  
HETATM    2  N   UNL     1     -10.555   6.699  70.341  1.00  0.00    -0.214 NA 
HETATM    3  C   UNL     1     -11.237   8.003  70.214  1.00  0.00    -0.190 C  
HETATM    4  C   UNL     1     -10.325   9.194  69.844  1.00  0.00    -0.212 C  
HETATM    5  N   UNL     1      -9.521   8.897  68.651  1.00  0.00    -0.150 NA 
HETATM    6  C   UNL     1      -8.819   7.606  68.691  1.00  0.00    -0.127 C  
HETATM    7  C   UNL     1      -9.762   6.457  69.113  1.00  0.00    -0.136 C  
ENDROOT
BRANCH   5   8
HETATM    8  C   UNL     1      -9.425   9.748  67.548  1.00  0.00    -0.147 C  
HETATM    9  N   UNL     1      -9.747   9.286  66.369  1.00  0.00    -0.236 NA 
HETATM   10  C   UNL     1      -9.692  10.018  65.167  1.00  0.00    -0.311 A  
HETATM   11  H   UNL     1     -10.063   8.318  66.315  1.00  0.00     0.000 HD 
HETATM   12  C   UNL     1      -9.133   9.365  64.059  1.00  0.00    -0.110 A  
HETATM   13  C   UNL     1      -9.070   9.978  62.804  1.00  0.00    -0.304 A  
HETATM   14  C   UNL     1      -9.578  11.260  62.634  1.00  0.00    -0.239 A  
HETATM   15  C   UNL     1     -10.169  11.917  63.712  1.00  0.00    -0.442 A  
HETATM   16  C   UNL     1     -10.245  11.296  64.968  1.00  0.00    -0.284 A  
HETATM   17  S   UNL     1     -11.009  12.209  66.301  1.00  0.00    -0.309 SA 
HETATM   18  C   UNL     1      -9.572  12.286  67.346  1.00  0.00    -0.179 A  
HETATM   19  C   UNL     1      -8.910  11.139  67.801  1.00  0.00    -0.135 A  
HETATM   20  C   UNL     1      -7.759  11.263  68.596  1.00  0.00    -0.136 A  
HETATM   21  C   UNL     1      -7.293  12.523  68.954  1.00  0.00    -0.022 A  
HETATM   22  C   UNL     1      -7.945  13.668  68.507  1.00  0.00    -0.127 A  
HETATM   23 CL   UNL     1      -5.922  12.665  69.983  1.00  0.00    -0.148 Cl 
HETATM   24  C   UNL     1      -9.077  13.550  67.698  1.00  0.00    -0.205 A  
ENDBRANCH   5   8
TORSDOF 1
ENDMDL
MODEL       80
REMARK 921   NORMALIZED FREE ENERGY PREDICTED BY IDOCK:   -4.35 KCAL/MOL
REMARK 922        TOTAL FREE ENERGY PREDICTED BY IDOCK:   -4.83 KCAL/MOL
REMARK 923 INTER-LIGAND FREE ENERGY PREDICTED BY IDOCK:   -5.36 KCAL/MOL
REMARK 924 INTRA-LIGAND FREE ENERGY PREDICTED BY IDOCK:    0.53 KCAL/MOL
REMARK 927      BINDING AFFINITY PREDICTED BY RF-SCORE:    0.00 PKD
ROOT
HETATM    1  C   UNL     1      -8.552   4.623  65.640  1.00  0.00    -0.124 C  
HETATM    2  N   UNL     1      -9.647   4.252  66.532  1.00  0.00    -0.185 NA 
HETATM    3  C   UNL     1      -9.207   4.174  67.940  1.00  0.00    -0.151 C  
HETATM    4  C   UNL     1      -8.916   5.532  68.618  1.00  0.00    -0.114 C  
HETATM    5  N   UNL     1     -10.047   6.456  68.465  1.00  0.00    -0.145 NA 
HETATM    6  C   UNL     1     -10.556   6.580  67.091  1.00  0.00    -0.328 C  
HETATM    7  C   UNL     1     -10.784   5.197  66.442  1.00  0.00    -0.210 C  
ENDROOT
BRANCH   5   8
HETATM    8  C   UNL     1     -10.622   7.162  69.525  1.00  0.00    -0.234 C  
HETATM    9  N   UNL     1     -11.225   8.292  69.272  1.00  0.00    -0.409 NA 
HETATM   10  C   UNL     1     -11.840   9.118  70.233  1.00  0.00     0.064 A  
HETATM   11  H   UNL     1     -11.254   8.602  68.300  1.00  0.00     0.000 HD 
HETATM   12  C   UNL     1     -11.587  10.494  70.133  1.00  0.00    -0.408 A  
HETATM   13  C   UNL     1     -12.181  11.412  71.006  1.00  0.00    -0.391 A  
HETATM   14  C   UNL     1     -13.051  10.965  71.992  1.00  0.00    -0.462 A  
HETATM   15  C   UNL     1     -13.345   9.606  72.091  1.00  0.00    -0.545 A  
HETATM   16  C   UNL     1     -12.759   8.686  71.206  1.00  0.00    -0.215 A  
HETATM   17  S   UNL     1     -13.179   6.961  71.404  1.00  0.00    -0.089 SA 
HETATM   18  C   UNL     1     -11.537   6.392  71.777  1.00  0.00    -0.316 A  
HETATM   19  C   UNL     1     -10.459   6.578  70.902  1.00  0.00    -0.263 A  
HETATM   20  C   UNL     1      -9.176   6.137  71.265  1.00  0.00    -0.157 A  
HETATM   21  C   UNL     1      -8.981   5.492  72.482  1.00  0.00    -0.133 A  
HETATM   22  C   UNL     1     -10.046   5.303  73.357  1.00  0.00    -0.202 A  
HETATM   23 CL   UNL     1      -7.420   4.897  72.891  1.00  0.00    -0.089 Cl 
HETATM   24  C   UNL     1     -11.319   5.759  73.010  1.00  0.00    -0.254 A  
ENDBRANCH   5   8
TORSDOF 1
ENDMDL
MODEL       81
REMARK 921   NORMALIZED FREE ENERGY PREDICTED BY IDOCK:   -4.33 KCAL/MOL
REMARK 922        TOTAL FREE ENERGY PREDICTED BY IDOCK:   -4.82 KCAL/MOL
REMARK 923 INTER-LIGAND FREE ENERGY PREDICTED BY IDOCK:   -4.65 KCAL/MOL
REMARK 924 INTRA-LIGAND FREE ENERGY PREDICTED BY IDOCK:   -0.17 KCAL/MOL
REMARK 927      BINDING AFFINITY PREDICTED BY RF-SCORE:    0.00 PKD
ROOT
HETATM    1  C   UNL     1     -11.410  14.975  67.237  1.00  0.00    -0.332 C  
HETATM    2  N   UNL     1     -10.848  13.872  66.463  1.00  0.00    -0.293 NA 
HETATM    3  C   UNL     1      -9.492  13.512  66.923  1.00  0.00    -0.258 C  
HETATM    4  C   UNL     1      -9.427  12.785  68.285  1.00  0.00    -0.203 C  
HETATM    5  N   UNL     1     -10.324  11.623  68.311  1.00  0.00    -0.193 NA 
HETATM    6  C   UNL     1     -11.694  11.894  67.853  1.00  0.00    -0.298 C  
HETATM    7  C   UNL     1     -11.704  12.664  66.513  1.00  0.00    -0.400 C  
ENDROOT
BRANCH   5   8
HETATM    8  C   UNL     1      -9.928  10.347  68.720  1.00  0.00    -0.188 C  
HETATM    9  N   UNL     1     -10.123   9.998  69.964  1.00  0.00    -0.315 NA 
HETATM   10  C   UNL     1      -9.770   8.755  70.525  1.00  0.00    -0.190 A  
HETATM   11  H   UNL     1     -10.567  10.681  70.579  1.00  0.00     0.000 HD 
HETATM   12  C   UNL     1      -9.144   8.787  71.779  1.00  0.00    -0.305 A  
HETATM   13  C   UNL     1      -8.792   7.612  72.450  1.00  0.00    -0.176 A  
HETATM   14  C   UNL     1      -9.070   6.378  71.877  1.00  0.00    -0.145 A  
HETATM   15  C   UNL     1      -9.720   6.319  70.646  1.00  0.00    -0.199 A  
HETATM   16  C   UNL     1     -10.087   7.499  69.978  1.00  0.00    -0.199 A  
HETATM   17  S   UNL     1     -10.909   7.338  68.400  1.00  0.00     0.009 SA 
HETATM   18  C   UNL     1      -9.662   8.160  67.436  1.00  0.00    -0.170 A  
HETATM   19  C   UNL     1      -9.259   9.477  67.691  1.00  0.00    -0.138 A  
HETATM   20  C   UNL     1      -8.244  10.062  66.917  1.00  0.00    -0.121 A  
HETATM   21  C   UNL     1      -7.659   9.345  65.879  1.00  0.00    -0.099 A  
HETATM   22  C   UNL     1      -8.054   8.036  65.618  1.00  0.00    -0.121 A  
HETATM   23 CL   UNL     1      -6.463  10.092  64.894  1.00  0.00    -0.119 Cl 
HETATM   24  C   UNL     1      -9.047   7.442  66.399  1.00  0.00    -0.196 A  
ENDBRANCH   5   8
TORSDOF 1
ENDMDL
MODEL       82
REMARK 921   NORMALIZED FREE ENERGY PREDICTED BY IDOCK:   -4.31 KCAL/MOL
REMARK 922        TOTAL FREE ENERGY PREDICTED BY IDOCK:   -4.80 KCAL/MOL
REMARK 923 INTER-LIGAND FREE ENERGY PREDICTED BY IDOCK:   -5.01 KCAL/MOL
REMARK 924 INTRA-LIGAND FREE ENERGY PREDICTED BY IDOCK:    0.22 KCAL/MOL
REMARK 927      BINDING AFFINITY PREDICTED BY RF-SCORE:    0.00 PKD
ROOT
HETATM    1  C   UNL     1     -13.019  11.755  71.815  1.00  0.00    -0.361 C  
HETATM    2  N   UNL     1     -13.158  10.613  70.916  1.00  0.00    -0.324 NA 
HETATM    3  C   UNL     1     -11.893  10.305  70.218  1.00  0.00    -0.288 C  
HETATM    4  C   UNL     1     -10.791   9.670  71.096  1.00  0.00    -0.334 C  
HETATM    5  N   UNL     1     -11.298   8.498  71.821  1.00  0.00    -0.285 NA 
HETATM    6  C   UNL     1     -12.565   8.717  72.533  1.00  0.00    -0.306 C  
HETATM    7  C   UNL     1     -13.616   9.397  71.628  1.00  0.00    -0.365 C  
ENDROOT
BRANCH   5   8
HETATM    8  C   UNL     1     -10.654   7.258  71.837  1.00  0.00    -0.212 C  
HETATM    9  N   UNL     1     -11.294   6.224  72.315  1.00  0.00    -0.280 NA 
HETATM   10  C   UNL     1     -10.776   4.918  72.407  1.00  0.00    -0.175 A  
HETATM   11  H   UNL     1     -12.247   6.376  72.648  1.00  0.00     0.000 HD 
HETATM   12  C   UNL     1     -11.005   4.234  73.609  1.00  0.00    -0.364 A  
HETATM   13  C   UNL     1     -10.576   2.916  73.794  1.00  0.00    -0.262 A  
HETATM   14  C   UNL     1      -9.916   2.253  72.767  1.00  0.00    -0.199 A  
HETATM   15  C   UNL     1      -9.706   2.900  71.550  1.00  0.00    -0.224 A  
HETATM   16  C   UNL     1     -10.149   4.219  71.360  1.00  0.00    -0.117 A  
HETATM   17  S   UNL     1      -9.832   4.980  69.775  1.00  0.00    -0.234 SA 
HETATM   18  C   UNL     1      -8.797   6.292  70.381  1.00  0.00    -0.147 A  
HETATM   19  C   UNL     1      -9.236   7.218  71.336  1.00  0.00    -0.145 A  
HETATM   20  C   UNL     1      -8.361   8.212  71.803  1.00  0.00    -0.181 A  
HETATM   21  C   UNL     1      -7.068   8.294  71.298  1.00  0.00    -0.063 A  
HETATM   22  C   UNL     1      -6.623   7.379  70.349  1.00  0.00    -0.046 A  
HETATM   23 CL   UNL     1      -6.024   9.555  71.827  1.00  0.00    -0.015 Cl 
HETATM   24  C   UNL     1      -7.482   6.375  69.898  1.00  0.00    -0.088 A  
ENDBRANCH   5   8
TORSDOF 1
ENDMDL
MODEL       83
REMARK 921   NORMALIZED FREE ENERGY PREDICTED BY IDOCK:   -4.11 KCAL/MOL
REMARK 922        TOTAL FREE ENERGY PREDICTED BY IDOCK:   -4.58 KCAL/MOL
REMARK 923 INTER-LIGAND FREE ENERGY PREDICTED BY IDOCK:   -4.36 KCAL/MOL
REMARK 924 INTRA-LIGAND FREE ENERGY PREDICTED BY IDOCK:   -0.21 KCAL/MOL
REMARK 927      BINDING AFFINITY PREDICTED BY RF-SCORE:    0.00 PKD
ROOT
HETATM    1  C   UNL     1     -12.733   9.821  71.847  1.00  0.00    -0.410 C  
HETATM    2  N   UNL     1     -11.803   8.787  72.292  1.00  0.00    -0.356 NA 
HETATM    3  C   UNL     1     -12.289   7.432  71.962  1.00  0.00    -0.266 C  
HETATM    4  C   UNL     1     -12.228   7.053  70.465  1.00  0.00    -0.172 C  
HETATM    5  N   UNL     1     -10.887   7.286  69.913  1.00  0.00    -0.246 NA 
HETATM    6  C   UNL     1     -10.323   8.611  70.209  1.00  0.00    -0.198 C  
HETATM    7  C   UNL     1     -10.453   8.963  71.708  1.00  0.00    -0.360 C  
ENDROOT
BRANCH   5   8
HETATM    8  C   UNL     1     -10.176   6.337  69.173  1.00  0.00    -0.187 C  
HETATM    9  N   UNL     1     -10.304   6.331  67.874  1.00  0.00    -0.169 NA 
HETATM   10  C   UNL     1      -9.663   5.432  66.999  1.00  0.00    -0.149 A  
HETATM   11  H   UNL     1     -10.917   7.033  67.459  1.00  0.00     0.000 HD 
HETATM   12  C   UNL     1     -10.452   4.877  65.981  1.00  0.00    -0.327 A  
HETATM   13  C   UNL     1      -9.910   4.009  65.028  1.00  0.00    -0.204 A  
HETATM   14  C   UNL     1      -8.559   3.688  65.072  1.00  0.00    -0.109 A  
HETATM   15  C   UNL     1      -7.747   4.254  66.054  1.00  0.00    -0.090 A  
HETATM   16  C   UNL     1      -8.289   5.136  67.003  1.00  0.00    -0.107 A  
HETATM   17  S   UNL     1      -7.184   5.811  68.235  1.00  0.00    -0.077 SA 
HETATM   18  C   UNL     1      -7.997   5.102  69.648  1.00  0.00    -0.079 A  
HETATM   19  C   UNL     1      -9.341   5.354  69.948  1.00  0.00    -0.184 A  
HETATM   20  C   UNL     1      -9.939   4.739  71.060  1.00  0.00    -0.279 A  
HETATM   21  C   UNL     1      -9.189   3.901  71.878  1.00  0.00    -0.123 A  
HETATM   22  C   UNL     1      -7.853   3.646  71.588  1.00  0.00    -0.061 A  
HETATM   23 CL   UNL     1      -9.912   3.204  73.275  1.00  0.00    -0.168 Cl 
HETATM   24  C   UNL     1      -7.260   4.238  70.472  1.00  0.00    -0.041 A  
ENDBRANCH   5   8
TORSDOF 1
ENDMDL
MODEL       84
REMARK 921   NORMALIZED FREE ENERGY PREDICTED BY IDOCK:   -4.10 KCAL/MOL
REMARK 922        TOTAL FREE ENERGY PREDICTED BY IDOCK:   -4.58 KCAL/MOL
REMARK 923 INTER-LIGAND FREE ENERGY PREDICTED BY IDOCK:   -4.13 KCAL/MOL
REMARK 924 INTRA-LIGAND FREE ENERGY PREDICTED BY IDOCK:   -0.44 KCAL/MOL
REMARK 927      BINDING AFFINITY PREDICTED BY RF-SCORE:    0.00 PKD
ROOT
HETATM    1  C   UNL     1      -9.106   9.659  62.653  1.00  0.00    -0.249 C  
HETATM    2  N   UNL     1      -8.589  10.664  63.577  1.00  0.00    -0.156 NA 
HETATM    3  C   UNL     1      -9.648  11.198  64.458  1.00  0.00    -0.250 C  
HETATM    4  C   UNL     1     -10.147  10.230  65.554  1.00  0.00    -0.281 C  
HETATM    5  N   UNL     1      -9.027   9.690  66.337  1.00  0.00    -0.149 NA 
HETATM    6  C   UNL     1      -7.921   9.151  65.532  1.00  0.00    -0.104 C  
HETATM    7  C   UNL     1      -7.493  10.134  64.421  1.00  0.00    -0.123 C  
ENDROOT
BRANCH   5   8
HETATM    8  C   UNL     1      -8.985   9.690  67.733  1.00  0.00    -0.118 C  
HETATM    9  N   UNL     1      -9.802   8.909  68.386  1.00  0.00    -0.168 NA 
HETATM   10  C   UNL     1      -9.885   8.807  69.788  1.00  0.00    -0.186 A  
HETATM   11  H   UNL     1     -10.433   8.325  67.835  1.00  0.00     0.000 HD 
HETATM   12  C   UNL     1     -11.173   8.792  70.342  1.00  0.00    -0.247 A  
HETATM   13  C   UNL     1     -11.374   8.648  71.719  1.00  0.00    -0.393 A  
HETATM   14  C   UNL     1     -10.283   8.507  72.567  1.00  0.00    -0.323 A  
HETATM   15  C   UNL     1      -8.994   8.486  72.037  1.00  0.00    -0.301 A  
HETATM   16  C   UNL     1      -8.792   8.616  70.653  1.00  0.00    -0.167 A  
HETATM   17  S   UNL     1      -7.109   8.588  70.053  1.00  0.00    -0.048 SA 
HETATM   18  C   UNL     1      -7.108  10.231  69.373  1.00  0.00    -0.094 A  
HETATM   19  C   UNL     1      -8.015  10.638  68.387  1.00  0.00    -0.120 A  
HETATM   20  C   UNL     1      -7.989  11.959  67.911  1.00  0.00    -0.144 A  
HETATM   21  C   UNL     1      -7.044  12.855  68.400  1.00  0.00    -0.099 A  
HETATM   22  C   UNL     1      -6.139  12.459  69.379  1.00  0.00    -0.108 A  
HETATM   23 CL   UNL     1      -6.976  14.452  67.765  1.00  0.00    -0.174 Cl 
HETATM   24  C   UNL     1      -6.175  11.153  69.871  1.00  0.00    -0.133 A  
ENDBRANCH   5   8
TORSDOF 1
ENDMDL
MODEL       85
REMARK 921   NORMALIZED FREE ENERGY PREDICTED BY IDOCK:   -4.10 KCAL/MOL
REMARK 922        TOTAL FREE ENERGY PREDICTED BY IDOCK:   -4.57 KCAL/MOL
REMARK 923 INTER-LIGAND FREE ENERGY PREDICTED BY IDOCK:   -4.13 KCAL/MOL
REMARK 924 INTRA-LIGAND FREE ENERGY PREDICTED BY IDOCK:   -0.44 KCAL/MOL
REMARK 927      BINDING AFFINITY PREDICTED BY RF-SCORE:    0.00 PKD
ROOT
HETATM    1  C   UNL     1      -9.621   4.204  69.096  1.00  0.00    -0.172 C  
HETATM    2  N   UNL     1      -9.131   4.693  67.810  1.00  0.00    -0.114 NA 
HETATM    3  C   UNL     1     -10.209   5.310  67.010  1.00  0.00    -0.234 C  
HETATM    4  C   UNL     1     -10.702   6.685  67.514  1.00  0.00    -0.317 C  
HETATM    5  N   UNL     1      -9.582   7.615  67.705  1.00  0.00    -0.141 NA 
HETATM    6  C   UNL     1      -8.458   7.071  68.481  1.00  0.00    -0.121 C  
HETATM    7  C   UNL     1      -8.035   5.676  67.969  1.00  0.00    -0.097 C  
ENDROOT
BRANCH   5   8
HETATM    8  C   UNL     1      -9.554   8.913  67.188  1.00  0.00    -0.172 C  
HETATM    9  N   UNL     1     -10.346   9.812  67.707  1.00  0.00    -0.209 NA 
HETATM   10  C   UNL     1     -10.439  11.153  67.288  1.00  0.00    -0.226 A  
HETATM   11  H   UNL     1     -10.947   9.519  68.479  1.00  0.00     0.000 HD 
HETATM   12  C   UNL     1     -11.732  11.681  67.151  1.00  0.00    -0.215 A  
HETATM   13  C   UNL     1     -11.941  13.014  66.786  1.00  0.00    -0.434 A  
HETATM   14  C   UNL     1     -10.855  13.849  66.559  1.00  0.00    -0.295 A  
HETATM   15  C   UNL     1      -9.560  13.358  66.720  1.00  0.00    -0.262 A  
HETATM   16  C   UNL     1      -9.350  12.022  67.101  1.00  0.00    -0.187 A  
HETATM   17  S   UNL     1      -7.660  11.467  67.277  1.00  0.00    -0.146 SA 
HETATM   18  C   UNL     1      -7.719  10.228  66.003  1.00  0.00    -0.130 A  
HETATM   19  C   UNL     1      -8.631   9.166  66.026  1.00  0.00    -0.162 A  
HETATM   20  C   UNL     1      -8.653   8.237  64.974  1.00  0.00    -0.102 A  
HETATM   21  C   UNL     1      -7.751   8.355  63.922  1.00  0.00    -0.143 A  
HETATM   22  C   UNL     1      -6.841   9.407  63.890  1.00  0.00    -0.096 A  
HETATM   23 CL   UNL     1      -7.742   7.176  62.670  1.00  0.00    -0.118 Cl 
HETATM   24  C   UNL     1      -6.830  10.346  64.924  1.00  0.00    -0.040 A  
ENDBRANCH   5   8
TORSDOF 1
ENDMDL
MODEL       86
REMARK 921   NORMALIZED FREE ENERGY PREDICTED BY IDOCK:   -4.06 KCAL/MOL
REMARK 922        TOTAL FREE ENERGY PREDICTED BY IDOCK:   -4.53 KCAL/MOL
REMARK 923 INTER-LIGAND FREE ENERGY PREDICTED BY IDOCK:   -4.44 KCAL/MOL
REMARK 924 INTRA-LIGAND FREE ENERGY PREDICTED BY IDOCK:   -0.08 KCAL/MOL
REMARK 927      BINDING AFFINITY PREDICTED BY RF-SCORE:    0.00 PKD
ROOT
HETATM    1  C   UNL     1     -12.181  14.607  63.882  1.00  0.00    -0.036 C  
HETATM    2  N   UNL     1     -12.307  14.221  65.285  1.00  0.00    -0.429 NA 
HETATM    3  C   UNL     1     -12.390  12.755  65.447  1.00  0.00    -0.470 C  
HETATM    4  C   UNL     1     -11.073  11.986  65.199  1.00  0.00    -0.318 C  
HETATM    5  N   UNL     1      -9.972  12.548  65.992  1.00  0.00    -0.254 NA 
HETATM    6  C   UNL     1      -9.829  14.008  65.897  1.00  0.00    -0.281 C  
HETATM    7  C   UNL     1     -11.181  14.727  66.105  1.00  0.00    -0.337 C  
ENDROOT
BRANCH   5   8
HETATM    8  C   UNL     1      -9.123  11.780  66.793  1.00  0.00    -0.194 C  
HETATM    9  N   UNL     1      -8.627  12.315  67.876  1.00  0.00    -0.160 NA 
HETATM   10  C   UNL     1      -7.753  11.673  68.774  1.00  0.00    -0.111 A  
HETATM   11  H   UNL     1      -8.896  13.276  68.089  1.00  0.00     0.000 HD 
HETATM   12  C   UNL     1      -6.651  12.418  69.220  1.00  0.00    -0.093 A  
HETATM   13  C   UNL     1      -5.744  11.896  70.147  1.00  0.00    -0.147 A  
HETATM   14  C   UNL     1      -5.930  10.617  70.654  1.00  0.00    -0.097 A  
HETATM   15  C   UNL     1      -7.036   9.869  70.252  1.00  0.00    -0.147 A  
HETATM   16  C   UNL     1      -7.954  10.397  69.331  1.00  0.00    -0.157 A  
HETATM   17  S   UNL     1      -9.340   9.372  68.859  1.00  0.00    -0.157 SA 
HETATM   18  C   UNL     1      -8.932   9.259  67.133  1.00  0.00    -0.126 A  
HETATM   19  C   UNL     1      -8.805  10.389  66.314  1.00  0.00    -0.166 A  
HETATM   20  C   UNL     1      -8.448  10.240  64.964  1.00  0.00    -0.177 A  
HETATM   21  C   UNL     1      -8.246   8.971  64.434  1.00  0.00    -0.165 A  
HETATM   22  C   UNL     1      -8.369   7.843  65.240  1.00  0.00    -0.140 A  
HETATM   23 CL   UNL     1      -7.872   8.794  62.764  1.00  0.00    -0.131 Cl 
HETATM   24  C   UNL     1      -8.703   7.987  66.587  1.00  0.00    -0.153 A  
ENDBRANCH   5   8
TORSDOF 1
ENDMDL
MODEL       87
REMARK 921   NORMALIZED FREE ENERGY PREDICTED BY IDOCK:   -4.04 KCAL/MOL
REMARK 922        TOTAL FREE ENERGY PREDICTED BY IDOCK:   -4.51 KCAL/MOL
REMARK 923 INTER-LIGAND FREE ENERGY PREDICTED BY IDOCK:   -4.48 KCAL/MOL
REMARK 924 INTRA-LIGAND FREE ENERGY PREDICTED BY IDOCK:   -0.03 KCAL/MOL
REMARK 927      BINDING AFFINITY PREDICTED BY RF-SCORE:    0.00 PKD
ROOT
HETATM    1  C   UNL     1     -12.687  12.048  71.937  1.00  0.00    -0.102 C  
HETATM    2  N   UNL     1     -13.289  10.912  71.243  1.00  0.00    -0.161 NA 
HETATM    3  C   UNL     1     -12.832  10.820  69.842  1.00  0.00     0.080 C  
HETATM    4  C   UNL     1     -11.371  10.354  69.651  1.00  0.00    -0.272 C  
HETATM    5  N   UNL     1     -11.112   9.104  70.379  1.00  0.00    -0.247 NA 
HETATM    6  C   UNL     1     -11.551   9.109  71.782  1.00  0.00    -0.387 C  
HETATM    7  C   UNL     1     -13.000   9.628  71.924  1.00  0.00    -0.435 C  
ENDROOT
BRANCH   5   8
HETATM    8  C   UNL     1     -10.511   7.982  69.804  1.00  0.00    -0.227 C  
HETATM    9  N   UNL     1     -10.794   6.802  70.287  1.00  0.00    -0.253 NA 
HETATM   10  C   UNL     1     -10.262   5.584  69.822  1.00  0.00    -0.265 A  
HETATM   11  H   UNL     1     -11.455   6.759  71.065  1.00  0.00     0.000 HD 
HETATM   12  C   UNL     1      -9.836   4.671  70.798  1.00  0.00    -0.284 A  
HETATM   13  C   UNL     1      -9.334   3.413  70.451  1.00  0.00    -0.240 A  
HETATM   14  C   UNL     1      -9.259   3.041  69.115  1.00  0.00    -0.222 A  
HETATM   15  C   UNL     1      -9.708   3.918  68.128  1.00  0.00    -0.124 A  
HETATM   16  C   UNL     1     -10.225   5.176  68.477  1.00  0.00    -0.112 A  
HETATM   17  S   UNL     1     -10.770   6.245  67.153  1.00  0.00    -0.386 SA 
HETATM   18  C   UNL     1      -9.609   7.556  67.458  1.00  0.00    -0.142 A  
HETATM   19  C   UNL     1      -9.536   8.227  68.685  1.00  0.00    -0.152 A  
HETATM   20  C   UNL     1      -8.575   9.233  68.879  1.00  0.00    -0.130 A  
HETATM   21  C   UNL     1      -7.714   9.580  67.844  1.00  0.00    -0.087 A  
HETATM   22  C   UNL     1      -7.779   8.919  66.621  1.00  0.00    -0.100 A  
HETATM   23 CL   UNL     1      -6.583  10.857  68.068  1.00  0.00    -0.062 Cl 
HETATM   24  C   UNL     1      -8.718   7.904  66.431  1.00  0.00    -0.170 A  
ENDBRANCH   5   8
TORSDOF 1
ENDMDL
MODEL       88
REMARK 921   NORMALIZED FREE ENERGY PREDICTED BY IDOCK:   -4.03 KCAL/MOL
REMARK 922        TOTAL FREE ENERGY PREDICTED BY IDOCK:   -4.49 KCAL/MOL
REMARK 923 INTER-LIGAND FREE ENERGY PREDICTED BY IDOCK:   -4.50 KCAL/MOL
REMARK 924 INTRA-LIGAND FREE ENERGY PREDICTED BY IDOCK:    0.01 KCAL/MOL
REMARK 927      BINDING AFFINITY PREDICTED BY RF-SCORE:    0.00 PKD
ROOT
HETATM    1  C   UNL     1     -14.027   8.856  72.090  1.00  0.00    -0.456 C  
HETATM    2  N   UNL     1     -12.668   9.293  72.400  1.00  0.00    -0.350 NA 
HETATM    3  C   UNL     1     -11.671   8.248  72.093  1.00  0.00    -0.365 C  
HETATM    4  C   UNL     1     -11.410   8.003  70.590  1.00  0.00    -0.252 C  
HETATM    5  N   UNL     1     -11.097   9.258  69.893  1.00  0.00    -0.217 NA 
HETATM    6  C   UNL     1     -12.036  10.357  70.158  1.00  0.00    -0.256 C  
HETATM    7  C   UNL     1     -12.301  10.529  71.670  1.00  0.00    -0.274 C  
ENDROOT
BRANCH   5   8
HETATM    8  C   UNL     1      -9.993   9.425  69.054  1.00  0.00    -0.177 C  
HETATM    9  N   UNL     1     -10.184   9.444  67.762  1.00  0.00    -0.208 NA 
HETATM   10  C   UNL     1      -9.174   9.593  66.792  1.00  0.00    -0.149 A  
HETATM   11  H   UNL     1     -11.143   9.344  67.428  1.00  0.00     0.000 HD 
HETATM   12  C   UNL     1      -9.236   8.736  65.684  1.00  0.00    -0.244 A  
HETATM   13  C   UNL     1      -8.311   8.826  64.638  1.00  0.00    -0.175 A  
HETATM   14  C   UNL     1      -7.309   9.787  64.680  1.00  0.00    -0.134 A  
HETATM   15  C   UNL     1      -7.246  10.672  65.756  1.00  0.00    -0.104 A  
HETATM   16  C   UNL     1      -8.183  10.591  66.799  1.00  0.00    -0.126 A  
HETATM   17  S   UNL     1      -8.028  11.755  68.145  1.00  0.00    -0.154 SA 
HETATM   18  C   UNL     1      -7.736  10.553  69.422  1.00  0.00    -0.155 A  
HETATM   19  C   UNL     1      -8.643   9.526  69.712  1.00  0.00    -0.201 A  
HETATM   20  C   UNL     1      -8.343   8.585  70.709  1.00  0.00    -0.154 A  
HETATM   21  C   UNL     1      -7.157   8.688  71.428  1.00  0.00    -0.088 A  
HETATM   22  C   UNL     1      -6.249   9.705  71.148  1.00  0.00    -0.046 A  
HETATM   23 CL   UNL     1      -6.826   7.570  72.693  1.00  0.00    -0.063 Cl 
HETATM   24  C   UNL     1      -6.534  10.631  70.142  1.00  0.00    -0.152 A  
ENDBRANCH   5   8
TORSDOF 1
ENDMDL
MODEL       89
REMARK 921   NORMALIZED FREE ENERGY PREDICTED BY IDOCK:   -4.01 KCAL/MOL
REMARK 922        TOTAL FREE ENERGY PREDICTED BY IDOCK:   -4.47 KCAL/MOL
REMARK 923 INTER-LIGAND FREE ENERGY PREDICTED BY IDOCK:   -4.42 KCAL/MOL
REMARK 924 INTRA-LIGAND FREE ENERGY PREDICTED BY IDOCK:   -0.05 KCAL/MOL
REMARK 927      BINDING AFFINITY PREDICTED BY RF-SCORE:    0.00 PKD
ROOT
HETATM    1  C   UNL     1     -10.825  17.114  67.922  1.00  0.00    -0.294 C  
HETATM    2  N   UNL     1     -10.974  16.086  68.949  1.00  0.00    -0.288 NA 
HETATM    3  C   UNL     1     -11.638  14.876  68.424  1.00  0.00    -0.325 C  
HETATM    4  C   UNL     1     -10.781  14.012  67.472  1.00  0.00    -0.268 C  
HETATM    5  N   UNL     1      -9.482  13.686  68.074  1.00  0.00    -0.203 NA 
HETATM    6  C   UNL     1      -8.760  14.838  68.635  1.00  0.00    -0.178 C  
HETATM    7  C   UNL     1      -9.672  15.696  69.540  1.00  0.00    -0.287 C  
ENDROOT
BRANCH   5   8
HETATM    8  C   UNL     1      -8.957  12.393  68.135  1.00  0.00    -0.196 C  
HETATM    9  N   UNL     1      -8.155  12.087  69.119  1.00  0.00    -0.333 NA 
HETATM   10  C   UNL     1      -7.542  10.833  69.308  1.00  0.00    -0.129 A  
HETATM   11  H   UNL     1      -7.957  12.815  69.807  1.00  0.00     0.000 HD 
HETATM   12  C   UNL     1      -6.183  10.844  69.655  1.00  0.00    -0.085 A  
HETATM   13  C   UNL     1      -5.484   9.660  69.911  1.00  0.00    -0.032 A  
HETATM   14  C   UNL     1      -6.141   8.438  69.835  1.00  0.00    -0.031 A  
HETATM   15  C   UNL     1      -7.500   8.403  69.525  1.00  0.00    -0.088 A  
HETATM   16  C   UNL     1      -8.204   9.593  69.280  1.00  0.00    -0.123 A  
HETATM   17  S   UNL     1      -9.941   9.462  68.880  1.00  0.00    -0.186 SA 
HETATM   18  C   UNL     1      -9.829  10.165  67.251  1.00  0.00    -0.183 A  
HETATM   19  C   UNL     1      -9.327  11.453  67.020  1.00  0.00    -0.183 A  
HETATM   20  C   UNL     1      -9.231  11.943  65.707  1.00  0.00    -0.110 A  
HETATM   21  C   UNL     1      -9.658  11.161  64.640  1.00  0.00    -0.250 A  
HETATM   22  C   UNL     1     -10.158   9.881  64.860  1.00  0.00    -0.055 A  
HETATM   23 CL   UNL     1      -9.597  11.793  63.041  1.00  0.00    -0.334 Cl 
HETATM   24  C   UNL     1     -10.236   9.381  66.161  1.00  0.00    -0.264 A  
ENDBRANCH   5   8
TORSDOF 1
ENDMDL
MODEL       90
REMARK 921   NORMALIZED FREE ENERGY PREDICTED BY IDOCK:   -4.01 KCAL/MOL
REMARK 922        TOTAL FREE ENERGY PREDICTED BY IDOCK:   -4.47 KCAL/MOL
REMARK 923 INTER-LIGAND FREE ENERGY PREDICTED BY IDOCK:   -4.97 KCAL/MOL
REMARK 924 INTRA-LIGAND FREE ENERGY PREDICTED BY IDOCK:    0.50 KCAL/MOL
REMARK 927      BINDING AFFINITY PREDICTED BY RF-SCORE:    0.00 PKD
ROOT
HETATM    1  C   UNL     1     -12.604  12.332  64.199  1.00  0.00    -0.394 C  
HETATM    2  N   UNL     1     -12.563  12.903  65.542  1.00  0.00    -0.583 NA 
HETATM    3  C   UNL     1     -11.429  12.377  66.329  1.00  0.00    -0.371 C  
HETATM    4  C   UNL     1     -10.035  12.891  65.906  1.00  0.00    -0.268 C  
HETATM    5  N   UNL     1     -10.005  14.358  65.846  1.00  0.00    -0.317 NA 
HETATM    6  C   UNL     1     -11.111  14.964  65.091  1.00  0.00    -0.393 C  
HETATM    7  C   UNL     1     -12.477  14.382  65.517  1.00  0.00    -0.347 C  
ENDROOT
BRANCH   5   8
HETATM    8  C   UNL     1      -9.024  15.140  66.461  1.00  0.00    -0.291 C  
HETATM    9  N   UNL     1      -8.923  16.398  66.126  1.00  0.00    -0.363 NA 
HETATM   10  C   UNL     1      -7.981  17.305  66.649  1.00  0.00    -0.261 A  
HETATM   11  H   UNL     1      -9.579  16.752  65.430  1.00  0.00     0.000 HD 
HETATM   12  C   UNL     1      -7.336  18.142  65.726  1.00  0.00    -0.170 A  
HETATM   13  C   UNL     1      -6.416  19.112  66.138  1.00  0.00    -0.223 A  
HETATM   14  C   UNL     1      -6.133  19.268  67.489  1.00  0.00    -0.202 A  
HETATM   15  C   UNL     1      -6.786  18.471  68.428  1.00  0.00    -0.251 A  
HETATM   16  C   UNL     1      -7.719  17.506  68.016  1.00  0.00    -0.211 A  
HETATM   17  S   UNL     1      -8.506  16.518  69.280  1.00  0.00     0.066 SA 
HETATM   18  C   UNL     1      -7.879  14.948  68.732  1.00  0.00    -0.149 A  
HETATM   19  C   UNL     1      -8.118  14.449  67.445  1.00  0.00    -0.217 A  
HETATM   20  C   UNL     1      -7.568  13.217  67.056  1.00  0.00     0.157 A  
HETATM   21  C   UNL     1      -6.809  12.479  67.958  1.00  0.00    -0.094 A  
HETATM   22  C   UNL     1      -6.566  12.966  69.238  1.00  0.00    -0.085 A  
HETATM   23 CL   UNL     1      -6.194  10.941  67.495  1.00  0.00    -0.052 Cl 
HETATM   24  C   UNL     1      -7.093  14.201  69.622  1.00  0.00     0.046 A  
ENDBRANCH   5   8
TORSDOF 1
ENDMDL
MODEL       91
REMARK 921   NORMALIZED FREE ENERGY PREDICTED BY IDOCK:   -3.91 KCAL/MOL
REMARK 922        TOTAL FREE ENERGY PREDICTED BY IDOCK:   -4.37 KCAL/MOL
REMARK 923 INTER-LIGAND FREE ENERGY PREDICTED BY IDOCK:   -3.96 KCAL/MOL
REMARK 924 INTRA-LIGAND FREE ENERGY PREDICTED BY IDOCK:   -0.41 KCAL/MOL
REMARK 927      BINDING AFFINITY PREDICTED BY RF-SCORE:    0.00 PKD
ROOT
HETATM    1  C   UNL     1      -8.059   5.997  63.127  1.00  0.00    -0.089 C  
HETATM    2  N   UNL     1      -7.319   6.729  64.152  1.00  0.00    -0.078 NA 
HETATM    3  C   UNL     1      -7.168   8.157  63.806  1.00  0.00    -0.095 C  
HETATM    4  C   UNL     1      -8.455   9.004  63.917  1.00  0.00    -0.160 C  
HETATM    5  N   UNL     1      -9.089   8.840  65.232  1.00  0.00    -0.149 NA 
HETATM    6  C   UNL     1      -9.263   7.444  65.658  1.00  0.00     0.214 C  
HETATM    7  C   UNL     1      -7.963   6.628  65.482  1.00  0.00    -0.118 C  
ENDROOT
BRANCH   5   8
HETATM    8  C   UNL     1      -9.489   9.907  66.039  1.00  0.00    -0.202 C  
HETATM    9  N   UNL     1     -10.343  10.772  65.559  1.00  0.00    -0.260 NA 
HETATM   10  C   UNL     1     -10.830  11.900  66.246  1.00  0.00    -0.282 A  
HETATM   11  H   UNL     1     -10.684  10.616  64.610  1.00  0.00     0.000 HD 
HETATM   12  C   UNL     1     -10.880  13.102  65.524  1.00  0.00    -0.299 A  
HETATM   13  C   UNL     1     -11.389  14.274  66.091  1.00  0.00    -0.342 A  
HETATM   14  C   UNL     1     -11.868  14.261  67.395  1.00  0.00    -0.441 A  
HETATM   15  C   UNL     1     -11.860  13.072  68.122  1.00  0.00    -0.381 A  
HETATM   16  C   UNL     1     -11.361  11.892  67.548  1.00  0.00    -0.314 A  
HETATM   17  S   UNL     1     -11.377  10.411  68.549  1.00  0.00    -0.165 SA 
HETATM   18  C   UNL     1      -9.617  10.163  68.573  1.00  0.00    -0.154 A  
HETATM   19  C   UNL     1      -8.862  10.004  67.404  1.00  0.00    -0.132 A  
HETATM   20  C   UNL     1      -7.469   9.845  67.484  1.00  0.00    -0.091 A  
HETATM   21  C   UNL     1      -6.842   9.819  68.725  1.00  0.00    -0.051 A  
HETATM   22  C   UNL     1      -7.584   9.976  69.892  1.00  0.00    -0.177 A  
HETATM   23 CL   UNL     1      -5.145   9.559  68.817  1.00  0.00    -0.034 Cl 
HETATM   24  C   UNL     1      -8.966  10.155  69.816  1.00  0.00    -0.159 A  
ENDBRANCH   5   8
TORSDOF 1
ENDMDL
MODEL       92
REMARK 921   NORMALIZED FREE ENERGY PREDICTED BY IDOCK:   -3.91 KCAL/MOL
REMARK 922        TOTAL FREE ENERGY PREDICTED BY IDOCK:   -4.37 KCAL/MOL
REMARK 923 INTER-LIGAND FREE ENERGY PREDICTED BY IDOCK:   -4.03 KCAL/MOL
REMARK 924 INTRA-LIGAND FREE ENERGY PREDICTED BY IDOCK:   -0.34 KCAL/MOL
REMARK 927      BINDING AFFINITY PREDICTED BY RF-SCORE:    0.00 PKD
ROOT
HETATM    1  C   UNL     1     -10.419   7.500  72.781  1.00  0.00    -0.295 C  
HETATM    2  N   UNL     1      -9.814   8.767  72.378  1.00  0.00    -0.244 NA 
HETATM    3  C   UNL     1      -8.503   8.567  71.728  1.00  0.00    -0.175 C  
HETATM    4  C   UNL     1      -8.555   7.968  70.304  1.00  0.00    -0.132 C  
HETATM    5  N   UNL     1      -9.468   8.729  69.440  1.00  0.00    -0.160 NA 
HETATM    6  C   UNL     1     -10.794   8.983  70.022  1.00  0.00    -0.231 C  
HETATM    7  C   UNL     1     -10.688   9.534  71.461  1.00  0.00    -0.198 C  
ENDROOT
BRANCH   5   8
HETATM    8  C   UNL     1      -9.124   9.197  68.170  1.00  0.00    -0.132 C  
HETATM    9  N   UNL     1      -9.203   8.377  67.156  1.00  0.00    -0.139 NA 
HETATM   10  C   UNL     1      -8.880   8.698  65.824  1.00  0.00    -0.193 A  
HETATM   11  H   UNL     1      -9.523   7.426  67.346  1.00  0.00     0.000 HD 
HETATM   12  C   UNL     1      -8.117   7.757  65.117  1.00  0.00    -0.137 A  
HETATM   13  C   UNL     1      -7.778   7.952  63.774  1.00  0.00    -0.135 A  
HETATM   14  C   UNL     1      -8.209   9.093  63.109  1.00  0.00    -0.176 A  
HETATM   15  C   UNL     1      -8.997  10.027  63.780  1.00  0.00    -0.274 A  
HETATM   16  C   UNL     1      -9.349   9.825  65.125  1.00  0.00    -0.260 A  
HETATM   17  S   UNL     1     -10.354  11.073  65.916  1.00  0.00    -0.244 SA 
HETATM   18  C   UNL     1      -9.166  11.536  67.155  1.00  0.00    -0.169 A  
HETATM   19  C   UNL     1      -8.640  10.619  68.074  1.00  0.00    -0.122 A  
HETATM   20  C   UNL     1      -7.679  11.035  69.009  1.00  0.00    -0.132 A  
HETATM   21  C   UNL     1      -7.269  12.363  69.041  1.00  0.00    -0.008 A  
HETATM   22  C   UNL     1      -7.786  13.282  68.132  1.00  0.00    -0.145 A  
HETATM   23 CL   UNL     1      -6.140  12.879  70.232  1.00  0.00    -0.118 Cl 
HETATM   24  C   UNL     1      -8.726  12.868  67.187  1.00  0.00    -0.205 A  
ENDBRANCH   5   8
TORSDOF 1
ENDMDL
MODEL       93
REMARK 921   NORMALIZED FREE ENERGY PREDICTED BY IDOCK:   -3.90 KCAL/MOL
REMARK 922        TOTAL FREE ENERGY PREDICTED BY IDOCK:   -4.36 KCAL/MOL
REMARK 923 INTER-LIGAND FREE ENERGY PREDICTED BY IDOCK:   -4.68 KCAL/MOL
REMARK 924 INTRA-LIGAND FREE ENERGY PREDICTED BY IDOCK:    0.32 KCAL/MOL
REMARK 927      BINDING AFFINITY PREDICTED BY RF-SCORE:    0.00 PKD
ROOT
HETATM    1  C   UNL     1     -13.837   8.612  71.557  1.00  0.00    -0.335 C  
HETATM    2  N   UNL     1     -12.458   8.978  71.867  1.00  0.00    -0.356 NA 
HETATM    3  C   UNL     1     -11.493   8.010  71.306  1.00  0.00    -0.269 C  
HETATM    4  C   UNL     1     -11.320   8.062  69.772  1.00  0.00     0.128 C  
HETATM    5  N   UNL     1     -11.029   9.427  69.315  1.00  0.00    -0.170 NA 
HETATM    6  C   UNL     1     -11.938  10.456  69.842  1.00  0.00    -0.215 C  
HETATM    7  C   UNL     1     -12.115  10.331  71.371  1.00  0.00    -0.362 C  
ENDROOT
BRANCH   5   8
HETATM    8  C   UNL     1      -9.972   9.752  68.462  1.00  0.00    -0.160 C  
HETATM    9  N   UNL     1      -8.755   9.452  68.829  1.00  0.00    -0.130 NA 
HETATM   10  C   UNL     1      -7.591   9.724  68.084  1.00  0.00    -0.082 A  
HETATM   11  H   UNL     1      -8.638   8.984  69.728  1.00  0.00     0.000 HD 
HETATM   12  C   UNL     1      -6.501  10.253  68.791  1.00  0.00    -0.051 A  
HETATM   13  C   UNL     1      -5.281  10.518  68.162  1.00  0.00    -0.033 A  
HETATM   14  C   UNL     1      -5.127  10.247  66.808  1.00  0.00    -0.040 A  
HETATM   15  C   UNL     1      -6.184   9.690  66.090  1.00  0.00    -0.068 A  
HETATM   16  C   UNL     1      -7.405   9.412  66.725  1.00  0.00    -0.086 A  
HETATM   17  S   UNL     1      -8.715   8.707  65.734  1.00  0.00    -0.190 SA 
HETATM   18  C   UNL     1      -9.865  10.049  65.931  1.00  0.00    -0.264 A  
HETATM   19  C   UNL     1     -10.320  10.471  67.187  1.00  0.00    -0.285 A  
HETATM   20  C   UNL     1     -11.203  11.559  67.283  1.00  0.00    -0.365 A  
HETATM   21  C   UNL     1     -11.646  12.199  66.131  1.00  0.00    -0.354 A  
HETATM   22  C   UNL     1     -11.199  11.786  64.880  1.00  0.00    -0.328 A  
HETATM   23 CL   UNL     1     -12.777  13.489  66.254  1.00  0.00    -0.283 Cl 
HETATM   24  C   UNL     1     -10.305  10.719  64.780  1.00  0.00    -0.380 A  
ENDBRANCH   5   8
TORSDOF 1
ENDMDL
MODEL       94
REMARK 921   NORMALIZED FREE ENERGY PREDICTED BY IDOCK:   -3.87 KCAL/MOL
REMARK 922        TOTAL FREE ENERGY PREDICTED BY IDOCK:   -4.33 KCAL/MOL
REMARK 923 INTER-LIGAND FREE ENERGY PREDICTED BY IDOCK:   -3.88 KCAL/MOL
REMARK 924 INTRA-LIGAND FREE ENERGY PREDICTED BY IDOCK:   -0.44 KCAL/MOL
REMARK 927      BINDING AFFINITY PREDICTED BY RF-SCORE:    0.00 PKD
ROOT
HETATM    1  C   UNL     1      -8.680   7.516  74.408  1.00  0.00    -0.178 C  
HETATM    2  N   UNL     1      -8.621   8.450  73.288  1.00  0.00    -0.356 NA 
HETATM    3  C   UNL     1      -7.425   8.230  72.450  1.00  0.00    -0.118 C  
HETATM    4  C   UNL     1      -7.452   6.955  71.579  1.00  0.00    -0.086 C  
HETATM    5  N   UNL     1      -8.682   6.884  70.779  1.00  0.00    -0.144 NA 
HETATM    6  C   UNL     1      -9.921   7.107  71.537  1.00  0.00    -0.182 C  
HETATM    7  C   UNL     1      -9.825   8.365  72.428  1.00  0.00    -0.308 C  
ENDROOT
BRANCH   5   8
HETATM    8  C   UNL     1      -8.699   6.640  69.403  1.00  0.00    -0.135 C  
HETATM    9  N   UNL     1      -8.359   5.455  68.971  1.00  0.00    -0.100 NA 
HETATM   10  C   UNL     1      -8.317   5.064  67.619  1.00  0.00    -0.105 A  
HETATM   11  H   UNL     1      -8.102   4.757  69.670  1.00  0.00     0.000 HD 
HETATM   12  C   UNL     1      -7.193   4.331  67.212  1.00  0.00    -0.068 A  
HETATM   13  C   UNL     1      -7.068   3.851  65.904  1.00  0.00    -0.067 A  
HETATM   14  C   UNL     1      -8.078   4.090  64.980  1.00  0.00    -0.093 A  
HETATM   15  C   UNL     1      -9.220   4.788  65.369  1.00  0.00    -0.156 A  
HETATM   16  C   UNL     1      -9.351   5.258  66.686  1.00  0.00    -0.138 A  
HETATM   17  S   UNL     1     -10.841   6.151  67.104  1.00  0.00    -0.343 SA 
HETATM   18  C   UNL     1     -10.050   7.689  67.511  1.00  0.00    -0.202 A  
HETATM   19  C   UNL     1      -9.073   7.792  68.510  1.00  0.00    -0.132 A  
HETATM   20  C   UNL     1      -8.458   9.028  68.765  1.00  0.00    -0.131 A  
HETATM   21  C   UNL     1      -8.837  10.156  68.045  1.00  0.00    -0.125 A  
HETATM   22  C   UNL     1      -9.806  10.063  67.051  1.00  0.00    -0.238 A  
HETATM   23 CL   UNL     1      -8.125  11.679  68.408  1.00  0.00    -0.148 Cl 
HETATM   24  C   UNL     1     -10.406   8.832  66.780  1.00  0.00    -0.328 A  
ENDBRANCH   5   8
TORSDOF 1
ENDMDL
MODEL       95
REMARK 921   NORMALIZED FREE ENERGY PREDICTED BY IDOCK:   -3.86 KCAL/MOL
REMARK 922        TOTAL FREE ENERGY PREDICTED BY IDOCK:   -4.31 KCAL/MOL
REMARK 923 INTER-LIGAND FREE ENERGY PREDICTED BY IDOCK:   -3.95 KCAL/MOL
REMARK 924 INTRA-LIGAND FREE ENERGY PREDICTED BY IDOCK:   -0.36 KCAL/MOL
REMARK 927      BINDING AFFINITY PREDICTED BY RF-SCORE:    0.00 PKD
ROOT
HETATM    1  C   UNL     1     -10.340   2.856  73.024  1.00  0.00    -0.152 C  
HETATM    2  N   UNL     1      -9.124   3.250  72.320  1.00  0.00    -0.098 NA 
HETATM    3  C   UNL     1      -9.423   3.890  71.022  1.00  0.00    -0.166 C  
HETATM    4  C   UNL     1     -10.014   5.315  71.107  1.00  0.00    -0.201 C  
HETATM    5  N   UNL     1      -9.184   6.185  71.950  1.00  0.00    -0.147 NA 
HETATM    6  C   UNL     1      -8.829   5.615  73.258  1.00  0.00    -0.121 C  
HETATM    7  C   UNL     1      -8.289   4.174  73.123  1.00  0.00    -0.090 C  
ENDROOT
BRANCH   5   8
HETATM    8  C   UNL     1      -8.742   7.452  71.559  1.00  0.00    -0.117 C  
HETATM    9  N   UNL     1      -7.462   7.707  71.591  1.00  0.00    -0.074 NA 
HETATM   10  C   UNL     1      -6.869   8.935  71.239  1.00  0.00    -0.090 A  
HETATM   11  H   UNL     1      -6.841   6.956  71.896  1.00  0.00     0.000 HD 
HETATM   12  C   UNL     1      -5.872   9.420  72.098  1.00  0.00     0.035 A  
HETATM   13  C   UNL     1      -5.184  10.606  71.821  1.00  0.00     0.042 A  
HETATM   14  C   UNL     1      -5.476  11.324  70.669  1.00  0.00    -0.134 A  
HETATM   15  C   UNL     1      -6.439  10.844  69.782  1.00  0.00    -0.128 A  
HETATM   16  C   UNL     1      -7.121   9.647  70.053  1.00  0.00    -0.104 A  
HETATM   17  S   UNL     1      -8.348   9.105  68.871  1.00  0.00    -0.126 SA 
HETATM   18  C   UNL     1      -9.740   9.182  69.974  1.00  0.00    -0.195 A  
HETATM   19  C   UNL     1      -9.796   8.452  71.168  1.00  0.00    -0.242 A  
HETATM   20  C   UNL     1     -10.908   8.578  72.016  1.00  0.00    -0.405 A  
HETATM   21  C   UNL     1     -11.966   9.407  71.657  1.00  0.00    -0.393 A  
HETATM   22  C   UNL     1     -11.919  10.136  70.472  1.00  0.00    -0.400 A  
HETATM   23 CL   UNL     1     -13.353   9.507  72.670  1.00  0.00    -0.353 Cl 
HETATM   24  C   UNL     1     -10.806  10.029  69.637  1.00  0.00    -0.292 A  
ENDBRANCH   5   8
TORSDOF 1
ENDMDL
MODEL       96
REMARK 921   NORMALIZED FREE ENERGY PREDICTED BY IDOCK:   -3.81 KCAL/MOL
REMARK 922        TOTAL FREE ENERGY PREDICTED BY IDOCK:   -4.27 KCAL/MOL
REMARK 923 INTER-LIGAND FREE ENERGY PREDICTED BY IDOCK:   -4.62 KCAL/MOL
REMARK 924 INTRA-LIGAND FREE ENERGY PREDICTED BY IDOCK:    0.35 KCAL/MOL
REMARK 927      BINDING AFFINITY PREDICTED BY RF-SCORE:    0.00 PKD
ROOT
HETATM    1  C   UNL     1     -13.205  12.013  71.968  1.00  0.00    -0.375 C  
HETATM    2  N   UNL     1     -13.387  10.850  71.104  1.00  0.00    -0.103 NA 
HETATM    3  C   UNL     1     -12.397  10.820  70.008  1.00  0.00    -0.298 C  
HETATM    4  C   UNL     1     -10.953  10.466  70.431  1.00  0.00    -0.248 C  
HETATM    5  N   UNL     1     -10.918   9.225  71.215  1.00  0.00    -0.323 NA 
HETATM    6  C   UNL     1     -11.886   9.169  72.320  1.00  0.00    -0.165 C  
HETATM    7  C   UNL     1     -13.302   9.578  71.857  1.00  0.00    -0.437 C  
ENDROOT
BRANCH   5   8
HETATM    8  C   UNL     1     -10.053   8.161  70.946  1.00  0.00    -0.188 C  
HETATM    9  N   UNL     1      -9.308   7.697  71.913  1.00  0.00    -0.142 NA 
HETATM   10  C   UNL     1      -8.385   6.640  71.793  1.00  0.00    -0.111 A  
HETATM   11  H   UNL     1      -9.403   8.135  72.830  1.00  0.00     0.000 HD 
HETATM   12  C   UNL     1      -7.132   6.829  72.395  1.00  0.00    -0.071 A  
HETATM   13  C   UNL     1      -6.155   5.829  72.378  1.00  0.00    -0.040 A  
HETATM   14  C   UNL     1      -6.421   4.612  71.762  1.00  0.00    -0.023 A  
HETATM   15  C   UNL     1      -7.670   4.388  71.185  1.00  0.00    -0.068 A  
HETATM   16  C   UNL     1      -8.656   5.387  71.215  1.00  0.00    -0.126 A  
HETATM   17  S   UNL     1     -10.228   5.025  70.445  1.00  0.00    -0.224 SA 
HETATM   18  C   UNL     1     -10.147   6.298  69.207  1.00  0.00    -0.175 A  
HETATM   19  C   UNL     1     -10.015   7.655  69.529  1.00  0.00    -0.182 A  
HETATM   20  C   UNL     1      -9.922   8.613  68.507  1.00  0.00    -0.201 A  
HETATM   21  C   UNL     1      -9.988   8.218  67.175  1.00  0.00    -0.239 A  
HETATM   22  C   UNL     1     -10.119   6.872  66.846  1.00  0.00    -0.286 A  
HETATM   23 CL   UNL     1      -9.939   9.404  65.930  1.00  0.00    -0.371 Cl 
HETATM   24  C   UNL     1     -10.191   5.914  67.858  1.00  0.00    -0.225 A  
ENDBRANCH   5   8
TORSDOF 1
ENDMDL
MODEL       97
REMARK 921   NORMALIZED FREE ENERGY PREDICTED BY IDOCK:   -3.80 KCAL/MOL
REMARK 922        TOTAL FREE ENERGY PREDICTED BY IDOCK:   -4.26 KCAL/MOL
REMARK 923 INTER-LIGAND FREE ENERGY PREDICTED BY IDOCK:   -4.04 KCAL/MOL
REMARK 924 INTRA-LIGAND FREE ENERGY PREDICTED BY IDOCK:   -0.21 KCAL/MOL
REMARK 927      BINDING AFFINITY PREDICTED BY RF-SCORE:    0.00 PKD
ROOT
HETATM    1  C   UNL     1      -6.253   8.414  74.540  1.00  0.00    -0.127 C  
HETATM    2  N   UNL     1      -6.412   7.552  73.372  1.00  0.00    -0.064 NA 
HETATM    3  C   UNL     1      -7.832   7.250  73.101  1.00  0.00    -0.097 C  
HETATM    4  C   UNL     1      -8.661   8.424  72.533  1.00  0.00    -0.184 C  
HETATM    5  N   UNL     1      -8.008   9.016  71.357  1.00  0.00    -0.318 NA 
HETATM    6  C   UNL     1      -6.585   9.333  71.541  1.00  0.00     0.022 C  
HETATM    7  C   UNL     1      -5.811   8.146  72.155  1.00  0.00    -0.041 C  
ENDROOT
BRANCH   5   8
HETATM    8  C   UNL     1      -8.661   9.254  70.145  1.00  0.00    -0.204 C  
HETATM    9  N   UNL     1      -9.222  10.418  69.953  1.00  0.00    -0.396 NA 
HETATM   10  C   UNL     1      -9.923  10.801  68.793  1.00  0.00    -0.193 A  
HETATM   11  H   UNL     1      -9.146  11.105  70.704  1.00  0.00     0.000 HD 
HETATM   12  C   UNL     1     -11.138  11.474  68.987  1.00  0.00    -0.302 A  
HETATM   13  C   UNL     1     -11.894  11.942  67.907  1.00  0.00    -0.308 A  
HETATM   14  C   UNL     1     -11.439  11.751  66.609  1.00  0.00    -0.337 A  
HETATM   15  C   UNL     1     -10.218  11.114  66.391  1.00  0.00    -0.279 A  
HETATM   16  C   UNL     1      -9.452  10.657  67.476  1.00  0.00    -0.153 A  
HETATM   17  S   UNL     1      -7.903   9.842  67.113  1.00  0.00    -0.098 SA 
HETATM   18  C   UNL     1      -8.331   8.267  67.817  1.00  0.00    -0.128 A  
HETATM   19  C   UNL     1      -8.706   8.119  69.159  1.00  0.00    -0.140 A  
HETATM   20  C   UNL     1      -9.067   6.854  69.651  1.00  0.00    -0.143 A  
HETATM   21  C   UNL     1      -9.025   5.744  68.814  1.00  0.00    -0.116 A  
HETATM   22  C   UNL     1      -8.654   5.882  67.480  1.00  0.00    -0.102 A  
HETATM   23 CL   UNL     1      -9.405   4.188  69.441  1.00  0.00    -0.219 Cl 
HETATM   24  C   UNL     1      -8.315   7.141  66.981  1.00  0.00    -0.118 A  
ENDBRANCH   5   8
TORSDOF 1
ENDMDL
MODEL       98
REMARK 921   NORMALIZED FREE ENERGY PREDICTED BY IDOCK:   -3.78 KCAL/MOL
REMARK 922        TOTAL FREE ENERGY PREDICTED BY IDOCK:   -4.23 KCAL/MOL
REMARK 923 INTER-LIGAND FREE ENERGY PREDICTED BY IDOCK:   -3.80 KCAL/MOL
REMARK 924 INTRA-LIGAND FREE ENERGY PREDICTED BY IDOCK:   -0.43 KCAL/MOL
REMARK 927      BINDING AFFINITY PREDICTED BY RF-SCORE:    0.00 PKD
ROOT
HETATM    1  C   UNL     1      -8.084  10.808  65.041  1.00  0.00     0.036 C  
HETATM    2  N   UNL     1      -7.636   9.458  65.372  1.00  0.00    -0.098 NA 
HETATM    3  C   UNL     1      -6.808   9.438  66.595  1.00  0.00    -0.080 C  
HETATM    4  C   UNL     1      -7.575   9.669  67.916  1.00  0.00    -0.083 C  
HETATM    5  N   UNL     1      -8.720   8.755  68.033  1.00  0.00    -0.140 NA 
HETATM    6  C   UNL     1      -9.588   8.705  66.848  1.00  0.00    -0.194 C  
HETATM    7  C   UNL     1      -8.771   8.523  65.550  1.00  0.00    -0.174 C  
ENDROOT
BRANCH   5   8
HETATM    8  C   UNL     1      -8.977   7.974  69.163  1.00  0.00    -0.145 C  
HETATM    9  N   UNL     1      -9.205   8.573  70.301  1.00  0.00    -0.154 NA 
HETATM   10  C   UNL     1      -9.468   7.924  71.523  1.00  0.00    -0.147 A  
HETATM   11  H   UNL     1      -9.192   9.594  70.305  1.00  0.00     0.000 HD 
HETATM   12  C   UNL     1      -8.799   8.416  72.653  1.00  0.00    -0.288 A  
HETATM   13  C   UNL     1      -9.019   7.878  73.924  1.00  0.00    -0.287 A  
HETATM   14  C   UNL     1      -9.925   6.838  74.089  1.00  0.00    -0.373 A  
HETATM   15  C   UNL     1     -10.628   6.354  72.987  1.00  0.00    -0.267 A  
HETATM   16  C   UNL     1     -10.417   6.904  71.712  1.00  0.00    -0.203 A  
HETATM   17  S   UNL     1     -11.350   6.221  70.349  1.00  0.00    -0.337 SA 
HETATM   18  C   UNL     1      -9.953   5.633  69.420  1.00  0.00    -0.197 A  
HETATM   19  C   UNL     1      -8.926   6.481  68.987  1.00  0.00    -0.129 A  
HETATM   20  C   UNL     1      -7.830   5.954  68.285  1.00  0.00    -0.105 A  
HETATM   21  C   UNL     1      -7.777   4.594  67.997  1.00  0.00    -0.081 A  
HETATM   22  C   UNL     1      -8.793   3.744  68.423  1.00  0.00    -0.150 A  
HETATM   23 CL   UNL     1      -6.463   3.967  67.081  1.00  0.00    -0.040 Cl 
HETATM   24  C   UNL     1      -9.874   4.260  69.140  1.00  0.00    -0.163 A  
ENDBRANCH   5   8
TORSDOF 1
ENDMDL
MODEL       99
REMARK 921   NORMALIZED FREE ENERGY PREDICTED BY IDOCK:   -3.77 KCAL/MOL
REMARK 922        TOTAL FREE ENERGY PREDICTED BY IDOCK:   -4.22 KCAL/MOL
REMARK 923 INTER-LIGAND FREE ENERGY PREDICTED BY IDOCK:   -3.82 KCAL/MOL
REMARK 924 INTRA-LIGAND FREE ENERGY PREDICTED BY IDOCK:   -0.41 KCAL/MOL
REMARK 927      BINDING AFFINITY PREDICTED BY RF-SCORE:    0.00 PKD
ROOT
HETATM    1  C   UNL     1      -8.940   7.171  73.900  1.00  0.00    -0.200 C  
HETATM    2  N   UNL     1      -8.790   8.382  73.098  1.00  0.00    -0.316 NA 
HETATM    3  C   UNL     1      -7.578   8.337  72.255  1.00  0.00    -0.123 C  
HETATM    4  C   UNL     1      -7.644   7.369  71.053  1.00  0.00    -0.086 C  
HETATM    5  N   UNL     1      -8.847   7.607  70.243  1.00  0.00    -0.144 NA 
HETATM    6  C   UNL     1     -10.098   7.680  71.011  1.00  0.00    -0.189 C  
HETATM    7  C   UNL     1      -9.966   8.622  72.228  1.00  0.00    -0.291 C  
ENDROOT
BRANCH   5   8
HETATM    8  C   UNL     1      -8.828   7.769  68.856  1.00  0.00    -0.135 C  
HETATM    9  N   UNL     1      -9.143   8.934  68.356  1.00  0.00    -0.137 NA 
HETATM   10  C   UNL     1      -9.181   9.247  66.983  1.00  0.00    -0.138 A  
HETATM   11  H   UNL     1      -9.382   9.678  69.013  1.00  0.00     0.000 HD 
HETATM   12  C   UNL     1     -10.289   9.980  66.536  1.00  0.00    -0.268 A  
HETATM   13  C   UNL     1     -10.407  10.385  65.202  1.00  0.00    -0.260 A  
HETATM   14  C   UNL     1      -9.406  10.070  64.292  1.00  0.00    -0.345 A  
HETATM   15  C   UNL     1      -8.279   9.370  64.719  1.00  0.00    -0.145 A  
HETATM   16  C   UNL     1      -8.154   8.975  66.061  1.00  0.00    -0.111 A  
HETATM   17  S   UNL     1      -6.683   8.074  66.528  1.00  0.00    -0.063 SA 
HETATM   18  C   UNL     1      -7.508   6.581  67.026  1.00  0.00    -0.087 A  
HETATM   19  C   UNL     1      -8.484   6.559  68.031  1.00  0.00    -0.119 A  
HETATM   20  C   UNL     1      -9.126   5.354  68.359  1.00  0.00    -0.119 A  
HETATM   21  C   UNL     1      -8.775   4.178  67.706  1.00  0.00    -0.107 A  
HETATM   22  C   UNL     1      -7.807   4.190  66.706  1.00  0.00    -0.097 A  
HETATM   23 CL   UNL     1      -9.520   2.695  68.159  1.00  0.00    -0.257 Cl 
HETATM   24  C   UNL     1      -7.180   5.389  66.362  1.00  0.00    -0.077 A  
ENDBRANCH   5   8
TORSDOF 1
ENDMDL
MODEL      100
REMARK 921   NORMALIZED FREE ENERGY PREDICTED BY IDOCK:   -3.73 KCAL/MOL
REMARK 922        TOTAL FREE ENERGY PREDICTED BY IDOCK:   -4.18 KCAL/MOL
REMARK 923 INTER-LIGAND FREE ENERGY PREDICTED BY IDOCK:   -3.74 KCAL/MOL
REMARK 924 INTRA-LIGAND FREE ENERGY PREDICTED BY IDOCK:   -0.44 KCAL/MOL
REMARK 927      BINDING AFFINITY PREDICTED BY RF-SCORE:    0.00 PKD
ROOT
HETATM    1  C   UNL     1      -7.563   9.360  65.012  1.00  0.00    -0.109 C  
HETATM    2  N   UNL     1      -8.452   9.601  66.145  1.00  0.00    -0.119 NA 
HETATM    3  C   UNL     1      -9.550   8.615  66.202  1.00  0.00    -0.235 C  
HETATM    4  C   UNL     1      -9.138   7.191  66.636  1.00  0.00    -0.149 C  
HETATM    5  N   UNL     1      -8.381   7.217  67.895  1.00  0.00    -0.118 NA 
HETATM    6  C   UNL     1      -7.276   8.185  67.926  1.00  0.00    -0.091 C  
HETATM    7  C   UNL     1      -7.727   9.580  67.437  1.00  0.00    -0.095 C  
ENDROOT
BRANCH   5   8
HETATM    8  C   UNL     1      -8.676   6.407  68.994  1.00  0.00    -0.123 C  
HETATM    9  N   UNL     1      -8.426   5.127  68.916  1.00  0.00    -0.091 NA 
HETATM   10  C   UNL     1      -8.677   4.186  69.933  1.00  0.00    -0.070 A  
HETATM   11  H   UNL     1      -8.015   4.782  68.048  1.00  0.00     0.000 HD 
HETATM   12  C   UNL     1      -9.271   2.978  69.539  1.00  0.00    -0.217 A  
HETATM   13  C   UNL     1      -9.523   1.954  70.457  1.00  0.00    -0.168 A  
HETATM   14  C   UNL     1      -9.175   2.120  71.792  1.00  0.00    -0.160 A  
HETATM   15  C   UNL     1      -8.553   3.298  72.202  1.00  0.00    -0.099 A  
HETATM   16  C   UNL     1      -8.287   4.320  71.278  1.00  0.00    -0.082 A  
HETATM   17  S   UNL     1      -7.496   5.803  71.885  1.00  0.00    -0.097 SA 
HETATM   18  C   UNL     1      -8.821   6.919  71.488  1.00  0.00    -0.132 A  
HETATM   19  C   UNL     1      -9.309   7.075  70.184  1.00  0.00    -0.162 A  
HETATM   20  C   UNL     1     -10.382   7.947  69.936  1.00  0.00    -0.224 A  
HETATM   21  C   UNL     1     -10.941   8.676  70.980  1.00  0.00    -0.260 A  
HETATM   22  C   UNL     1     -10.463   8.527  72.278  1.00  0.00    -0.402 A  
HETATM   23 CL   UNL     1     -12.211   9.790  70.657  1.00  0.00    -0.312 Cl 
HETATM   24  C   UNL     1      -9.411   7.646  72.533  1.00  0.00    -0.222 A  
ENDBRANCH   5   8
TORSDOF 1
ENDMDL
MODEL      101
REMARK 921   NORMALIZED FREE ENERGY PREDICTED BY IDOCK:   -3.72 KCAL/MOL
REMARK 922        TOTAL FREE ENERGY PREDICTED BY IDOCK:   -4.17 KCAL/MOL
REMARK 923 INTER-LIGAND FREE ENERGY PREDICTED BY IDOCK:   -3.82 KCAL/MOL
REMARK 924 INTRA-LIGAND FREE ENERGY PREDICTED BY IDOCK:   -0.35 KCAL/MOL
REMARK 927      BINDING AFFINITY PREDICTED BY RF-SCORE:    0.00 PKD
ROOT
HETATM    1  C   UNL     1      -5.251  10.790  65.377  1.00  0.00    -0.142 C  
HETATM    2  N   UNL     1      -6.679  10.872  65.671  1.00  0.00    -0.020 NA 
HETATM    3  C   UNL     1      -7.386   9.625  65.315  1.00  0.00    -0.113 C  
HETATM    4  C   UNL     1      -7.111   8.420  66.243  1.00  0.00    -0.077 C  
HETATM    5  N   UNL     1      -7.331   8.773  67.652  1.00  0.00    -0.084 NA 
HETATM    6  C   UNL     1      -6.671  10.013  68.084  1.00  0.00    -0.059 C  
HETATM    7  C   UNL     1      -6.936  11.173  67.099  1.00  0.00    -0.112 C  
ENDROOT
BRANCH   5   8
HETATM    8  C   UNL     1      -8.113   8.015  68.528  1.00  0.00    -0.125 C  
HETATM    9  N   UNL     1      -7.870   6.737  68.641  1.00  0.00    -0.116 NA 
HETATM   10  C   UNL     1      -8.576   5.845  69.471  1.00  0.00    -0.117 A  
HETATM   11  H   UNL     1      -7.106   6.354  68.082  1.00  0.00     0.000 HD 
HETATM   12  C   UNL     1      -8.932   4.611  68.908  1.00  0.00    -0.145 A  
HETATM   13  C   UNL     1      -9.595   3.632  69.654  1.00  0.00    -0.211 A  
HETATM   14  C   UNL     1      -9.905   3.869  70.987  1.00  0.00    -0.219 A  
HETATM   15  C   UNL     1      -9.532   5.075  71.579  1.00  0.00    -0.203 A  
HETATM   16  C   UNL     1      -8.855   6.053  70.833  1.00  0.00    -0.135 A  
HETATM   17  S   UNL     1      -8.420   7.575  71.662  1.00  0.00    -0.112 SA 
HETATM   18  C   UNL     1      -9.396   8.651  70.638  1.00  0.00    -0.185 A  
HETATM   19  C   UNL     1      -9.220   8.735  69.251  1.00  0.00    -0.149 A  
HETATM   20  C   UNL     1     -10.043   9.578  68.488  1.00  0.00    -0.198 A  
HETATM   21  C   UNL     1     -11.016  10.351  69.113  1.00  0.00    -0.241 A  
HETATM   22  C   UNL     1     -11.198  10.275  70.490  1.00  0.00    -0.408 A  
HETATM   23 CL   UNL     1     -11.977  11.430  68.180  1.00  0.00    -0.285 Cl 
HETATM   24  C   UNL     1     -10.396   9.422  71.250  1.00  0.00    -0.363 A  
ENDBRANCH   5   8
TORSDOF 1
ENDMDL
MODEL      102
REMARK 921   NORMALIZED FREE ENERGY PREDICTED BY IDOCK:   -3.72 KCAL/MOL
REMARK 922        TOTAL FREE ENERGY PREDICTED BY IDOCK:   -4.17 KCAL/MOL
REMARK 923 INTER-LIGAND FREE ENERGY PREDICTED BY IDOCK:   -3.81 KCAL/MOL
REMARK 924 INTRA-LIGAND FREE ENERGY PREDICTED BY IDOCK:   -0.36 KCAL/MOL
REMARK 927      BINDING AFFINITY PREDICTED BY RF-SCORE:    0.00 PKD
ROOT
HETATM    1  C   UNL     1      -8.790   4.847  64.143  1.00  0.00    -0.091 C  
HETATM    2  N   UNL     1      -8.932   4.147  65.417  1.00  0.00    -0.126 NA 
HETATM    3  C   UNL     1      -7.818   4.450  66.338  1.00  0.00    -0.098 C  
HETATM    4  C   UNL     1      -7.829   5.870  66.946  1.00  0.00    -0.101 C  
HETATM    5  N   UNL     1      -9.127   6.173  67.564  1.00  0.00    -0.111 NA 
HETATM    6  C   UNL     1     -10.293   5.886  66.715  1.00  0.00    -0.244 C  
HETATM    7  C   UNL     1     -10.209   4.474  66.093  1.00  0.00    -0.254 C  
ENDROOT
BRANCH   5   8
HETATM    8  C   UNL     1      -9.271   6.681  68.857  1.00  0.00    -0.130 C  
HETATM    9  N   UNL     1      -9.651   5.873  69.810  1.00  0.00    -0.150 NA 
HETATM   10  C   UNL     1      -9.850   6.239  71.156  1.00  0.00    -0.180 A  
HETATM   11  H   UNL     1      -9.817   4.898  69.559  1.00  0.00     0.000 HD 
HETATM   12  C   UNL     1     -11.008   5.748  71.776  1.00  0.00    -0.317 A  
HETATM   13  C   UNL     1     -11.283   6.010  73.122  1.00  0.00    -0.177 A  
HETATM   14  C   UNL     1     -10.393   6.764  73.876  1.00  0.00    -0.397 A  
HETATM   15  C   UNL     1      -9.218   7.234  73.292  1.00  0.00    -0.216 A  
HETATM   16  C   UNL     1      -8.935   6.960  71.944  1.00  0.00    -0.137 A  
HETATM   17  S   UNL     1      -7.413   7.607  71.267  1.00  0.00    -0.081 SA 
HETATM   18  C   UNL     1      -8.164   8.651  70.039  1.00  0.00    -0.122 A  
HETATM   19  C   UNL     1      -9.016   8.153  69.045  1.00  0.00    -0.144 A  
HETATM   20  C   UNL     1      -9.607   9.030  68.123  1.00  0.00    -0.164 A  
HETATM   21  C   UNL     1      -9.325  10.391  68.178  1.00  0.00    -0.145 A  
HETATM   22  C   UNL     1      -8.480  10.895  69.162  1.00  0.00    -0.064 A  
HETATM   23 CL   UNL     1     -10.002  11.450  67.004  1.00  0.00    -0.221 Cl 
HETATM   24  C   UNL     1      -7.907  10.029  70.094  1.00  0.00    -0.141 A  
ENDBRANCH   5   8
TORSDOF 1
ENDMDL
MODEL      103
REMARK 921   NORMALIZED FREE ENERGY PREDICTED BY IDOCK:   -3.71 KCAL/MOL
REMARK 922        TOTAL FREE ENERGY PREDICTED BY IDOCK:   -4.16 KCAL/MOL
REMARK 923 INTER-LIGAND FREE ENERGY PREDICTED BY IDOCK:   -4.76 KCAL/MOL
REMARK 924 INTRA-LIGAND FREE ENERGY PREDICTED BY IDOCK:    0.61 KCAL/MOL
REMARK 927      BINDING AFFINITY PREDICTED BY RF-SCORE:    0.00 PKD
ROOT
HETATM    1  C   UNL     1     -14.237  14.360  70.965  1.00  0.00     0.137 C  
HETATM    2  N   UNL     1     -12.877  14.114  71.435  1.00  0.00    -0.337 NA 
HETATM    3  C   UNL     1     -12.832  13.046  72.454  1.00  0.00    -0.017 C  
HETATM    4  C   UNL     1     -13.067  11.614  71.923  1.00  0.00    -0.385 C  
HETATM    5  N   UNL     1     -12.174  11.312  70.796  1.00  0.00    -0.377 NA 
HETATM    6  C   UNL     1     -12.150  12.336  69.741  1.00  0.00    -0.229 C  
HETATM    7  C   UNL     1     -11.961  13.753  70.327  1.00  0.00    -0.326 C  
ENDROOT
BRANCH   5   8
HETATM    8  C   UNL     1     -11.390  10.159  70.715  1.00  0.00    -0.354 C  
HETATM    9  N   UNL     1     -11.195   9.456  71.799  1.00  0.00    -0.360 NA 
HETATM   10  C   UNL     1     -10.422   8.281  71.877  1.00  0.00    -0.274 A  
HETATM   11  H   UNL     1     -11.638   9.784  72.657  1.00  0.00     0.000 HD 
HETATM   12  C   UNL     1      -9.548   8.175  72.969  1.00  0.00    -0.336 A  
HETATM   13  C   UNL     1      -8.768   7.032  73.171  1.00  0.00    -0.148 A  
HETATM   14  C   UNL     1      -8.857   5.966  72.285  1.00  0.00    -0.138 A  
HETATM   15  C   UNL     1      -9.743   6.034  71.210  1.00  0.00    -0.200 A  
HETATM   16  C   UNL     1     -10.537   7.175  71.015  1.00  0.00    -0.221 A  
HETATM   17  S   UNL     1     -11.640   7.188  69.609  1.00  0.00     0.172 SA 
HETATM   18  C   UNL     1     -10.898   8.574  68.779  1.00  0.00     0.043 A  
HETATM   19  C   UNL     1     -10.785   9.836  69.375  1.00  0.00    -0.250 A  
HETATM   20  C   UNL     1     -10.159  10.886  68.684  1.00  0.00    -0.200 A  
HETATM   21  C   UNL     1      -9.674  10.679  67.397  1.00  0.00    -0.167 A  
HETATM   22  C   UNL     1      -9.782   9.428  66.797  1.00  0.00    -0.257 A  
HETATM   23 CL   UNL     1      -8.967  11.987  66.532  1.00  0.00    -0.207 Cl 
HETATM   24  C   UNL     1     -10.385   8.376  67.488  1.00  0.00    -0.333 A  
ENDBRANCH   5   8
TORSDOF 1
ENDMDL
MODEL      104
REMARK 921   NORMALIZED FREE ENERGY PREDICTED BY IDOCK:   -3.65 KCAL/MOL
REMARK 922        TOTAL FREE ENERGY PREDICTED BY IDOCK:   -4.10 KCAL/MOL
REMARK 923 INTER-LIGAND FREE ENERGY PREDICTED BY IDOCK:   -3.70 KCAL/MOL
REMARK 924 INTRA-LIGAND FREE ENERGY PREDICTED BY IDOCK:   -0.40 KCAL/MOL
REMARK 927      BINDING AFFINITY PREDICTED BY RF-SCORE:    0.00 PKD
ROOT
HETATM    1  C   UNL     1      -9.603  11.727  67.448  1.00  0.00    -0.168 C  
HETATM    2  N   UNL     1      -8.973  10.856  66.460  1.00  0.00    -0.163 NA 
HETATM    3  C   UNL     1      -7.960   9.973  67.073  1.00  0.00    -0.106 C  
HETATM    4  C   UNL     1      -8.522   8.827  67.945  1.00  0.00    -0.126 C  
HETATM    5  N   UNL     1      -9.533   8.051  67.216  1.00  0.00    -0.149 NA 
HETATM    6  C   UNL     1     -10.573   8.859  66.562  1.00  0.00     0.019 C  
HETATM    7  C   UNL     1      -9.963  10.018  65.744  1.00  0.00    -0.276 C  
ENDROOT
BRANCH   5   8
HETATM    8  C   UNL     1      -9.523   6.657  67.123  1.00  0.00    -0.136 C  
HETATM    9  N   UNL     1      -9.395   6.107  65.945  1.00  0.00    -0.353 NA 
HETATM   10  C   UNL     1      -9.378   4.722  65.691  1.00  0.00    -0.163 A  
HETATM   11  H   UNL     1      -9.300   6.732  65.144  1.00  0.00     0.000 HD 
HETATM   12  C   UNL     1     -10.144   4.273  64.606  1.00  0.00    -0.134 A  
HETATM   13  C   UNL     1     -10.165   2.924  64.235  1.00  0.00    -0.024 A  
HETATM   14  C   UNL     1      -9.406   2.000  64.942  1.00  0.00    -0.083 A  
HETATM   15  C   UNL     1      -8.611   2.427  66.004  1.00  0.00    -0.110 A  
HETATM   16  C   UNL     1      -8.580   3.783  66.368  1.00  0.00    -0.113 A  
HETATM   17  S   UNL     1      -7.542   4.248  67.747  1.00  0.00    -0.069 SA 
HETATM   18  C   UNL     1      -8.849   4.850  68.792  1.00  0.00    -0.094 A  
HETATM   19  C   UNL     1      -9.708   5.886  68.402  1.00  0.00    -0.151 A  
HETATM   20  C   UNL     1     -10.744   6.297  69.256  1.00  0.00    -0.367 A  
HETATM   21  C   UNL     1     -10.900   5.694  70.500  1.00  0.00    -0.244 A  
HETATM   22  C   UNL     1     -10.051   4.665  70.895  1.00  0.00    -0.257 A  
HETATM   23 CL   UNL     1     -12.131   6.248  71.567  1.00  0.00    -0.279 Cl 
HETATM   24  C   UNL     1      -9.033   4.239  70.041  1.00  0.00    -0.152 A  
ENDBRANCH   5   8
TORSDOF 1
ENDMDL
MODEL      105
REMARK 921   NORMALIZED FREE ENERGY PREDICTED BY IDOCK:   -3.61 KCAL/MOL
REMARK 922        TOTAL FREE ENERGY PREDICTED BY IDOCK:   -4.06 KCAL/MOL
REMARK 923 INTER-LIGAND FREE ENERGY PREDICTED BY IDOCK:   -3.81 KCAL/MOL
REMARK 924 INTRA-LIGAND FREE ENERGY PREDICTED BY IDOCK:   -0.24 KCAL/MOL
REMARK 927      BINDING AFFINITY PREDICTED BY RF-SCORE:    0.00 PKD
ROOT
HETATM    1  C   UNL     1     -13.043  11.015  72.112  1.00  0.00    -0.195 C  
HETATM    2  N   UNL     1     -13.380  10.322  70.871  1.00  0.00    -0.298 NA 
HETATM    3  C   UNL     1     -12.612  10.847  69.723  1.00  0.00    -0.083 C  
HETATM    4  C   UNL     1     -11.114  10.471  69.702  1.00  0.00    -0.283 C  
HETATM    5  N   UNL     1     -10.927   9.021  69.850  1.00  0.00    -0.223 NA 
HETATM    6  C   UNL     1     -11.670   8.417  70.964  1.00  0.00    -0.267 C  
HETATM    7  C   UNL     1     -13.150   8.862  70.969  1.00  0.00     0.022 C  
ENDROOT
BRANCH   5   8
HETATM    8  C   UNL     1     -10.124   8.252  69.003  1.00  0.00    -0.202 C  
HETATM    9  N   UNL     1     -10.677   7.665  67.976  1.00  0.00    -0.422 NA 
HETATM   10  C   UNL     1     -10.003   6.852  67.044  1.00  0.00    -0.197 A  
HETATM   11  H   UNL     1     -11.678   7.806  67.839  1.00  0.00     0.000 HD 
HETATM   12  C   UNL     1     -10.636   5.655  66.681  1.00  0.00    -0.361 A  
HETATM   13  C   UNL     1     -10.080   4.794  65.729  1.00  0.00    -0.236 A  
HETATM   14  C   UNL     1      -8.879   5.124  65.115  1.00  0.00    -0.146 A  
HETATM   15  C   UNL     1      -8.247   6.325  65.435  1.00  0.00    -0.142 A  
HETATM   16  C   UNL     1      -8.812   7.196  66.380  1.00  0.00    -0.145 A  
HETATM   17  S   UNL     1      -7.935   8.710  66.742  1.00  0.00    -0.094 SA 
HETATM   18  C   UNL     1      -7.635   8.367  68.460  1.00  0.00    -0.096 A  
HETATM   19  C   UNL     1      -8.670   8.124  69.372  1.00  0.00    -0.143 A  
HETATM   20  C   UNL     1      -8.371   7.825  70.710  1.00  0.00    -0.116 A  
HETATM   21  C   UNL     1      -7.048   7.796  71.138  1.00  0.00    -0.050 A  
HETATM   22  C   UNL     1      -6.013   8.037  70.239  1.00  0.00    -0.029 A  
HETATM   23 CL   UNL     1      -6.693   7.493  72.793  1.00  0.00    -0.063 Cl 
HETATM   24  C   UNL     1      -6.305   8.314  68.903  1.00  0.00    -0.044 A  
ENDBRANCH   5   8
TORSDOF 1
ENDMDL
MODEL      106
REMARK 921   NORMALIZED FREE ENERGY PREDICTED BY IDOCK:   -3.60 KCAL/MOL
REMARK 922        TOTAL FREE ENERGY PREDICTED BY IDOCK:   -4.04 KCAL/MOL
REMARK 923 INTER-LIGAND FREE ENERGY PREDICTED BY IDOCK:   -3.74 KCAL/MOL
REMARK 924 INTRA-LIGAND FREE ENERGY PREDICTED BY IDOCK:   -0.30 KCAL/MOL
REMARK 927      BINDING AFFINITY PREDICTED BY RF-SCORE:    0.00 PKD
ROOT
HETATM    1  C   UNL     1     -13.167  10.020  71.065  1.00  0.00    -0.325 C  
HETATM    2  N   UNL     1     -11.785   9.862  71.509  1.00  0.00    -0.372 NA 
HETATM    3  C   UNL     1     -11.604   8.638  72.316  1.00  0.00    -0.354 C  
HETATM    4  C   UNL     1     -11.659   7.311  71.526  1.00  0.00    -0.275 C  
HETATM    5  N   UNL     1     -10.739   7.335  70.381  1.00  0.00    -0.230 NA 
HETATM    6  C   UNL     1     -10.846   8.531  69.533  1.00  0.00    -0.125 C  
HETATM    7  C   UNL     1     -10.836   9.827  70.372  1.00  0.00    -0.311 C  
ENDROOT
BRANCH   5   8
HETATM    8  C   UNL     1      -9.816   6.322  70.106  1.00  0.00    -0.170 C  
HETATM    9  N   UNL     1     -10.224   5.082  70.117  1.00  0.00    -0.265 NA 
HETATM   10  C   UNL     1      -9.413   3.957  69.871  1.00  0.00    -0.197 A  
HETATM   11  H   UNL     1     -11.210   4.914  70.322  1.00  0.00     0.000 HD 
HETATM   12  C   UNL     1      -9.571   2.867  70.739  1.00  0.00    -0.195 A  
HETATM   13  C   UNL     1      -8.851   1.681  70.561  1.00  0.00    -0.120 A  
HETATM   14  C   UNL     1      -7.963   1.563  69.499  1.00  0.00    -0.051 A  
HETATM   15  C   UNL     1      -7.813   2.621  68.603  1.00  0.00    -0.058 A  
HETATM   16  C   UNL     1      -8.546   3.806  68.774  1.00  0.00    -0.086 A  
HETATM   17  S   UNL     1      -8.290   5.119  67.588  1.00  0.00    -0.105 SA 
HETATM   18  C   UNL     1      -7.661   6.316  68.742  1.00  0.00    -0.100 A  
HETATM   19  C   UNL     1      -8.393   6.745  69.857  1.00  0.00    -0.135 A  
HETATM   20  C   UNL     1      -7.831   7.668  70.753  1.00  0.00    -0.096 A  
HETATM   21  C   UNL     1      -6.559   8.178  70.519  1.00  0.00    -0.036 A  
HETATM   22  C   UNL     1      -5.824   7.758  69.414  1.00  0.00    -0.030 A  
HETATM   23 CL   UNL     1      -5.903   9.358  71.585  1.00  0.00    -0.072 Cl 
HETATM   24  C   UNL     1      -6.371   6.824  68.532  1.00  0.00    -0.031 A  
ENDBRANCH   5   8
TORSDOF 1
ENDMDL
MODEL      107
REMARK 921   NORMALIZED FREE ENERGY PREDICTED BY IDOCK:   -3.59 KCAL/MOL
REMARK 922        TOTAL FREE ENERGY PREDICTED BY IDOCK:   -4.03 KCAL/MOL
REMARK 923 INTER-LIGAND FREE ENERGY PREDICTED BY IDOCK:   -3.88 KCAL/MOL
REMARK 924 INTRA-LIGAND FREE ENERGY PREDICTED BY IDOCK:   -0.16 KCAL/MOL
REMARK 927      BINDING AFFINITY PREDICTED BY RF-SCORE:    0.00 PKD
ROOT
HETATM    1  C   UNL     1     -13.176   9.761  70.713  1.00  0.00    -0.117 C  
HETATM    2  N   UNL     1     -12.125   9.590  71.712  1.00  0.00    -0.386 NA 
HETATM    3  C   UNL     1     -12.258   8.310  72.437  1.00  0.00    -0.352 C  
HETATM    4  C   UNL     1     -11.896   7.048  71.622  1.00  0.00    -0.313 C  
HETATM    5  N   UNL     1     -10.569   7.174  71.006  1.00  0.00    -0.220 NA 
HETATM    6  C   UNL     1     -10.350   8.431  70.275  1.00  0.00    -0.205 C  
HETATM    7  C   UNL     1     -10.771   9.658  71.113  1.00  0.00    -0.294 C  
ENDROOT
BRANCH   5   8
HETATM    8  C   UNL     1      -9.572   6.201  71.103  1.00  0.00    -0.175 C  
HETATM    9  N   UNL     1      -8.766   6.229  72.130  1.00  0.00    -0.133 NA 
HETATM   10  C   UNL     1      -7.710   5.325  72.361  1.00  0.00    -0.101 A  
HETATM   11  H   UNL     1      -8.912   6.965  72.822  1.00  0.00     0.000 HD 
HETATM   12  C   UNL     1      -6.490   5.877  72.777  1.00  0.00    -0.063 A  
HETATM   13  C   UNL     1      -5.389   5.070  73.079  1.00  0.00    -0.013 A  
HETATM   14  C   UNL     1      -5.494   3.689  72.978  1.00  0.00     0.000 A  
HETATM   15  C   UNL     1      -6.706   3.114  72.597  1.00  0.00    -0.026 A  
HETATM   16  C   UNL     1      -7.816   3.924  72.308  1.00  0.00    -0.076 A  
HETATM   17  S   UNL     1      -9.331   3.111  71.819  1.00  0.00    -0.137 SA 
HETATM   18  C   UNL     1      -9.428   3.823  70.193  1.00  0.00    -0.189 A  
HETATM   19  C   UNL     1      -9.476   5.206  69.978  1.00  0.00    -0.221 A  
HETATM   20  C   UNL     1      -9.519   5.712  68.669  1.00  0.00    -0.152 A  
HETATM   21  C   UNL     1      -9.540   4.839  67.586  1.00  0.00    -0.155 A  
HETATM   22  C   UNL     1      -9.493   3.463  67.790  1.00  0.00    -0.229 A  
HETATM   23 CL   UNL     1      -9.658   5.465  65.988  1.00  0.00    -0.168 Cl 
HETATM   24  C   UNL     1      -9.430   2.957  69.089  1.00  0.00    -0.154 A  
ENDBRANCH   5   8
TORSDOF 1
ENDMDL
MODEL      108
REMARK 921   NORMALIZED FREE ENERGY PREDICTED BY IDOCK:   -3.59 KCAL/MOL
REMARK 922        TOTAL FREE ENERGY PREDICTED BY IDOCK:   -4.03 KCAL/MOL
REMARK 923 INTER-LIGAND FREE ENERGY PREDICTED BY IDOCK:   -4.66 KCAL/MOL
REMARK 924 INTRA-LIGAND FREE ENERGY PREDICTED BY IDOCK:    0.63 KCAL/MOL
REMARK 927      BINDING AFFINITY PREDICTED BY RF-SCORE:    0.00 PKD
ROOT
HETATM    1  C   UNL     1     -12.368  13.398  63.092  1.00  0.00    -0.003 C  
HETATM    2  N   UNL     1     -12.646  12.669  64.327  1.00  0.00    -0.662 NA 
HETATM    3  C   UNL     1     -11.764  11.494  64.483  1.00  0.00    -0.011 C  
HETATM    4  C   UNL     1     -10.292  11.813  64.826  1.00  0.00    -0.288 C  
HETATM    5  N   UNL     1     -10.197  12.706  65.988  1.00  0.00    -0.266 NA 
HETATM    6  C   UNL     1     -11.057  13.896  65.918  1.00  0.00    -0.291 C  
HETATM    7  C   UNL     1     -12.506  13.530  65.525  1.00  0.00    -0.491 C  
ENDROOT
BRANCH   5   8
HETATM    8  C   UNL     1      -9.376  12.460  67.091  1.00  0.00    -0.199 C  
HETATM    9  N   UNL     1      -9.048  11.227  67.366  1.00  0.00    -0.150 NA 
HETATM   10  C   UNL     1      -8.240  10.822  68.446  1.00  0.00    -0.129 A  
HETATM   11  H   UNL     1      -9.406  10.497  66.749  1.00  0.00     0.000 HD 
HETATM   12  C   UNL     1      -8.681   9.712  69.180  1.00  0.00    -0.151 A  
HETATM   13  C   UNL     1      -7.934   9.195  70.244  1.00  0.00    -0.139 A  
HETATM   14  C   UNL     1      -6.721   9.779  70.586  1.00  0.00    -0.111 A  
HETATM   15  C   UNL     1      -6.245  10.863  69.851  1.00  0.00    -0.117 A  
HETATM   16  C   UNL     1      -6.988  11.373  68.774  1.00  0.00    -0.097 A  
HETATM   17  S   UNL     1      -6.313  12.770  67.888  1.00  0.00    -0.135 SA 
HETATM   18  C   UNL     1      -7.630  13.904  68.261  1.00  0.00    -0.130 A  
HETATM   19  C   UNL     1      -8.963  13.651  67.914  1.00  0.00    -0.195 A  
HETATM   20  C   UNL     1      -9.966  14.569  68.264  1.00  0.00    -0.229 A  
HETATM   21  C   UNL     1      -9.633  15.742  68.933  1.00  0.00    -0.229 A  
HETATM   22  C   UNL     1      -8.311  16.002  69.282  1.00  0.00    -0.217 A  
HETATM   23 CL   UNL     1     -10.858  16.891  69.301  1.00  0.00    -0.280 Cl 
HETATM   24  C   UNL     1      -7.313  15.083  68.953  1.00  0.00    -0.139 A  
ENDBRANCH   5   8
TORSDOF 1
ENDMDL
MODEL      109
REMARK 921   NORMALIZED FREE ENERGY PREDICTED BY IDOCK:   -3.55 KCAL/MOL
REMARK 922        TOTAL FREE ENERGY PREDICTED BY IDOCK:   -3.99 KCAL/MOL
REMARK 923 INTER-LIGAND FREE ENERGY PREDICTED BY IDOCK:   -4.27 KCAL/MOL
REMARK 924 INTRA-LIGAND FREE ENERGY PREDICTED BY IDOCK:    0.27 KCAL/MOL
REMARK 927      BINDING AFFINITY PREDICTED BY RF-SCORE:    0.00 PKD
ROOT
HETATM    1  C   UNL     1      -8.709   1.683  68.540  1.00  0.00    -0.072 C  
HETATM    2  N   UNL     1      -7.998   2.900  68.924  1.00  0.00    -0.056 NA 
HETATM    3  C   UNL     1      -8.375   4.048  68.074  1.00  0.00    -0.093 C  
HETATM    4  C   UNL     1      -9.790   4.617  68.320  1.00  0.00    -0.103 C  
HETATM    5  N   UNL     1     -10.003   4.916  69.743  1.00  0.00    -0.228 NA 
HETATM    6  C   UNL     1      -9.637   3.827  70.660  1.00  0.00    -0.189 C  
HETATM    7  C   UNL     1      -8.236   3.260  70.341  1.00  0.00    -0.051 C  
ENDROOT
BRANCH   5   8
HETATM    8  C   UNL     1     -10.497   6.135  70.214  1.00  0.00    -0.229 C  
HETATM    9  N   UNL     1     -11.596   6.136  70.920  1.00  0.00    -0.266 NA 
HETATM   10  C   UNL     1     -12.219   7.281  71.452  1.00  0.00    -0.349 A  
HETATM   11  H   UNL     1     -12.038   5.234  71.100  1.00  0.00     0.000 HD 
HETATM   12  C   UNL     1     -13.612   7.363  71.307  1.00  0.00    -0.341 A  
HETATM   13  C   UNL     1     -14.340   8.433  71.837  1.00  0.00    -0.561 A  
HETATM   14  C   UNL     1     -13.683   9.439  72.534  1.00  0.00    -0.419 A  
HETATM   15  C   UNL     1     -12.304   9.364  72.721  1.00  0.00     0.434 A  
HETATM   16  C   UNL     1     -11.575   8.283  72.200  1.00  0.00    -0.364 A  
HETATM   17  S   UNL     1      -9.809   8.264  72.475  1.00  0.00    -0.291 SA 
HETATM   18  C   UNL     1      -9.336   8.338  70.763  1.00  0.00    -0.161 A  
HETATM   19  C   UNL     1      -9.737   7.375  69.828  1.00  0.00    -0.170 A  
HETATM   20  C   UNL     1      -9.360   7.505  68.482  1.00  0.00    -0.142 A  
HETATM   21  C   UNL     1      -8.566   8.574  68.081  1.00  0.00    -0.138 A  
HETATM   22  C   UNL     1      -8.163   9.536  69.003  1.00  0.00    -0.113 A  
HETATM   23 CL   UNL     1      -8.055   8.690  66.443  1.00  0.00    -0.098 Cl 
HETATM   24  C   UNL     1      -8.553   9.422  70.338  1.00  0.00    -0.266 A  
ENDBRANCH   5   8
TORSDOF 1
ENDMDL
MODEL      110
REMARK 921   NORMALIZED FREE ENERGY PREDICTED BY IDOCK:   -3.49 KCAL/MOL
REMARK 922        TOTAL FREE ENERGY PREDICTED BY IDOCK:   -3.92 KCAL/MOL
REMARK 923 INTER-LIGAND FREE ENERGY PREDICTED BY IDOCK:   -3.54 KCAL/MOL
REMARK 924 INTRA-LIGAND FREE ENERGY PREDICTED BY IDOCK:   -0.38 KCAL/MOL
REMARK 927      BINDING AFFINITY PREDICTED BY RF-SCORE:    0.00 PKD
ROOT
HETATM    1  C   UNL     1     -11.049   4.845  72.975  1.00  0.00    -0.295 C  
HETATM    2  N   UNL     1     -11.207   6.260  72.652  1.00  0.00    -0.270 NA 
HETATM    3  C   UNL     1      -9.917   6.978  72.680  1.00  0.00    -0.173 C  
HETATM    4  C   UNL     1      -8.959   6.665  71.508  1.00  0.00    -0.139 C  
HETATM    5  N   UNL     1      -9.632   6.830  70.213  1.00  0.00    -0.165 NA 
HETATM    6  C   UNL     1     -10.934   6.155  70.107  1.00  0.00    -0.358 C  
HETATM    7  C   UNL     1     -11.834   6.462  71.325  1.00  0.00    -0.273 C  
ENDROOT
BRANCH   5   8
HETATM    8  C   UNL     1      -9.106   7.575  69.154  1.00  0.00    -0.138 C  
HETATM    9  N   UNL     1      -9.812   8.559  68.667  1.00  0.00    -0.165 NA 
HETATM   10  C   UNL     1      -9.422   9.389  67.599  1.00  0.00    -0.132 A  
HETATM   11  H   UNL     1     -10.721   8.741  69.095  1.00  0.00     0.000 HD 
HETATM   12  C   UNL     1     -10.394   9.659  66.625  1.00  0.00    -0.279 A  
HETATM   13  C   UNL     1     -10.131  10.508  65.545  1.00  0.00    -0.349 A  
HETATM   14  C   UNL     1      -8.886  11.112  65.427  1.00  0.00    -0.110 A  
HETATM   15  C   UNL     1      -7.913  10.886  66.400  1.00  0.00    -0.157 A  
HETATM   16  C   UNL     1      -8.182  10.044  67.491  1.00  0.00    -0.114 A  
HETATM   17  S   UNL     1      -6.880   9.799  68.690  1.00  0.00    -0.051 SA 
HETATM   18  C   UNL     1      -6.703   8.047  68.443  1.00  0.00    -0.067 A  
HETATM   19  C   UNL     1      -7.764   7.150  68.622  1.00  0.00    -0.120 A  
HETATM   20  C   UNL     1      -7.573   5.780  68.379  1.00  0.00    -0.089 A  
HETATM   21  C   UNL     1      -6.324   5.311  67.987  1.00  0.00    -0.039 A  
HETATM   22  C   UNL     1      -5.264   6.194  67.807  1.00  0.00    -0.004 A  
HETATM   23 CL   UNL     1      -6.082   3.624  67.754  1.00  0.00    -0.031 Cl 
HETATM   24  C   UNL     1      -5.455   7.560  68.026  1.00  0.00    -0.027 A  
ENDBRANCH   5   8
TORSDOF 1
ENDMDL
MODEL      111
REMARK 921   NORMALIZED FREE ENERGY PREDICTED BY IDOCK:   -3.46 KCAL/MOL
REMARK 922        TOTAL FREE ENERGY PREDICTED BY IDOCK:   -3.89 KCAL/MOL
REMARK 923 INTER-LIGAND FREE ENERGY PREDICTED BY IDOCK:   -3.51 KCAL/MOL
REMARK 924 INTRA-LIGAND FREE ENERGY PREDICTED BY IDOCK:   -0.38 KCAL/MOL
REMARK 927      BINDING AFFINITY PREDICTED BY RF-SCORE:    0.00 PKD
ROOT
HETATM    1  C   UNL     1      -9.774   1.610  64.158  1.00  0.00    -0.115 C  
HETATM    2  N   UNL     1      -9.549   2.974  63.686  1.00  0.00    -0.110 NA 
HETATM    3  C   UNL     1     -10.595   3.901  64.166  1.00  0.00    -0.229 C  
HETATM    4  C   UNL     1     -10.530   4.250  65.670  1.00  0.00    -0.123 C  
HETATM    5  N   UNL     1      -9.190   4.717  66.050  1.00  0.00    -0.141 NA 
HETATM    6  C   UNL     1      -8.089   3.856  65.596  1.00  0.00    -0.097 C  
HETATM    7  C   UNL     1      -8.226   3.496  64.100  1.00  0.00    -0.090 C  
ENDROOT
BRANCH   5   8
HETATM    8  C   UNL     1      -8.953   5.890  66.771  1.00  0.00    -0.120 C  
HETATM    9  N   UNL     1      -8.186   6.807  66.244  1.00  0.00    -0.115 NA 
HETATM   10  C   UNL     1      -7.847   8.031  66.852  1.00  0.00    -0.103 A  
HETATM   11  H   UNL     1      -7.801   6.620  65.318  1.00  0.00     0.000 HD 
HETATM   12  C   UNL     1      -6.502   8.419  66.777  1.00  0.00    -0.056 A  
HETATM   13  C   UNL     1      -6.062   9.637  67.305  1.00  0.00    -0.056 A  
HETATM   14  C   UNL     1      -6.969  10.496  67.912  1.00  0.00    -0.077 A  
HETATM   15  C   UNL     1      -8.318  10.148  67.970  1.00  0.00    -0.117 A  
HETATM   16  C   UNL     1      -8.762   8.932  67.427  1.00  0.00    -0.125 A  
HETATM   17  S   UNL     1     -10.504   8.555  67.549  1.00  0.00    -0.230 SA 
HETATM   18  C   UNL     1     -10.328   7.096  68.549  1.00  0.00    -0.183 A  
HETATM   19  C   UNL     1      -9.574   5.988  68.138  1.00  0.00    -0.122 A  
HETATM   20  C   UNL     1      -9.443   4.876  68.985  1.00  0.00    -0.205 A  
HETATM   21  C   UNL     1     -10.083   4.862  70.219  1.00  0.00    -0.252 A  
HETATM   22  C   UNL     1     -10.834   5.957  70.635  1.00  0.00    -0.363 A  
HETATM   23 CL   UNL     1      -9.971   3.470  71.223  1.00  0.00    -0.197 Cl 
HETATM   24  C   UNL     1     -10.950   7.074  69.806  1.00  0.00    -0.283 A  
ENDBRANCH   5   8
TORSDOF 1
ENDMDL
MODEL      112
REMARK 921   NORMALIZED FREE ENERGY PREDICTED BY IDOCK:   -3.40 KCAL/MOL
REMARK 922        TOTAL FREE ENERGY PREDICTED BY IDOCK:   -3.83 KCAL/MOL
REMARK 923 INTER-LIGAND FREE ENERGY PREDICTED BY IDOCK:   -3.57 KCAL/MOL
REMARK 924 INTRA-LIGAND FREE ENERGY PREDICTED BY IDOCK:   -0.26 KCAL/MOL
REMARK 927      BINDING AFFINITY PREDICTED BY RF-SCORE:    0.00 PKD
ROOT
HETATM    1  C   UNL     1     -10.858   2.212  74.270  1.00  0.00    -0.117 C  
HETATM    2  N   UNL     1      -9.885   3.300  74.310  1.00  0.00    -0.108 NA 
HETATM    3  C   UNL     1      -8.910   3.207  73.205  1.00  0.00    -0.080 C  
HETATM    4  C   UNL     1      -9.463   3.553  71.804  1.00  0.00    -0.142 C  
HETATM    5  N   UNL     1     -10.141   4.856  71.807  1.00  0.00    -0.196 NA 
HETATM    6  C   UNL     1     -11.120   5.035  72.888  1.00  0.00    -0.279 C  
HETATM    7  C   UNL     1     -10.535   4.630  74.259  1.00  0.00    -0.279 C  
ENDROOT
BRANCH   5   8
HETATM    8  C   UNL     1      -9.883   5.866  70.877  1.00  0.00    -0.179 C  
HETATM    9  N   UNL     1     -10.560   5.879  69.760  1.00  0.00    -0.272 NA 
HETATM   10  C   UNL     1     -10.406   6.823  68.726  1.00  0.00    -0.196 A  
HETATM   11  H   UNL     1     -11.258   5.145  69.626  1.00  0.00     0.000 HD 
HETATM   12  C   UNL     1     -10.366   6.320  67.418  1.00  0.00    -0.262 A  
HETATM   13  C   UNL     1     -10.262   7.169  66.312  1.00  0.00     0.171 A  
HETATM   14  C   UNL     1     -10.207   8.545  66.498  1.00  0.00    -0.286 A  
HETATM   15  C   UNL     1     -10.279   9.071  67.787  1.00  0.00    -0.284 A  
HETATM   16  C   UNL     1     -10.397   8.219  68.897  1.00  0.00    -0.215 A  
HETATM   17  S   UNL     1     -10.474   8.970  70.516  1.00  0.00    -0.243 SA 
HETATM   18  C   UNL     1      -8.985   8.237  71.153  1.00  0.00    -0.158 A  
HETATM   19  C   UNL     1      -8.798   6.850  71.221  1.00  0.00    -0.135 A  
HETATM   20  C   UNL     1      -7.586   6.329  71.702  1.00  0.00    -0.095 A  
HETATM   21  C   UNL     1      -6.583   7.188  72.136  1.00  0.00    -0.055 A  
HETATM   22  C   UNL     1      -6.760   8.567  72.072  1.00  0.00    -0.087 A  
HETATM   23 CL   UNL     1      -5.127   6.540  72.785  1.00  0.00    -0.031 Cl 
HETATM   24  C   UNL     1      -7.954   9.090  71.575  1.00  0.00    -0.042 A  
ENDBRANCH   5   8
TORSDOF 1
ENDMDL
MODEL      113
REMARK 921   NORMALIZED FREE ENERGY PREDICTED BY IDOCK:   -3.39 KCAL/MOL
REMARK 922        TOTAL FREE ENERGY PREDICTED BY IDOCK:   -3.82 KCAL/MOL
REMARK 923 INTER-LIGAND FREE ENERGY PREDICTED BY IDOCK:   -3.48 KCAL/MOL
REMARK 924 INTRA-LIGAND FREE ENERGY PREDICTED BY IDOCK:   -0.34 KCAL/MOL
REMARK 927      BINDING AFFINITY PREDICTED BY RF-SCORE:    0.00 PKD
ROOT
HETATM    1  C   UNL     1      -6.063   8.225  66.710  1.00  0.00    -0.054 C  
HETATM    2  N   UNL     1      -5.918   6.855  67.196  1.00  0.00    -0.021 NA 
HETATM    3  C   UNL     1      -5.551   6.816  68.626  1.00  0.00    -0.017 C  
HETATM    4  C   UNL     1      -6.678   7.205  69.610  1.00  0.00    -0.049 C  
HETATM    5  N   UNL     1      -7.899   6.430  69.352  1.00  0.00    -0.103 NA 
HETATM    6  C   UNL     1      -8.326   6.408  67.946  1.00  0.00    -0.118 C  
HETATM    7  C   UNL     1      -7.154   6.062  67.001  1.00  0.00    -0.070 C  
ENDROOT
BRANCH   5   8
HETATM    8  C   UNL     1      -8.609   5.749  70.344  1.00  0.00    -0.133 C  
HETATM    9  N   UNL     1      -8.460   4.456  70.446  1.00  0.00    -0.076 NA 
HETATM   10  C   UNL     1      -9.114   3.633  71.384  1.00  0.00    -0.116 A  
HETATM   11  H   UNL     1      -7.819   4.004  69.793  1.00  0.00     0.000 HD 
HETATM   12  C   UNL     1      -9.649   2.430  70.900  1.00  0.00    -0.188 A  
HETATM   13  C   UNL     1     -10.278   1.517  71.751  1.00  0.00    -0.177 A  
HETATM   14  C   UNL     1     -10.375   1.789  73.110  1.00  0.00    -0.194 A  
HETATM   15  C   UNL     1      -9.822   2.962  73.620  1.00  0.00    -0.151 A  
HETATM   16  C   UNL     1      -9.177   3.873  72.768  1.00  0.00    -0.111 A  
HETATM   17  S   UNL     1      -8.503   5.358  73.499  1.00  0.00    -0.111 SA 
HETATM   18  C   UNL     1      -9.521   6.507  72.602  1.00  0.00    -0.147 A  
HETATM   19  C   UNL     1      -9.537   6.566  71.202  1.00  0.00    -0.181 A  
HETATM   20  C   UNL     1     -10.387   7.471  70.548  1.00  0.00    -0.217 A  
HETATM   21  C   UNL     1     -11.193   8.329  71.289  1.00  0.00    -0.259 A  
HETATM   22  C   UNL     1     -11.183   8.278  72.679  1.00  0.00    -0.410 A  
HETATM   23 CL   UNL     1     -12.183   9.480  70.480  1.00  0.00    -0.164 Cl 
HETATM   24  C   UNL     1     -10.355   7.365  73.334  1.00  0.00    -0.411 A  
ENDBRANCH   5   8
TORSDOF 1
ENDMDL
MODEL      114
REMARK 921   NORMALIZED FREE ENERGY PREDICTED BY IDOCK:   -3.36 KCAL/MOL
REMARK 922        TOTAL FREE ENERGY PREDICTED BY IDOCK:   -3.79 KCAL/MOL
REMARK 923 INTER-LIGAND FREE ENERGY PREDICTED BY IDOCK:   -3.38 KCAL/MOL
REMARK 924 INTRA-LIGAND FREE ENERGY PREDICTED BY IDOCK:   -0.40 KCAL/MOL
REMARK 927      BINDING AFFINITY PREDICTED BY RF-SCORE:    0.00 PKD
ROOT
HETATM    1  C   UNL     1      -9.262   9.807  63.470  1.00  0.00    -0.184 C  
HETATM    2  N   UNL     1      -8.993  10.611  64.659  1.00  0.00    -0.196 NA 
HETATM    3  C   UNL     1     -10.052  10.457  65.678  1.00  0.00    -0.269 C  
HETATM    4  C   UNL     1     -10.068   9.100  66.416  1.00  0.00    -0.274 C  
HETATM    5  N   UNL     1      -8.746   8.781  66.971  1.00  0.00    -0.122 NA 
HETATM    6  C   UNL     1      -7.632   8.923  66.022  1.00  0.00    -0.094 C  
HETATM    7  C   UNL     1      -7.688  10.274  65.276  1.00  0.00    -0.144 C  
ENDROOT
BRANCH   5   8
HETATM    8  C   UNL     1      -8.535   8.386  68.294  1.00  0.00    -0.135 C  
HETATM    9  N   UNL     1      -7.820   9.154  69.072  1.00  0.00    -0.088 NA 
HETATM   10  C   UNL     1      -7.513   8.886  70.420  1.00  0.00    -0.081 A  
HETATM   11  H   UNL     1      -7.455  10.019  68.671  1.00  0.00     0.000 HD 
HETATM   12  C   UNL     1      -6.186   9.107  70.818  1.00  0.00    -0.053 A  
HETATM   13  C   UNL     1      -5.780   8.918  72.143  1.00  0.00    -0.064 A  
HETATM   14  C   UNL     1      -6.702   8.511  73.099  1.00  0.00    -0.074 A  
HETATM   15  C   UNL     1      -8.034   8.317  72.735  1.00  0.00    -0.194 A  
HETATM   16  C   UNL     1      -8.445   8.520  71.408  1.00  0.00    -0.172 A  
HETATM   17  S   UNL     1     -10.167   8.241  71.020  1.00  0.00    -0.196 SA 
HETATM   18  C   UNL     1      -9.904   6.916  69.865  1.00  0.00    -0.165 A  
HETATM   19  C   UNL     1      -9.119   7.064  68.714  1.00  0.00    -0.133 A  
HETATM   20  C   UNL     1      -8.919   5.972  67.855  1.00  0.00    -0.118 A  
HETATM   21  C   UNL     1      -9.522   4.750  68.133  1.00  0.00    -0.141 A  
HETATM   22  C   UNL     1     -10.303   4.593  69.273  1.00  0.00     0.100 A  
HETATM   23 CL   UNL     1      -9.325   3.435  67.041  1.00  0.00    -0.217 Cl 
HETATM   24  C   UNL     1     -10.488   5.670  70.141  1.00  0.00    -0.366 A  
ENDBRANCH   5   8
TORSDOF 1
ENDMDL
MODEL      115
REMARK 921   NORMALIZED FREE ENERGY PREDICTED BY IDOCK:   -3.36 KCAL/MOL
REMARK 922        TOTAL FREE ENERGY PREDICTED BY IDOCK:   -3.78 KCAL/MOL
REMARK 923 INTER-LIGAND FREE ENERGY PREDICTED BY IDOCK:   -3.35 KCAL/MOL
REMARK 924 INTRA-LIGAND FREE ENERGY PREDICTED BY IDOCK:   -0.44 KCAL/MOL
REMARK 927      BINDING AFFINITY PREDICTED BY RF-SCORE:    0.00 PKD
ROOT
HETATM    1  C   UNL     1      -9.370   4.938  65.388  1.00  0.00    -0.140 C  
HETATM    2  N   UNL     1      -9.672   4.191  66.606  1.00  0.00    -0.210 NA 
HETATM    3  C   UNL     1      -8.452   3.890  67.382  1.00  0.00    -0.099 C  
HETATM    4  C   UNL     1      -7.811   5.097  68.103  1.00  0.00    -0.087 C  
HETATM    5  N   UNL     1      -8.798   5.814  68.920  1.00  0.00    -0.110 NA 
HETATM    6  C   UNL     1     -10.051   6.141  68.223  1.00  0.00    -0.158 C  
HETATM    7  C   UNL     1     -10.625   4.914  67.480  1.00  0.00     0.132 C  
ENDROOT
BRANCH   5   8
HETATM    8  C   UNL     1      -8.594   6.158  70.259  1.00  0.00    -0.140 C  
HETATM    9  N   UNL     1      -7.746   7.111  70.540  1.00  0.00    -0.093 NA 
HETATM   10  C   UNL     1      -7.428   7.560  71.836  1.00  0.00    -0.080 A  
HETATM   11  H   UNL     1      -7.276   7.567  69.757  1.00  0.00     0.000 HD 
HETATM   12  C   UNL     1      -6.069   7.767  72.114  1.00  0.00    -0.040 A  
HETATM   13  C   UNL     1      -5.642   8.255  73.353  1.00  0.00    -0.059 A  
HETATM   14  C   UNL     1      -6.575   8.556  74.337  1.00  0.00    -0.166 A  
HETATM   15  C   UNL     1      -7.934   8.390  74.074  1.00  0.00    -0.210 A  
HETATM   16  C   UNL     1      -8.364   7.913  72.825  1.00  0.00    -0.151 A  
HETATM   17  S   UNL     1     -10.122   7.720  72.570  1.00  0.00    -0.268 SA 
HETATM   18  C   UNL     1     -10.098   5.961  72.309  1.00  0.00    -0.182 A  
HETATM   19  C   UNL     1      -9.346   5.361  71.291  1.00  0.00    -0.182 A  
HETATM   20  C   UNL     1      -9.340   3.964  71.153  1.00  0.00    -0.216 A  
HETATM   21  C   UNL     1     -10.101   3.177  72.011  1.00  0.00    -0.108 A  
HETATM   22  C   UNL     1     -10.851   3.764  73.025  1.00  0.00    -0.214 A  
HETATM   23 CL   UNL     1     -10.139   1.471  71.795  1.00  0.00    -0.222 Cl 
HETATM   24  C   UNL     1     -10.844   5.152  73.179  1.00  0.00    -0.344 A  
ENDBRANCH   5   8
TORSDOF 1
ENDMDL
MODEL      116
REMARK 921   NORMALIZED FREE ENERGY PREDICTED BY IDOCK:   -3.31 KCAL/MOL
REMARK 922        TOTAL FREE ENERGY PREDICTED BY IDOCK:   -3.74 KCAL/MOL
REMARK 923 INTER-LIGAND FREE ENERGY PREDICTED BY IDOCK:   -3.70 KCAL/MOL
REMARK 924 INTRA-LIGAND FREE ENERGY PREDICTED BY IDOCK:   -0.04 KCAL/MOL
REMARK 927      BINDING AFFINITY PREDICTED BY RF-SCORE:    0.00 PKD
ROOT
HETATM    1  C   UNL     1     -11.766   9.001  72.509  1.00  0.00     0.065 C  
HETATM    2  N   UNL     1     -12.028   8.595  71.131  1.00  0.00    -0.290 NA 
HETATM    3  C   UNL     1     -12.753   9.639  70.379  1.00  0.00     0.202 C  
HETATM    4  C   UNL     1     -11.921  10.888  70.011  1.00  0.00    -0.350 C  
HETATM    5  N   UNL     1     -10.673  10.515  69.333  1.00  0.00    -0.226 NA 
HETATM    6  C   UNL     1      -9.895   9.468  70.012  1.00  0.00    -0.233 C  
HETATM    7  C   UNL     1     -10.781   8.264  70.402  1.00  0.00    -0.232 C  
ENDROOT
BRANCH   5   8
HETATM    8  C   UNL     1     -10.242  11.083  68.132  1.00  0.00    -0.182 C  
HETATM    9  N   UNL     1     -10.767  10.659  67.013  1.00  0.00    -0.266 NA 
HETATM   10  C   UNL     1     -10.428  11.125  65.728  1.00  0.00    -0.246 A  
HETATM   11  H   UNL     1     -11.479   9.930  67.076  1.00  0.00     0.000 HD 
HETATM   12  C   UNL     1     -10.245  10.152  64.735  1.00  0.00    -0.122 A  
HETATM   13  C   UNL     1      -9.952  10.503  63.413  1.00  0.00    -0.251 A  
HETATM   14  C   UNL     1      -9.848  11.843  63.060  1.00  0.00    -0.160 A  
HETATM   15  C   UNL     1     -10.059  12.829  64.022  1.00  0.00    -0.226 A  
HETATM   16  C   UNL     1     -10.366  12.477  65.346  1.00  0.00    -0.282 A  
HETATM   17  S   UNL     1     -10.613  13.800  66.521  1.00  0.00    -0.281 SA 
HETATM   18  C   UNL     1      -9.261  13.375  67.594  1.00  0.00    -0.212 A  
HETATM   19  C   UNL     1      -9.159  12.125  68.218  1.00  0.00    -0.191 A  
HETATM   20  C   UNL     1      -8.051  11.834  69.029  1.00  0.00     0.125 A  
HETATM   21  C   UNL     1      -7.068  12.795  69.235  1.00  0.00     0.103 A  
HETATM   22  C   UNL     1      -7.161  14.040  68.620  1.00  0.00    -0.108 A  
HETATM   23 CL   UNL     1      -5.746  12.453  70.282  1.00  0.00    -0.154 Cl 
HETATM   24  C   UNL     1      -8.250  14.326  67.795  1.00  0.00    -0.178 A  
ENDBRANCH   5   8
TORSDOF 1
ENDMDL
MODEL      117
REMARK 921   NORMALIZED FREE ENERGY PREDICTED BY IDOCK:   -3.28 KCAL/MOL
REMARK 922        TOTAL FREE ENERGY PREDICTED BY IDOCK:   -3.70 KCAL/MOL
REMARK 923 INTER-LIGAND FREE ENERGY PREDICTED BY IDOCK:   -3.63 KCAL/MOL
REMARK 924 INTRA-LIGAND FREE ENERGY PREDICTED BY IDOCK:   -0.07 KCAL/MOL
REMARK 927      BINDING AFFINITY PREDICTED BY RF-SCORE:    0.00 PKD
ROOT
HETATM    1  C   UNL     1      -7.078  16.833  68.826  1.00  0.00    -0.202 C  
HETATM    2  N   UNL     1      -7.679  15.765  69.620  1.00  0.00    -0.147 NA 
HETATM    3  C   UNL     1      -8.977  15.331  69.065  1.00  0.00    -0.225 C  
HETATM    4  C   UNL     1      -8.896  14.516  67.755  1.00  0.00    -0.183 C  
HETATM    5  N   UNL     1      -7.970  13.384  67.889  1.00  0.00    -0.140 NA 
HETATM    6  C   UNL     1      -6.656  13.730  68.450  1.00  0.00    -0.096 C  
HETATM    7  C   UNL     1      -6.790  14.585  69.730  1.00  0.00    -0.126 C  
ENDROOT
BRANCH   5   8
HETATM    8  C   UNL     1      -8.291  12.072  67.534  1.00  0.00    -0.166 C  
HETATM    9  N   UNL     1      -7.868  11.610  66.387  1.00  0.00    -0.370 NA 
HETATM   10  C   UNL     1      -8.120  10.318  65.888  1.00  0.00    -0.143 A  
HETATM   11  H   UNL     1      -7.310  12.237  65.807  1.00  0.00     0.000 HD 
HETATM   12  C   UNL     1      -8.497  10.227  64.541  1.00  0.00    -0.183 A  
HETATM   13  C   UNL     1      -8.726   8.991  63.928  1.00  0.00    -0.110 A  
HETATM   14  C   UNL     1      -8.572   7.818  64.656  1.00  0.00     0.155 A  
HETATM   15  C   UNL     1      -8.165   7.880  65.988  1.00  0.00    -0.122 A  
HETATM   16  C   UNL     1      -7.922   9.120  66.599  1.00  0.00    -0.104 A  
HETATM   17  S   UNL     1      -7.413   9.116  68.313  1.00  0.00    -0.083 SA 
HETATM   18  C   UNL     1      -8.813  10.012  68.943  1.00  0.00    -0.148 A  
HETATM   19  C   UNL     1      -9.151  11.295  68.495  1.00  0.00    -0.173 A  
HETATM   20  C   UNL     1     -10.288  11.940  69.005  1.00  0.00    -0.058 A  
HETATM   21  C   UNL     1     -11.064  11.317  69.976  1.00  0.00    -0.037 A  
HETATM   22  C   UNL     1     -10.737  10.042  70.428  1.00  0.00    -0.369 A  
HETATM   23 CL   UNL     1     -12.418  12.141  70.644  1.00  0.00    -0.373 Cl 
HETATM   24  C   UNL     1      -9.619   9.388  69.908  1.00  0.00    -0.234 A  
ENDBRANCH   5   8
TORSDOF 1
ENDMDL
MODEL      118
REMARK 921   NORMALIZED FREE ENERGY PREDICTED BY IDOCK:   -3.27 KCAL/MOL
REMARK 922        TOTAL FREE ENERGY PREDICTED BY IDOCK:   -3.69 KCAL/MOL
REMARK 923 INTER-LIGAND FREE ENERGY PREDICTED BY IDOCK:   -3.29 KCAL/MOL
REMARK 924 INTRA-LIGAND FREE ENERGY PREDICTED BY IDOCK:   -0.40 KCAL/MOL
REMARK 927      BINDING AFFINITY PREDICTED BY RF-SCORE:    0.00 PKD
ROOT
HETATM    1  C   UNL     1     -12.869   8.796  72.192  1.00  0.00    -0.400 C  
HETATM    2  N   UNL     1     -12.150   7.678  72.797  1.00  0.00    -0.094 NA 
HETATM    3  C   UNL     1     -12.398   6.412  72.078  1.00  0.00    -0.216 C  
HETATM    4  C   UNL     1     -11.721   6.293  70.694  1.00  0.00    -0.215 C  
HETATM    5  N   UNL     1     -10.284   6.585  70.778  1.00  0.00    -0.185 NA 
HETATM    6  C   UNL     1      -9.951   7.825  71.493  1.00  0.00    -0.171 C  
HETATM    7  C   UNL     1     -10.689   7.919  72.847  1.00  0.00    -0.375 C  
ENDROOT
BRANCH   5   8
HETATM    8  C   UNL     1      -9.292   5.759  70.242  1.00  0.00    -0.156 C  
HETATM    9  N   UNL     1      -8.517   5.098  71.059  1.00  0.00    -0.118 NA 
HETATM   10  C   UNL     1      -7.471   4.239  70.671  1.00  0.00    -0.048 A  
HETATM   11  H   UNL     1      -8.683   5.214  72.060  1.00  0.00     0.000 HD 
HETATM   12  C   UNL     1      -6.263   4.363  71.373  1.00  0.00    -0.018 A  
HETATM   13  C   UNL     1      -5.173   3.531  71.103  1.00  0.00    -0.004 A  
HETATM   14  C   UNL     1      -5.277   2.547  70.128  1.00  0.00    -0.004 A  
HETATM   15  C   UNL     1      -6.478   2.382  69.440  1.00  0.00    -0.029 A  
HETATM   16  C   UNL     1      -7.578   3.209  69.720  1.00  0.00    -0.044 A  
HETATM   17  S   UNL     1      -9.078   2.939  68.788  1.00  0.00    -0.167 SA 
HETATM   18  C   UNL     1      -9.126   4.537  68.010  1.00  0.00    -0.123 A  
HETATM   19  C   UNL     1      -9.164   5.730  68.743  1.00  0.00    -0.128 A  
HETATM   20  C   UNL     1      -9.167   6.965  68.074  1.00  0.00    -0.121 A  
HETATM   21  C   UNL     1      -9.157   7.002  66.684  1.00  0.00    -0.152 A  
HETATM   22  C   UNL     1      -9.119   5.822  65.948  1.00  0.00    -0.148 A  
HETATM   23 CL   UNL     1      -9.226   8.517  65.871  1.00  0.00    -0.257 Cl 
HETATM   24  C   UNL     1      -9.096   4.593  66.609  1.00  0.00    -0.119 A  
ENDBRANCH   5   8
TORSDOF 1
ENDMDL
MODEL      119
REMARK 921   NORMALIZED FREE ENERGY PREDICTED BY IDOCK:   -3.23 KCAL/MOL
REMARK 922        TOTAL FREE ENERGY PREDICTED BY IDOCK:   -3.65 KCAL/MOL
REMARK 923 INTER-LIGAND FREE ENERGY PREDICTED BY IDOCK:   -3.24 KCAL/MOL
REMARK 924 INTRA-LIGAND FREE ENERGY PREDICTED BY IDOCK:   -0.41 KCAL/MOL
REMARK 927      BINDING AFFINITY PREDICTED BY RF-SCORE:    0.00 PKD
ROOT
HETATM    1  C   UNL     1      -9.869   4.447  74.071  1.00  0.00    -0.135 C  
HETATM    2  N   UNL     1      -9.583   5.667  73.322  1.00  0.00    -0.146 NA 
HETATM    3  C   UNL     1      -8.238   5.634  72.711  1.00  0.00    -0.112 C  
HETATM    4  C   UNL     1      -8.082   4.678  71.506  1.00  0.00    -0.102 C  
HETATM    5  N   UNL     1      -9.120   4.923  70.496  1.00  0.00    -0.126 NA 
HETATM    6  C   UNL     1     -10.490   4.985  71.026  1.00  0.00    -0.141 C  
HETATM    7  C   UNL     1     -10.582   5.914  72.257  1.00  0.00    -0.217 C  
ENDROOT
BRANCH   5   8
HETATM    8  C   UNL     1      -8.852   5.100  69.136  1.00  0.00    -0.092 C  
HETATM    9  N   UNL     1      -8.231   4.150  68.490  1.00  0.00    -0.082 NA 
HETATM   10  C   UNL     1      -7.883   4.188  67.126  1.00  0.00    -0.096 A  
HETATM   11  H   UNL     1      -7.977   3.313  69.016  1.00  0.00     0.000 HD 
HETATM   12  C   UNL     1      -6.591   3.756  66.795  1.00  0.00    -0.045 A  
HETATM   13  C   UNL     1      -6.154   3.708  65.467  1.00  0.00    -0.024 A  
HETATM   14  C   UNL     1      -7.013   4.084  64.441  1.00  0.00    -0.046 A  
HETATM   15  C   UNL     1      -8.314   4.485  64.742  1.00  0.00    -0.116 A  
HETATM   16  C   UNL     1      -8.756   4.521  66.074  1.00  0.00    -0.115 A  
HETATM   17  S   UNL     1     -10.434   5.056  66.377  1.00  0.00    -0.250 SA 
HETATM   18  C   UNL     1     -10.020   6.489  67.344  1.00  0.00    -0.143 A  
HETATM   19  C   UNL     1      -9.268   6.410  68.523  1.00  0.00    -0.124 A  
HETATM   20  C   UNL     1      -8.943   7.581  69.228  1.00  0.00    -0.136 A  
HETATM   21  C   UNL     1      -9.390   8.815  68.769  1.00  0.00    -0.141 A  
HETATM   22  C   UNL     1     -10.137   8.903  67.599  1.00  0.00    -0.274 A  
HETATM   23 CL   UNL     1      -9.042  10.237  69.672  1.00  0.00    -0.191 Cl 
HETATM   24  C   UNL     1     -10.445   7.744  66.884  1.00  0.00    -0.388 A  
ENDBRANCH   5   8
TORSDOF 1
ENDMDL
MODEL      120
REMARK 921   NORMALIZED FREE ENERGY PREDICTED BY IDOCK:   -3.22 KCAL/MOL
REMARK 922        TOTAL FREE ENERGY PREDICTED BY IDOCK:   -3.64 KCAL/MOL
REMARK 923 INTER-LIGAND FREE ENERGY PREDICTED BY IDOCK:   -3.28 KCAL/MOL
REMARK 924 INTRA-LIGAND FREE ENERGY PREDICTED BY IDOCK:   -0.36 KCAL/MOL
REMARK 927      BINDING AFFINITY PREDICTED BY RF-SCORE:    0.00 PKD
ROOT
HETATM    1  C   UNL     1     -10.717   9.290  69.336  1.00  0.00    -0.208 C  
HETATM    2  N   UNL     1     -10.115   8.018  69.724  1.00  0.00    -0.192 NA 
HETATM    3  C   UNL     1     -11.016   6.879  69.454  1.00  0.00    -0.237 C  
HETATM    4  C   UNL     1     -11.192   6.512  67.964  1.00  0.00    -0.148 C  
HETATM    5  N   UNL     1      -9.892   6.330  67.304  1.00  0.00    -0.129 NA 
HETATM    6  C   UNL     1      -8.929   7.417  67.535  1.00  0.00    -0.126 C  
HETATM    7  C   UNL     1      -8.827   7.778  69.034  1.00  0.00    -0.138 C  
ENDROOT
BRANCH   5   8
HETATM    8  C   UNL     1      -9.565   5.216  66.527  1.00  0.00    -0.158 C  
HETATM    9  N   UNL     1      -9.978   5.172  65.289  1.00  0.00    -0.373 NA 
HETATM   10  C   UNL     1      -9.739   4.115  64.389  1.00  0.00    -0.155 A  
HETATM   11  H   UNL     1     -10.518   5.967  64.946  1.00  0.00     0.000 HD 
HETATM   12  C   UNL     1     -10.829   3.691  63.615  1.00  0.00    -0.207 A  
HETATM   13  C   UNL     1     -10.694   2.681  62.656  1.00  0.00    -0.174 A  
HETATM   14  C   UNL     1      -9.458   2.082  62.449  1.00  0.00    -0.089 A  
HETATM   15  C   UNL     1      -8.352   2.510  63.183  1.00  0.00    -0.081 A  
HETATM   16  C   UNL     1      -8.484   3.533  64.136  1.00  0.00    -0.090 A  
HETATM   17  S   UNL     1      -7.021   4.018  65.041  1.00  0.00    -0.059 SA 
HETATM   18  C   UNL     1      -7.622   3.570  66.653  1.00  0.00    -0.080 A  
HETATM   19  C   UNL     1      -8.789   4.116  67.201  1.00  0.00    -0.124 A  
HETATM   20  C   UNL     1      -9.233   3.699  68.466  1.00  0.00    -0.220 A  
HETATM   21  C   UNL     1      -8.500   2.763  69.186  1.00  0.00    -0.063 A  
HETATM   22  C   UNL     1      -7.339   2.214  68.650  1.00  0.00    -0.044 A  
HETATM   23 CL   UNL     1      -9.015   2.305  70.762  1.00  0.00    -0.140 Cl 
HETATM   24  C   UNL     1      -6.905   2.610  67.384  1.00  0.00    -0.044 A  
ENDBRANCH   5   8
TORSDOF 1
ENDMDL
MODEL      121
REMARK 921   NORMALIZED FREE ENERGY PREDICTED BY IDOCK:   -3.22 KCAL/MOL
REMARK 922        TOTAL FREE ENERGY PREDICTED BY IDOCK:   -3.64 KCAL/MOL
REMARK 923 INTER-LIGAND FREE ENERGY PREDICTED BY IDOCK:   -3.61 KCAL/MOL
REMARK 924 INTRA-LIGAND FREE ENERGY PREDICTED BY IDOCK:   -0.03 KCAL/MOL
REMARK 927      BINDING AFFINITY PREDICTED BY RF-SCORE:    0.00 PKD
ROOT
HETATM    1  C   UNL     1      -9.276   2.334  65.026  1.00  0.00    -0.114 C  
HETATM    2  N   UNL     1      -9.559   3.614  64.383  1.00  0.00    -0.154 NA 
HETATM    3  C   UNL     1     -10.741   4.276  64.972  1.00  0.00    -0.111 C  
HETATM    4  C   UNL     1     -10.533   4.863  66.387  1.00  0.00    -0.280 C  
HETATM    5  N   UNL     1      -9.355   5.739  66.431  1.00  0.00    -0.153 NA 
HETATM    6  C   UNL     1      -8.136   5.158  65.849  1.00  0.00    -0.109 C  
HETATM    7  C   UNL     1      -8.407   4.542  64.459  1.00  0.00    -0.115 C  
ENDROOT
BRANCH   5   8
HETATM    8  C   UNL     1      -9.368   7.030  66.965  1.00  0.00    -0.146 C  
HETATM    9  N   UNL     1      -9.857   8.002  66.244  1.00  0.00    -0.450 NA 
HETATM   10  C   UNL     1      -9.928   9.352  66.640  1.00  0.00    -0.258 A  
HETATM   11  H   UNL     1     -10.218   7.765  65.319  1.00  0.00     0.000 HD 
HETATM   12  C   UNL     1      -9.544  10.307  65.688  1.00  0.00    -0.289 A  
HETATM   13  C   UNL     1      -9.618  11.677  65.956  1.00  0.00    -0.249 A  
HETATM   14  C   UNL     1     -10.090  12.117  67.187  1.00  0.00    -0.220 A  
HETATM   15  C   UNL     1     -10.510  11.188  68.138  1.00  0.00    -0.215 A  
HETATM   16  C   UNL     1     -10.448   9.813  67.863  1.00  0.00    -0.239 A  
HETATM   17  S   UNL     1     -10.996   8.686  69.138  1.00  0.00     0.167 SA 
HETATM   18  C   UNL     1      -9.434   7.869  69.372  1.00  0.00    -0.156 A  
HETATM   19  C   UNL     1      -8.766   7.209  68.333  1.00  0.00    -0.125 A  
HETATM   20  C   UNL     1      -7.519   6.610  68.570  1.00  0.00    -0.092 A  
HETATM   21  C   UNL     1      -6.959   6.648  69.843  1.00  0.00    -0.063 A  
HETATM   22  C   UNL     1      -7.615   7.302  70.881  1.00  0.00    -0.084 A  
HETATM   23 CL   UNL     1      -5.461   5.856  70.140  1.00  0.00    -0.012 Cl 
HETATM   24  C   UNL     1      -8.846   7.917  70.645  1.00  0.00    -0.140 A  
ENDBRANCH   5   8
TORSDOF 1
ENDMDL
MODEL      122
REMARK 921   NORMALIZED FREE ENERGY PREDICTED BY IDOCK:   -3.21 KCAL/MOL
REMARK 922        TOTAL FREE ENERGY PREDICTED BY IDOCK:   -3.63 KCAL/MOL
REMARK 923 INTER-LIGAND FREE ENERGY PREDICTED BY IDOCK:   -3.19 KCAL/MOL
REMARK 924 INTRA-LIGAND FREE ENERGY PREDICTED BY IDOCK:   -0.44 KCAL/MOL
REMARK 927      BINDING AFFINITY PREDICTED BY RF-SCORE:    0.00 PKD
ROOT
HETATM    1  C   UNL     1     -12.577   9.682  72.246  1.00  0.00    -0.237 C  
HETATM    2  N   UNL     1     -11.250   9.739  71.638  1.00  0.00    -0.245 NA 
HETATM    3  C   UNL     1     -10.333   8.741  72.225  1.00  0.00    -0.250 C  
HETATM    4  C   UNL     1     -10.613   7.273  71.833  1.00  0.00    -0.212 C  
HETATM    5  N   UNL     1     -10.703   7.120  70.375  1.00  0.00    -0.228 NA 
HETATM    6  C   UNL     1     -11.588   8.088  69.710  1.00  0.00     0.385 C  
HETATM    7  C   UNL     1     -11.300   9.534  70.172  1.00  0.00    -0.199 C  
ENDROOT
BRANCH   5   8
HETATM    8  C   UNL     1     -10.003   6.151  69.652  1.00  0.00    -0.168 C  
HETATM    9  N   UNL     1     -10.275   4.892  69.864  1.00  0.00    -0.262 NA 
HETATM   10  C   UNL     1      -9.648   3.805  69.223  1.00  0.00    -0.138 A  
HETATM   11  H   UNL     1     -11.000   4.677  70.550  1.00  0.00     0.000 HD 
HETATM   12  C   UNL     1      -9.271   2.728  70.037  1.00  0.00    -0.205 A  
HETATM   13  C   UNL     1      -8.683   1.577  69.501  1.00  0.00    -0.103 A  
HETATM   14  C   UNL     1      -8.472   1.482  68.132  1.00  0.00    -0.082 A  
HETATM   15  C   UNL     1      -8.869   2.526  67.297  1.00  0.00    -0.158 A  
HETATM   16  C   UNL     1      -9.471   3.675  67.834  1.00  0.00    -0.169 A  
HETATM   17  S   UNL     1      -9.942   4.972  66.699  1.00  0.00    -0.248 SA 
HETATM   18  C   UNL     1      -8.874   6.226  67.366  1.00  0.00    -0.107 A  
HETATM   19  C   UNL     1      -8.942   6.641  68.703  1.00  0.00    -0.124 A  
HETATM   20  C   UNL     1      -8.049   7.612  69.183  1.00  0.00    -0.125 A  
HETATM   21  C   UNL     1      -7.114   8.182  68.325  1.00  0.00    -0.081 A  
HETATM   22  C   UNL     1      -7.039   7.776  66.996  1.00  0.00    -0.085 A  
HETATM   23 CL   UNL     1      -6.067   9.417  68.905  1.00  0.00    -0.043 Cl 
HETATM   24  C   UNL     1      -7.911   6.796  66.520  1.00  0.00    -0.104 A  
ENDBRANCH   5   8
TORSDOF 1
ENDMDL
MODEL      123
REMARK 921   NORMALIZED FREE ENERGY PREDICTED BY IDOCK:   -3.13 KCAL/MOL
REMARK 922        TOTAL FREE ENERGY PREDICTED BY IDOCK:   -3.54 KCAL/MOL
REMARK 923 INTER-LIGAND FREE ENERGY PREDICTED BY IDOCK:   -3.14 KCAL/MOL
REMARK 924 INTRA-LIGAND FREE ENERGY PREDICTED BY IDOCK:   -0.40 KCAL/MOL
REMARK 927      BINDING AFFINITY PREDICTED BY RF-SCORE:    0.00 PKD
ROOT
HETATM    1  C   UNL     1      -8.012   2.489  63.115  1.00  0.00    -0.069 C  
HETATM    2  N   UNL     1      -8.203   2.159  64.524  1.00  0.00    -0.081 NA 
HETATM    3  C   UNL     1      -7.159   2.765  65.376  1.00  0.00    -0.057 C  
HETATM    4  C   UNL     1      -7.265   4.295  65.566  1.00  0.00    -0.068 C  
HETATM    5  N   UNL     1      -8.609   4.684  66.013  1.00  0.00    -0.114 NA 
HETATM    6  C   UNL     1      -9.709   4.109  65.224  1.00  0.00    -0.199 C  
HETATM    7  C   UNL     1      -9.531   2.588  65.022  1.00  0.00    -0.051 C  
ENDROOT
BRANCH   5   8
HETATM    8  C   UNL     1      -8.852   5.519  67.107  1.00  0.00    -0.106 C  
HETATM    9  N   UNL     1      -9.403   5.009  68.175  1.00  0.00    -0.120 NA 
HETATM   10  C   UNL     1      -9.717   5.723  69.348  1.00  0.00    -0.155 A  
HETATM   11  H   UNL     1      -9.623   4.012  68.160  1.00  0.00     0.000 HD 
HETATM   12  C   UNL     1     -10.975   5.475  69.916  1.00  0.00    -0.192 A  
HETATM   13  C   UNL     1     -11.374   6.094  71.106  1.00  0.00    -0.340 A  
HETATM   14  C   UNL     1     -10.511   6.969  71.754  1.00  0.00    -0.223 A  
HETATM   15  C   UNL     1      -9.243   7.206  71.226  1.00  0.00    -0.151 A  
HETATM   16  C   UNL     1      -8.837   6.575  70.040  1.00  0.00    -0.144 A  
HETATM   17  S   UNL     1      -7.200   6.939  69.423  1.00  0.00    -0.091 SA 
HETATM   18  C   UNL     1      -7.718   7.666  67.886  1.00  0.00    -0.115 A  
HETATM   19  C   UNL     1      -8.494   6.972  66.949  1.00  0.00    -0.119 A  
HETATM   20  C   UNL     1      -8.902   7.609  65.766  1.00  0.00    -0.134 A  
HETATM   21  C   UNL     1      -8.512   8.920  65.512  1.00  0.00    -0.159 A  
HETATM   22  C   UNL     1      -7.741   9.617  66.437  1.00  0.00    -0.101 A  
HETATM   23 CL   UNL     1      -8.961   9.671  64.031  1.00  0.00    -0.266 Cl 
HETATM   24  C   UNL     1      -7.351   8.994  67.624  1.00  0.00    -0.084 A  
ENDBRANCH   5   8
TORSDOF 1
ENDMDL
MODEL      124
REMARK 921   NORMALIZED FREE ENERGY PREDICTED BY IDOCK:   -3.04 KCAL/MOL
REMARK 922        TOTAL FREE ENERGY PREDICTED BY IDOCK:   -3.45 KCAL/MOL
REMARK 923 INTER-LIGAND FREE ENERGY PREDICTED BY IDOCK:   -3.50 KCAL/MOL
REMARK 924 INTRA-LIGAND FREE ENERGY PREDICTED BY IDOCK:    0.05 KCAL/MOL
REMARK 927      BINDING AFFINITY PREDICTED BY RF-SCORE:    0.00 PKD
ROOT
HETATM    1  C   UNL     1     -13.634  10.100  72.447  1.00  0.00    -0.008 C  
HETATM    2  N   UNL     1     -13.288   9.299  71.275  1.00  0.00    -0.303 NA 
HETATM    3  C   UNL     1     -12.861  10.142  70.141  1.00  0.00     0.096 C  
HETATM    4  C   UNL     1     -11.469  10.796  70.290  1.00  0.00    -0.319 C  
HETATM    5  N   UNL     1     -10.445   9.798  70.627  1.00  0.00    -0.302 NA 
HETATM    6  C   UNL     1     -10.801   8.907  71.740  1.00  0.00    -0.365 C  
HETATM    7  C   UNL     1     -12.218   8.317  71.568  1.00  0.00    -0.301 C  
ENDROOT
BRANCH   5   8
HETATM    8  C   UNL     1      -9.230   9.674  69.949  1.00  0.00    -0.229 C  
HETATM    9  N   UNL     1      -8.723  10.731  69.372  1.00  0.00    -0.383 NA 
HETATM   10  C   UNL     1      -7.516  10.760  68.646  1.00  0.00    -0.102 A  
HETATM   11  H   UNL     1      -9.243  11.605  69.453  1.00  0.00     0.000 HD 
HETATM   12  C   UNL     1      -7.533  11.454  67.427  1.00  0.00    -0.120 A  
HETATM   13  C   UNL     1      -6.380  11.586  66.647  1.00  0.00    -0.103 A  
HETATM   14  C   UNL     1      -5.182  11.033  67.081  1.00  0.00    -0.048 A  
HETATM   15  C   UNL     1      -5.132  10.368  68.305  1.00  0.00    -0.034 A  
HETATM   16  C   UNL     1      -6.286  10.246  69.095  1.00  0.00    -0.045 A  
HETATM   17  S   UNL     1      -6.141   9.371  70.647  1.00  0.00    -0.074 SA 
HETATM   18  C   UNL     1      -7.277   8.062  70.249  1.00  0.00    -0.053 A  
HETATM   19  C   UNL     1      -8.612   8.303  69.900  1.00  0.00    -0.125 A  
HETATM   20  C   UNL     1      -9.454   7.231  69.563  1.00  0.00    -0.155 A  
HETATM   21  C   UNL     1      -8.970   5.928  69.603  1.00  0.00    -0.130 A  
HETATM   22  C   UNL     1      -7.645   5.679  69.948  1.00  0.00    -0.075 A  
HETATM   23 CL   UNL     1     -10.025   4.616  69.252  1.00  0.00    -0.262 Cl 
HETATM   24  C   UNL     1      -6.799   6.743  70.264  1.00  0.00    -0.061 A  
ENDBRANCH   5   8
TORSDOF 1
ENDMDL
MODEL      125
REMARK 921   NORMALIZED FREE ENERGY PREDICTED BY IDOCK:   -3.04 KCAL/MOL
REMARK 922        TOTAL FREE ENERGY PREDICTED BY IDOCK:   -3.45 KCAL/MOL
REMARK 923 INTER-LIGAND FREE ENERGY PREDICTED BY IDOCK:   -3.82 KCAL/MOL
REMARK 924 INTRA-LIGAND FREE ENERGY PREDICTED BY IDOCK:    0.37 KCAL/MOL
REMARK 927      BINDING AFFINITY PREDICTED BY RF-SCORE:    0.00 PKD
ROOT
HETATM    1  C   UNL     1     -11.378   5.228  72.710  1.00  0.00    -0.276 C  
HETATM    2  N   UNL     1     -11.316   6.644  72.357  1.00  0.00    -0.267 NA 
HETATM    3  C   UNL     1      -9.923   7.119  72.234  1.00  0.00    -0.172 C  
HETATM    4  C   UNL     1      -9.162   6.620  70.986  1.00  0.00    -0.160 C  
HETATM    5  N   UNL     1      -9.923   6.883  69.758  1.00  0.00    -0.177 NA 
HETATM    6  C   UNL     1     -11.328   6.452  69.803  1.00  0.00    -0.427 C  
HETATM    7  C   UNL     1     -12.031   6.934  71.092  1.00  0.00    -0.366 C  
ENDROOT
BRANCH   5   8
HETATM    8  C   UNL     1      -9.385   7.505  68.629  1.00  0.00    -0.143 C  
HETATM    9  N   UNL     1      -9.532   6.930  67.465  1.00  0.00    -0.127 NA 
HETATM   10  C   UNL     1      -9.037   7.428  66.244  1.00  0.00    -0.156 A  
HETATM   11  H   UNL     1     -10.046   6.049  67.439  1.00  0.00     0.000 HD 
HETATM   12  C   UNL     1      -8.412   6.503  65.395  1.00  0.00    -0.119 A  
HETATM   13  C   UNL     1      -7.926   6.877  64.139  1.00  0.00    -0.078 A  
HETATM   14  C   UNL     1      -8.067   8.189  63.704  1.00  0.00    -0.115 A  
HETATM   15  C   UNL     1      -8.714   9.119  64.516  1.00  0.00    -0.192 A  
HETATM   16  C   UNL     1      -9.215   8.741  65.772  1.00  0.00    -0.206 A  
HETATM   17  S   UNL     1     -10.023   9.995  66.755  1.00  0.00    -0.221 SA 
HETATM   18  C   UNL     1      -8.882   9.952  68.118  1.00  0.00    -0.118 A  
HETATM   19  C   UNL     1      -8.627   8.787  68.851  1.00  0.00    -0.136 A  
HETATM   20  C   UNL     1      -7.690   8.806  69.896  1.00  0.00    -0.081 A  
HETATM   21  C   UNL     1      -7.034   9.988  70.221  1.00  0.00    -0.150 A  
HETATM   22  C   UNL     1      -7.280  11.151  69.498  1.00  0.00    -0.058 A  
HETATM   23 CL   UNL     1      -5.935  10.018  71.544  1.00  0.00     0.071 Cl 
HETATM   24  C   UNL     1      -8.196  11.132  68.444  1.00  0.00    -0.144 A  
ENDBRANCH   5   8
TORSDOF 1
ENDMDL
MODEL      126
REMARK 921   NORMALIZED FREE ENERGY PREDICTED BY IDOCK:   -3.04 KCAL/MOL
REMARK 922        TOTAL FREE ENERGY PREDICTED BY IDOCK:   -3.45 KCAL/MOL
REMARK 923 INTER-LIGAND FREE ENERGY PREDICTED BY IDOCK:   -3.61 KCAL/MOL
REMARK 924 INTRA-LIGAND FREE ENERGY PREDICTED BY IDOCK:    0.17 KCAL/MOL
REMARK 927      BINDING AFFINITY PREDICTED BY RF-SCORE:    0.00 PKD
ROOT
HETATM    1  C   UNL     1      -7.023  20.897  65.435  1.00  0.00     0.100 C  
HETATM    2  N   UNL     1      -6.956  20.326  66.778  1.00  0.00    -0.240 NA 
HETATM    3  C   UNL     1      -8.226  19.679  67.164  1.00  0.00    -0.289 C  
HETATM    4  C   UNL     1      -8.533  18.344  66.449  1.00  0.00    -0.245 C  
HETATM    5  N   UNL     1      -7.405  17.410  66.560  1.00  0.00    -0.247 NA 
HETATM    6  C   UNL     1      -6.098  17.981  66.206  1.00  0.00    -0.199 C  
HETATM    7  C   UNL     1      -5.860  19.337  66.908  1.00  0.00    -0.166 C  
ENDROOT
BRANCH   5   8
HETATM    8  C   UNL     1      -7.535  16.084  66.980  1.00  0.00    -0.229 C  
HETATM    9  N   UNL     1      -6.460  15.428  67.328  1.00  0.00    -0.309 NA 
HETATM   10  C   UNL     1      -6.430  14.088  67.761  1.00  0.00    -0.170 A  
HETATM   11  H   UNL     1      -5.571  15.926  67.283  1.00  0.00     0.000 HD 
HETATM   12  C   UNL     1      -5.423  13.276  67.221  1.00  0.00     0.266 A  
HETATM   13  C   UNL     1      -5.270  11.942  67.614  1.00  0.00    -0.071 A  
HETATM   14  C   UNL     1      -6.123  11.400  68.568  1.00  0.00    -0.045 A  
HETATM   15  C   UNL     1      -7.111  12.196  69.144  1.00  0.00    -0.015 A  
HETATM   16  C   UNL     1      -7.255  13.539  68.759  1.00  0.00    -0.096 A  
HETATM   17  S   UNL     1      -8.552  14.490  69.538  1.00  0.00     0.440 SA 
HETATM   18  C   UNL     1      -9.476  14.828  68.057  1.00  0.00    -0.204 A  
HETATM   19  C   UNL     1      -8.918  15.492  66.957  1.00  0.00    -0.249 A  
HETATM   20  C   UNL     1      -9.687  15.701  65.800  1.00  0.00    -0.380 A  
HETATM   21  C   UNL     1     -11.009  15.271  65.756  1.00  0.00    -0.338 A  
HETATM   22  C   UNL     1     -11.571  14.610  66.844  1.00  0.00    -0.374 A  
HETATM   23 CL   UNL     1     -11.962  15.588  64.360  1.00  0.00    -0.300 Cl 
HETATM   24  C   UNL     1     -10.804  14.382  67.988  1.00  0.00    -0.250 A  
ENDBRANCH   5   8
TORSDOF 1
ENDMDL
MODEL      127
REMARK 921   NORMALIZED FREE ENERGY PREDICTED BY IDOCK:   -3.03 KCAL/MOL
REMARK 922        TOTAL FREE ENERGY PREDICTED BY IDOCK:   -3.44 KCAL/MOL
REMARK 923 INTER-LIGAND FREE ENERGY PREDICTED BY IDOCK:   -3.06 KCAL/MOL
REMARK 924 INTRA-LIGAND FREE ENERGY PREDICTED BY IDOCK:   -0.38 KCAL/MOL
REMARK 927      BINDING AFFINITY PREDICTED BY RF-SCORE:    0.00 PKD
ROOT
HETATM    1  C   UNL     1      -9.882   1.494  74.247  1.00  0.00    -0.071 C  
HETATM    2  N   UNL     1      -9.193   2.780  74.201  1.00  0.00    -0.081 NA 
HETATM    3  C   UNL     1      -8.052   2.759  73.262  1.00  0.00    -0.060 C  
HETATM    4  C   UNL     1      -8.428   2.737  71.764  1.00  0.00    -0.064 C  
HETATM    5  N   UNL     1      -9.367   3.818  71.435  1.00  0.00    -0.127 NA 
HETATM    6  C   UNL     1     -10.527   3.917  72.333  1.00  0.00    -0.071 C  
HETATM    7  C   UNL     1     -10.102   3.886  73.818  1.00  0.00    -0.130 C  
ENDROOT
BRANCH   5   8
HETATM    8  C   UNL     1      -9.188   4.704  70.370  1.00  0.00    -0.125 C  
HETATM    9  N   UNL     1      -9.011   4.216  69.171  1.00  0.00    -0.100 NA 
HETATM   10  C   UNL     1      -8.808   4.979  68.005  1.00  0.00    -0.103 A  
HETATM   11  H   UNL     1      -9.021   3.200  69.072  1.00  0.00     0.000 HD 
HETATM   12  C   UNL     1      -7.793   4.545  67.140  1.00  0.00    -0.097 A  
HETATM   13  C   UNL     1      -7.534   5.200  65.931  1.00  0.00    -0.082 A  
HETATM   14  C   UNL     1      -8.299   6.299  65.562  1.00  0.00    -0.147 A  
HETATM   15  C   UNL     1      -9.335   6.729  66.388  1.00  0.00    -0.175 A  
HETATM   16  C   UNL     1      -9.604   6.064  67.596  1.00  0.00    -0.112 A  
HETATM   17  S   UNL     1     -10.944   6.682  68.604  1.00  0.00    -0.221 SA 
HETATM   18  C   UNL     1      -9.954   7.110  70.017  1.00  0.00    -0.179 A  
HETATM   19  C   UNL     1      -9.168   6.172  70.698  1.00  0.00    -0.163 A  
HETATM   20  C   UNL     1      -8.381   6.576  71.789  1.00  0.00    -0.116 A  
HETATM   21  C   UNL     1      -8.402   7.902  72.209  1.00  0.00    -0.131 A  
HETATM   22  C   UNL     1      -9.180   8.840  71.538  1.00  0.00    -0.332 A  
HETATM   23 CL   UNL     1      -7.485   8.375  73.585  1.00  0.00    -0.174 Cl 
HETATM   24  C   UNL     1      -9.948   8.448  70.441  1.00  0.00    -0.199 A  
ENDBRANCH   5   8
TORSDOF 1
ENDMDL
MODEL      128
REMARK 921   NORMALIZED FREE ENERGY PREDICTED BY IDOCK:   -2.98 KCAL/MOL
REMARK 922        TOTAL FREE ENERGY PREDICTED BY IDOCK:   -3.39 KCAL/MOL
REMARK 923 INTER-LIGAND FREE ENERGY PREDICTED BY IDOCK:   -3.36 KCAL/MOL
REMARK 924 INTRA-LIGAND FREE ENERGY PREDICTED BY IDOCK:   -0.03 KCAL/MOL
REMARK 927      BINDING AFFINITY PREDICTED BY RF-SCORE:    0.00 PKD
ROOT
HETATM    1  C   UNL     1     -10.802   2.215  74.278  1.00  0.00    -0.117 C  
HETATM    2  N   UNL     1      -9.998   3.422  74.450  1.00  0.00    -0.128 NA 
HETATM    3  C   UNL     1      -8.928   3.518  73.437  1.00  0.00    -0.094 C  
HETATM    4  C   UNL     1      -9.400   3.857  72.005  1.00  0.00    -0.128 C  
HETATM    5  N   UNL     1     -10.251   5.054  71.995  1.00  0.00    -0.196 NA 
HETATM    6  C   UNL     1     -11.336   5.044  72.987  1.00  0.00    -0.298 C  
HETATM    7  C   UNL     1     -10.821   4.652  74.390  1.00  0.00    -0.004 C  
ENDROOT
BRANCH   5   8
HETATM    8  C   UNL     1     -10.058   6.137  71.133  1.00  0.00    -0.190 C  
HETATM    9  N   UNL     1     -10.453   7.321  71.515  1.00  0.00    -0.203 NA 
HETATM   10  C   UNL     1     -10.337   8.501  70.754  1.00  0.00    -0.198 A  
HETATM   11  H   UNL     1     -10.881   7.398  72.438  1.00  0.00     0.000 HD 
HETATM   12  C   UNL     1     -11.460   9.341  70.723  1.00  0.00    -0.351 A  
HETATM   13  C   UNL     1     -11.441  10.560  70.038  1.00  0.00    -0.393 A  
HETATM   14  C   UNL     1     -10.288  10.965  69.377  1.00  0.00    -0.174 A  
HETATM   15  C   UNL     1      -9.149  10.163  69.422  1.00  0.00    -0.217 A  
HETATM   16  C   UNL     1      -9.163   8.946  70.121  1.00  0.00    -0.180 A  
HETATM   17  S   UNL     1      -7.665   7.972  70.122  1.00  0.00    -0.088 SA 
HETATM   18  C   UNL     1      -8.344   6.553  69.292  1.00  0.00    -0.123 A  
HETATM   19  C   UNL     1      -9.440   5.840  69.793  1.00  0.00    -0.183 A  
HETATM   20  C   UNL     1      -9.954   4.748  69.076  1.00  0.00    -0.213 A  
HETATM   21  C   UNL     1      -9.358   4.358  67.882  1.00  0.00    -0.149 A  
HETATM   22  C   UNL     1      -8.268   5.060  67.376  1.00  0.00    -0.106 A  
HETATM   23 CL   UNL     1      -9.953   2.979  67.043  1.00  0.00     0.472 Cl 
HETATM   24  C   UNL     1      -7.767   6.160  68.075  1.00  0.00    -0.102 A  
ENDBRANCH   5   8
TORSDOF 1
ENDMDL
MODEL      129
REMARK 921   NORMALIZED FREE ENERGY PREDICTED BY IDOCK:   -2.98 KCAL/MOL
REMARK 922        TOTAL FREE ENERGY PREDICTED BY IDOCK:   -3.39 KCAL/MOL
REMARK 923 INTER-LIGAND FREE ENERGY PREDICTED BY IDOCK:   -3.03 KCAL/MOL
REMARK 924 INTRA-LIGAND FREE ENERGY PREDICTED BY IDOCK:   -0.36 KCAL/MOL
REMARK 927      BINDING AFFINITY PREDICTED BY RF-SCORE:    0.00 PKD
ROOT
HETATM    1  C   UNL     1      -7.708   3.201  66.046  1.00  0.00    -0.078 C  
HETATM    2  N   UNL     1      -7.976   4.418  65.285  1.00  0.00    -0.100 NA 
HETATM    3  C   UNL     1      -9.223   5.078  65.725  1.00  0.00    -0.156 C  
HETATM    4  C   UNL     1      -9.152   5.775  67.102  1.00  0.00    -0.112 C  
HETATM    5  N   UNL     1      -8.009   6.695  67.174  1.00  0.00    -0.108 NA 
HETATM    6  C   UNL     1      -6.729   6.118  66.739  1.00  0.00    -0.061 C  
HETATM    7  C   UNL     1      -6.864   5.392  65.382  1.00  0.00    -0.060 C  
ENDROOT
BRANCH   5   8
HETATM    8  C   UNL     1      -8.107   8.020  67.605  1.00  0.00    -0.124 C  
HETATM    9  N   UNL     1      -7.661   8.968  66.824  1.00  0.00    -0.093 NA 
HETATM   10  C   UNL     1      -7.680  10.344  67.123  1.00  0.00    -0.100 A  
HETATM   11  H   UNL     1      -7.267   8.689  65.925  1.00  0.00     0.000 HD 
HETATM   12  C   UNL     1      -6.512  11.065  66.837  1.00  0.00    -0.108 A  
HETATM   13  C   UNL     1      -6.435  12.445  67.051  1.00  0.00     0.004 A  
HETATM   14  C   UNL     1      -7.536  13.132  67.548  1.00  0.00    -0.166 A  
HETATM   15  C   UNL     1      -8.719  12.442  67.808  1.00  0.00    -0.176 A  
HETATM   16  C   UNL     1      -8.801  11.059  67.581  1.00  0.00    -0.131 A  
HETATM   17  S   UNL     1     -10.350  10.248  67.950  1.00  0.00    -0.212 SA 
HETATM   18  C   UNL     1      -9.719   9.168  69.213  1.00  0.00    -0.164 A  
HETATM   19  C   UNL     1      -8.686   8.253  68.974  1.00  0.00    -0.143 A  
HETATM   20  C   UNL     1      -8.206   7.448  70.020  1.00  0.00    -0.131 A  
HETATM   21  C   UNL     1      -8.774   7.541  71.286  1.00  0.00    -0.125 A  
HETATM   22  C   UNL     1      -9.801   8.446  71.532  1.00  0.00    -0.274 A  
HETATM   23 CL   UNL     1      -8.224   6.506  72.545  1.00  0.00    -0.104 Cl 
HETATM   24  C   UNL     1     -10.268   9.263  70.501  1.00  0.00    -0.309 A  
ENDBRANCH   5   8
TORSDOF 1
ENDMDL
MODEL      130
REMARK 921   NORMALIZED FREE ENERGY PREDICTED BY IDOCK:   -2.98 KCAL/MOL
REMARK 922        TOTAL FREE ENERGY PREDICTED BY IDOCK:   -3.39 KCAL/MOL
REMARK 923 INTER-LIGAND FREE ENERGY PREDICTED BY IDOCK:   -3.89 KCAL/MOL
REMARK 924 INTRA-LIGAND FREE ENERGY PREDICTED BY IDOCK:    0.50 KCAL/MOL
REMARK 927      BINDING AFFINITY PREDICTED BY RF-SCORE:    0.00 PKD
ROOT
HETATM    1  C   UNL     1      -9.990   4.608  65.839  1.00  0.00    -0.239 C  
HETATM    2  N   UNL     1      -9.379   5.403  66.900  1.00  0.00    -0.123 NA 
HETATM    3  C   UNL     1      -8.210   6.163  66.413  1.00  0.00    -0.113 C  
HETATM    4  C   UNL     1      -8.537   7.364  65.496  1.00  0.00    -0.077 C  
HETATM    5  N   UNL     1      -9.528   8.252  66.116  1.00  0.00    -0.199 NA 
HETATM    6  C   UNL     1     -10.720   7.570  66.642  1.00  0.00     0.094 C  
HETATM    7  C   UNL     1     -10.341   6.350  67.511  1.00  0.00    -0.196 C  
ENDROOT
BRANCH   5   8
HETATM    8  C   UNL     1      -9.370   9.636  66.224  1.00  0.00    -0.185 C  
HETATM    9  N   UNL     1     -10.408  10.364  66.536  1.00  0.00    -0.237 NA 
HETATM   10  C   UNL     1     -10.407  11.766  66.670  1.00  0.00    -0.218 A  
HETATM   11  H   UNL     1     -11.291   9.878  66.694  1.00  0.00     0.000 HD 
HETATM   12  C   UNL     1     -11.476  12.455  66.079  1.00  0.00    -0.431 A  
HETATM   13  C   UNL     1     -11.601  13.843  66.190  1.00  0.00    -0.371 A  
HETATM   14  C   UNL     1     -10.658  14.569  66.906  1.00  0.00    -0.279 A  
HETATM   15  C   UNL     1      -9.604  13.903  67.531  1.00  0.00    -0.229 A  
HETATM   16  C   UNL     1      -9.486  12.508  67.432  1.00  0.00    -0.184 A  
HETATM   17  S   UNL     1      -8.102  11.731  68.254  1.00  0.00    -0.159 SA 
HETATM   18  C   UNL     1      -7.339  11.072  66.790  1.00  0.00    -0.139 A  
HETATM   19  C   UNL     1      -8.003  10.192  65.925  1.00  0.00    -0.134 A  
HETATM   20  C   UNL     1      -7.361   9.730  64.765  1.00  0.00    -0.130 A  
HETATM   21  C   UNL     1      -6.057  10.124  64.489  1.00  0.00    -0.133 A  
HETATM   22  C   UNL     1      -5.389  10.998  65.342  1.00  0.00    -0.035 A  
HETATM   23 CL   UNL     1      -5.255   9.503  63.100  1.00  0.00    -0.069 Cl 
HETATM   24  C   UNL     1      -6.031  11.476  66.485  1.00  0.00    -0.101 A  
ENDBRANCH   5   8
TORSDOF 1
ENDMDL
MODEL      131
REMARK 921   NORMALIZED FREE ENERGY PREDICTED BY IDOCK:   -2.91 KCAL/MOL
REMARK 922        TOTAL FREE ENERGY PREDICTED BY IDOCK:   -3.31 KCAL/MOL
REMARK 923 INTER-LIGAND FREE ENERGY PREDICTED BY IDOCK:   -2.93 KCAL/MOL
REMARK 924 INTRA-LIGAND FREE ENERGY PREDICTED BY IDOCK:   -0.38 KCAL/MOL
REMARK 927      BINDING AFFINITY PREDICTED BY RF-SCORE:    0.00 PKD
ROOT
HETATM    1  C   UNL     1      -7.870   1.467  74.056  1.00  0.00    -0.037 C  
HETATM    2  N   UNL     1      -8.826   2.537  73.785  1.00  0.00    -0.074 NA 
HETATM    3  C   UNL     1      -8.173   3.861  73.747  1.00  0.00    -0.088 C  
HETATM    4  C   UNL     1      -7.293   4.130  72.505  1.00  0.00    -0.068 C  
HETATM    5  N   UNL     1      -8.032   3.865  71.263  1.00  0.00    -0.066 NA 
HETATM    6  C   UNL     1      -8.725   2.569  71.226  1.00  0.00    -0.066 C  
HETATM    7  C   UNL     1      -9.550   2.327  72.510  1.00  0.00    -0.101 C  
ENDROOT
BRANCH   5   8
HETATM    8  C   UNL     1      -8.098   4.761  70.194  1.00  0.00    -0.068 C  
HETATM    9  N   UNL     1      -7.081   4.843  69.379  1.00  0.00    -0.054 NA 
HETATM   10  C   UNL     1      -6.997   5.704  68.268  1.00  0.00    -0.068 A  
HETATM   11  H   UNL     1      -6.283   4.234  69.563  1.00  0.00     0.000 HD 
HETATM   12  C   UNL     1      -5.787   6.392  68.096  1.00  0.00    -0.016 A  
HETATM   13  C   UNL     1      -5.576   7.237  67.002  1.00  0.00    -0.023 A  
HETATM   14  C   UNL     1      -6.575   7.401  66.051  1.00  0.00    -0.049 A  
HETATM   15  C   UNL     1      -7.774   6.702  66.181  1.00  0.00    -0.095 A  
HETATM   16  C   UNL     1      -7.981   5.843  67.273  1.00  0.00    -0.102 A  
HETATM   17  S   UNL     1      -9.549   4.991  67.373  1.00  0.00    -0.155 SA 
HETATM   18  C   UNL     1     -10.079   5.720  68.905  1.00  0.00    -0.186 A  
HETATM   19  C   UNL     1      -9.339   5.607  70.089  1.00  0.00    -0.188 A  
HETATM   20  C   UNL     1      -9.791   6.233  71.262  1.00  0.00    -0.197 A  
HETATM   21  C   UNL     1     -10.987   6.942  71.255  1.00  0.00    -0.243 A  
HETATM   22  C   UNL     1     -11.730   7.059  70.084  1.00  0.00    -0.238 A  
HETATM   23 CL   UNL     1     -11.567   7.650  72.711  1.00  0.00    -0.364 Cl 
HETATM   24  C   UNL     1     -11.273   6.456  68.910  1.00  0.00    -0.385 A  
ENDBRANCH   5   8
TORSDOF 1
ENDMDL
MODEL      132
REMARK 921   NORMALIZED FREE ENERGY PREDICTED BY IDOCK:   -2.88 KCAL/MOL
REMARK 922        TOTAL FREE ENERGY PREDICTED BY IDOCK:   -3.28 KCAL/MOL
REMARK 923 INTER-LIGAND FREE ENERGY PREDICTED BY IDOCK:   -2.88 KCAL/MOL
REMARK 924 INTRA-LIGAND FREE ENERGY PREDICTED BY IDOCK:   -0.40 KCAL/MOL
REMARK 927      BINDING AFFINITY PREDICTED BY RF-SCORE:    0.00 PKD
ROOT
HETATM    1  C   UNL     1      -9.361   8.035  73.346  1.00  0.00    -0.254 C  
HETATM    2  N   UNL     1      -9.963   6.791  72.874  1.00  0.00    -0.168 NA 
HETATM    3  C   UNL     1     -10.841   7.013  71.707  1.00  0.00    -0.223 C  
HETATM    4  C   UNL     1     -10.113   7.336  70.384  1.00  0.00    -0.192 C  
HETATM    5  N   UNL     1      -9.077   6.337  70.088  1.00  0.00    -0.152 NA 
HETATM    6  C   UNL     1      -8.168   6.048  71.206  1.00  0.00    -0.123 C  
HETATM    7  C   UNL     1      -8.942   5.779  72.516  1.00  0.00    -0.133 C  
ENDROOT
BRANCH   5   8
HETATM    8  C   UNL     1      -8.954   5.689  68.857  1.00  0.00    -0.111 C  
HETATM    9  N   UNL     1      -9.247   4.418  68.784  1.00  0.00    -0.125 NA 
HETATM   10  C   UNL     1      -9.162   3.629  67.621  1.00  0.00    -0.185 A  
HETATM   11  H   UNL     1      -9.564   3.960  69.640  1.00  0.00     0.000 HD 
HETATM   12  C   UNL     1      -8.577   2.362  67.763  1.00  0.00    -0.121 A  
HETATM   13  C   UNL     1      -8.483   1.477  66.684  1.00  0.00    -0.095 A  
HETATM   14  C   UNL     1      -8.984   1.843  65.441  1.00  0.00    -0.120 A  
HETATM   15  C   UNL     1      -9.600   3.084  65.284  1.00  0.00    -0.022 A  
HETATM   16  C   UNL     1      -9.707   3.967  66.370  1.00  0.00    -0.188 A  
HETATM   17  S   UNL     1     -10.502   5.542  66.083  1.00  0.00    -0.020 SA 
HETATM   18  C   UNL     1      -9.091   6.555  66.462  1.00  0.00    -0.152 A  
HETATM   19  C   UNL     1      -8.442   6.507  67.702  1.00  0.00    -0.117 A  
HETATM   20  C   UNL     1      -7.311   7.307  67.933  1.00  0.00    -0.097 A  
HETATM   21  C   UNL     1      -6.852   8.165  66.940  1.00  0.00    -0.069 A  
HETATM   22  C   UNL     1      -7.491   8.219  65.705  1.00  0.00    -0.080 A  
HETATM   23 CL   UNL     1      -5.505   9.189  67.254  1.00  0.00    -0.041 Cl 
HETATM   24  C   UNL     1      -8.603   7.411  65.464  1.00  0.00    -0.093 A  
ENDBRANCH   5   8
TORSDOF 1
ENDMDL
MODEL      133
REMARK 921   NORMALIZED FREE ENERGY PREDICTED BY IDOCK:   -2.87 KCAL/MOL
REMARK 922        TOTAL FREE ENERGY PREDICTED BY IDOCK:   -3.27 KCAL/MOL
REMARK 923 INTER-LIGAND FREE ENERGY PREDICTED BY IDOCK:   -3.36 KCAL/MOL
REMARK 924 INTRA-LIGAND FREE ENERGY PREDICTED BY IDOCK:    0.09 KCAL/MOL
REMARK 927      BINDING AFFINITY PREDICTED BY RF-SCORE:    0.00 PKD
ROOT
HETATM    1  C   UNL     1      -5.970  11.052  70.185  1.00  0.00    -0.127 C  
HETATM    2  N   UNL     1      -5.466   9.721  70.509  1.00  0.00    -0.043 NA 
HETATM    3  C   UNL     1      -6.282   9.063  71.550  1.00  0.00    -0.075 C  
HETATM    4  C   UNL     1      -7.678   8.586  71.092  1.00  0.00    -0.103 C  
HETATM    5  N   UNL     1      -7.588   7.756  69.884  1.00  0.00    -0.088 NA 
HETATM    6  C   UNL     1      -6.779   8.335  68.802  1.00  0.00    -0.058 C  
HETATM    7  C   UNL     1      -5.413   8.840  69.319  1.00  0.00    -0.035 C  
ENDROOT
BRANCH   5   8
HETATM    8  C   UNL     1      -8.199   6.507  69.753  1.00  0.00    -0.126 C  
HETATM    9  N   UNL     1      -7.756   5.683  68.841  1.00  0.00    -0.088 NA 
HETATM   10  C   UNL     1      -8.274   4.400  68.583  1.00  0.00    -0.080 A  
HETATM   11  H   UNL     1      -6.970   5.996  68.269  1.00  0.00     0.000 HD 
HETATM   12  C   UNL     1      -8.462   4.057  67.236  1.00  0.00    -0.100 A  
HETATM   13  C   UNL     1      -8.927   2.792  66.863  1.00  0.00    -0.171 A  
HETATM   14  C   UNL     1      -9.206   1.841  67.836  1.00  0.00    -0.212 A  
HETATM   15  C   UNL     1      -8.996   2.147  69.180  1.00  0.00    -0.162 A  
HETATM   16  C   UNL     1      -8.516   3.412  69.555  1.00  0.00    -0.061 A  
HETATM   17  S   UNL     1      -8.283   3.728  71.298  1.00  0.00    -0.072 SA 
HETATM   18  C   UNL     1      -9.462   5.053  71.424  1.00  0.00    -0.154 A  
HETATM   19  C   UNL     1      -9.368   6.221  70.657  1.00  0.00    -0.171 A  
HETATM   20  C   UNL     1     -10.348   7.219  70.775  1.00  0.00    -0.212 A  
HETATM   21  C   UNL     1     -11.398   7.060  71.674  1.00  0.00    -0.257 A  
HETATM   22  C   UNL     1     -11.499   5.903  72.440  1.00  0.00    -0.358 A  
HETATM   23 CL   UNL     1     -12.558   8.316  71.859  1.00  0.00    -0.355 Cl 
HETATM   24  C   UNL     1     -10.538   4.899  72.311  1.00  0.00    -0.251 A  
ENDBRANCH   5   8
TORSDOF 1
ENDMDL
MODEL      134
REMARK 921   NORMALIZED FREE ENERGY PREDICTED BY IDOCK:   -2.84 KCAL/MOL
REMARK 922        TOTAL FREE ENERGY PREDICTED BY IDOCK:   -3.24 KCAL/MOL
REMARK 923 INTER-LIGAND FREE ENERGY PREDICTED BY IDOCK:   -2.94 KCAL/MOL
REMARK 924 INTRA-LIGAND FREE ENERGY PREDICTED BY IDOCK:   -0.30 KCAL/MOL
REMARK 927      BINDING AFFINITY PREDICTED BY RF-SCORE:    0.00 PKD
ROOT
HETATM    1  C   UNL     1      -6.085  13.791  70.093  1.00  0.00    -0.139 C  
HETATM    2  N   UNL     1      -5.434  12.727  69.334  1.00  0.00    -0.076 NA 
HETATM    3  C   UNL     1      -5.128  11.556  70.182  1.00  0.00    -0.077 C  
HETATM    4  C   UNL     1      -6.348  10.710  70.609  1.00  0.00    -0.011 C  
HETATM    5  N   UNL     1      -7.162  10.328  69.447  1.00  0.00    -0.090 NA 
HETATM    6  C   UNL     1      -7.500  11.436  68.543  1.00  0.00    -0.113 C  
HETATM    7  C   UNL     1      -6.256  12.279  68.185  1.00  0.00    -0.058 C  
ENDROOT
BRANCH   5   8
HETATM    8  C   UNL     1      -7.582   9.020  69.191  1.00  0.00    -0.073 C  
HETATM    9  N   UNL     1      -6.901   8.296  68.344  1.00  0.00    -0.064 NA 
HETATM   10  C   UNL     1      -7.206   6.971  67.978  1.00  0.00    -0.095 A  
HETATM   11  H   UNL     1      -6.081   8.725  67.914  1.00  0.00     0.000 HD 
HETATM   12  C   UNL     1      -7.135   6.665  66.611  1.00  0.00    -0.068 A  
HETATM   13  C   UNL     1      -7.372   5.370  66.139  1.00  0.00    -0.081 A  
HETATM   14  C   UNL     1      -7.677   4.352  67.033  1.00  0.00    -0.089 A  
HETATM   15  C   UNL     1      -7.720   4.624  68.400  1.00  0.00    -0.080 A  
HETATM   16  C   UNL     1      -7.469   5.921  68.875  1.00  0.00    -0.085 A  
HETATM   17  S   UNL     1      -7.553   6.189  70.640  1.00  0.00    -0.094 SA 
HETATM   18  C   UNL     1      -8.896   7.353  70.605  1.00  0.00    -0.150 A  
HETATM   19  C   UNL     1      -8.832   8.556  69.889  1.00  0.00    -0.137 A  
HETATM   20  C   UNL     1      -9.938   9.421  69.871  1.00  0.00    -0.237 A  
HETATM   21  C   UNL     1     -11.086   9.098  70.586  1.00  0.00    -0.265 A  
HETATM   22  C   UNL     1     -11.159   7.906  71.300  1.00  0.00    -0.278 A  
HETATM   23 CL   UNL     1     -12.411  10.194  70.611  1.00  0.00    -0.381 Cl 
HETATM   24  C   UNL     1     -10.070   7.032  71.303  1.00  0.00    -0.199 A  
ENDBRANCH   5   8
TORSDOF 1
ENDMDL
MODEL      135
REMARK 921   NORMALIZED FREE ENERGY PREDICTED BY IDOCK:   -2.79 KCAL/MOL
REMARK 922        TOTAL FREE ENERGY PREDICTED BY IDOCK:   -3.18 KCAL/MOL
REMARK 923 INTER-LIGAND FREE ENERGY PREDICTED BY IDOCK:   -2.75 KCAL/MOL
REMARK 924 INTRA-LIGAND FREE ENERGY PREDICTED BY IDOCK:   -0.44 KCAL/MOL
REMARK 927      BINDING AFFINITY PREDICTED BY RF-SCORE:    0.00 PKD
ROOT
HETATM    1  C   UNL     1     -11.224   5.150  73.413  1.00  0.00    -0.290 C  
HETATM    2  N   UNL     1     -11.241   6.407  72.669  1.00  0.00    -0.262 NA 
HETATM    3  C   UNL     1      -9.883   6.963  72.501  1.00  0.00    -0.157 C  
HETATM    4  C   UNL     1      -8.979   6.210  71.499  1.00  0.00    -0.143 C  
HETATM    5  N   UNL     1      -9.648   6.038  70.203  1.00  0.00    -0.160 NA 
HETATM    6  C   UNL     1     -11.014   5.500  70.285  1.00  0.00    -0.136 C  
HETATM    7  C   UNL     1     -11.862   6.255  71.333  1.00  0.00    -0.205 C  
ENDROOT
BRANCH   5   8
HETATM    8  C   UNL     1      -9.062   6.365  68.978  1.00  0.00    -0.130 C  
HETATM    9  N   UNL     1      -8.095   5.614  68.524  1.00  0.00    -0.103 NA 
HETATM   10  C   UNL     1      -7.403   5.822  67.315  1.00  0.00    -0.077 A  
HETATM   11  H   UNL     1      -7.820   4.811  69.091  1.00  0.00     0.000 HD 
HETATM   12  C   UNL     1      -6.007   5.691  67.360  1.00  0.00    -0.018 A  
HETATM   13  C   UNL     1      -5.223   5.830  66.211  1.00  0.00    -0.009 A  
HETATM   14  C   UNL     1      -5.827   6.095  64.988  1.00  0.00    -0.025 A  
HETATM   15  C   UNL     1      -7.215   6.197  64.912  1.00  0.00    -0.063 A  
HETATM   16  C   UNL     1      -8.004   6.043  66.063  1.00  0.00    -0.109 A  
HETATM   17  S   UNL     1      -9.775   6.197  65.883  1.00  0.00     0.298 SA 
HETATM   18  C   UNL     1      -9.966   7.611  66.944  1.00  0.00    -0.255 A  
HETATM   19  C   UNL     1      -9.569   7.603  68.288  1.00  0.00    -0.160 A  
HETATM   20  C   UNL     1      -9.714   8.761  69.069  1.00  0.00    -0.172 A  
HETATM   21  C   UNL     1     -10.276   9.907  68.516  1.00  0.00    -0.177 A  
HETATM   22  C   UNL     1     -10.673   9.924  67.183  1.00  0.00    -0.276 A  
HETATM   23 CL   UNL     1     -10.509  11.300  69.498  1.00  0.00    -0.094 Cl 
HETATM   24  C   UNL     1     -10.512   8.782  66.397  1.00  0.00    -0.024 A  
ENDBRANCH   5   8
TORSDOF 1
ENDMDL
MODEL      136
REMARK 921   NORMALIZED FREE ENERGY PREDICTED BY IDOCK:   -2.77 KCAL/MOL
REMARK 922        TOTAL FREE ENERGY PREDICTED BY IDOCK:   -3.16 KCAL/MOL
REMARK 923 INTER-LIGAND FREE ENERGY PREDICTED BY IDOCK:   -2.76 KCAL/MOL
REMARK 924 INTRA-LIGAND FREE ENERGY PREDICTED BY IDOCK:   -0.40 KCAL/MOL
REMARK 927      BINDING AFFINITY PREDICTED BY RF-SCORE:    0.00 PKD
ROOT
HETATM    1  C   UNL     1     -10.319  12.294  66.752  1.00  0.00    -0.217 C  
HETATM    2  N   UNL     1      -9.230  11.659  66.014  1.00  0.00    -0.219 NA 
HETATM    3  C   UNL     1      -8.064  11.389  66.880  1.00  0.00    -0.158 C  
HETATM    4  C   UNL     1      -8.245  10.239  67.895  1.00  0.00    -0.109 C  
HETATM    5  N   UNL     1      -8.711   9.014  67.233  1.00  0.00    -0.118 NA 
HETATM    6  C   UNL     1      -9.864   9.199  66.340  1.00  0.00    -0.280 C  
HETATM    7  C   UNL     1      -9.653  10.390  65.378  1.00  0.00    -0.246 C  
ENDROOT
BRANCH   5   8
HETATM    8  C   UNL     1      -8.116   7.762  67.409  1.00  0.00    -0.123 C  
HETATM    9  N   UNL     1      -7.608   7.157  66.369  1.00  0.00    -0.090 NA 
HETATM   10  C   UNL     1      -6.988   5.893  66.387  1.00  0.00    -0.060 A  
HETATM   11  H   UNL     1      -7.666   7.639  65.471  1.00  0.00     0.000 HD 
HETATM   12  C   UNL     1      -7.339   5.006  65.359  1.00  0.00    -0.072 A  
HETATM   13  C   UNL     1      -6.751   3.742  65.252  1.00  0.00    -0.045 A  
HETATM   14  C   UNL     1      -5.788   3.346  66.171  1.00  0.00    -0.023 A  
HETATM   15  C   UNL     1      -5.397   4.222  67.183  1.00  0.00    -0.013 A  
HETATM   16  C   UNL     1      -5.978   5.497  67.282  1.00  0.00    -0.022 A  
HETATM   17  S   UNL     1      -5.429   6.557  68.612  1.00  0.00    -0.016 SA 
HETATM   18  C   UNL     1      -7.001   6.684  69.433  1.00  0.00    -0.067 A  
HETATM   19  C   UNL     1      -8.146   7.181  68.797  1.00  0.00    -0.121 A  
HETATM   20  C   UNL     1      -9.368   7.226  69.486  1.00  0.00    -0.152 A  
HETATM   21  C   UNL     1      -9.436   6.802  70.809  1.00  0.00    -0.165 A  
HETATM   22  C   UNL     1      -8.305   6.307  71.449  1.00  0.00    -0.123 A  
HETATM   23 CL   UNL     1     -10.923   6.921  71.667  1.00  0.00    -0.255 Cl 
HETATM   24  C   UNL     1      -7.092   6.241  70.761  1.00  0.00    -0.069 A  
ENDBRANCH   5   8
TORSDOF 1
ENDMDL
MODEL      137
REMARK 921   NORMALIZED FREE ENERGY PREDICTED BY IDOCK:   -2.74 KCAL/MOL
REMARK 922        TOTAL FREE ENERGY PREDICTED BY IDOCK:   -3.13 KCAL/MOL
REMARK 923 INTER-LIGAND FREE ENERGY PREDICTED BY IDOCK:   -3.60 KCAL/MOL
REMARK 924 INTRA-LIGAND FREE ENERGY PREDICTED BY IDOCK:    0.47 KCAL/MOL
REMARK 927      BINDING AFFINITY PREDICTED BY RF-SCORE:    0.00 PKD
ROOT
HETATM    1  C   UNL     1      -5.178   8.149  64.064  1.00  0.00    -0.041 C  
HETATM    2  N   UNL     1      -5.242   9.172  65.104  1.00  0.00    -0.037 NA 
HETATM    3  C   UNL     1      -6.264  10.196  64.805  1.00  0.00    -0.130 C  
HETATM    4  C   UNL     1      -7.730   9.732  64.961  1.00  0.00    -0.126 C  
HETATM    5  N   UNL     1      -7.957   9.121  66.278  1.00  0.00    -0.102 NA 
HETATM    6  C   UNL     1      -6.972   8.099  66.658  1.00  0.00    -0.072 C  
HETATM    7  C   UNL     1      -5.525   8.593  66.438  1.00  0.00    -0.035 C  
ENDROOT
BRANCH   5   8
HETATM    8  C   UNL     1      -9.009   9.476  67.126  1.00  0.00    -0.134 C  
HETATM    9  N   UNL     1      -9.238   8.742  68.182  1.00  0.00    -0.140 NA 
HETATM   10  C   UNL     1     -10.264   8.966  69.121  1.00  0.00    -0.206 A  
HETATM   11  H   UNL     1      -8.624   7.942  68.339  1.00  0.00     0.000 HD 
HETATM   12  C   UNL     1     -10.995   7.842  69.533  1.00  0.00    -0.092 A  
HETATM   13  C   UNL     1     -12.005   7.940  70.495  1.00  0.00     0.031 A  
HETATM   14  C   UNL     1     -12.296   9.170  71.071  1.00  0.00    -0.273 A  
HETATM   15  C   UNL     1     -11.561  10.296  70.702  1.00  0.00    -0.435 A  
HETATM   16  C   UNL     1     -10.538  10.195  69.746  1.00  0.00    -0.260 A  
HETATM   17  S   UNL     1      -9.649  11.686  69.322  1.00  0.00     0.585 SA 
HETATM   18  C   UNL     1     -10.118  11.722  67.607  1.00  0.00    -0.193 A  
HETATM   19  C   UNL     1      -9.836  10.668  66.728  1.00  0.00    -0.240 A  
HETATM   20  C   UNL     1     -10.260  10.738  65.391  1.00  0.00    -0.341 A  
HETATM   21  C   UNL     1     -10.937  11.864  64.934  1.00  0.00    -0.313 A  
HETATM   22  C   UNL     1     -11.221  12.915  65.800  1.00  0.00    -0.324 A  
HETATM   23 CL   UNL     1     -11.396  11.969  63.279  1.00  0.00    -0.441 Cl 
HETATM   24  C   UNL     1     -10.819  12.841  67.135  1.00  0.00    -0.282 A  
ENDBRANCH   5   8
TORSDOF 1
ENDMDL
MODEL      138
REMARK 921   NORMALIZED FREE ENERGY PREDICTED BY IDOCK:   -2.72 KCAL/MOL
REMARK 922        TOTAL FREE ENERGY PREDICTED BY IDOCK:   -3.11 KCAL/MOL
REMARK 923 INTER-LIGAND FREE ENERGY PREDICTED BY IDOCK:   -2.72 KCAL/MOL
REMARK 924 INTRA-LIGAND FREE ENERGY PREDICTED BY IDOCK:   -0.40 KCAL/MOL
REMARK 927      BINDING AFFINITY PREDICTED BY RF-SCORE:    0.00 PKD
ROOT
HETATM    1  C   UNL     1      -9.792   2.695  72.539  1.00  0.00    -0.146 C  
HETATM    2  N   UNL     1      -9.807   4.108  72.908  1.00  0.00    -0.132 NA 
HETATM    3  C   UNL     1      -8.465   4.717  72.808  1.00  0.00    -0.111 C  
HETATM    4  C   UNL     1      -7.947   4.944  71.370  1.00  0.00    -0.105 C  
HETATM    5  N   UNL     1      -8.927   5.681  70.561  1.00  0.00    -0.136 NA 
HETATM    6  C   UNL     1     -10.295   5.146  70.618  1.00  0.00    -0.235 C  
HETATM    7  C   UNL     1     -10.748   4.891  72.073  1.00  0.00    -0.091 C  
ENDROOT
BRANCH   5   8
HETATM    8  C   UNL     1      -8.614   6.811  69.803  1.00  0.00    -0.141 C  
HETATM    9  N   UNL     1      -9.059   7.975  70.196  1.00  0.00    -0.151 NA 
HETATM   10  C   UNL     1      -8.836   9.197  69.534  1.00  0.00    -0.149 A  
HETATM   11  H   UNL     1      -9.613   7.999  71.053  1.00  0.00     0.000 HD 
HETATM   12  C   UNL     1      -9.942  10.048  69.396  1.00  0.00    -0.239 A  
HETATM   13  C   UNL     1      -9.826  11.306  68.796  1.00  0.00    -0.194 A  
HETATM   14  C   UNL     1      -8.591  11.740  68.330  1.00  0.00    -0.156 A  
HETATM   15  C   UNL     1      -7.470  10.926  68.486  1.00  0.00    -0.103 A  
HETATM   16  C   UNL     1      -7.584   9.669  69.101  1.00  0.00    -0.082 A  
HETATM   17  S   UNL     1      -6.101   8.683  69.254  1.00  0.00    -0.042 SA 
HETATM   18  C   UNL     1      -6.656   7.324  68.251  1.00  0.00    -0.049 A  
HETATM   19  C   UNL     1      -7.812   6.591  68.548  1.00  0.00    -0.106 A  
HETATM   20  C   UNL     1      -8.220   5.549  67.700  1.00  0.00    -0.101 A  
HETATM   21  C   UNL     1      -7.461   5.226  66.581  1.00  0.00    -0.087 A  
HETATM   22  C   UNL     1      -6.311   5.948  66.277  1.00  0.00    -0.042 A  
HETATM   23 CL   UNL     1      -7.932   3.906  65.583  1.00  0.00    -0.093 Cl 
HETATM   24  C   UNL     1      -5.913   6.999  67.106  1.00  0.00    -0.025 A  
ENDBRANCH   5   8
TORSDOF 1
ENDMDL
MODEL      139
REMARK 921   NORMALIZED FREE ENERGY PREDICTED BY IDOCK:   -2.70 KCAL/MOL
REMARK 922        TOTAL FREE ENERGY PREDICTED BY IDOCK:   -3.09 KCAL/MOL
REMARK 923 INTER-LIGAND FREE ENERGY PREDICTED BY IDOCK:   -2.84 KCAL/MOL
REMARK 924 INTRA-LIGAND FREE ENERGY PREDICTED BY IDOCK:   -0.25 KCAL/MOL
REMARK 927      BINDING AFFINITY PREDICTED BY RF-SCORE:    0.00 PKD
ROOT
HETATM    1  C   UNL     1      -8.350   5.719  70.651  1.00  0.00    -0.120 C  
HETATM    2  N   UNL     1      -7.274   6.582  71.130  1.00  0.00    -0.077 NA 
HETATM    3  C   UNL     1      -6.437   7.084  70.021  1.00  0.00    -0.036 C  
HETATM    4  C   UNL     1      -7.099   8.155  69.124  1.00  0.00    -0.061 C  
HETATM    5  N   UNL     1      -7.639   9.261  69.926  1.00  0.00    -0.081 NA 
HETATM    6  C   UNL     1      -8.474   8.844  71.062  1.00  0.00    -0.198 C  
HETATM    7  C   UNL     1      -7.789   7.740  71.898  1.00  0.00    -0.095 C  
ENDROOT
BRANCH   5   8
HETATM    8  C   UNL     1      -7.382  10.608  69.662  1.00  0.00    -0.130 C  
HETATM    9  N   UNL     1      -6.388  11.190  70.277  1.00  0.00    -0.278 NA 
HETATM   10  C   UNL     1      -6.015  12.540  70.122  1.00  0.00    -0.142 A  
HETATM   11  H   UNL     1      -5.838  10.622  70.921  1.00  0.00     0.000 HD 
HETATM   12  C   UNL     1      -5.720  13.248  71.296  1.00  0.00    -0.057 A  
HETATM   13  C   UNL     1      -5.294  14.580  71.258  1.00  0.00    -0.156 A  
HETATM   14  C   UNL     1      -5.146  15.225  70.037  1.00  0.00    -0.100 A  
HETATM   15  C   UNL     1      -5.400  14.532  68.854  1.00  0.00    -0.088 A  
HETATM   16  C   UNL     1      -5.815  13.190  68.892  1.00  0.00    -0.076 A  
HETATM   17  S   UNL     1      -6.129  12.375  67.333  1.00  0.00    -0.144 SA 
HETATM   18  C   UNL     1      -7.855  12.055  67.615  1.00  0.00    -0.149 A  
HETATM   19  C   UNL     1      -8.313  11.306  68.707  1.00  0.00    -0.120 A  
HETATM   20  C   UNL     1      -9.691  11.113  68.897  1.00  0.00    -0.163 A  
HETATM   21  C   UNL     1     -10.599  11.644  67.987  1.00  0.00    -0.202 A  
HETATM   22  C   UNL     1     -10.154  12.389  66.900  1.00  0.00    -0.230 A  
HETATM   23 CL   UNL     1     -12.282  11.349  68.192  1.00  0.00    -0.006 Cl 
HETATM   24  C   UNL     1      -8.786  12.601  66.719  1.00  0.00    -0.135 A  
ENDBRANCH   5   8
TORSDOF 1
ENDMDL
MODEL      140
REMARK 921   NORMALIZED FREE ENERGY PREDICTED BY IDOCK:   -2.70 KCAL/MOL
REMARK 922        TOTAL FREE ENERGY PREDICTED BY IDOCK:   -3.08 KCAL/MOL
REMARK 923 INTER-LIGAND FREE ENERGY PREDICTED BY IDOCK:   -2.82 KCAL/MOL
REMARK 924 INTRA-LIGAND FREE ENERGY PREDICTED BY IDOCK:   -0.27 KCAL/MOL
REMARK 927      BINDING AFFINITY PREDICTED BY RF-SCORE:    0.00 PKD
ROOT
HETATM    1  C   UNL     1      -9.475  10.642  66.769  1.00  0.00    -0.162 C  
HETATM    2  N   UNL     1      -8.261   9.849  66.941  1.00  0.00    -0.120 NA 
HETATM    3  C   UNL     1      -7.554  10.190  68.192  1.00  0.00    -0.087 C  
HETATM    4  C   UNL     1      -8.235   9.703  69.491  1.00  0.00    -0.136 C  
HETATM    5  N   UNL     1      -8.538   8.267  69.425  1.00  0.00    -0.133 NA 
HETATM    6  C   UNL     1      -9.232   7.842  68.201  1.00  0.00    -0.138 C  
HETATM    7  C   UNL     1      -8.541   8.394  66.934  1.00  0.00    -0.125 C  
ENDROOT
BRANCH   5   8
HETATM    8  C   UNL     1      -8.195   7.355  70.426  1.00  0.00    -0.121 C  
HETATM    9  N   UNL     1      -7.085   6.677  70.303  1.00  0.00    -0.070 NA 
HETATM   10  C   UNL     1      -6.612   5.719  71.220  1.00  0.00    -0.046 A  
HETATM   11  H   UNL     1      -6.515   6.857  69.476  1.00  0.00     0.000 HD 
HETATM   12  C   UNL     1      -6.116   4.523  70.680  1.00  0.00    -0.018 A  
HETATM   13  C   UNL     1      -5.579   3.521  71.494  1.00  0.00    -0.008 A  
HETATM   14  C   UNL     1      -5.520   3.704  72.870  1.00  0.00     0.000 A  
HETATM   15  C   UNL     1      -5.976   4.897  73.428  1.00  0.00    -0.026 A  
HETATM   16  C   UNL     1      -6.503   5.909  72.609  1.00  0.00    -0.063 A  
HETATM   17  S   UNL     1      -7.075   7.404  73.403  1.00  0.00    -0.072 SA 
HETATM   18  C   UNL     1      -8.777   7.260  72.907  1.00  0.00    -0.124 A  
HETATM   19  C   UNL     1      -9.166   7.191  71.564  1.00  0.00    -0.148 A  
HETATM   20  C   UNL     1     -10.523   7.043  71.233  1.00  0.00    -0.224 A  
HETATM   21  C   UNL     1     -11.482   6.993  72.239  1.00  0.00    -0.270 A  
HETATM   22  C   UNL     1     -11.105   7.061  73.576  1.00  0.00    -0.028 A  
HETATM   23 CL   UNL     1     -13.148   6.878  71.824  1.00  0.00    -0.365 Cl 
HETATM   24  C   UNL     1      -9.755   7.186  73.910  1.00  0.00    -0.334 A  
ENDBRANCH   5   8
TORSDOF 1
ENDMDL
MODEL      141
REMARK 921   NORMALIZED FREE ENERGY PREDICTED BY IDOCK:   -2.69 KCAL/MOL
REMARK 922        TOTAL FREE ENERGY PREDICTED BY IDOCK:   -3.08 KCAL/MOL
REMARK 923 INTER-LIGAND FREE ENERGY PREDICTED BY IDOCK:   -3.42 KCAL/MOL
REMARK 924 INTRA-LIGAND FREE ENERGY PREDICTED BY IDOCK:    0.34 KCAL/MOL
REMARK 927      BINDING AFFINITY PREDICTED BY RF-SCORE:    0.00 PKD
ROOT
HETATM    1  C   UNL     1     -12.335  12.722  64.396  1.00  0.00    -0.424 C  
HETATM    2  N   UNL     1     -11.966  12.460  65.784  1.00  0.00    -0.557 NA 
HETATM    3  C   UNL     1     -10.560  12.025  65.907  1.00  0.00    -0.265 C  
HETATM    4  C   UNL     1      -9.504  13.130  65.678  1.00  0.00     0.112 C  
HETATM    5  N   UNL     1      -9.773  14.305  66.518  1.00  0.00    -0.281 NA 
HETATM    6  C   UNL     1     -11.158  14.793  66.464  1.00  0.00    -0.334 C  
HETATM    7  C   UNL     1     -12.175  13.645  66.649  1.00  0.00    -0.389 C  
ENDROOT
BRANCH   5   8
HETATM    8  C   UNL     1      -8.811  14.919  67.324  1.00  0.00    -0.201 C  
HETATM    9  N   UNL     1      -8.192  14.200  68.221  1.00  0.00    -0.141 NA 
HETATM   10  C   UNL     1      -7.210  14.678  69.110  1.00  0.00    -0.142 A  
HETATM   11  H   UNL     1      -8.439  13.211  68.282  1.00  0.00     0.000 HD 
HETATM   12  C   UNL     1      -7.318  14.266  70.446  1.00  0.00     0.789 A  
HETATM   13  C   UNL     1      -6.373  14.642  71.406  1.00  0.00     0.401 A  
HETATM   14  C   UNL     1      -5.292  15.434  71.039  1.00  0.00    -0.085 A  
HETATM   15  C   UNL     1      -5.144  15.828  69.711  1.00  0.00    -0.107 A  
HETATM   16  C   UNL     1      -6.085  15.439  68.744  1.00  0.00    -0.098 A  
HETATM   17  S   UNL     1      -5.829  15.994  67.065  1.00  0.00     0.345 SA 
HETATM   18  C   UNL     1      -7.321  16.952  66.937  1.00  0.00    -0.216 A  
HETATM   19  C   UNL     1      -8.592  16.394  67.122  1.00  0.00    -0.204 A  
HETATM   20  C   UNL     1      -9.734  17.208  67.042  1.00  0.00    -0.265 A  
HETATM   21  C   UNL     1      -9.604  18.562  66.751  1.00  0.00    -0.321 A  
HETATM   22  C   UNL     1      -8.345  19.124  66.566  1.00  0.00    -0.324 A  
HETATM   23 CL   UNL     1     -11.011  19.538  66.591  1.00  0.00    -0.470 Cl 
HETATM   24  C   UNL     1      -7.206  18.324  66.665  1.00  0.00    -0.244 A  
ENDBRANCH   5   8
TORSDOF 1
ENDMDL
MODEL      142
REMARK 921   NORMALIZED FREE ENERGY PREDICTED BY IDOCK:   -2.64 KCAL/MOL
REMARK 922        TOTAL FREE ENERGY PREDICTED BY IDOCK:   -3.03 KCAL/MOL
REMARK 923 INTER-LIGAND FREE ENERGY PREDICTED BY IDOCK:   -2.68 KCAL/MOL
REMARK 924 INTRA-LIGAND FREE ENERGY PREDICTED BY IDOCK:   -0.34 KCAL/MOL
REMARK 927      BINDING AFFINITY PREDICTED BY RF-SCORE:    0.00 PKD
ROOT
HETATM    1  C   UNL     1     -10.368   8.473  72.448  1.00  0.00    -0.302 C  
HETATM    2  N   UNL     1      -9.365   8.973  71.513  1.00  0.00    -0.285 NA 
HETATM    3  C   UNL     1      -8.125   8.172  71.557  1.00  0.00    -0.119 C  
HETATM    4  C   UNL     1      -8.224   6.763  70.931  1.00  0.00    -0.123 C  
HETATM    5  N   UNL     1      -8.769   6.824  69.568  1.00  0.00    -0.133 NA 
HETATM    6  C   UNL     1     -10.000   7.617  69.435  1.00  0.00    -0.180 C  
HETATM    7  C   UNL     1      -9.866   8.995  70.119  1.00  0.00    -0.187 C  
ENDROOT
BRANCH   5   8
HETATM    8  C   UNL     1      -8.177   6.200  68.467  1.00  0.00    -0.111 C  
HETATM    9  N   UNL     1      -7.878   4.932  68.550  1.00  0.00    -0.081 NA 
HETATM   10  C   UNL     1      -7.270   4.171  67.533  1.00  0.00    -0.068 A  
HETATM   11  H   UNL     1      -8.102   4.453  69.424  1.00  0.00     0.000 HD 
HETATM   12  C   UNL     1      -6.229   3.317  67.923  1.00  0.00    -0.032 A  
HETATM   13  C   UNL     1      -5.585   2.482  67.004  1.00  0.00    -0.018 A  
HETATM   14  C   UNL     1      -5.983   2.480  65.673  1.00  0.00    -0.022 A  
HETATM   15  C   UNL     1      -7.038   3.296  65.267  1.00  0.00    -0.062 A  
HETATM   16  C   UNL     1      -7.693   4.124  66.192  1.00  0.00    -0.090 A  
HETATM   17  S   UNL     1      -9.030   5.147  65.590  1.00  0.00    -0.153 SA 
HETATM   18  C   UNL     1      -8.277   6.712  65.971  1.00  0.00    -0.128 A  
HETATM   19  C   UNL     1      -7.885   7.063  67.269  1.00  0.00    -0.110 A  
HETATM   20  C   UNL     1      -7.264   8.300  67.504  1.00  0.00    -0.088 A  
HETATM   21  C   UNL     1      -7.063   9.188  66.453  1.00  0.00    -0.084 A  
HETATM   22  C   UNL     1      -7.450   8.848  65.160  1.00  0.00    -0.097 A  
HETATM   23 CL   UNL     1      -6.361  10.728  66.760  1.00  0.00    -0.079 Cl 
HETATM   24  C   UNL     1      -8.048   7.610  64.918  1.00  0.00    -0.128 A  
ENDBRANCH   5   8
TORSDOF 1
ENDMDL
MODEL      143
REMARK 921   NORMALIZED FREE ENERGY PREDICTED BY IDOCK:   -2.49 KCAL/MOL
REMARK 922        TOTAL FREE ENERGY PREDICTED BY IDOCK:   -2.86 KCAL/MOL
REMARK 923 INTER-LIGAND FREE ENERGY PREDICTED BY IDOCK:   -3.00 KCAL/MOL
REMARK 924 INTRA-LIGAND FREE ENERGY PREDICTED BY IDOCK:    0.14 KCAL/MOL
REMARK 927      BINDING AFFINITY PREDICTED BY RF-SCORE:    0.00 PKD
ROOT
HETATM    1  C   UNL     1     -13.493  10.046  70.618  1.00  0.00     0.066 C  
HETATM    2  N   UNL     1     -12.112   9.941  71.082  1.00  0.00    -0.345 NA 
HETATM    3  C   UNL     1     -11.874   8.683  71.818  1.00  0.00    -0.337 C  
HETATM    4  C   UNL     1     -11.836   7.406  70.949  1.00  0.00    -0.290 C  
HETATM    5  N   UNL     1     -10.898   7.552  69.828  1.00  0.00    -0.245 NA 
HETATM    6  C   UNL     1     -11.060   8.790  69.051  1.00  0.00     0.197 C  
HETATM    7  C   UNL     1     -11.141  10.031  69.967  1.00  0.00    -0.295 C  
ENDROOT
BRANCH   5   8
HETATM    8  C   UNL     1      -9.912   6.614  69.513  1.00  0.00    -0.163 C  
HETATM    9  N   UNL     1     -10.021   5.938  68.401  1.00  0.00    -0.141 NA 
HETATM   10  C   UNL     1      -9.117   4.955  67.955  1.00  0.00    -0.113 A  
HETATM   11  H   UNL     1     -10.827   6.139  67.807  1.00  0.00     0.000 HD 
HETATM   12  C   UNL     1      -9.675   3.774  67.444  1.00  0.00    -0.143 A  
HETATM   13  C   UNL     1      -8.873   2.750  66.930  1.00  0.00    -0.154 A  
HETATM   14  C   UNL     1      -7.492   2.896  66.911  1.00  0.00    -0.070 A  
HETATM   15  C   UNL     1      -6.915   4.074  67.383  1.00  0.00    -0.055 A  
HETATM   16  C   UNL     1      -7.721   5.108  67.885  1.00  0.00    -0.087 A  
HETATM   17  S   UNL     1      -6.905   6.582  68.480  1.00  0.00    -0.073 SA 
HETATM   18  C   UNL     1      -7.452   6.453  70.166  1.00  0.00    -0.094 A  
HETATM   19  C   UNL     1      -8.808   6.420  70.517  1.00  0.00    -0.144 A  
HETATM   20  C   UNL     1      -9.181   6.283  71.864  1.00  0.00    -0.147 A  
HETATM   21  C   UNL     1      -8.204   6.207  72.851  1.00  0.00    -0.116 A  
HETATM   22  C   UNL     1      -6.855   6.239  72.512  1.00  0.00    -0.070 A  
HETATM   23 CL   UNL     1      -8.670   6.105  74.504  1.00  0.00    -0.130 Cl 
HETATM   24  C   UNL     1      -6.480   6.354  71.173  1.00  0.00    -0.049 A  
ENDBRANCH   5   8
TORSDOF 1
ENDMDL
MODEL      144
REMARK 921   NORMALIZED FREE ENERGY PREDICTED BY IDOCK:   -2.49 KCAL/MOL
REMARK 922        TOTAL FREE ENERGY PREDICTED BY IDOCK:   -2.86 KCAL/MOL
REMARK 923 INTER-LIGAND FREE ENERGY PREDICTED BY IDOCK:   -2.97 KCAL/MOL
REMARK 924 INTRA-LIGAND FREE ENERGY PREDICTED BY IDOCK:    0.11 KCAL/MOL
REMARK 927      BINDING AFFINITY PREDICTED BY RF-SCORE:    0.00 PKD
ROOT
HETATM    1  C   UNL     1     -10.194   3.601  64.238  1.00  0.00    -0.221 C  
HETATM    2  N   UNL     1      -9.029   4.083  64.975  1.00  0.00    -0.127 NA 
HETATM    3  C   UNL     1      -9.252   5.433  65.533  1.00  0.00    -0.081 C  
HETATM    4  C   UNL     1     -10.226   5.501  66.731  1.00  0.00    -0.233 C  
HETATM    5  N   UNL     1      -9.845   4.547  67.781  1.00  0.00    -0.142 NA 
HETATM    6  C   UNL     1      -9.590   3.180  67.305  1.00  0.00    -0.013 C  
HETATM    7  C   UNL     1      -8.651   3.170  66.078  1.00  0.00    -0.119 C  
ENDROOT
BRANCH   5   8
HETATM    8  C   UNL     1      -9.713   4.889  69.129  1.00  0.00    -0.182 C  
HETATM    9  N   UNL     1     -10.362   5.929  69.579  1.00  0.00    -0.221 NA 
HETATM   10  C   UNL     1     -10.322   6.403  70.905  1.00  0.00    -0.204 A  
HETATM   11  H   UNL     1     -10.947   6.440  68.916  1.00  0.00     0.000 HD 
HETATM   12  C   UNL     1     -10.184   7.788  71.074  1.00  0.00    -0.210 A  
HETATM   13  C   UNL     1     -10.178   8.372  72.344  1.00  0.00    -0.399 A  
HETATM   14  C   UNL     1     -10.321   7.576  73.473  1.00  0.00    -0.373 A  
HETATM   15  C   UNL     1     -10.493   6.200  73.330  1.00  0.00    -0.269 A  
HETATM   16  C   UNL     1     -10.512   5.615  72.054  1.00  0.00    -0.219 A  
HETATM   17  S   UNL     1     -10.727   3.843  71.956  1.00  0.00     0.460 SA 
HETATM   18  C   UNL     1      -9.163   3.490  71.189  1.00  0.00    -0.121 A  
HETATM   19  C   UNL     1      -8.784   4.046  69.961  1.00  0.00    -0.117 A  
HETATM   20  C   UNL     1      -7.522   3.756  69.419  1.00  0.00    -0.053 A  
HETATM   21  C   UNL     1      -6.658   2.897  70.089  1.00  0.00    -0.033 A  
HETATM   22  C   UNL     1      -7.026   2.339  71.310  1.00  0.00    -0.032 A  
HETATM   23 CL   UNL     1      -5.139   2.496  69.387  1.00  0.00    -0.007 Cl 
HETATM   24  C   UNL     1      -8.272   2.641  71.862  1.00  0.00    -0.059 A  
ENDBRANCH   5   8
TORSDOF 1
ENDMDL
MODEL      145
REMARK 921   NORMALIZED FREE ENERGY PREDICTED BY IDOCK:   -2.47 KCAL/MOL
REMARK 922        TOTAL FREE ENERGY PREDICTED BY IDOCK:   -2.85 KCAL/MOL
REMARK 923 INTER-LIGAND FREE ENERGY PREDICTED BY IDOCK:   -3.38 KCAL/MOL
REMARK 924 INTRA-LIGAND FREE ENERGY PREDICTED BY IDOCK:    0.53 KCAL/MOL
REMARK 927      BINDING AFFINITY PREDICTED BY RF-SCORE:    0.00 PKD
ROOT
HETATM    1  C   UNL     1      -9.777   9.009  65.300  1.00  0.00     0.205 C  
HETATM    2  N   UNL     1      -9.051  10.226  65.652  1.00  0.00    -0.165 NA 
HETATM    3  C   UNL     1      -9.708  11.434  65.111  1.00  0.00    -0.244 C  
HETATM    4  C   UNL     1     -11.025  11.839  65.810  1.00  0.00    -0.301 C  
HETATM    5  N   UNL     1     -10.847  11.937  67.265  1.00  0.00    -0.235 NA 
HETATM    6  C   UNL     1     -10.185  10.777  67.881  1.00  0.00    -0.176 C  
HETATM    7  C   UNL     1      -8.901  10.382  67.117  1.00  0.00    -0.136 C  
ENDROOT
BRANCH   5   8
HETATM    8  C   UNL     1     -11.251  13.037  68.024  1.00  0.00    -0.278 C  
HETATM    9  N   UNL     1     -11.539  12.858  69.285  1.00  0.00    -0.296 NA 
HETATM   10  C   UNL     1     -11.969  13.864  70.172  1.00  0.00    -0.332 A  
HETATM   11  H   UNL     1     -11.445  11.913  69.658  1.00  0.00     0.000 HD 
HETATM   12  C   UNL     1     -13.045  13.543  71.012  1.00  0.00    -0.219 A  
HETATM   13  C   UNL     1     -13.525  14.449  71.963  1.00  0.00    -0.490 A  
HETATM   14  C   UNL     1     -12.926  15.696  72.096  1.00  0.00    -0.527 A  
HETATM   15  C   UNL     1     -11.834  16.026  71.295  1.00  0.00    -0.502 A  
HETATM   16  C   UNL     1     -11.344  15.111  70.350  1.00  0.00    -0.290 A  
HETATM   17  S   UNL     1      -9.946  15.614  69.355  1.00  0.00    -0.292 SA 
HETATM   18  C   UNL     1     -10.774  15.531  67.784  1.00  0.00    -0.297 A  
HETATM   19  C   UNL     1     -11.368  14.356  67.307  1.00  0.00    -0.357 A  
HETATM   20  C   UNL     1     -12.037  14.358  66.073  1.00  0.00    -0.370 A  
HETATM   21  C   UNL     1     -12.087  15.521  65.312  1.00  0.00     0.456 A  
HETATM   22  C   UNL     1     -11.500  16.694  65.777  1.00  0.00     0.807 A  
HETATM   23 CL   UNL     1     -12.853  15.500  63.771  1.00  0.00     0.755 Cl 
HETATM   24  C   UNL     1     -10.852  16.701  67.013  1.00  0.00    -0.091 A  
ENDBRANCH   5   8
TORSDOF 1
ENDMDL
MODEL      146
REMARK 921   NORMALIZED FREE ENERGY PREDICTED BY IDOCK:   -2.45 KCAL/MOL
REMARK 922        TOTAL FREE ENERGY PREDICTED BY IDOCK:   -2.82 KCAL/MOL
REMARK 923 INTER-LIGAND FREE ENERGY PREDICTED BY IDOCK:   -2.56 KCAL/MOL
REMARK 924 INTRA-LIGAND FREE ENERGY PREDICTED BY IDOCK:   -0.26 KCAL/MOL
REMARK 927      BINDING AFFINITY PREDICTED BY RF-SCORE:    0.00 PKD
ROOT
HETATM    1  C   UNL     1     -11.525  10.235  70.548  1.00  0.00    -0.343 C  
HETATM    2  N   UNL     1     -10.813   9.062  71.050  1.00  0.00    -0.252 NA 
HETATM    3  C   UNL     1     -11.212   7.831  70.338  1.00  0.00    -0.237 C  
HETATM    4  C   UNL     1     -10.696   7.709  68.887  1.00  0.00    -0.095 C  
HETATM    5  N   UNL     1      -9.243   7.915  68.820  1.00  0.00    -0.144 NA 
HETATM    6  C   UNL     1      -8.761   9.115  69.519  1.00  0.00    -0.140 C  
HETATM    7  C   UNL     1      -9.344   9.216  70.946  1.00  0.00    -0.269 C  
ENDROOT
BRANCH   5   8
HETATM    8  C   UNL     1      -8.366   7.047  68.165  1.00  0.00    -0.123 C  
HETATM    9  N   UNL     1      -8.124   7.240  66.896  1.00  0.00    -0.118 NA 
HETATM   10  C   UNL     1      -7.274   6.446  66.101  1.00  0.00    -0.072 A  
HETATM   11  H   UNL     1      -8.587   8.029  66.445  1.00  0.00     0.000 HD 
HETATM   12  C   UNL     1      -7.753   6.093  64.831  1.00  0.00    -0.101 A  
HETATM   13  C   UNL     1      -6.976   5.346  63.940  1.00  0.00    -0.047 A  
HETATM   14  C   UNL     1      -5.695   4.948  64.303  1.00  0.00    -0.017 A  
HETATM   15  C   UNL     1      -5.185   5.315  65.547  1.00  0.00    -0.012 A  
HETATM   16  C   UNL     1      -5.960   6.077  66.437  1.00  0.00    -0.025 A  
HETATM   17  S   UNL     1      -5.236   6.499  68.015  1.00  0.00    -0.008 SA 
HETATM   18  C   UNL     1      -6.422   5.636  69.020  1.00  0.00    -0.042 A  
HETATM   19  C   UNL     1      -7.793   5.915  68.974  1.00  0.00    -0.095 A  
HETATM   20  C   UNL     1      -8.687   5.177  69.767  1.00  0.00    -0.115 A  
HETATM   21  C   UNL     1      -8.207   4.187  70.618  1.00  0.00    -0.066 A  
HETATM   22  C   UNL     1      -6.845   3.903  70.670  1.00  0.00    -0.033 A  
HETATM   23 CL   UNL     1      -9.300   3.332  71.634  1.00  0.00    -0.193 Cl 
HETATM   24  C   UNL     1      -5.956   4.620  69.868  1.00  0.00    -0.018 A  
ENDBRANCH   5   8
TORSDOF 1
ENDMDL
MODEL      147
REMARK 921   NORMALIZED FREE ENERGY PREDICTED BY IDOCK:   -2.40 KCAL/MOL
REMARK 922        TOTAL FREE ENERGY PREDICTED BY IDOCK:   -2.77 KCAL/MOL
REMARK 923 INTER-LIGAND FREE ENERGY PREDICTED BY IDOCK:   -2.36 KCAL/MOL
REMARK 924 INTRA-LIGAND FREE ENERGY PREDICTED BY IDOCK:   -0.41 KCAL/MOL
REMARK 927      BINDING AFFINITY PREDICTED BY RF-SCORE:    0.00 PKD
ROOT
HETATM    1  C   UNL     1     -10.257   4.053  64.722  1.00  0.00    -0.212 C  
HETATM    2  N   UNL     1      -9.214   3.884  65.730  1.00  0.00    -0.145 NA 
HETATM    3  C   UNL     1      -7.988   4.632  65.383  1.00  0.00    -0.099 C  
HETATM    4  C   UNL     1      -8.087   6.167  65.527  1.00  0.00    -0.131 C  
HETATM    5  N   UNL     1      -8.583   6.546  66.857  1.00  0.00    -0.113 NA 
HETATM    6  C   UNL     1      -9.796   5.834  67.285  1.00  0.00    -0.141 C  
HETATM    7  C   UNL     1      -9.665   4.309  67.075  1.00  0.00    -0.206 C  
ENDROOT
BRANCH   5   8
HETATM    8  C   UNL     1      -7.963   7.492  67.676  1.00  0.00    -0.117 C  
HETATM    9  N   UNL     1      -7.790   8.703  67.216  1.00  0.00    -0.097 NA 
HETATM   10  C   UNL     1      -7.174   9.758  67.916  1.00  0.00    -0.084 A  
HETATM   11  H   UNL     1      -8.129   8.899  66.274  1.00  0.00     0.000 HD 
HETATM   12  C   UNL     1      -6.251  10.533  67.200  1.00  0.00    -0.063 A  
HETATM   13  C   UNL     1      -5.615  11.634  67.781  1.00  0.00    -0.053 A  
HETATM   14  C   UNL     1      -5.900  11.985  69.094  1.00  0.00    -0.068 A  
HETATM   15  C   UNL     1      -6.838  11.250  69.817  1.00  0.00    -0.059 A  
HETATM   16  C   UNL     1      -7.488  10.153  69.229  1.00  0.00    -0.111 A  
HETATM   17  S   UNL     1      -8.670   9.257  70.225  1.00  0.00    -0.235 SA 
HETATM   18  C   UNL     1      -7.810   7.701  70.213  1.00  0.00    -0.092 A  
HETATM   19  C   UNL     1      -7.495   7.025  69.028  1.00  0.00    -0.095 A  
HETATM   20  C   UNL     1      -6.785   5.815  69.078  1.00  0.00    -0.060 A  
HETATM   21  C   UNL     1      -6.417   5.275  70.306  1.00  0.00    -0.034 A  
HETATM   22  C   UNL     1      -6.726   5.940  71.488  1.00  0.00    -0.055 A  
HETATM   23 CL   UNL     1      -5.603   3.760  70.362  1.00  0.00    -0.012 Cl 
HETATM   24  C   UNL     1      -7.414   7.154  71.442  1.00  0.00    -0.080 A  
ENDBRANCH   5   8
TORSDOF 1
ENDMDL
MODEL      148
REMARK 921   NORMALIZED FREE ENERGY PREDICTED BY IDOCK:   -2.37 KCAL/MOL
REMARK 922        TOTAL FREE ENERGY PREDICTED BY IDOCK:   -2.74 KCAL/MOL
REMARK 923 INTER-LIGAND FREE ENERGY PREDICTED BY IDOCK:   -3.33 KCAL/MOL
REMARK 924 INTRA-LIGAND FREE ENERGY PREDICTED BY IDOCK:    0.59 KCAL/MOL
REMARK 927      BINDING AFFINITY PREDICTED BY RF-SCORE:    0.00 PKD
ROOT
HETATM    1  C   UNL     1     -12.672   9.332  72.794  1.00  0.00     0.067 C  
HETATM    2  N   UNL     1     -12.961   8.884  71.434  1.00  0.00    -0.307 NA 
HETATM    3  C   UNL     1     -12.587   9.900  70.429  1.00  0.00    -0.000 C  
HETATM    4  C   UNL     1     -11.069  10.083  70.206  1.00  0.00    -0.318 C  
HETATM    5  N   UNL     1     -10.414   8.797  69.933  1.00  0.00    -0.216 NA 
HETATM    6  C   UNL     1     -10.745   7.725  70.882  1.00  0.00    -0.221 C  
HETATM    7  C   UNL     1     -12.270   7.615  71.107  1.00  0.00    -0.285 C  
ENDROOT
BRANCH   5   8
HETATM    8  C   UNL     1      -9.551   8.580  68.855  1.00  0.00    -0.160 C  
HETATM    9  N   UNL     1      -9.499   9.473  67.903  1.00  0.00    -0.132 NA 
HETATM   10  C   UNL     1      -8.690   9.389  66.753  1.00  0.00    -0.127 A  
HETATM   11  H   UNL     1     -10.093  10.297  68.000  1.00  0.00     0.000 HD 
HETATM   12  C   UNL     1      -9.296   9.722  65.533  1.00  0.00    -0.299 A  
HETATM   13  C   UNL     1      -8.576   9.719  64.335  1.00  0.00    -0.202 A  
HETATM   14  C   UNL     1      -7.226   9.389  64.339  1.00  0.00    -0.105 A  
HETATM   15  C   UNL     1      -6.593   9.087  65.543  1.00  0.00    -0.068 A  
HETATM   16  C   UNL     1      -7.313   9.103  66.749  1.00  0.00    -0.086 A  
HETATM   17  S   UNL     1      -6.431   8.695  68.248  1.00  0.00    -0.061 SA 
HETATM   18  C   UNL     1      -7.384   7.251  68.658  1.00  0.00    -0.100 A  
HETATM   19  C   UNL     1      -8.770   7.294  68.854  1.00  0.00    -0.128 A  
HETATM   20  C   UNL     1      -9.475   6.114  69.143  1.00  0.00    -0.144 A  
HETATM   21  C   UNL     1      -8.793   4.908  69.261  1.00  0.00    -0.088 A  
HETATM   22  C   UNL     1      -7.416   4.856  69.068  1.00  0.00    -0.061 A  
HETATM   23 CL   UNL     1      -9.654   3.479  69.679  1.00  0.00    -0.231 Cl 
HETATM   24  C   UNL     1      -6.714   6.022  68.760  1.00  0.00    -0.064 A  
ENDBRANCH   5   8
TORSDOF 1
ENDMDL
MODEL      149
REMARK 921   NORMALIZED FREE ENERGY PREDICTED BY IDOCK:   -2.30 KCAL/MOL
REMARK 922        TOTAL FREE ENERGY PREDICTED BY IDOCK:   -2.67 KCAL/MOL
REMARK 923 INTER-LIGAND FREE ENERGY PREDICTED BY IDOCK:   -2.99 KCAL/MOL
REMARK 924 INTRA-LIGAND FREE ENERGY PREDICTED BY IDOCK:    0.32 KCAL/MOL
REMARK 927      BINDING AFFINITY PREDICTED BY RF-SCORE:    0.00 PKD
ROOT
HETATM    1  C   UNL     1      -7.223   7.544  63.669  1.00  0.00    -0.079 C  
HETATM    2  N   UNL     1      -6.784   6.643  64.731  1.00  0.00    -0.045 NA 
HETATM    3  C   UNL     1      -6.081   7.367  65.810  1.00  0.00    -0.038 C  
HETATM    4  C   UNL     1      -6.979   8.238  66.716  1.00  0.00    -0.070 C  
HETATM    5  N   UNL     1      -8.112   7.465  67.244  1.00  0.00    -0.111 NA 
HETATM    6  C   UNL     1      -8.857   6.702  66.233  1.00  0.00    -0.147 C  
HETATM    7  C   UNL     1      -7.912   5.887  65.322  1.00  0.00    -0.115 C  
ENDROOT
BRANCH   5   8
HETATM    8  C   UNL     1      -8.464   7.429  68.595  1.00  0.00    -0.129 C  
HETATM    9  N   UNL     1      -9.436   6.641  68.970  1.00  0.00    -0.133 NA 
HETATM   10  C   UNL     1      -9.910   6.505  70.289  1.00  0.00    -0.168 A  
HETATM   11  H   UNL     1      -9.888   6.079  68.248  1.00  0.00     0.000 HD 
HETATM   12  C   UNL     1     -11.302   6.491  70.458  1.00  0.00    -0.426 A  
HETATM   13  C   UNL     1     -11.883   6.314  71.718  1.00  0.00    -0.342 A  
HETATM   14  C   UNL     1     -11.075   6.138  72.834  1.00  0.00    -0.281 A  
HETATM   15  C   UNL     1      -9.689   6.116  72.687  1.00  0.00    -0.164 A  
HETATM   16  C   UNL     1      -9.106   6.279  71.420  1.00  0.00    -0.142 A  
HETATM   17  S   UNL     1      -7.322   6.247  71.318  1.00  0.00    -0.082 SA 
HETATM   18  C   UNL     1      -7.123   7.906  70.711  1.00  0.00    -0.052 A  
HETATM   19  C   UNL     1      -7.714   8.349  69.521  1.00  0.00    -0.096 A  
HETATM   20  C   UNL     1      -7.549   9.681  69.109  1.00  0.00    -0.082 A  
HETATM   21  C   UNL     1      -6.777  10.553  69.868  1.00  0.00    -0.142 A  
HETATM   22  C   UNL     1      -6.186  10.122  71.052  1.00  0.00     0.030 A  
HETATM   23 CL   UNL     1      -6.526  12.165  69.323  1.00  0.00    -0.104 Cl 
HETATM   24  C   UNL     1      -6.364   8.805  71.476  1.00  0.00    -0.071 A  
ENDBRANCH   5   8
TORSDOF 1
ENDMDL
MODEL      150
REMARK 921   NORMALIZED FREE ENERGY PREDICTED BY IDOCK:   -2.19 KCAL/MOL
REMARK 922        TOTAL FREE ENERGY PREDICTED BY IDOCK:   -2.55 KCAL/MOL
REMARK 923 INTER-LIGAND FREE ENERGY PREDICTED BY IDOCK:   -2.10 KCAL/MOL
REMARK 924 INTRA-LIGAND FREE ENERGY PREDICTED BY IDOCK:   -0.45 KCAL/MOL
REMARK 927      BINDING AFFINITY PREDICTED BY RF-SCORE:    0.00 PKD
ROOT
HETATM    1  C   UNL     1     -11.997  13.087  71.349  1.00  0.00     0.733 C  
HETATM    2  N   UNL     1     -12.131  13.585  69.983  1.00  0.00    -0.339 NA 
HETATM    3  C   UNL     1     -10.866  14.156  69.479  1.00  0.00    -0.075 C  
HETATM    4  C   UNL     1      -9.758  13.129  69.155  1.00  0.00     0.492 C  
HETATM    5  N   UNL     1     -10.256  12.072  68.264  1.00  0.00    -0.202 NA 
HETATM    6  C   UNL     1     -11.523  11.460  68.688  1.00  0.00    -0.296 C  
HETATM    7  C   UNL     1     -12.581  12.528  69.047  1.00  0.00     0.732 C  
ENDROOT
BRANCH   5   8
HETATM    8  C   UNL     1      -9.606  11.673  67.094  1.00  0.00    -0.175 C  
HETATM    9  N   UNL     1      -8.442  11.087  67.192  1.00  0.00    -0.134 NA 
HETATM   10  C   UNL     1      -7.664  10.640  66.107  1.00  0.00    -0.145 A  
HETATM   11  H   UNL     1      -8.067  10.942  68.130  1.00  0.00     0.000 HD 
HETATM   12  C   UNL     1      -6.293  10.933  66.154  1.00  0.00    -0.123 A  
HETATM   13  C   UNL     1      -5.418  10.498  65.154  1.00  0.00    -0.146 A  
HETATM   14  C   UNL     1      -5.902   9.749  64.089  1.00  0.00    -0.100 A  
HETATM   15  C   UNL     1      -7.254   9.417  64.036  1.00  0.00    -0.102 A  
HETATM   16  C   UNL     1      -8.131   9.842  65.047  1.00  0.00    -0.140 A  
HETATM   17  S   UNL     1      -9.851   9.382  64.902  1.00  0.00     0.557 SA 
HETATM   18  C   UNL     1     -10.496  11.035  64.791  1.00  0.00    -0.316 A  
HETATM   19  C   UNL     1     -10.286  11.994  65.791  1.00  0.00    -0.289 A  
HETATM   20  C   UNL     1     -10.791  13.294  65.633  1.00  0.00    -0.291 A  
HETATM   21  C   UNL     1     -11.522  13.623  64.496  1.00  0.00    -0.379 A  
HETATM   22  C   UNL     1     -11.735  12.678  63.498  1.00  0.00    -0.604 A  
HETATM   23 CL   UNL     1     -12.192  15.200  64.340  1.00  0.00    -0.394 Cl 
HETATM   24  C   UNL     1     -11.217  11.389  63.641  1.00  0.00    -0.366 A  
ENDBRANCH   5   8
TORSDOF 1
ENDMDL
MODEL      151
REMARK 921   NORMALIZED FREE ENERGY PREDICTED BY IDOCK:   -1.83 KCAL/MOL
REMARK 922        TOTAL FREE ENERGY PREDICTED BY IDOCK:   -2.17 KCAL/MOL
REMARK 923 INTER-LIGAND FREE ENERGY PREDICTED BY IDOCK:   -1.74 KCAL/MOL
REMARK 924 INTRA-LIGAND FREE ENERGY PREDICTED BY IDOCK:   -0.43 KCAL/MOL
REMARK 927      BINDING AFFINITY PREDICTED BY RF-SCORE:    0.00 PKD
ROOT
HETATM    1  C   UNL     1     -10.059   4.806  65.149  1.00  0.00     0.032 C  
HETATM    2  N   UNL     1      -9.055   4.097  65.937  1.00  0.00    -0.129 NA 
HETATM    3  C   UNL     1      -7.789   4.853  66.025  1.00  0.00    -0.099 C  
HETATM    4  C   UNL     1      -7.828   6.107  66.927  1.00  0.00    -0.104 C  
HETATM    5  N   UNL     1      -8.349   5.785  68.262  1.00  0.00    -0.107 NA 
HETATM    6  C   UNL     1      -9.604   5.019  68.263  1.00  0.00    -0.140 C  
HETATM    7  C   UNL     1      -9.530   3.805  67.310  1.00  0.00    -0.200 C  
ENDROOT
BRANCH   5   8
HETATM    8  C   UNL     1      -7.715   6.154  69.451  1.00  0.00    -0.099 C  
HETATM    9  N   UNL     1      -7.526   7.423  69.694  1.00  0.00    -0.091 NA 
HETATM   10  C   UNL     1      -6.895   7.946  70.840  1.00  0.00    -0.041 A  
HETATM   11  H   UNL     1      -7.862   8.089  68.998  1.00  0.00     0.000 HD 
HETATM   12  C   UNL     1      -5.962   8.972  70.630  1.00  0.00    -0.038 A  
HETATM   13  C   UNL     1      -5.310   9.596  71.698  1.00  0.00    -0.076 A  
HETATM   14  C   UNL     1      -5.590   9.208  73.002  1.00  0.00    -0.055 A  
HETATM   15  C   UNL     1      -6.538   8.214  73.238  1.00  0.00    -0.115 A  
HETATM   16  C   UNL     1      -7.203   7.597  72.167  1.00  0.00    -0.071 A  
HETATM   17  S   UNL     1      -8.397   6.325  72.553  1.00  0.00    -0.112 SA 
HETATM   18  C   UNL     1      -7.559   4.998  71.719  1.00  0.00    -0.104 A  
HETATM   19  C   UNL     1      -7.254   5.040  70.352  1.00  0.00    -0.054 A  
HETATM   20  C   UNL     1      -6.560   3.976  69.755  1.00  0.00    -0.033 A  
HETATM   21  C   UNL     1      -6.199   2.868  70.513  1.00  0.00    -0.023 A  
HETATM   22  C   UNL     1      -6.498   2.816  71.871  1.00  0.00    -0.015 A  
HETATM   23 CL   UNL     1      -5.407   1.540  69.760  1.00  0.00    -0.011 Cl 
HETATM   24  C   UNL     1      -7.169   3.882  72.474  1.00  0.00    -0.057 A  
ENDBRANCH   5   8
TORSDOF 1
ENDMDL
MODEL      152
REMARK 921   NORMALIZED FREE ENERGY PREDICTED BY IDOCK:   -1.50 KCAL/MOL
REMARK 922        TOTAL FREE ENERGY PREDICTED BY IDOCK:   -1.82 KCAL/MOL
REMARK 923 INTER-LIGAND FREE ENERGY PREDICTED BY IDOCK:   -1.69 KCAL/MOL
REMARK 924 INTRA-LIGAND FREE ENERGY PREDICTED BY IDOCK:   -0.13 KCAL/MOL
REMARK 927      BINDING AFFINITY PREDICTED BY RF-SCORE:    0.00 PKD
ROOT
HETATM    1  C   UNL     1      -5.449  12.128  70.543  1.00  0.00    -0.158 C  
HETATM    2  N   UNL     1      -6.701  12.593  69.953  1.00  0.00     0.135 NA 
HETATM    3  C   UNL     1      -7.243  13.766  70.667  1.00  0.00     1.637 C  
HETATM    4  C   UNL     1      -6.475  15.088  70.448  1.00  0.00    -0.039 C  
HETATM    5  N   UNL     1      -6.300  15.371  69.017  1.00  0.00    -0.107 NA 
HETATM    6  C   UNL     1      -5.776  14.246  68.229  1.00  0.00    -0.117 C  
HETATM    7  C   UNL     1      -6.546  12.939  68.520  1.00  0.00    -0.087 C  
ENDROOT
BRANCH   5   8
HETATM    8  C   UNL     1      -6.614  16.597  68.424  1.00  0.00    -0.140 C  
HETATM    9  N   UNL     1      -5.659  17.470  68.245  1.00  0.00    -0.145 NA 
HETATM   10  C   UNL     1      -5.821  18.747  67.674  1.00  0.00    -0.180 A  
HETATM   11  H   UNL     1      -4.719  17.205  68.544  1.00  0.00     0.000 HD 
HETATM   12  C   UNL     1      -5.178  19.811  68.322  1.00  0.00    -0.202 A  
HETATM   13  C   UNL     1      -5.233  21.114  67.816  1.00  0.00    -0.323 A  
HETATM   14  C   UNL     1      -5.928  21.373  66.642  1.00  0.00    -0.376 A  
HETATM   15  C   UNL     1      -6.548  20.326  65.962  1.00  0.00    -0.255 A  
HETATM   16  C   UNL     1      -6.481  19.015  66.462  1.00  0.00    -0.190 A  
HETATM   17  S   UNL     1      -7.310  17.731  65.536  1.00  0.00     0.688 SA 
HETATM   18  C   UNL     1      -8.465  17.275  66.808  1.00  0.00    -0.247 A  
HETATM   19  C   UNL     1      -8.057  16.837  68.074  1.00  0.00    -0.187 A  
HETATM   20  C   UNL     1      -9.016  16.523  69.050  1.00  0.00    -0.225 A  
HETATM   21  C   UNL     1     -10.371  16.621  68.752  1.00  0.00    -0.301 A  
HETATM   22  C   UNL     1     -10.786  17.056  67.497  1.00  0.00    -0.266 A  
HETATM   23 CL   UNL     1     -11.539  16.173  69.932  1.00  0.00    -0.293 Cl 
HETATM   24  C   UNL     1      -9.836  17.390  66.530  1.00  0.00    -0.310 A  
ENDBRANCH   5   8
TORSDOF 1
ENDMDL
MODEL      153
REMARK 921   NORMALIZED FREE ENERGY PREDICTED BY IDOCK:   -1.41 KCAL/MOL
REMARK 922        TOTAL FREE ENERGY PREDICTED BY IDOCK:   -1.73 KCAL/MOL
REMARK 923 INTER-LIGAND FREE ENERGY PREDICTED BY IDOCK:   -2.35 KCAL/MOL
REMARK 924 INTRA-LIGAND FREE ENERGY PREDICTED BY IDOCK:    0.62 KCAL/MOL
REMARK 927      BINDING AFFINITY PREDICTED BY RF-SCORE:    0.00 PKD
ROOT
HETATM    1  C   UNL     1      -8.934   3.359  65.821  1.00  0.00    -0.143 C  
HETATM    2  N   UNL     1      -8.684   3.172  67.247  1.00  0.00    -0.112 NA 
HETATM    3  C   UNL     1      -7.346   3.661  67.639  1.00  0.00    -0.062 C  
HETATM    4  C   UNL     1      -7.183   5.197  67.660  1.00  0.00    -0.067 C  
HETATM    5  N   UNL     1      -8.238   5.833  68.460  1.00  0.00    -0.107 NA 
HETATM    6  C   UNL     1      -9.603   5.389  68.140  1.00  0.00    -0.124 C  
HETATM    7  C   UNL     1      -9.702   3.849  68.084  1.00  0.00    -0.058 C  
ENDROOT
BRANCH   5   8
HETATM    8  C   UNL     1      -7.991   6.777  69.461  1.00  0.00    -0.125 C  
HETATM    9  N   UNL     1      -6.794   6.842  69.980  1.00  0.00    -0.056 NA 
HETATM   10  C   UNL     1      -6.397   7.729  70.999  1.00  0.00    -0.037 A  
HETATM   11  H   UNL     1      -6.090   6.197  69.617  1.00  0.00     0.000 HD 
HETATM   12  C   UNL     1      -5.625   7.188  72.037  1.00  0.00    -0.037 A  
HETATM   13  C   UNL     1      -5.137   7.985  73.077  1.00  0.00    -0.036 A  
HETATM   14  C   UNL     1      -5.407   9.348  73.089  1.00  0.00    -0.055 A  
HETATM   15  C   UNL     1      -6.144   9.915  72.051  1.00  0.00     0.423 A  
HETATM   16  C   UNL     1      -6.622   9.117  71.000  1.00  0.00    -0.086 A  
HETATM   17  S   UNL     1      -7.566   9.918  69.711  1.00  0.00    -0.166 SA 
HETATM   18  C   UNL     1      -9.079   9.024  69.980  1.00  0.00    -0.176 A  
HETATM   19  C   UNL     1      -9.152   7.627  69.900  1.00  0.00    -0.147 A  
HETATM   20  C   UNL     1     -10.367   6.972  70.155  1.00  0.00    -0.213 A  
HETATM   21  C   UNL     1     -11.505   7.712  70.461  1.00  0.00    -0.218 A  
HETATM   22  C   UNL     1     -11.441   9.099  70.544  1.00  0.00    -0.271 A  
HETATM   23 CL   UNL     1     -13.004   6.906  70.709  1.00  0.00    -0.131 Cl 
HETATM   24  C   UNL     1     -10.230   9.753  70.311  1.00  0.00    -0.346 A  
ENDBRANCH   5   8
TORSDOF 1
ENDMDL
MODEL      154
REMARK 921   NORMALIZED FREE ENERGY PREDICTED BY IDOCK:   -1.15 KCAL/MOL
REMARK 922        TOTAL FREE ENERGY PREDICTED BY IDOCK:   -1.45 KCAL/MOL
REMARK 923 INTER-LIGAND FREE ENERGY PREDICTED BY IDOCK:   -1.72 KCAL/MOL
REMARK 924 INTRA-LIGAND FREE ENERGY PREDICTED BY IDOCK:    0.27 KCAL/MOL
REMARK 927      BINDING AFFINITY PREDICTED BY RF-SCORE:    0.00 PKD
ROOT
HETATM    1  C   UNL     1      -6.404  13.801  69.056  1.00  0.00    -0.100 C  
HETATM    2  N   UNL     1      -6.089  12.438  69.473  1.00  0.00    -0.108 NA 
HETATM    3  C   UNL     1      -7.302  11.601  69.579  1.00  0.00     0.191 C  
HETATM    4  C   UNL     1      -7.949  11.200  68.234  1.00  0.00    -0.127 C  
HETATM    5  N   UNL     1      -6.962  10.595  67.329  1.00  0.00    -0.082 NA 
HETATM    6  C   UNL     1      -5.716  11.361  67.180  1.00  0.00    -0.092 C  
HETATM    7  C   UNL     1      -5.137  11.779  68.549  1.00  0.00    -0.042 C  
ENDROOT
BRANCH   5   8
HETATM    8  C   UNL     1      -7.161   9.383  66.663  1.00  0.00    -0.086 C  
HETATM    9  N   UNL     1      -7.111   9.368  65.358  1.00  0.00    -0.089 NA 
HETATM   10  C   UNL     1      -7.301   8.231  64.550  1.00  0.00    -0.091 A  
HETATM   11  H   UNL     1      -6.918  10.252  64.886  1.00  0.00     0.000 HD 
HETATM   12  C   UNL     1      -8.120   8.391  63.423  1.00  0.00    -0.145 A  
HETATM   13  C   UNL     1      -8.341   7.341  62.526  1.00  0.00     0.018 A  
HETATM   14  C   UNL     1      -7.734   6.109  62.738  1.00  0.00    -0.086 A  
HETATM   15  C   UNL     1      -6.889   5.935  63.833  1.00  0.00    -0.038 A  
HETATM   16  C   UNL     1      -6.657   6.993  64.726  1.00  0.00    -0.043 A  
HETATM   17  S   UNL     1      -5.568   6.687  66.110  1.00  0.00    -0.018 SA 
HETATM   18  C   UNL     1      -6.775   6.968  67.385  1.00  0.00    -0.067 A  
HETATM   19  C   UNL     1      -7.466   8.179  67.513  1.00  0.00    -0.094 A  
HETATM   20  C   UNL     1      -8.433   8.332  68.520  1.00  0.00    -0.126 A  
HETATM   21  C   UNL     1      -8.685   7.290  69.406  1.00  0.00    -0.137 A  
HETATM   22  C   UNL     1      -8.003   6.084  69.286  1.00  0.00    -0.103 A  
HETATM   23 CL   UNL     1      -9.824   7.508  70.676  1.00  0.00    -0.179 Cl 
HETATM   24  C   UNL     1      -7.056   5.920  68.274  1.00  0.00    -0.078 A  
ENDBRANCH   5   8
TORSDOF 1
ENDMDL
MODEL      155
REMARK 921   NORMALIZED FREE ENERGY PREDICTED BY IDOCK:   -1.14 KCAL/MOL
REMARK 922        TOTAL FREE ENERGY PREDICTED BY IDOCK:   -1.44 KCAL/MOL
REMARK 923 INTER-LIGAND FREE ENERGY PREDICTED BY IDOCK:   -1.69 KCAL/MOL
REMARK 924 INTRA-LIGAND FREE ENERGY PREDICTED BY IDOCK:    0.25 KCAL/MOL
REMARK 927      BINDING AFFINITY PREDICTED BY RF-SCORE:    0.00 PKD
ROOT
HETATM    1  C   UNL     1      -6.286   2.371  72.266  1.00  0.00    -0.014 C  
HETATM    2  N   UNL     1      -7.096   3.585  72.318  1.00  0.00    -0.044 NA 
HETATM    3  C   UNL     1      -6.278   4.800  72.129  1.00  0.00    -0.025 C  
HETATM    4  C   UNL     1      -5.757   5.030  70.692  1.00  0.00    -0.016 C  
HETATM    5  N   UNL     1      -6.850   4.967  69.713  1.00  0.00    -0.050 NA 
HETATM    6  C   UNL     1      -7.723   3.791  69.843  1.00  0.00    -0.051 C  
HETATM    7  C   UNL     1      -8.177   3.577  71.304  1.00  0.00    -0.067 C  
ENDROOT
BRANCH   5   8
HETATM    8  C   UNL     1      -7.074   5.941  68.737  1.00  0.00    -0.081 C  
HETATM    9  N   UNL     1      -7.037   5.589  67.480  1.00  0.00    -0.072 NA 
HETATM   10  C   UNL     1      -7.231   6.455  66.387  1.00  0.00    -0.073 A  
HETATM   11  H   UNL     1      -6.853   4.607  67.273  1.00  0.00     0.000 HD 
HETATM   12  C   UNL     1      -6.337   6.324  65.314  1.00  0.00    -0.038 A  
HETATM   13  C   UNL     1      -6.464   7.101  64.158  1.00  0.00    -0.043 A  
HETATM   14  C   UNL     1      -7.501   8.020  64.052  1.00  0.00    -0.109 A  
HETATM   15  C   UNL     1      -8.422   8.145  65.090  1.00  0.00    -0.134 A  
HETATM   16  C   UNL     1      -8.302   7.356  66.245  1.00  0.00    -0.132 A  
HETATM   17  S   UNL     1      -9.518   7.583  67.535  1.00  0.00    -0.143 SA 
HETATM   18  C   UNL     1      -8.384   8.128  68.791  1.00  0.00    -0.126 A  
HETATM   19  C   UNL     1      -7.300   7.350  69.216  1.00  0.00    -0.086 A  
HETATM   20  C   UNL     1      -6.417   7.847  70.188  1.00  0.00    -0.037 A  
HETATM   21  C   UNL     1      -6.635   9.101  70.748  1.00  0.00    -0.074 A  
HETATM   22  C   UNL     1      -7.709   9.881  70.333  1.00  0.00    -0.094 A  
HETATM   23 CL   UNL     1      -5.586   9.675  71.985  1.00  0.00    -0.036 Cl 
HETATM   24  C   UNL     1      -8.577   9.400  69.351  1.00  0.00    -0.148 A  
ENDBRANCH   5   8
TORSDOF 1
ENDMDL
MODEL      156
REMARK 921   NORMALIZED FREE ENERGY PREDICTED BY IDOCK:   -0.56 KCAL/MOL
REMARK 922        TOTAL FREE ENERGY PREDICTED BY IDOCK:   -0.83 KCAL/MOL
REMARK 923 INTER-LIGAND FREE ENERGY PREDICTED BY IDOCK:   -1.15 KCAL/MOL
REMARK 924 INTRA-LIGAND FREE ENERGY PREDICTED BY IDOCK:    0.33 KCAL/MOL
REMARK 927      BINDING AFFINITY PREDICTED BY RF-SCORE:    0.00 PKD
ROOT
HETATM    1  C   UNL     1      -5.646  12.355  70.267  1.00  0.00    -0.156 C  
HETATM    2  N   UNL     1      -6.816  12.906  69.588  1.00  0.00     0.089 NA 
HETATM    3  C   UNL     1      -7.236  14.194  70.177  1.00  0.00     0.437 C  
HETATM    4  C   UNL     1      -6.310  15.393  69.875  1.00  0.00    -0.158 C  
HETATM    5  N   UNL     1      -6.060  15.523  68.433  1.00  0.00    -0.100 NA 
HETATM    6  C   UNL     1      -5.650  14.279  67.767  1.00  0.00    -0.034 C  
HETATM    7  C   UNL     1      -6.578  13.101  68.139  1.00  0.00    -0.107 C  
ENDROOT
BRANCH   5   8
HETATM    8  C   UNL     1      -6.208  16.718  67.725  1.00  0.00    -0.144 C  
HETATM    9  N   UNL     1      -6.035  16.706  66.431  1.00  0.00    -0.206 NA 
HETATM   10  C   UNL     1      -6.138  17.829  65.586  1.00  0.00    -0.098 A  
HETATM   11  H   UNL     1      -5.805  15.812  65.997  1.00  0.00     0.000 HD 
HETATM   12  C   UNL     1      -5.137  17.980  64.616  1.00  0.00     0.098 A  
HETATM   13  C   UNL     1      -5.165  19.031  63.695  1.00  0.00    -0.280 A  
HETATM   14  C   UNL     1      -6.208  19.949  63.723  1.00  0.00    -0.011 A  
HETATM   15  C   UNL     1      -7.233  19.801  64.656  1.00  0.00     0.744 A  
HETATM   16  C   UNL     1      -7.212  18.737  65.572  1.00  0.00    -0.035 A  
HETATM   17  S   UNL     1      -8.558  18.623  66.742  1.00  0.00    -0.296 SA 
HETATM   18  C   UNL     1      -7.572  18.819  68.208  1.00  0.00    -0.281 A  
HETATM   19  C   UNL     1      -6.517  17.954  68.527  1.00  0.00    -0.211 A  
HETATM   20  C   UNL     1      -5.751  18.178  69.682  1.00  0.00    -0.240 A  
HETATM   21  C   UNL     1      -6.056  19.243  70.523  1.00  0.00    -0.067 A  
HETATM   22  C   UNL     1      -7.101  20.107  70.214  1.00  0.00     0.280 A  
HETATM   23 CL   UNL     1      -5.153  19.473  71.969  1.00  0.00    -0.278 Cl 
HETATM   24  C   UNL     1      -7.852  19.901  69.056  1.00  0.00    -0.100 A  
ENDBRANCH   5   8
TORSDOF 1
ENDMDL
MODEL      157
REMARK 921   NORMALIZED FREE ENERGY PREDICTED BY IDOCK:   -0.35 KCAL/MOL
REMARK 922        TOTAL FREE ENERGY PREDICTED BY IDOCK:   -0.60 KCAL/MOL
REMARK 923 INTER-LIGAND FREE ENERGY PREDICTED BY IDOCK:   -0.81 KCAL/MOL
REMARK 924 INTRA-LIGAND FREE ENERGY PREDICTED BY IDOCK:    0.21 KCAL/MOL
REMARK 927      BINDING AFFINITY PREDICTED BY RF-SCORE:    0.00 PKD
ROOT
HETATM    1  C   UNL     1      -6.408  13.801  69.060  1.00  0.00    -0.100 C  
HETATM    2  N   UNL     1      -6.071  12.456  69.518  1.00  0.00    -0.108 NA 
HETATM    3  C   UNL     1      -7.274  11.615  69.683  1.00  0.00     0.219 C  
HETATM    4  C   UNL     1      -7.949  11.161  68.369  1.00  0.00    -0.137 C  
HETATM    5  N   UNL     1      -6.979  10.531  67.463  1.00  0.00    -0.079 NA 
HETATM    6  C   UNL     1      -5.744  11.301  67.256  1.00  0.00    -0.069 C  
HETATM    7  C   UNL     1      -5.136  11.772  68.595  1.00  0.00    -0.046 C  
ENDROOT
BRANCH   5   8
HETATM    8  C   UNL     1      -7.184   9.295  66.846  1.00  0.00    -0.086 C  
HETATM    9  N   UNL     1      -7.271   8.227  67.593  1.00  0.00    -0.087 NA 
HETATM   10  C   UNL     1      -7.465   6.916  67.118  1.00  0.00    -0.095 A  
HETATM   11  H   UNL     1      -7.193   8.354  68.603  1.00  0.00     0.000 HD 
HETATM   12  C   UNL     1      -6.667   5.915  67.693  1.00  0.00    -0.058 A  
HETATM   13  C   UNL     1      -6.806   4.572  67.330  1.00  0.00    -0.059 A  
HETATM   14  C   UNL     1      -7.759   4.204  66.388  1.00  0.00    -0.090 A  
HETATM   15  C   UNL     1      -8.587   5.175  65.827  1.00  0.00    -0.135 A  
HETATM   16  C   UNL     1      -8.456   6.522  66.201  1.00  0.00    -0.137 A  
HETATM   17  S   UNL     1      -9.548   7.708  65.430  1.00  0.00     1.217 SA 
HETATM   18  C   UNL     1      -8.280   8.664  64.631  1.00  0.00    -0.165 A  
HETATM   19  C   UNL     1      -7.244   9.283  65.342  1.00  0.00    -0.090 A  
HETATM   20  C   UNL     1      -6.251   9.999  64.654  1.00  0.00    -0.124 A  
HETATM   21  C   UNL     1      -6.311  10.115  63.270  1.00  0.00    -0.140 A  
HETATM   22  C   UNL     1      -7.337   9.504  62.555  1.00  0.00    -0.104 A  
HETATM   23 CL   UNL     1      -5.127  11.047  62.440  1.00  0.00    -0.178 Cl 
HETATM   24  C   UNL     1      -8.314   8.774  63.233  1.00  0.00    -0.161 A  
ENDBRANCH   5   8
TORSDOF 1
ENDMDL
MODEL      158
REMARK 921   NORMALIZED FREE ENERGY PREDICTED BY IDOCK:   -0.34 KCAL/MOL
REMARK 922        TOTAL FREE ENERGY PREDICTED BY IDOCK:   -0.59 KCAL/MOL
REMARK 923 INTER-LIGAND FREE ENERGY PREDICTED BY IDOCK:   -0.45 KCAL/MOL
REMARK 924 INTRA-LIGAND FREE ENERGY PREDICTED BY IDOCK:   -0.14 KCAL/MOL
REMARK 927      BINDING AFFINITY PREDICTED BY RF-SCORE:    0.00 PKD
ROOT
HETATM    1  C   UNL     1      -9.029   3.132  63.310  1.00  0.00    -0.092 C  
HETATM    2  N   UNL     1      -7.995   3.740  64.143  1.00  0.00    -0.085 NA 
HETATM    3  C   UNL     1      -8.139   5.209  64.213  1.00  0.00    -0.125 C  
HETATM    4  C   UNL     1      -9.330   5.717  65.057  1.00  0.00     0.424 C  
HETATM    5  N   UNL     1      -9.325   5.118  66.399  1.00  0.00    -0.139 NA 
HETATM    6  C   UNL     1      -9.170   3.657  66.417  1.00  0.00    -0.167 C  
HETATM    7  C   UNL     1      -7.999   3.196  65.521  1.00  0.00    -0.086 C  
ENDROOT
BRANCH   5   8
HETATM    8  C   UNL     1      -9.441   5.858  67.578  1.00  0.00    -0.110 C  
HETATM    9  N   UNL     1     -10.620   5.985  68.126  1.00  0.00    -0.237 NA 
HETATM   10  C   UNL     1     -10.896   6.705  69.304  1.00  0.00    -0.289 A  
HETATM   11  H   UNL     1     -11.404   5.525  67.662  1.00  0.00     0.000 HD 
HETATM   12  C   UNL     1     -12.027   7.534  69.283  1.00  0.00     1.210 A  
HETATM   13  C   UNL     1     -12.421   8.260  70.412  1.00  0.00     0.580 A  
HETATM   14  C   UNL     1     -11.692   8.160  71.590  1.00  0.00    -0.330 A  
HETATM   15  C   UNL     1     -10.583   7.316  71.645  1.00  0.00    -0.228 A  
HETATM   16  C   UNL     1     -10.195   6.577  70.517  1.00  0.00    -0.190 A  
HETATM   17  S   UNL     1      -8.757   5.527  70.667  1.00  0.00    -0.131 SA 
HETATM   18  C   UNL     1      -7.771   6.354  69.441  1.00  0.00    -0.101 A  
HETATM   19  C   UNL     1      -8.186   6.496  68.111  1.00  0.00    -0.117 A  
HETATM   20  C   UNL     1      -7.379   7.189  67.194  1.00  0.00    -0.090 A  
HETATM   21  C   UNL     1      -6.156   7.711  67.600  1.00  0.00    -0.048 A  
HETATM   22  C   UNL     1      -5.735   7.575  68.919  1.00  0.00    -0.023 A  
HETATM   23 CL   UNL     1      -5.145   8.502  66.455  1.00  0.00    -0.027 Cl 
HETATM   24  C   UNL     1      -6.543   6.905  69.839  1.00  0.00    -0.044 A  
ENDBRANCH   5   8
TORSDOF 1
ENDMDL
MODEL      159
REMARK 921   NORMALIZED FREE ENERGY PREDICTED BY IDOCK:    0.15 KCAL/MOL
REMARK 922        TOTAL FREE ENERGY PREDICTED BY IDOCK:   -0.07 KCAL/MOL
REMARK 923 INTER-LIGAND FREE ENERGY PREDICTED BY IDOCK:    0.29 KCAL/MOL
REMARK 924 INTRA-LIGAND FREE ENERGY PREDICTED BY IDOCK:   -0.37 KCAL/MOL
REMARK 927      BINDING AFFINITY PREDICTED BY RF-SCORE:    0.00 PKD
ROOT
HETATM    1  C   UNL     1      -5.150  13.797  69.909  1.00  0.00    -0.089 C  
HETATM    2  N   UNL     1      -5.470  12.429  70.306  1.00  0.00    -0.123 NA 
HETATM    3  C   UNL     1      -6.899  12.275  70.648  1.00  0.00     1.918 C  
HETATM    4  C   UNL     1      -7.874  12.314  69.450  1.00  0.00     0.662 C  
HETATM    5  N   UNL     1      -7.471  11.363  68.406  1.00  0.00    -0.103 NA 
HETATM    6  C   UNL     1      -6.056  11.441  68.017  1.00  0.00    -0.046 C  
HETATM    7  C   UNL     1      -5.126  11.448  69.251  1.00  0.00    -0.044 C  
ENDROOT
BRANCH   5   8
HETATM    8  C   UNL     1      -8.340  10.437  67.822  1.00  0.00    -0.114 C  
HETATM    9  N   UNL     1      -8.026   9.170  67.861  1.00  0.00    -0.100 NA 
HETATM   10  C   UNL     1      -8.792   8.125  67.309  1.00  0.00    -0.130 A  
HETATM   11  H   UNL     1      -7.154   8.917  68.328  1.00  0.00     0.000 HD 
HETATM   12  C   UNL     1      -8.094   7.150  66.582  1.00  0.00    -0.109 A  
HETATM   13  C   UNL     1      -8.747   6.044  66.030  1.00  0.00    -0.154 A  
HETATM   14  C   UNL     1     -10.116   5.889  66.206  1.00  0.00    -0.100 A  
HETATM   15  C   UNL     1     -10.827   6.827  66.953  1.00  0.00    -0.402 A  
HETATM   16  C   UNL     1     -10.169   7.931  67.519  1.00  0.00    -0.242 A  
HETATM   17  S   UNL     1     -11.153   9.093  68.455  1.00  0.00     0.300 SA 
HETATM   18  C   UNL     1     -10.856  10.500  67.409  1.00  0.00    -0.291 A  
HETATM   19  C   UNL     1      -9.568  10.986  67.147  1.00  0.00    -0.189 A  
HETATM   20  C   UNL     1      -9.393  12.080  66.285  1.00  0.00    -0.228 A  
HETATM   21  C   UNL     1     -10.499  12.699  65.713  1.00  0.00    -0.277 A  
HETATM   22  C   UNL     1     -11.782  12.224  65.967  1.00  0.00    -0.451 A  
HETATM   23 CL   UNL     1     -10.280  14.079  64.710  1.00  0.00    -0.411 Cl 
HETATM   24  C   UNL     1     -11.959  11.122  66.806  1.00  0.00     1.019 A  
ENDBRANCH   5   8
TORSDOF 1
ENDMDL
MODEL      160
REMARK 921   NORMALIZED FREE ENERGY PREDICTED BY IDOCK:    0.41 KCAL/MOL
REMARK 922        TOTAL FREE ENERGY PREDICTED BY IDOCK:    0.20 KCAL/MOL
REMARK 923 INTER-LIGAND FREE ENERGY PREDICTED BY IDOCK:    0.61 KCAL/MOL
REMARK 924 INTRA-LIGAND FREE ENERGY PREDICTED BY IDOCK:   -0.40 KCAL/MOL
REMARK 927      BINDING AFFINITY PREDICTED BY RF-SCORE:    0.00 PKD
ROOT
HETATM    1  C   UNL     1      -7.956   4.090  70.214  1.00  0.00    -0.051 C  
HETATM    2  N   UNL     1      -6.884   4.987  70.636  1.00  0.00    -0.039 NA 
HETATM    3  C   UNL     1      -6.071   5.449  69.492  1.00  0.00    -0.021 C  
HETATM    4  C   UNL     1      -6.761   6.470  68.560  1.00  0.00    -0.068 C  
HETATM    5  N   UNL     1      -7.302   7.604  69.321  1.00  0.00    -0.086 NA 
HETATM    6  C   UNL     1      -8.113   7.229  70.488  1.00  0.00    -0.109 C  
HETATM    7  C   UNL     1      -7.401   6.171  71.360  1.00  0.00    -0.088 C  
ENDROOT
BRANCH   5   8
HETATM    8  C   UNL     1      -7.067   8.942  68.992  1.00  0.00    -0.064 C  
HETATM    9  N   UNL     1      -6.335   9.666  69.795  1.00  0.00    -0.044 NA 
HETATM   10  C   UNL     1      -6.021  11.026  69.605  1.00  0.00    -0.070 A  
HETATM   11  H   UNL     1      -5.962   9.210  70.629  1.00  0.00     0.000 HD 
HETATM   12  C   UNL     1      -6.129  11.859  70.728  1.00  0.00     0.290 A  
HETATM   13  C   UNL     1      -5.797  13.216  70.665  1.00  0.00    -0.143 A  
HETATM   14  C   UNL     1      -5.341  13.763  69.472  1.00  0.00    -0.085 A  
HETATM   15  C   UNL     1      -5.193  12.948  68.351  1.00  0.00    -0.068 A  
HETATM   16  C   UNL     1      -5.513  11.583  68.418  1.00  0.00    -0.045 A  
HETATM   17  S   UNL     1      -5.306  10.608  66.934  1.00  0.00    -0.052 SA 
HETATM   18  C   UNL     1      -7.014  10.153  66.748  1.00  0.00    -0.091 A  
HETATM   19  C   UNL     1      -7.721   9.462  67.741  1.00  0.00    -0.088 A  
HETATM   20  C   UNL     1      -9.079   9.159  67.552  1.00  0.00    -0.137 A  
HETATM   21  C   UNL     1      -9.715   9.520  66.369  1.00  0.00    -0.232 A  
HETATM   22  C   UNL     1      -9.020  10.206  65.378  1.00  0.00    -0.208 A  
HETATM   23 CL   UNL     1     -11.361   9.087  66.119  1.00  0.00     2.231 Cl 
HETATM   24  C   UNL     1      -7.676  10.528  65.570  1.00  0.00    -0.127 A  
ENDBRANCH   5   8
TORSDOF 1
ENDMDL
MODEL      161
REMARK 921   NORMALIZED FREE ENERGY PREDICTED BY IDOCK:    0.47 KCAL/MOL
REMARK 922        TOTAL FREE ENERGY PREDICTED BY IDOCK:    0.26 KCAL/MOL
REMARK 923 INTER-LIGAND FREE ENERGY PREDICTED BY IDOCK:   -0.16 KCAL/MOL
REMARK 924 INTRA-LIGAND FREE ENERGY PREDICTED BY IDOCK:    0.43 KCAL/MOL
REMARK 927      BINDING AFFINITY PREDICTED BY RF-SCORE:    0.00 PKD
ROOT
HETATM    1  C   UNL     1     -10.845   5.957  66.351  1.00  0.00    -0.037 C  
HETATM    2  N   UNL     1     -10.891   6.262  67.778  1.00  0.00    -0.310 NA 
HETATM    3  C   UNL     1      -9.549   6.222  68.393  1.00  0.00    -0.121 C  
HETATM    4  C   UNL     1      -8.616   7.396  68.020  1.00  0.00    -0.122 C  
HETATM    5  N   UNL     1      -9.269   8.690  68.253  1.00  0.00    -0.138 NA 
HETATM    6  C   UNL     1     -10.620   8.807  67.684  1.00  0.00    -0.213 C  
HETATM    7  C   UNL     1     -11.497   7.588  68.045  1.00  0.00     0.900 C  
ENDROOT
BRANCH   5   8
HETATM    8  C   UNL     1      -8.683   9.738  68.968  1.00  0.00    -0.148 C  
HETATM    9  N   UNL     1      -7.452   9.603  69.382  1.00  0.00    -0.085 NA 
HETATM   10  C   UNL     1      -6.733  10.563  70.121  1.00  0.00    -0.148 A  
HETATM   11  H   UNL     1      -6.972   8.732  69.153  1.00  0.00     0.000 HD 
HETATM   12  C   UNL     1      -5.993  10.090  71.214  1.00  0.00     0.032 A  
HETATM   13  C   UNL     1      -5.205  10.947  71.989  1.00  0.00     0.183 A  
HETATM   14  C   UNL     1      -5.137  12.298  71.674  1.00  0.00    -0.041 A  
HETATM   15  C   UNL     1      -5.836  12.787  70.572  1.00  0.00    -0.132 A  
HETATM   16  C   UNL     1      -6.616  11.924  69.786  1.00  0.00    -0.022 A  
HETATM   17  S   UNL     1      -7.490  12.630  68.396  1.00  0.00    -0.130 SA 
HETATM   18  C   UNL     1      -9.129  12.249  68.970  1.00  0.00     0.439 A  
HETATM   19  C   UNL     1      -9.544  10.940  69.247  1.00  0.00    -0.067 A  
HETATM   20  C   UNL     1     -10.841  10.703  69.731  1.00  0.00    -0.317 A  
HETATM   21  C   UNL     1     -11.722  11.765  69.908  1.00  0.00    -0.323 A  
HETATM   22  C   UNL     1     -11.318  13.068  69.635  1.00  0.00    -0.176 A  
HETATM   23 CL   UNL     1     -13.329  11.459  70.439  1.00  0.00     0.495 Cl 
HETATM   24  C   UNL     1     -10.023  13.310  69.175  1.00  0.00     0.315 A  
ENDBRANCH   5   8
TORSDOF 1
ENDMDL
MODEL      162
REMARK 921   NORMALIZED FREE ENERGY PREDICTED BY IDOCK:    0.85 KCAL/MOL
REMARK 922        TOTAL FREE ENERGY PREDICTED BY IDOCK:    0.66 KCAL/MOL
REMARK 923 INTER-LIGAND FREE ENERGY PREDICTED BY IDOCK:    0.53 KCAL/MOL
REMARK 924 INTRA-LIGAND FREE ENERGY PREDICTED BY IDOCK:    0.13 KCAL/MOL
REMARK 927      BINDING AFFINITY PREDICTED BY RF-SCORE:    0.00 PKD
ROOT
HETATM    1  C   UNL     1      -6.327  14.614  69.212  1.00  0.00    -0.116 C  
HETATM    2  N   UNL     1      -6.078  13.231  69.608  1.00  0.00    -0.112 NA 
HETATM    3  C   UNL     1      -7.326  12.443  69.666  1.00  0.00     0.626 C  
HETATM    4  C   UNL     1      -7.954  12.096  68.298  1.00  0.00    -0.163 C  
HETATM    5  N   UNL     1      -6.970  11.469  67.405  1.00  0.00    -0.102 NA 
HETATM    6  C   UNL     1      -5.691  12.186  67.303  1.00  0.00    -0.141 C  
HETATM    7  C   UNL     1      -5.130  12.552  68.695  1.00  0.00    -0.056 C  
ENDROOT
BRANCH   5   8
HETATM    8  C   UNL     1      -7.201  10.280  66.709  1.00  0.00    -0.105 C  
HETATM    9  N   UNL     1      -6.178   9.627  66.225  1.00  0.00    -0.067 NA 
HETATM   10  C   UNL     1      -6.253   8.425  65.495  1.00  0.00    -0.045 A  
HETATM   11  H   UNL     1      -5.251  10.020  66.389  1.00  0.00     0.000 HD 
HETATM   12  C   UNL     1      -5.457   8.339  64.344  1.00  0.00    -0.044 A  
HETATM   13  C   UNL     1      -5.416   7.176  63.569  1.00  0.00    -0.033 A  
HETATM   14  C   UNL     1      -6.169   6.069  63.941  1.00  0.00    -0.029 A  
HETATM   15  C   UNL     1      -6.942   6.118  65.100  1.00  0.00    -0.056 A  
HETATM   16  C   UNL     1      -6.972   7.282  65.886  1.00  0.00    -0.061 A  
HETATM   17  S   UNL     1      -7.995   7.268  67.351  1.00  0.00    -0.113 SA 
HETATM   18  C   UNL     1      -9.091   8.574  66.847  1.00  0.00    -0.146 A  
HETATM   19  C   UNL     1      -8.635   9.860  66.532  1.00  0.00    -0.131 A  
HETATM   20  C   UNL     1      -9.544  10.842  66.107  1.00  0.00    -0.239 A  
HETATM   21  C   UNL     1     -10.900  10.546  66.025  1.00  0.00     0.064 A  
HETATM   22  C   UNL     1     -11.363   9.271  66.336  1.00  0.00     1.950 A  
HETATM   23 CL   UNL     1     -12.015  11.773  65.566  1.00  0.00    -0.034 Cl 
HETATM   24  C   UNL     1     -10.460   8.285  66.738  1.00  0.00    -0.313 A  
ENDBRANCH   5   8
TORSDOF 1
ENDMDL
MODEL      163
REMARK 921   NORMALIZED FREE ENERGY PREDICTED BY IDOCK:    1.49 KCAL/MOL
REMARK 922        TOTAL FREE ENERGY PREDICTED BY IDOCK:    1.35 KCAL/MOL
REMARK 923 INTER-LIGAND FREE ENERGY PREDICTED BY IDOCK:    1.78 KCAL/MOL
REMARK 924 INTRA-LIGAND FREE ENERGY PREDICTED BY IDOCK:   -0.43 KCAL/MOL
REMARK 927      BINDING AFFINITY PREDICTED BY RF-SCORE:    0.00 PKD
ROOT
HETATM    1  C   UNL     1      -7.629   9.724  65.674  1.00  0.00    -0.109 C  
HETATM    2  N   UNL     1      -7.478  11.173  65.580  1.00  0.00     0.205 NA 
HETATM    3  C   UNL     1      -8.762  11.841  65.286  1.00  0.00     0.442 C  
HETATM    4  C   UNL     1      -9.774  11.873  66.453  1.00  0.00    -0.221 C  
HETATM    5  N   UNL     1      -9.161  12.412  67.674  1.00  0.00    -0.178 NA 
HETATM    6  C   UNL     1      -7.868  11.808  68.030  1.00  0.00    -0.134 C  
HETATM    7  C   UNL     1      -6.912  11.756  66.818  1.00  0.00    -0.047 C  
ENDROOT
BRANCH   5   8
HETATM    8  C   UNL     1      -9.731  13.428  68.446  1.00  0.00    -0.201 C  
HETATM    9  N   UNL     1     -10.783  13.151  69.168  1.00  0.00    -0.436 NA 
HETATM   10  C   UNL     1     -11.473  14.068  69.985  1.00  0.00    -0.168 A  
HETATM   11  H   UNL     1     -11.134  12.193  69.138  1.00  0.00     0.000 HD 
HETATM   12  C   UNL     1     -12.873  14.045  69.913  1.00  0.00     0.110 A  
HETATM   13  C   UNL     1     -13.660  14.879  70.713  1.00  0.00    -0.221 A  
HETATM   14  C   UNL     1     -13.054  15.748  71.612  1.00  0.00    -0.493 A  
HETATM   15  C   UNL     1     -11.665  15.766  71.727  1.00  0.00    -0.562 A  
HETATM   16  C   UNL     1     -10.876  14.919  70.933  1.00  0.00     0.059 A  
HETATM   17  S   UNL     1      -9.102  15.009  71.133  1.00  0.00     3.610 SA 
HETATM   18  C   UNL     1      -8.737  15.538  69.475  1.00  0.00    -0.223 A  
HETATM   19  C   UNL     1      -9.105  14.793  68.348  1.00  0.00    -0.188 A  
HETATM   20  C   UNL     1      -8.819  15.278  67.062  1.00  0.00    -0.261 A  
HETATM   21  C   UNL     1      -8.146  16.485  66.908  1.00  0.00    -0.218 A  
HETATM   22  C   UNL     1      -7.776  17.232  68.022  1.00  0.00    -0.202 A  
HETATM   23 CL   UNL     1      -7.742  17.040  65.331  1.00  0.00     1.216 Cl 
HETATM   24  C   UNL     1      -8.077  16.764  69.302  1.00  0.00    -0.001 A  
ENDBRANCH   5   8
TORSDOF 1
ENDMDL
MODEL      164
REMARK 921   NORMALIZED FREE ENERGY PREDICTED BY IDOCK:    2.25 KCAL/MOL
REMARK 922        TOTAL FREE ENERGY PREDICTED BY IDOCK:    2.15 KCAL/MOL
REMARK 923 INTER-LIGAND FREE ENERGY PREDICTED BY IDOCK:    1.64 KCAL/MOL
REMARK 924 INTRA-LIGAND FREE ENERGY PREDICTED BY IDOCK:    0.51 KCAL/MOL
REMARK 927      BINDING AFFINITY PREDICTED BY RF-SCORE:    0.00 PKD
ROOT
HETATM    1  C   UNL     1     -10.289  17.514  71.170  1.00  0.00     2.917 C  
HETATM    2  N   UNL     1     -11.350  16.626  70.704  1.00  0.00    -0.071 NA 
HETATM    3  C   UNL     1     -11.371  16.518  69.231  1.00  0.00    -0.133 C  
HETATM    4  C   UNL     1     -10.213  15.704  68.611  1.00  0.00    -0.212 C  
HETATM    5  N   UNL     1     -10.096  14.382  69.240  1.00  0.00    -0.096 NA 
HETATM    6  C   UNL     1     -10.083  14.400  70.709  1.00  0.00     1.892 C  
HETATM    7  C   UNL     1     -11.229  15.265  71.279  1.00  0.00    -0.323 C  
ENDROOT
BRANCH   5   8
HETATM    8  C   UNL     1     -10.017  13.186  68.522  1.00  0.00    -0.180 C  
HETATM    9  N   UNL     1      -9.286  12.214  68.999  1.00  0.00    -0.355 NA 
HETATM   10  C   UNL     1      -9.101  10.960  68.387  1.00  0.00    -0.164 A  
HETATM   11  H   UNL     1      -8.811  12.378  69.887  1.00  0.00     0.000 HD 
HETATM   12  C   UNL     1      -7.790  10.462  68.358  1.00  0.00    -0.104 A  
HETATM   13  C   UNL     1      -7.497   9.206  67.816  1.00  0.00    -0.085 A  
HETATM   14  C   UNL     1      -8.519   8.419  67.301  1.00  0.00    -0.124 A  
HETATM   15  C   UNL     1      -9.835   8.877  67.348  1.00  0.00    -0.247 A  
HETATM   16  C   UNL     1     -10.131  10.132  67.904  1.00  0.00    -0.176 A  
HETATM   17  S   UNL     1     -11.841  10.651  67.919  1.00  0.00     0.728 SA 
HETATM   18  C   UNL     1     -11.629  12.081  66.884  1.00  0.00    -0.318 A  
HETATM   19  C   UNL     1     -10.756  13.126  67.212  1.00  0.00    -0.262 A  
HETATM   20  C   UNL     1     -10.605  14.214  66.339  1.00  0.00    -0.280 A  
HETATM   21  C   UNL     1     -11.343  14.269  65.161  1.00  0.00    -0.345 A  
HETATM   22  C   UNL     1     -12.213  13.235  64.827  1.00  0.00    -0.466 A  
HETATM   23 CL   UNL     1     -11.200  15.637  64.128  1.00  0.00    -0.099 Cl 
HETATM   24  C   UNL     1     -12.350  12.141  65.682  1.00  0.00     0.149 A  
ENDBRANCH   5   8
TORSDOF 1
ENDMDL
MODEL      165
REMARK 921   NORMALIZED FREE ENERGY PREDICTED BY IDOCK:    3.50 KCAL/MOL
REMARK 922        TOTAL FREE ENERGY PREDICTED BY IDOCK:    3.47 KCAL/MOL
REMARK 923 INTER-LIGAND FREE ENERGY PREDICTED BY IDOCK:    3.30 KCAL/MOL
REMARK 924 INTRA-LIGAND FREE ENERGY PREDICTED BY IDOCK:    0.17 KCAL/MOL
REMARK 927      BINDING AFFINITY PREDICTED BY RF-SCORE:    0.00 PKD
ROOT
HETATM    1  C   UNL     1     -11.309  14.559  70.569  1.00  0.00    -0.115 C  
HETATM    2  N   UNL     1     -11.979  13.263  70.524  1.00  0.00    -0.295 NA 
HETATM    3  C   UNL     1     -12.257  12.836  69.137  1.00  0.00    -0.018 C  
HETATM    4  C   UNL     1     -11.022  12.393  68.321  1.00  0.00    -0.236 C  
HETATM    5  N   UNL     1     -10.242  11.380  69.044  1.00  0.00    -0.164 NA 
HETATM    6  C   UNL     1      -9.934  11.723  70.440  1.00  0.00     3.413 C  
HETATM    7  C   UNL     1     -11.191  12.205  71.198  1.00  0.00     2.811 C  
ENDROOT
BRANCH   5   8
HETATM    8  C   UNL     1      -9.826  10.172  68.478  1.00  0.00    -0.154 C  
HETATM    9  N   UNL     1     -10.729   9.284  68.160  1.00  0.00    -0.398 NA 
HETATM   10  C   UNL     1     -10.465   8.022  67.595  1.00  0.00    -0.232 A  
HETATM   11  H   UNL     1     -11.706   9.524  68.336  1.00  0.00     0.000 HD 
HETATM   12  C   UNL     1     -11.164   6.932  68.135  1.00  0.00    -0.082 A  
HETATM   13  C   UNL     1     -11.014   5.641  67.620  1.00  0.00    -0.024 A  
HETATM   14  C   UNL     1     -10.164   5.418  66.543  1.00  0.00    -0.287 A  
HETATM   15  C   UNL     1      -9.484   6.490  65.968  1.00  0.00     0.008 A  
HETATM   16  C   UNL     1      -9.645   7.790  66.476  1.00  0.00    -0.201 A  
HETATM   17  S   UNL     1      -8.730   9.108  65.689  1.00  0.00    -0.186 SA 
HETATM   18  C   UNL     1      -7.763   9.562  67.109  1.00  0.00    -0.091 A  
HETATM   19  C   UNL     1      -8.344   9.968  68.318  1.00  0.00    -0.110 A  
HETATM   20  C   UNL     1      -7.529  10.283  69.417  1.00  0.00    -0.128 A  
HETATM   21  C   UNL     1      -6.145  10.217  69.298  1.00  0.00    -0.037 A  
HETATM   22  C   UNL     1      -5.559   9.814  68.102  1.00  0.00    -0.039 A  
HETATM   23 CL   UNL     1      -5.153  10.666  70.630  1.00  0.00    -0.067 Cl 
HETATM   24  C   UNL     1      -6.366   9.480  67.013  1.00  0.00    -0.066 A  
ENDBRANCH   5   8
TORSDOF 1
ENDMDL
MODEL      166
REMARK 921   NORMALIZED FREE ENERGY PREDICTED BY IDOCK:    4.26 KCAL/MOL
REMARK 922        TOTAL FREE ENERGY PREDICTED BY IDOCK:    4.28 KCAL/MOL
REMARK 923 INTER-LIGAND FREE ENERGY PREDICTED BY IDOCK:    3.79 KCAL/MOL
REMARK 924 INTRA-LIGAND FREE ENERGY PREDICTED BY IDOCK:    0.48 KCAL/MOL
REMARK 927      BINDING AFFINITY PREDICTED BY RF-SCORE:    0.00 PKD
ROOT
HETATM    1  C   UNL     1     -12.509  16.639  66.544  1.00  0.00     3.841 C  
HETATM    2  N   UNL     1     -11.911  15.657  65.644  1.00  0.00     0.372 NA 
HETATM    3  C   UNL     1     -10.435  15.709  65.676  1.00  0.00    -0.382 C  
HETATM    4  C   UNL     1      -9.781  15.153  66.961  1.00  0.00    -0.231 C  
HETATM    5  N   UNL     1     -10.272  13.802  67.266  1.00  0.00    -0.251 NA 
HETATM    6  C   UNL     1     -11.735  13.661  67.240  1.00  0.00    -0.380 C  
HETATM    7  C   UNL     1     -12.344  14.276  65.960  1.00  0.00    -0.395 C  
ENDROOT
BRANCH   5   8
HETATM    8  C   UNL     1      -9.437  12.718  67.546  1.00  0.00    -0.187 C  
HETATM    9  N   UNL     1      -9.968  11.622  68.018  1.00  0.00    -0.182 NA 
HETATM   10  C   UNL     1      -9.257  10.455  68.358  1.00  0.00    -0.147 A  
HETATM   11  H   UNL     1     -10.980  11.611  68.152  1.00  0.00     0.000 HD 
HETATM   12  C   UNL     1      -9.600   9.841  69.571  1.00  0.00    -0.225 A  
HETATM   13  C   UNL     1      -8.991   8.652  69.986  1.00  0.00    -0.148 A  
HETATM   14  C   UNL     1      -8.031   8.049  69.183  1.00  0.00    -0.114 A  
HETATM   15  C   UNL     1      -7.697   8.622  67.957  1.00  0.00    -0.102 A  
HETATM   16  C   UNL     1      -8.318   9.808  67.534  1.00  0.00    -0.114 A  
HETATM   17  S   UNL     1      -7.828  10.484  65.954  1.00  0.00    -0.147 SA 
HETATM   18  C   UNL     1      -7.183  12.018  66.579  1.00  0.00     0.276 A  
HETATM   19  C   UNL     1      -7.962  12.916  67.321  1.00  0.00    -0.151 A  
HETATM   20  C   UNL     1      -7.389  14.098  67.818  1.00  0.00    -0.177 A  
HETATM   21  C   UNL     1      -6.056  14.389  67.551  1.00  0.00     0.073 A  
HETATM   22  C   UNL     1      -5.274  13.504  66.816  1.00  0.00     1.685 A  
HETATM   23 CL   UNL     1      -5.379  15.870  68.108  1.00  0.00    -0.107 Cl 
HETATM   24  C   UNL     1      -5.834  12.318  66.337  1.00  0.00     0.989 A  
ENDBRANCH   5   8
TORSDOF 1
ENDMDL
MODEL      167
REMARK 921   NORMALIZED FREE ENERGY PREDICTED BY IDOCK:    4.82 KCAL/MOL
REMARK 922        TOTAL FREE ENERGY PREDICTED BY IDOCK:    4.87 KCAL/MOL
REMARK 923 INTER-LIGAND FREE ENERGY PREDICTED BY IDOCK:    5.17 KCAL/MOL
REMARK 924 INTRA-LIGAND FREE ENERGY PREDICTED BY IDOCK:   -0.30 KCAL/MOL
REMARK 927      BINDING AFFINITY PREDICTED BY RF-SCORE:    0.00 PKD
ROOT
HETATM    1  C   UNL     1      -5.959  13.102  69.547  1.00  0.00    -0.108 C  
HETATM    2  N   UNL     1      -5.512  11.964  70.346  1.00  0.00    -0.126 NA 
HETATM    3  C   UNL     1      -6.433  11.683  71.465  1.00  0.00     2.713 C  
HETATM    4  C   UNL     1      -7.790  11.060  71.065  1.00  0.00     4.267 C  
HETATM    5  N   UNL     1      -7.601   9.874  70.220  1.00  0.00    -0.176 NA 
HETATM    6  C   UNL     1      -6.684  10.066  69.087  1.00  0.00    -0.055 C  
HETATM    7  C   UNL     1      -5.364  10.736  69.531  1.00  0.00    -0.038 C  
ENDROOT
BRANCH   5   8
HETATM    8  C   UNL     1      -8.221   8.644  70.459  1.00  0.00    -0.123 C  
HETATM    9  N   UNL     1      -7.493   7.560  70.438  1.00  0.00    -0.079 NA 
HETATM   10  C   UNL     1      -7.974   6.254  70.650  1.00  0.00    -0.112 A  
HETATM   11  H   UNL     1      -6.495   7.669  70.254  1.00  0.00     0.000 HD 
HETATM   12  C   UNL     1      -7.512   5.264  69.770  1.00  0.00    -0.065 A  
HETATM   13  C   UNL     1      -7.888   3.925  69.914  1.00  0.00    -0.051 A  
HETATM   14  C   UNL     1      -8.730   3.550  70.954  1.00  0.00    -0.123 A  
HETATM   15  C   UNL     1      -9.176   4.510  71.861  1.00  0.00    -0.178 A  
HETATM   16  C   UNL     1      -8.787   5.852  71.725  1.00  0.00    -0.139 A  
HETATM   17  S   UNL     1      -9.409   7.023  72.923  1.00  0.00    -0.145 SA 
HETATM   18  C   UNL     1     -10.318   8.029  71.773  1.00  0.00    -0.217 A  
HETATM   19  C   UNL     1      -9.709   8.662  70.682  1.00  0.00    -0.221 A  
HETATM   20  C   UNL     1     -10.484   9.417  69.787  1.00  0.00    -0.243 A  
HETATM   21  C   UNL     1     -11.851   9.559  70.000  1.00  0.00     0.100 A  
HETATM   22  C   UNL     1     -12.464   8.935  71.081  1.00  0.00    -0.260 A  
HETATM   23 CL   UNL     1     -12.781  10.540  68.936  1.00  0.00     0.940 Cl 
HETATM   24  C   UNL     1     -11.701   8.165  71.961  1.00  0.00    -0.389 A  
ENDBRANCH   5   8
TORSDOF 1
ENDMDL
MODEL      168
REMARK 921   NORMALIZED FREE ENERGY PREDICTED BY IDOCK:    6.38 KCAL/MOL
REMARK 922        TOTAL FREE ENERGY PREDICTED BY IDOCK:    6.52 KCAL/MOL
REMARK 923 INTER-LIGAND FREE ENERGY PREDICTED BY IDOCK:    6.80 KCAL/MOL
REMARK 924 INTRA-LIGAND FREE ENERGY PREDICTED BY IDOCK:   -0.28 KCAL/MOL
REMARK 927      BINDING AFFINITY PREDICTED BY RF-SCORE:    0.00 PKD
ROOT
HETATM    1  C   UNL     1      -7.670  20.279  66.042  1.00  0.00    -0.165 C  
HETATM    2  N   UNL     1      -8.645  19.423  66.712  1.00  0.00    -0.296 NA 
HETATM    3  C   UNL     1      -8.933  18.203  65.931  1.00  0.00     0.218 C  
HETATM    4  C   UNL     1      -7.803  17.150  65.908  1.00  0.00     0.018 C  
HETATM    5  N   UNL     1      -7.356  16.819  67.268  1.00  0.00    -0.161 NA 
HETATM    6  C   UNL     1      -7.062  17.982  68.117  1.00  0.00    -0.230 C  
HETATM    7  C   UNL     1      -8.199  19.026  68.068  1.00  0.00    -0.300 C  
ENDROOT
BRANCH   5   8
HETATM    8  C   UNL     1      -7.228  15.512  67.746  1.00  0.00    -0.157 C  
HETATM    9  N   UNL     1      -6.617  14.629  67.002  1.00  0.00    -0.246 NA 
HETATM   10  C   UNL     1      -6.420  13.277  67.341  1.00  0.00    -0.034 A  
HETATM   11  H   UNL     1      -6.253  14.945  66.102  1.00  0.00     0.000 HD 
HETATM   12  C   UNL     1      -6.673  12.333  66.335  1.00  0.00     0.923 A  
HETATM   13  C   UNL     1      -6.466  10.966  66.547  1.00  0.00    -0.128 A  
HETATM   14  C   UNL     1      -5.992  10.520  67.774  1.00  0.00    -0.044 A  
HETATM   15  C   UNL     1      -5.702  11.441  68.779  1.00  0.00    -0.042 A  
HETATM   16  C   UNL     1      -5.896  12.814  68.562  1.00  0.00    -0.061 A  
HETATM   17  S   UNL     1      -5.509  13.930  69.903  1.00  0.00    -0.108 SA 
HETATM   18  C   UNL     1      -7.153  14.572  70.115  1.00  0.00     0.132 A  
HETATM   19  C   UNL     1      -7.852  15.209  69.081  1.00  0.00    -0.199 A  
HETATM   20  C   UNL     1      -9.162  15.667  69.297  1.00  0.00    -0.269 A  
HETATM   21  C   UNL     1      -9.755  15.512  70.545  1.00  0.00     0.697 A  
HETATM   22  C   UNL     1      -9.070  14.880  71.578  1.00  0.00     4.063 A  
HETATM   23 CL   UNL     1     -11.336  16.133  70.820  1.00  0.00    -0.417 Cl 
HETATM   24  C   UNL     1      -7.775  14.405  71.362  1.00  0.00     3.601 A  
ENDBRANCH   5   8
TORSDOF 1
ENDMDL
MODEL      169
REMARK 921   NORMALIZED FREE ENERGY PREDICTED BY IDOCK:    9.65 KCAL/MOL
REMARK 922        TOTAL FREE ENERGY PREDICTED BY IDOCK:    9.98 KCAL/MOL
REMARK 923 INTER-LIGAND FREE ENERGY PREDICTED BY IDOCK:    9.48 KCAL/MOL
REMARK 924 INTRA-LIGAND FREE ENERGY PREDICTED BY IDOCK:    0.50 KCAL/MOL
REMARK 927      BINDING AFFINITY PREDICTED BY RF-SCORE:    0.00 PKD
ROOT
HETATM    1  C   UNL     1      -9.801  10.445  63.636  1.00  0.00    -0.223 C  
HETATM    2  N   UNL     1     -10.635  11.505  64.196  1.00  0.00    -0.333 NA 
HETATM    3  C   UNL     1     -11.151  11.151  65.534  1.00  0.00    -0.003 C  
HETATM    4  C   UNL     1     -10.105  11.168  66.671  1.00  0.00    -0.217 C  
HETATM    5  N   UNL     1      -9.374  12.442  66.703  1.00  0.00    -0.223 NA 
HETATM    6  C   UNL     1      -8.839  12.874  65.404  1.00  0.00     1.220 C  
HETATM    7  C   UNL     1      -9.909  12.793  64.292  1.00  0.00    -0.016 C  
ENDROOT
BRANCH   5   8
HETATM    8  C   UNL     1      -9.199  13.208  67.858  1.00  0.00    -0.207 C  
HETATM    9  N   UNL     1      -8.311  14.165  67.848  1.00  0.00    -0.149 NA 
HETATM   10  C   UNL     1      -8.015  15.011  68.934  1.00  0.00    -0.169 A  
HETATM   11  H   UNL     1      -7.789  14.312  66.983  1.00  0.00     0.000 HD 
HETATM   12  C   UNL     1      -6.657  15.245  69.197  1.00  0.00    -0.130 A  
HETATM   13  C   UNL     1      -6.249  16.104  70.222  1.00  0.00     0.045 A  
HETATM   14  C   UNL     1      -7.199  16.755  70.999  1.00  0.00     4.044 A  
HETATM   15  C   UNL     1      -8.554  16.565  70.736  1.00  0.00     4.169 A  
HETATM   16  C   UNL     1      -8.965  15.713  69.698  1.00  0.00    -0.136 A  
HETATM   17  S   UNL     1     -10.720  15.515  69.432  1.00  0.00    -0.273 SA 
HETATM   18  C   UNL     1     -10.784  13.772  69.775  1.00  0.00     0.329 A  
HETATM   19  C   UNL     1     -10.030  12.835  69.056  1.00  0.00     0.227 A  
HETATM   20  C   UNL     1     -10.095  11.474  69.395  1.00  0.00     0.225 A  
HETATM   21  C   UNL     1     -10.929  11.053  70.425  1.00  0.00     0.275 A  
HETATM   22  C   UNL     1     -11.681  11.976  71.144  1.00  0.00     0.927 A  
HETATM   23 CL   UNL     1     -11.052   9.376  70.791  1.00  0.00    -0.336 Cl 
HETATM   24  C   UNL     1     -11.603  13.333  70.825  1.00  0.00     0.434 A  
ENDBRANCH   5   8
TORSDOF 1
ENDMDL
MODEL      170
REMARK 921   NORMALIZED FREE ENERGY PREDICTED BY IDOCK:   14.26 KCAL/MOL
REMARK 922        TOTAL FREE ENERGY PREDICTED BY IDOCK:   14.87 KCAL/MOL
REMARK 923 INTER-LIGAND FREE ENERGY PREDICTED BY IDOCK:   15.16 KCAL/MOL
REMARK 924 INTRA-LIGAND FREE ENERGY PREDICTED BY IDOCK:   -0.29 KCAL/MOL
REMARK 927      BINDING AFFINITY PREDICTED BY RF-SCORE:    0.00 PKD
ROOT
HETATM    1  C   UNL     1      -8.990  19.972  69.020  1.00  0.00     0.183 C  
HETATM    2  N   UNL     1      -9.943  18.982  68.525  1.00  0.00    -0.402 NA 
HETATM    3  C   UNL     1      -9.419  18.253  67.352  1.00  0.00    -0.266 C  
HETATM    4  C   UNL     1      -8.293  17.238  67.653  1.00  0.00    -0.205 C  
HETATM    5  N   UNL     1      -8.684  16.312  68.724  1.00  0.00    -0.232 NA 
HETATM    6  C   UNL     1      -9.230  16.959  69.925  1.00  0.00     1.106 C  
HETATM    7  C   UNL     1     -10.316  17.998  69.568  1.00  0.00     0.329 C  
ENDROOT
BRANCH   5   8
HETATM    8  C   UNL     1      -8.569  14.923  68.629  1.00  0.00    -0.168 C  
HETATM    9  N   UNL     1      -7.447  14.414  68.195  1.00  0.00    -0.115 NA 
HETATM   10  C   UNL     1      -7.186  13.039  68.034  1.00  0.00    -0.119 A  
HETATM   11  H   UNL     1      -6.700  15.065  67.951  1.00  0.00     0.000 HD 
HETATM   12  C   UNL     1      -6.549  12.655  66.846  1.00  0.00     0.353 A  
HETATM   13  C   UNL     1      -6.200  11.323  66.602  1.00  0.00    -0.141 A  
HETATM   14  C   UNL     1      -6.476  10.349  67.553  1.00  0.00    -0.058 A  
HETATM   15  C   UNL     1      -7.079  10.711  68.756  1.00  0.00    -0.076 A  
HETATM   16  C   UNL     1      -7.417  12.051  69.008  1.00  0.00     0.017 A  
HETATM   17  S   UNL     1      -8.196  12.431  70.570  1.00  0.00     6.477 SA 
HETATM   18  C   UNL     1      -9.726  13.035  69.894  1.00  0.00     2.420 A  
HETATM   19  C   UNL     1      -9.781  14.111  68.999  1.00  0.00     0.001 A  
HETATM   20  C   UNL     1     -11.015  14.522  68.472  1.00  0.00    -0.261 A  
HETATM   21  C   UNL     1     -12.186  13.879  68.859  1.00  0.00    -0.222 A  
HETATM   22  C   UNL     1     -12.141  12.809  69.748  1.00  0.00    -0.305 A  
HETATM   23 CL   UNL     1     -13.700  14.431  68.258  1.00  0.00     5.736 Cl 
HETATM   24  C   UNL     1     -10.914  12.383  70.258  1.00  0.00     1.104 A  
ENDBRANCH   5   8
TORSDOF 1
ENDMDL
MODEL      171
REMARK 921   NORMALIZED FREE ENERGY PREDICTED BY IDOCK:   17.41 KCAL/MOL
REMARK 922        TOTAL FREE ENERGY PREDICTED BY IDOCK:   18.20 KCAL/MOL
REMARK 923 INTER-LIGAND FREE ENERGY PREDICTED BY IDOCK:   17.73 KCAL/MOL
REMARK 924 INTRA-LIGAND FREE ENERGY PREDICTED BY IDOCK:    0.47 KCAL/MOL
REMARK 927      BINDING AFFINITY PREDICTED BY RF-SCORE:    0.00 PKD
ROOT
HETATM    1  C   UNL     1      -5.498  20.578  63.444  1.00  0.00    -0.226 C  
HETATM    2  N   UNL     1      -5.234  19.343  64.176  1.00  0.00    -0.189 NA 
HETATM    3  C   UNL     1      -5.611  19.456  65.600  1.00  0.00    -0.159 C  
HETATM    4  C   UNL     1      -7.130  19.474  65.882  1.00  0.00    -0.289 C  
HETATM    5  N   UNL     1      -7.804  18.337  65.242  1.00  0.00     0.336 NA 
HETATM    6  C   UNL     1      -7.470  18.146  63.823  1.00  0.00     9.767 C  
HETATM    7  C   UNL     1      -5.944  18.184  63.587  1.00  0.00     2.376 C  
ENDROOT
BRANCH   5   8
HETATM    8  C   UNL     1      -8.684  17.481  65.909  1.00  0.00     0.092 C  
HETATM    9  N   UNL     1      -9.758  17.076  65.286  1.00  0.00    -0.063 NA 
HETATM   10  C   UNL     1     -10.740  16.224  65.828  1.00  0.00    -0.255 A  
HETATM   11  H   UNL     1      -9.896  17.402  64.329  1.00  0.00     0.000 HD 
HETATM   12  C   UNL     1     -12.077  16.585  65.606  1.00  0.00     2.208 A  
HETATM   13  C   UNL     1     -13.133  15.789  66.059  1.00  0.00     3.235 A  
HETATM   14  C   UNL     1     -12.868  14.606  66.737  1.00  0.00     1.012 A  
HETATM   15  C   UNL     1     -11.548  14.209  66.941  1.00  0.00    -0.410 A  
HETATM   16  C   UNL     1     -10.486  15.001  66.474  1.00  0.00    -0.285 A  
HETATM   17  S   UNL     1      -8.823  14.427  66.784  1.00  0.00    -0.153 SA 
HETATM   18  C   UNL     1      -8.317  15.801  67.792  1.00  0.00    -0.154 A  
HETATM   19  C   UNL     1      -8.343  17.123  67.330  1.00  0.00    -0.203 A  
HETATM   20  C   UNL     1      -7.963  18.172  68.183  1.00  0.00    -0.290 A  
HETATM   21  C   UNL     1      -7.535  17.895  69.477  1.00  0.00     0.303 A  
HETATM   22  C   UNL     1      -7.505  16.585  69.944  1.00  0.00     0.680 A  
HETATM   23 CL   UNL     1      -7.010  19.179  70.494  1.00  0.00     0.611 Cl 
HETATM   24  C   UNL     1      -7.902  15.541  69.107  1.00  0.00    -0.215 A  
ENDBRANCH   5   8
TORSDOF 1
ENDMDL
MODEL      172
REMARK 921   NORMALIZED FREE ENERGY PREDICTED BY IDOCK:   27.75 KCAL/MOL
REMARK 922        TOTAL FREE ENERGY PREDICTED BY IDOCK:   29.14 KCAL/MOL
REMARK 923 INTER-LIGAND FREE ENERGY PREDICTED BY IDOCK:   28.95 KCAL/MOL
REMARK 924 INTRA-LIGAND FREE ENERGY PREDICTED BY IDOCK:    0.19 KCAL/MOL
REMARK 927      BINDING AFFINITY PREDICTED BY RF-SCORE:    0.00 PKD
ROOT
HETATM    1  C   UNL     1     -10.863  11.749  65.920  1.00  0.00    -0.291 C  
HETATM    2  N   UNL     1     -11.958  12.520  66.503  1.00  0.00    -0.576 NA 
HETATM    3  C   UNL     1     -12.311  12.037  67.854  1.00  0.00     0.711 C  
HETATM    4  C   UNL     1     -11.288  12.368  68.964  1.00  0.00    -0.283 C  
HETATM    5  N   UNL     1     -10.965  13.801  68.978  1.00  0.00    -0.254 NA 
HETATM    6  C   UNL     1     -10.614  14.364  67.666  1.00  0.00    -0.260 C  
HETATM    7  C   UNL     1     -11.641  13.964  66.583  1.00  0.00    -0.374 C  
ENDROOT
BRANCH   5   8
HETATM    8  C   UNL     1     -10.994  14.591  70.130  1.00  0.00    -0.014 C  
HETATM    9  N   UNL     1     -12.141  14.801  70.718  1.00  0.00    -0.288 NA 
HETATM   10  C   UNL     1     -12.330  15.581  71.876  1.00  0.00    -0.395 A  
HETATM   11  H   UNL     1     -12.966  14.365  70.306  1.00  0.00     0.000 HD 
HETATM   12  C   UNL     1     -13.418  16.466  71.866  1.00  0.00     1.482 A  
HETATM   13  C   UNL     1     -13.728  17.255  72.978  1.00  0.00     4.129 A  
HETATM   14  C   UNL     1     -12.955  17.163  74.129  1.00  0.00     1.093 A  
HETATM   15  C   UNL     1     -11.889  16.266  74.175  1.00  0.00    -0.050 A  
HETATM   16  C   UNL     1     -11.586  15.464  73.064  1.00  0.00    -0.260 A  
HETATM   17  S   UNL     1     -10.198  14.347  73.200  1.00  0.00     7.137 SA 
HETATM   18  C   UNL     1      -9.224  15.072  71.902  1.00  0.00     4.969 A  
HETATM   19  C   UNL     1      -9.687  15.184  70.585  1.00  0.00     0.866 A  
HETATM   20  C   UNL     1      -8.886  15.797  69.609  1.00  0.00    -0.062 A  
HETATM   21  C   UNL     1      -7.622  16.270  69.943  1.00  0.00     0.584 A  
HETATM   22  C   UNL     1      -7.153  16.164  71.249  1.00  0.00     3.554 A  
HETATM   23 CL   UNL     1      -6.620  16.961  68.728  1.00  0.00    -0.173 Cl 
HETATM   24  C   UNL     1      -7.955  15.574  72.228  1.00  0.00     7.702 A  
ENDBRANCH   5   8
TORSDOF 1
ENDMDL
MODEL      173
REMARK 921   NORMALIZED FREE ENERGY PREDICTED BY IDOCK:   28.03 KCAL/MOL
REMARK 922        TOTAL FREE ENERGY PREDICTED BY IDOCK:   29.44 KCAL/MOL
REMARK 923 INTER-LIGAND FREE ENERGY PREDICTED BY IDOCK:   29.60 KCAL/MOL
REMARK 924 INTRA-LIGAND FREE ENERGY PREDICTED BY IDOCK:   -0.17 KCAL/MOL
REMARK 927      BINDING AFFINITY PREDICTED BY RF-SCORE:    0.00 PKD
ROOT
HETATM    1  C   UNL     1      -5.334   6.390  67.870  1.00  0.00    -0.004 C  
HETATM    2  N   UNL     1      -6.084   6.234  69.113  1.00  0.00    -0.028 NA 
HETATM    3  C   UNL     1      -5.949   7.416  69.989  1.00  0.00    -0.024 C  
HETATM    4  C   UNL     1      -6.704   8.679  69.517  1.00  0.00    -0.040 C  
HETATM    5  N   UNL     1      -8.115   8.382  69.239  1.00  0.00    -0.113 NA 
HETATM    6  C   UNL     1      -8.337   7.208  68.382  1.00  0.00    -0.125 C  
HETATM    7  C   UNL     1      -7.524   5.987  68.867  1.00  0.00    -0.086 C  
ENDROOT
BRANCH   5   8
HETATM    8  C   UNL     1      -9.180   9.130  69.746  1.00  0.00    -0.171 C  
HETATM    9  N   UNL     1     -10.270   8.507  70.107  1.00  0.00    -0.191 NA 
HETATM   10  C   UNL     1     -11.426   9.123  70.623  1.00  0.00    -0.262 A  
HETATM   11  H   UNL     1     -10.284   7.491  70.006  1.00  0.00     0.000 HD 
HETATM   12  C   UNL     1     -12.655   8.684  70.110  1.00  0.00     1.104 A  
HETATM   13  C   UNL     1     -13.868   9.193  70.583  1.00  0.00     0.458 A  
HETATM   14  C   UNL     1     -13.872  10.149  71.591  1.00  0.00    -0.017 A  
HETATM   15  C   UNL     1     -12.665  10.577  72.141  1.00  0.00    -0.170 A  
HETATM   16  C   UNL     1     -11.447  10.056  71.676  1.00  0.00     0.020 A  
HETATM   17  S   UNL     1      -9.943  10.663  72.426  1.00  0.00    10.773 SA 
HETATM   18  C   UNL     1      -9.253  11.376  70.951  1.00  0.00     6.525 A  
HETATM   19  C   UNL     1      -9.002  10.624  69.796  1.00  0.00     0.275 A  
HETATM   20  C   UNL     1      -8.487  11.249  68.649  1.00  0.00    -0.143 A  
HETATM   21  C   UNL     1      -8.200  12.609  68.668  1.00  0.00     0.008 A  
HETATM   22  C   UNL     1      -8.446  13.365  69.810  1.00  0.00     1.920 A  
HETATM   23 CL   UNL     1      -7.509  13.354  67.280  1.00  0.00    -0.121 Cl 
HETATM   24  C   UNL     1      -8.978  12.752  70.946  1.00  0.00    10.017 A  
ENDBRANCH   5   8
TORSDOF 1
ENDMDL
MODEL      174
REMARK 921   NORMALIZED FREE ENERGY PREDICTED BY IDOCK:   29.63 KCAL/MOL
REMARK 922        TOTAL FREE ENERGY PREDICTED BY IDOCK:   31.13 KCAL/MOL
REMARK 923 INTER-LIGAND FREE ENERGY PREDICTED BY IDOCK:   30.70 KCAL/MOL
REMARK 924 INTRA-LIGAND FREE ENERGY PREDICTED BY IDOCK:    0.43 KCAL/MOL
REMARK 927      BINDING AFFINITY PREDICTED BY RF-SCORE:    0.00 PKD
ROOT
HETATM    1  C   UNL     1      -6.189  10.242  65.528  1.00  0.00    -0.114 C  
HETATM    2  N   UNL     1      -5.838  11.653  65.390  1.00  0.00     0.623 NA 
HETATM    3  C   UNL     1      -7.026  12.494  65.139  1.00  0.00     5.972 C  
HETATM    4  C   UNL     1      -7.964  12.692  66.350  1.00  0.00     0.628 C  
HETATM    5  N   UNL     1      -7.221  13.160  67.528  1.00  0.00    -0.157 NA 
HETATM    6  C   UNL     1      -6.013  12.382  67.839  1.00  0.00    -0.093 C  
HETATM    7  C   UNL     1      -5.134  12.171  66.587  1.00  0.00     0.199 C  
ENDROOT
BRANCH   5   8
HETATM    8  C   UNL     1      -7.603  14.260  68.299  1.00  0.00    -0.130 C  
HETATM    9  N   UNL     1      -7.863  15.389  67.696  1.00  0.00    -0.143 NA 
HETATM   10  C   UNL     1      -8.247  16.583  68.336  1.00  0.00    -0.194 A  
HETATM   11  H   UNL     1      -7.782  15.407  66.678  1.00  0.00     0.000 HD 
HETATM   12  C   UNL     1      -7.620  17.760  67.899  1.00  0.00    -0.212 A  
HETATM   13  C   UNL     1      -7.957  19.008  68.432  1.00  0.00    -0.375 A  
HETATM   14  C   UNL     1      -8.940  19.101  69.409  1.00  0.00     0.120 A  
HETATM   15  C   UNL     1      -9.602  17.950  69.836  1.00  0.00     1.095 A  
HETATM   16  C   UNL     1      -9.273  16.699  69.291  1.00  0.00    -0.078 A  
HETATM   17  S   UNL     1     -10.160  15.271  69.897  1.00  0.00    -0.120 SA 
HETATM   18  C   UNL     1      -8.749  14.425  70.571  1.00  0.00     2.450 A  
HETATM   19  C   UNL     1      -7.641  14.069  69.791  1.00  0.00     0.512 A  
HETATM   20  C   UNL     1      -6.540  13.432  70.385  1.00  0.00     0.383 A  
HETATM   21  C   UNL     1      -6.560  13.130  71.743  1.00  0.00     3.118 A  
HETATM   22  C   UNL     1      -7.656  13.480  72.526  1.00  0.00     8.752 A  
HETATM   23 CL   UNL     1      -5.235  12.291  72.450  1.00  0.00     0.253 Cl 
HETATM   24  C   UNL     1      -8.744  14.133  71.943  1.00  0.00     8.215 A  
ENDBRANCH   5   8
TORSDOF 1
ENDMDL
MODEL      175
REMARK 921   NORMALIZED FREE ENERGY PREDICTED BY IDOCK:   35.49 KCAL/MOL
REMARK 922        TOTAL FREE ENERGY PREDICTED BY IDOCK:   37.33 KCAL/MOL
REMARK 923 INTER-LIGAND FREE ENERGY PREDICTED BY IDOCK:   36.72 KCAL/MOL
REMARK 924 INTRA-LIGAND FREE ENERGY PREDICTED BY IDOCK:    0.62 KCAL/MOL
REMARK 927      BINDING AFFINITY PREDICTED BY RF-SCORE:    0.00 PKD
ROOT
HETATM    1  C   UNL     1      -9.214   6.124  66.982  1.00  0.00    -0.123 C  
HETATM    2  N   UNL     1      -9.418   7.427  66.355  1.00  0.00    -0.164 NA 
HETATM    3  C   UNL     1     -10.761   7.971  66.643  1.00  0.00     0.175 C  
HETATM    4  C   UNL     1     -10.978   8.466  68.090  1.00  0.00     0.208 C  
HETATM    5  N   UNL     1      -9.925   9.408  68.493  1.00  0.00    -0.167 NA 
HETATM    6  C   UNL     1      -8.555   8.947  68.227  1.00  0.00    -0.134 C  
HETATM    7  C   UNL     1      -8.403   8.417  66.784  1.00  0.00    -0.109 C  
ENDROOT
BRANCH   5   8
HETATM    8  C   UNL     1     -10.179  10.654  69.072  1.00  0.00    -0.215 C  
HETATM    9  N   UNL     1     -11.370  11.175  68.944  1.00  0.00    -0.250 NA 
HETATM   10  C   UNL     1     -11.772  12.422  69.460  1.00  0.00    -0.322 A  
HETATM   11  H   UNL     1     -12.065  10.634  68.428  1.00  0.00     0.000 HD 
HETATM   12  C   UNL     1     -12.519  13.245  68.604  1.00  0.00     0.337 A  
HETATM   13  C   UNL     1     -13.010  14.484  69.027  1.00  0.00     1.167 A  
HETATM   14  C   UNL     1     -12.767  14.919  70.324  1.00  0.00    -0.317 A  
HETATM   15  C   UNL     1     -12.056  14.105  71.204  1.00  0.00    -0.392 A  
HETATM   16  C   UNL     1     -11.575  12.854  70.784  1.00  0.00     0.710 A  
HETATM   17  S   UNL     1     -10.664  11.874  71.968  1.00  0.00    10.781 SA 
HETATM   18  C   UNL     1      -9.130  11.842  71.070  1.00  0.00     9.249 A  
HETATM   19  C   UNL     1      -9.030  11.330  69.770  1.00  0.00     1.126 A  
HETATM   20  C   UNL     1      -7.798  11.361  69.097  1.00  0.00     0.023 A  
HETATM   21  C   UNL     1      -6.672  11.876  69.731  1.00  0.00     0.047 A  
HETATM   22  C   UNL     1      -6.762  12.387  71.022  1.00  0.00     2.558 A  
HETATM   23 CL   UNL     1      -5.153  11.851  68.923  1.00  0.00    -0.051 Cl 
HETATM   24  C   UNL     1      -7.990  12.377  71.687  1.00  0.00    12.577 A  
ENDBRANCH   5   8
TORSDOF 1
ENDMDL
MODEL      176
REMARK 921   NORMALIZED FREE ENERGY PREDICTED BY IDOCK:   41.49 KCAL/MOL
REMARK 922        TOTAL FREE ENERGY PREDICTED BY IDOCK:   43.68 KCAL/MOL
REMARK 923 INTER-LIGAND FREE ENERGY PREDICTED BY IDOCK:   43.67 KCAL/MOL
REMARK 924 INTRA-LIGAND FREE ENERGY PREDICTED BY IDOCK:    0.01 KCAL/MOL
REMARK 927      BINDING AFFINITY PREDICTED BY RF-SCORE:    0.00 PKD
ROOT
HETATM    1  C   UNL     1     -10.310  17.722  74.053  1.00  0.00     5.794 C  
HETATM    2  N   UNL     1      -9.437  18.025  72.922  1.00  0.00    10.189 NA 
HETATM    3  C   UNL     1      -8.753  16.818  72.416  1.00  0.00    14.633 C  
HETATM    4  C   UNL     1      -9.651  15.822  71.648  1.00  0.00     3.971 C  
HETATM    5  N   UNL     1     -10.400  16.496  70.580  1.00  0.00     0.483 NA 
HETATM    6  C   UNL     1     -11.101  17.719  70.999  1.00  0.00     2.375 C  
HETATM    7  C   UNL     1     -10.174  18.658  71.804  1.00  0.00     4.110 C  
ENDROOT
BRANCH   5   8
HETATM    8  C   UNL     1     -10.449  16.041  69.260  1.00  0.00    -0.257 C  
HETATM    9  N   UNL     1     -10.339  14.760  69.033  1.00  0.00    -0.240 NA 
HETATM   10  C   UNL     1     -10.358  14.154  67.762  1.00  0.00    -0.242 A  
HETATM   11  H   UNL     1     -10.230  14.148  69.843  1.00  0.00     0.000 HD 
HETATM   12  C   UNL     1      -9.392  13.166  67.522  1.00  0.00    -0.207 A  
HETATM   13  C   UNL     1      -9.348  12.466  66.312  1.00  0.00    -0.189 A  
HETATM   14  C   UNL     1     -10.281  12.740  65.320  1.00  0.00    -0.296 A  
HETATM   15  C   UNL     1     -11.270  13.694  65.546  1.00  0.00    -0.301 A  
HETATM   16  C   UNL     1     -11.324  14.387  66.767  1.00  0.00    -0.352 A  
HETATM   17  S   UNL     1     -12.618  15.602  66.976  1.00  0.00     2.396 SA 
HETATM   18  C   UNL     1     -11.548  17.008  67.171  1.00  0.00     0.994 A  
HETATM   19  C   UNL     1     -10.581  17.084  68.183  1.00  0.00    -0.369 A  
HETATM   20  C   UNL     1      -9.741  18.206  68.268  1.00  0.00    -0.344 A  
HETATM   21  C   UNL     1      -9.886  19.253  67.364  1.00  0.00    -0.336 A  
HETATM   22  C   UNL     1     -10.844  19.187  66.357  1.00  0.00    -0.327 A  
HETATM   23 CL   UNL     1      -8.897  20.652  67.515  1.00  0.00    -0.357 Cl 
HETATM   24  C   UNL     1     -11.667  18.064  66.256  1.00  0.00     2.545 A  
ENDBRANCH   5   8
TORSDOF 1
ENDMDL
MODEL      177
REMARK 921   NORMALIZED FREE ENERGY PREDICTED BY IDOCK:   45.27 KCAL/MOL
REMARK 922        TOTAL FREE ENERGY PREDICTED BY IDOCK:   47.68 KCAL/MOL
REMARK 923 INTER-LIGAND FREE ENERGY PREDICTED BY IDOCK:   47.92 KCAL/MOL
REMARK 924 INTRA-LIGAND FREE ENERGY PREDICTED BY IDOCK:   -0.23 KCAL/MOL
REMARK 927      BINDING AFFINITY PREDICTED BY RF-SCORE:    0.00 PKD
ROOT
HETATM    1  C   UNL     1      -6.840  12.817  68.110  1.00  0.00    -0.094 C  
HETATM    2  N   UNL     1      -6.867  11.393  68.435  1.00  0.00    -0.065 NA 
HETATM    3  C   UNL     1      -8.244  10.862  68.464  1.00  0.00    -0.140 C  
HETATM    4  C   UNL     1      -8.926  10.713  67.086  1.00  0.00    -0.136 C  
HETATM    5  N   UNL     1      -8.083   9.952  66.155  1.00  0.00    -0.117 NA 
HETATM    6  C   UNL     1      -6.688  10.410  66.076  1.00  0.00    -0.124 C  
HETATM    7  C   UNL     1      -6.068  10.590  67.480  1.00  0.00    -0.052 C  
ENDROOT
BRANCH   5   8
HETATM    8  C   UNL     1      -8.540   8.868  65.403  1.00  0.00    -0.176 C  
HETATM    9  N   UNL     1      -7.781   7.810  65.301  1.00  0.00    -0.095 NA 
HETATM   10  C   UNL     1      -8.100   6.647  64.572  1.00  0.00    -0.073 A  
HETATM   11  H   UNL     1      -6.885   7.827  65.789  1.00  0.00     0.000 HD 
HETATM   12  C   UNL     1      -7.080   6.106  63.776  1.00  0.00    -0.053 A  
HETATM   13  C   UNL     1      -7.271   4.928  63.046  1.00  0.00    -0.047 A  
HETATM   14  C   UNL     1      -8.489   4.264  63.109  1.00  0.00    -0.099 A  
HETATM   15  C   UNL     1      -9.507   4.764  63.920  1.00  0.00     0.146 A  
HETATM   16  C   UNL     1      -9.311   5.939  64.664  1.00  0.00     0.794 A  
HETATM   17  S   UNL     1     -10.668   6.519  65.671  1.00  0.00     2.698 SA 
HETATM   18  C   UNL     1     -10.895   8.071  64.834  1.00  0.00     7.839 A  
HETATM   19  C   UNL     1      -9.873   9.022  64.722  1.00  0.00     0.931 A  
HETATM   20  C   UNL     1     -10.101  10.217  64.019  1.00  0.00     0.113 A  
HETATM   21  C   UNL     1     -11.348  10.466  63.457  1.00  0.00     2.654 A  
HETATM   22  C   UNL     1     -12.369   9.527  63.563  1.00  0.00    12.902 A  
HETATM   23 CL   UNL     1     -11.638  11.959  62.654  1.00  0.00     0.594 Cl 
HETATM   24  C   UNL     1     -12.141   8.329  64.243  1.00  0.00    20.517 A  
ENDBRANCH   5   8
TORSDOF 1
ENDMDL
