MODEL        1
REMARK 921   NORMALIZED FREE ENERGY PREDICTED BY IDOCK:   -7.78 KCAL/MOL
REMARK 922        TOTAL FREE ENERGY PREDICTED BY IDOCK:   -8.61 KCAL/MOL
REMARK 923 INTER-LIGAND FREE ENERGY PREDICTED BY IDOCK:   -8.24 KCAL/MOL
REMARK 924 INTRA-LIGAND FREE ENERGY PREDICTED BY IDOCK:   -0.38 KCAL/MOL
REMARK 927      BINDING AFFINITY PREDICTED BY RF-SCORE:    0.00 PKD
ROOT
HETATM    1  C   UNL     1      -7.718  19.932  66.120  1.00  0.00    -0.325 C  
HETATM    2  N   UNL     1      -8.847  20.062  67.038  1.00  0.00    -0.333 NA 
HETATM    3  C   UNL     1     -10.028  19.308  66.565  1.00  0.00    -0.392 C  
HETATM    4  C   UNL     1      -9.919  17.771  66.672  1.00  0.00    -0.338 C  
HETATM    5  N   UNL     1      -9.525  17.352  68.024  1.00  0.00    -0.273 NA 
HETATM    6  C   UNL     1      -8.510  19.600  68.405  1.00  0.00    -0.313 C  
HETATM    7  C   UNL     1      -8.371  18.071  68.579  1.00  0.00    -0.304 C  
ENDROOT
BRANCH   5   8
HETATM    8  C   UNL     1     -10.216  16.383  68.759  1.00  0.00    -0.258 C  
HETATM    9  N   UNL     1     -10.903  16.756  69.807  1.00  0.00    -0.375 NA 
HETATM   10  C   UNL     1     -11.668  15.883  70.606  1.00  0.00    -0.384 A  
HETATM   11  H   UNL     1     -10.883  17.742  70.064  1.00  0.00     0.000 HD 
HETATM   12  C   UNL     1     -11.665  16.132  71.985  1.00  0.00    -0.574 A  
HETATM   13  C   UNL     1     -12.432  15.355  72.853  1.00  0.00    -0.418 A  
HETATM   14  C   UNL     1     -13.239  14.333  72.361  1.00  0.00    -0.549 A  
HETATM   15 CL   UNL     1     -12.376  15.647  74.546  1.00  0.00    -0.810 Cl 
HETATM   16  C   UNL     1     -13.282  14.092  70.990  1.00  0.00    -0.337 A  
HETATM   17  C   UNL     1     -12.504  14.859  70.103  1.00  0.00    -0.306 A  
HETATM   18  N   UNL     1     -12.463  14.470  68.738  1.00  0.00    -0.569 NA 
HETATM   19  C   UNL     1     -11.213  14.123  68.180  1.00  0.00    -0.276 A  
HETATM   20  H   UNL     1     -13.313  14.442  68.176  1.00  0.00     0.000 HD 
HETATM   21  C   UNL     1     -11.046  12.845  67.625  1.00  0.00    -0.297 A  
HETATM   22  C   UNL     1      -9.784  12.397  67.226  1.00  0.00    -0.201 A  
HETATM   23  C   UNL     1      -8.670  13.215  67.388  1.00  0.00    -0.206 A  
HETATM   24  C   UNL     1      -8.823  14.490  67.924  1.00  0.00    -0.176 A  
HETATM   25  C   UNL     1     -10.094  14.956  68.300  1.00  0.00    -0.221 A  
ENDBRANCH   5   8
TORSDOF 1
ENDMDL
MODEL        2
REMARK 921   NORMALIZED FREE ENERGY PREDICTED BY IDOCK:   -7.20 KCAL/MOL
REMARK 922        TOTAL FREE ENERGY PREDICTED BY IDOCK:   -8.00 KCAL/MOL
REMARK 923 INTER-LIGAND FREE ENERGY PREDICTED BY IDOCK:   -8.47 KCAL/MOL
REMARK 924 INTRA-LIGAND FREE ENERGY PREDICTED BY IDOCK:    0.46 KCAL/MOL
REMARK 927      BINDING AFFINITY PREDICTED BY RF-SCORE:    0.00 PKD
ROOT
HETATM    1  C   UNL     1     -13.036  15.931  74.008  1.00  0.00    -0.345 C  
HETATM    2  N   UNL     1     -13.514  15.920  72.627  1.00  0.00    -0.508 NA 
HETATM    3  C   UNL     1     -12.405  16.074  71.661  1.00  0.00    -0.416 C  
HETATM    4  C   UNL     1     -11.480  14.846  71.513  1.00  0.00    -0.247 C  
HETATM    5  N   UNL     1     -12.249  13.622  71.252  1.00  0.00    -0.263 NA 
HETATM    6  C   UNL     1     -14.251  14.677  72.303  1.00  0.00    -0.463 C  
HETATM    7  C   UNL     1     -13.387  13.405  72.155  1.00  0.00    -0.520 C  
ENDROOT
BRANCH   5   8
HETATM    8  C   UNL     1     -11.965  12.748  70.197  1.00  0.00    -0.296 C  
HETATM    9  N   UNL     1     -11.751  13.244  69.006  1.00  0.00    -0.302 NA 
HETATM   10  C   UNL     1     -11.421  12.474  67.874  1.00  0.00    -0.315 A  
HETATM   11  H   UNL     1     -11.827  14.254  68.890  1.00  0.00     0.000 HD 
HETATM   12  C   UNL     1     -11.976  12.885  66.654  1.00  0.00    -0.436 A  
HETATM   13  C   UNL     1     -11.669  12.219  65.468  1.00  0.00    -0.377 A  
HETATM   14  C   UNL     1     -10.780  11.147  65.469  1.00  0.00    -0.251 A  
HETATM   15 CL   UNL     1     -12.399  12.710  63.991  1.00  0.00    -0.515 Cl 
HETATM   16  C   UNL     1     -10.191  10.745  66.666  1.00  0.00    -0.283 A  
HETATM   17  C   UNL     1     -10.502  11.400  67.872  1.00  0.00    -0.184 A  
HETATM   18  N   UNL     1      -9.999  10.851  69.082  1.00  0.00    -0.335 NA 
HETATM   19  C   UNL     1     -10.926  10.438  70.063  1.00  0.00    -0.308 A  
HETATM   20  H   UNL     1      -8.996  10.758  69.237  1.00  0.00     0.000 HD 
HETATM   21  C   UNL     1     -10.911   9.102  70.495  1.00  0.00    -0.307 A  
HETATM   22  C   UNL     1     -11.919   8.607  71.326  1.00  0.00    -0.339 A  
HETATM   23  C   UNL     1     -12.962   9.436  71.728  1.00  0.00    -0.484 A  
HETATM   24  C   UNL     1     -12.982  10.767  71.319  1.00  0.00    -0.502 A  
HETATM   25  C   UNL     1     -11.956  11.276  70.506  1.00  0.00    -0.467 A  
ENDBRANCH   5   8
TORSDOF 1
ENDMDL
MODEL        3
REMARK 921   NORMALIZED FREE ENERGY PREDICTED BY IDOCK:   -6.85 KCAL/MOL
REMARK 922        TOTAL FREE ENERGY PREDICTED BY IDOCK:   -7.63 KCAL/MOL
REMARK 923 INTER-LIGAND FREE ENERGY PREDICTED BY IDOCK:   -7.29 KCAL/MOL
REMARK 924 INTRA-LIGAND FREE ENERGY PREDICTED BY IDOCK:   -0.34 KCAL/MOL
REMARK 927      BINDING AFFINITY PREDICTED BY RF-SCORE:    0.00 PKD
ROOT
HETATM    1  C   UNL     1     -10.241  12.515  63.771  1.00  0.00    -0.333 C  
HETATM    2  N   UNL     1     -10.985  13.516  64.531  1.00  0.00    -0.380 NA 
HETATM    3  C   UNL     1     -12.185  12.938  65.172  1.00  0.00    -0.470 C  
HETATM    4  C   UNL     1     -11.910  12.007  66.373  1.00  0.00    -0.153 C  
HETATM    5  N   UNL     1     -11.033  12.649  67.362  1.00  0.00    -0.246 NA 
HETATM    6  C   UNL     1     -10.152  14.153  65.578  1.00  0.00    -0.336 C  
HETATM    7  C   UNL     1      -9.826  13.270  66.803  1.00  0.00    -0.264 C  
ENDROOT
BRANCH   5   8
HETATM    8  C   UNL     1     -11.336  12.716  68.727  1.00  0.00    -0.289 C  
HETATM    9  N   UNL     1     -11.794  13.838  69.217  1.00  0.00    -0.324 NA 
HETATM   10  C   UNL     1     -12.168  14.022  70.563  1.00  0.00    -0.365 A  
HETATM   11  H   UNL     1     -11.887  14.632  68.585  1.00  0.00     0.000 HD 
HETATM   12  C   UNL     1     -11.866  15.265  71.133  1.00  0.00    -0.399 A  
HETATM   13  C   UNL     1     -12.241  15.562  72.443  1.00  0.00    -0.414 A  
HETATM   14  C   UNL     1     -12.951  14.635  73.202  1.00  0.00    -0.605 A  
HETATM   15 CL   UNL     1     -11.817  17.076  73.138  1.00  0.00    -0.119 Cl 
HETATM   16  C   UNL     1     -13.291  13.406  72.641  1.00  0.00    -0.501 A  
HETATM   17  C   UNL     1     -12.907  13.088  71.325  1.00  0.00    -0.281 A  
HETATM   18  N   UNL     1     -13.140  11.767  70.860  1.00  0.00    -0.008 NA 
HETATM   19  C   UNL     1     -12.028  10.996  70.458  1.00  0.00    -0.379 A  
HETATM   20  H   UNL     1     -14.084  11.385  70.817  1.00  0.00     0.000 HD 
HETATM   21  C   UNL     1     -11.780   9.771  71.097  1.00  0.00    -0.465 A  
HETATM   22  C   UNL     1     -10.599   9.065  70.859  1.00  0.00    -0.316 A  
HETATM   23  C   UNL     1      -9.643   9.577  69.987  1.00  0.00    -0.272 A  
HETATM   24  C   UNL     1      -9.882  10.783  69.334  1.00  0.00    -0.112 A  
HETATM   25  C   UNL     1     -11.081  11.483  69.549  1.00  0.00    -0.256 A  
ENDBRANCH   5   8
TORSDOF 1
ENDMDL
MODEL        4
REMARK 921   NORMALIZED FREE ENERGY PREDICTED BY IDOCK:   -6.75 KCAL/MOL
REMARK 922        TOTAL FREE ENERGY PREDICTED BY IDOCK:   -7.52 KCAL/MOL
REMARK 923 INTER-LIGAND FREE ENERGY PREDICTED BY IDOCK:   -7.14 KCAL/MOL
REMARK 924 INTRA-LIGAND FREE ENERGY PREDICTED BY IDOCK:   -0.38 KCAL/MOL
REMARK 927      BINDING AFFINITY PREDICTED BY RF-SCORE:    0.00 PKD
ROOT
HETATM    1  C   UNL     1      -8.609   9.575  64.985  1.00  0.00    -0.167 C  
HETATM    2  N   UNL     1      -8.353   9.181  66.367  1.00  0.00    -0.120 NA 
HETATM    3  C   UNL     1      -7.933  10.330  67.197  1.00  0.00    -0.114 C  
HETATM    4  C   UNL     1      -9.046  11.348  67.531  1.00  0.00    -0.157 C  
HETATM    5  N   UNL     1     -10.229  10.684  68.098  1.00  0.00    -0.162 NA 
HETATM    6  C   UNL     1      -9.538   8.554  66.997  1.00  0.00    -0.188 C  
HETATM    7  C   UNL     1     -10.698   9.515  67.344  1.00  0.00    -0.227 C  
ENDROOT
BRANCH   5   8
HETATM    8  C   UNL     1     -10.840  11.092  69.288  1.00  0.00    -0.238 C  
HETATM    9  N   UNL     1     -11.350  12.294  69.358  1.00  0.00    -0.392 NA 
HETATM   10  C   UNL     1     -12.019  12.807  70.485  1.00  0.00    -0.191 A  
HETATM   11  H   UNL     1     -11.256  12.899  68.543  1.00  0.00     0.000 HD 
HETATM   12  C   UNL     1     -11.804  14.160  70.779  1.00  0.00    -0.313 A  
HETATM   13  C   UNL     1     -12.462  14.774  71.845  1.00  0.00    -0.340 A  
HETATM   14  C   UNL     1     -13.370  14.059  72.622  1.00  0.00    -0.643 A  
HETATM   15 CL   UNL     1     -12.146  16.423  72.217  1.00  0.00    -0.541 Cl 
HETATM   16  C   UNL     1     -13.624  12.722  72.324  1.00  0.00    -0.563 A  
HETATM   17  C   UNL     1     -12.957  12.086  71.260  1.00  0.00    -0.217 A  
HETATM   18  N   UNL     1     -13.133  10.686  71.100  1.00  0.00    -0.361 NA 
HETATM   19  C   UNL     1     -11.993   9.857  71.181  1.00  0.00    -0.384 A  
HETATM   20  H   UNL     1     -14.057  10.290  70.932  1.00  0.00     0.000 HD 
HETATM   21  C   UNL     1     -11.956   8.841  72.148  1.00  0.00    -0.436 A  
HETATM   22  C   UNL     1     -10.785   8.117  72.382  1.00  0.00    -0.404 A  
HETATM   23  C   UNL     1      -9.630   8.407  71.662  1.00  0.00    -0.288 A  
HETATM   24  C   UNL     1      -9.655   9.403  70.690  1.00  0.00    -0.331 A  
HETATM   25  C   UNL     1     -10.839  10.114  70.431  1.00  0.00    -0.365 A  
ENDBRANCH   5   8
TORSDOF 1
ENDMDL
MODEL        5
REMARK 921   NORMALIZED FREE ENERGY PREDICTED BY IDOCK:   -6.75 KCAL/MOL
REMARK 922        TOTAL FREE ENERGY PREDICTED BY IDOCK:   -7.52 KCAL/MOL
REMARK 923 INTER-LIGAND FREE ENERGY PREDICTED BY IDOCK:   -7.20 KCAL/MOL
REMARK 924 INTRA-LIGAND FREE ENERGY PREDICTED BY IDOCK:   -0.32 KCAL/MOL
REMARK 927      BINDING AFFINITY PREDICTED BY RF-SCORE:    0.00 PKD
ROOT
HETATM    1  C   UNL     1      -7.952   7.816  66.310  1.00  0.00    -0.100 C  
HETATM    2  N   UNL     1      -9.114   8.441  65.683  1.00  0.00    -0.143 NA 
HETATM    3  C   UNL     1     -10.283   8.457  66.588  1.00  0.00    -0.265 C  
HETATM    4  C   UNL     1     -10.193   9.449  67.768  1.00  0.00    -0.222 C  
HETATM    5  N   UNL     1      -9.856  10.803  67.309  1.00  0.00    -0.176 NA 
HETATM    6  C   UNL     1      -8.834   9.830  65.251  1.00  0.00    -0.175 C  
HETATM    7  C   UNL     1      -8.717  10.874  66.385  1.00  0.00    -0.170 C  
ENDROOT
BRANCH   5   8
HETATM    8  C   UNL     1     -10.585  11.940  67.672  1.00  0.00    -0.211 C  
HETATM    9  N   UNL     1     -10.748  12.207  68.942  1.00  0.00    -0.325 NA 
HETATM   10  C   UNL     1     -11.429  13.337  69.434  1.00  0.00    -0.263 A  
HETATM   11  H   UNL     1     -10.355  11.555  69.620  1.00  0.00     0.000 HD 
HETATM   12  C   UNL     1     -12.206  13.148  70.585  1.00  0.00    -0.402 A  
HETATM   13  C   UNL     1     -12.878  14.217  71.178  1.00  0.00    -0.360 A  
HETATM   14  C   UNL     1     -12.766  15.501  70.653  1.00  0.00    -0.487 A  
HETATM   15 CL   UNL     1     -13.864  13.952  72.561  1.00  0.00    -0.639 Cl 
HETATM   16  C   UNL     1     -11.971  15.716  69.529  1.00  0.00    -0.363 A  
HETATM   17  C   UNL     1     -11.298  14.645  68.913  1.00  0.00    -0.283 A  
HETATM   18  N   UNL     1     -10.632  14.891  67.683  1.00  0.00    -0.260 NA 
HETATM   19  C   UNL     1     -11.045  14.165  66.544  1.00  0.00    -0.318 A  
HETATM   20  H   UNL     1      -9.877  15.572  67.623  1.00  0.00     0.000 HD 
HETATM   21  C   UNL     1     -11.495  14.867  65.415  1.00  0.00    -0.320 A  
HETATM   22  C   UNL     1     -12.078  14.194  64.338  1.00  0.00    -0.486 A  
HETATM   23  C   UNL     1     -12.232  12.812  64.380  1.00  0.00    -0.499 A  
HETATM   24  C   UNL     1     -11.777  12.101  65.488  1.00  0.00    -0.384 A  
HETATM   25  C   UNL     1     -11.165  12.771  66.560  1.00  0.00    -0.349 A  
ENDBRANCH   5   8
TORSDOF 1
ENDMDL
MODEL        6
REMARK 921   NORMALIZED FREE ENERGY PREDICTED BY IDOCK:   -6.67 KCAL/MOL
REMARK 922        TOTAL FREE ENERGY PREDICTED BY IDOCK:   -7.44 KCAL/MOL
REMARK 923 INTER-LIGAND FREE ENERGY PREDICTED BY IDOCK:   -7.07 KCAL/MOL
REMARK 924 INTRA-LIGAND FREE ENERGY PREDICTED BY IDOCK:   -0.37 KCAL/MOL
REMARK 927      BINDING AFFINITY PREDICTED BY RF-SCORE:    0.00 PKD
ROOT
HETATM    1  C   UNL     1      -7.820   9.068  65.359  1.00  0.00    -0.101 C  
HETATM    2  N   UNL     1      -8.910  10.034  65.462  1.00  0.00    -0.156 NA 
HETATM    3  C   UNL     1     -10.153   9.408  65.961  1.00  0.00    -0.231 C  
HETATM    4  C   UNL     1     -10.148   9.022  67.456  1.00  0.00    -0.228 C  
HETATM    5  N   UNL     1      -9.745  10.154  68.302  1.00  0.00    -0.139 NA 
HETATM    6  C   UNL     1      -8.567  11.169  66.351  1.00  0.00    -0.172 C  
HETATM    7  C   UNL     1      -8.528  10.849  67.862  1.00  0.00    -0.129 C  
ENDROOT
BRANCH   5   8
HETATM    8  C   UNL     1     -10.480  10.581  69.413  1.00  0.00    -0.240 C  
HETATM    9  N   UNL     1     -11.142  11.707  69.338  1.00  0.00    -0.382 NA 
HETATM   10  C   UNL     1     -11.945  12.225  70.372  1.00  0.00    -0.263 A  
HETATM   11  H   UNL     1     -11.071  12.244  68.474  1.00  0.00     0.000 HD 
HETATM   12  C   UNL     1     -11.922  13.615  70.546  1.00  0.00    -0.353 A  
HETATM   13  C   UNL     1     -12.723  14.228  71.509  1.00  0.00    -0.350 A  
HETATM   14  C   UNL     1     -13.583  13.471  72.301  1.00  0.00    -0.690 A  
HETATM   15 CL   UNL     1     -12.643  15.931  71.737  1.00  0.00    -0.505 Cl 
HETATM   16  C   UNL     1     -13.645  12.091  72.119  1.00  0.00    -0.236 A  
HETATM   17  C   UNL     1     -12.834  11.458  71.160  1.00  0.00    -0.341 A  
HETATM   18  N   UNL     1     -12.820  10.038  71.127  1.00  0.00    -0.364 NA 
HETATM   19  C   UNL     1     -11.592   9.378  71.349  1.00  0.00    -0.381 A  
HETATM   20  H   UNL     1     -13.673   9.510  70.947  1.00  0.00     0.000 HD 
HETATM   21  C   UNL     1     -11.492   8.464  72.410  1.00  0.00    -0.451 A  
HETATM   22  C   UNL     1     -10.256   7.925  72.777  1.00  0.00    -0.380 A  
HETATM   23  C   UNL     1      -9.102   8.300  72.097  1.00  0.00    -0.279 A  
HETATM   24  C   UNL     1      -9.188   9.194  71.033  1.00  0.00    -0.321 A  
HETATM   25  C   UNL     1     -10.432   9.717  70.643  1.00  0.00    -0.379 A  
ENDBRANCH   5   8
TORSDOF 1
ENDMDL
MODEL        7
REMARK 921   NORMALIZED FREE ENERGY PREDICTED BY IDOCK:   -6.55 KCAL/MOL
REMARK 922        TOTAL FREE ENERGY PREDICTED BY IDOCK:   -7.31 KCAL/MOL
REMARK 923 INTER-LIGAND FREE ENERGY PREDICTED BY IDOCK:   -6.94 KCAL/MOL
REMARK 924 INTRA-LIGAND FREE ENERGY PREDICTED BY IDOCK:   -0.37 KCAL/MOL
REMARK 927      BINDING AFFINITY PREDICTED BY RF-SCORE:    0.00 PKD
ROOT
HETATM    1  C   UNL     1      -8.168   7.695  66.266  1.00  0.00    -0.120 C  
HETATM    2  N   UNL     1      -8.200   8.397  67.547  1.00  0.00    -0.124 NA 
HETATM    3  C   UNL     1      -7.693   9.780  67.428  1.00  0.00    -0.095 C  
HETATM    4  C   UNL     1      -8.623  10.766  66.689  1.00  0.00    -0.143 C  
HETATM    5  N   UNL     1      -9.983  10.743  67.246  1.00  0.00    -0.182 NA 
HETATM    6  C   UNL     1      -9.565   8.445  68.122  1.00  0.00    -0.143 C  
HETATM    7  C   UNL     1     -10.554   9.402  67.420  1.00  0.00    -0.258 C  
ENDROOT
BRANCH   5   8
HETATM    8  C   UNL     1     -10.672  11.897  67.635  1.00  0.00    -0.215 C  
HETATM    9  N   UNL     1     -10.828  12.141  68.910  1.00  0.00    -0.282 NA 
HETATM   10  C   UNL     1     -11.471  13.283  69.426  1.00  0.00    -0.263 A  
HETATM   11  H   UNL     1     -10.462  11.459  69.573  1.00  0.00     0.000 HD 
HETATM   12  C   UNL     1     -12.257  13.095  70.571  1.00  0.00    -0.405 A  
HETATM   13  C   UNL     1     -12.892  14.174  71.187  1.00  0.00    -0.360 A  
HETATM   14  C   UNL     1     -12.733  15.465  70.691  1.00  0.00    -0.490 A  
HETATM   15 CL   UNL     1     -13.891  13.913  72.562  1.00  0.00    -0.639 Cl 
HETATM   16  C   UNL     1     -11.927  15.677  69.575  1.00  0.00    -0.363 A  
HETATM   17  C   UNL     1     -11.291  14.596  68.935  1.00  0.00    -0.283 A  
HETATM   18  N   UNL     1     -10.614  14.846  67.712  1.00  0.00    -0.258 NA 
HETATM   19  C   UNL     1     -11.049  14.162  66.557  1.00  0.00    -0.318 A  
HETATM   20  H   UNL     1      -9.834  15.501  67.670  1.00  0.00     0.000 HD 
HETATM   21  C   UNL     1     -11.470  14.905  65.443  1.00  0.00    -0.320 A  
HETATM   22  C   UNL     1     -12.074  14.278  64.350  1.00  0.00    -0.490 A  
HETATM   23  C   UNL     1     -12.277  12.902  64.360  1.00  0.00    -0.484 A  
HETATM   24  C   UNL     1     -11.852  12.150  65.452  1.00  0.00    -0.357 A  
HETATM   25  C   UNL     1     -11.218  12.773  66.540  1.00  0.00    -0.349 A  
ENDBRANCH   5   8
TORSDOF 1
ENDMDL
MODEL        8
REMARK 921   NORMALIZED FREE ENERGY PREDICTED BY IDOCK:   -6.47 KCAL/MOL
REMARK 922        TOTAL FREE ENERGY PREDICTED BY IDOCK:   -7.22 KCAL/MOL
REMARK 923 INTER-LIGAND FREE ENERGY PREDICTED BY IDOCK:   -6.83 KCAL/MOL
REMARK 924 INTRA-LIGAND FREE ENERGY PREDICTED BY IDOCK:   -0.40 KCAL/MOL
REMARK 927      BINDING AFFINITY PREDICTED BY RF-SCORE:    0.00 PKD
ROOT
HETATM    1  C   UNL     1     -11.119   9.510  71.140  1.00  0.00    -0.379 C  
HETATM    2  N   UNL     1     -11.657   9.816  69.817  1.00  0.00    -0.101 NA 
HETATM    3  C   UNL     1     -12.517  11.018  69.839  1.00  0.00    -0.219 C  
HETATM    4  C   UNL     1     -11.775  12.361  70.018  1.00  0.00    -0.230 C  
HETATM    5  N   UNL     1     -10.682  12.505  69.046  1.00  0.00    -0.154 NA 
HETATM    6  C   UNL     1     -10.586  10.023  68.814  1.00  0.00    -0.217 C  
HETATM    7  C   UNL     1      -9.792  11.342  68.944  1.00  0.00    -0.139 C  
ENDROOT
BRANCH   5   8
HETATM    8  C   UNL     1     -10.520  13.635  68.237  1.00  0.00    -0.249 C  
HETATM    9  N   UNL     1     -10.055  14.734  68.771  1.00  0.00    -0.232 NA 
HETATM   10  C   UNL     1      -9.815  15.923  68.057  1.00  0.00    -0.218 A  
HETATM   11  H   UNL     1      -9.854  14.729  69.771  1.00  0.00     0.000 HD 
HETATM   12  C   UNL     1     -10.107  17.122  68.720  1.00  0.00    -0.329 A  
HETATM   13  C   UNL     1      -9.855  18.354  68.116  1.00  0.00    -0.342 A  
HETATM   14  C   UNL     1      -9.280  18.416  66.850  1.00  0.00    -0.287 A  
HETATM   15 CL   UNL     1     -10.267  19.812  68.929  1.00  0.00    -0.503 Cl 
HETATM   16  C   UNL     1      -8.950  17.235  66.188  1.00  0.00    -0.189 A  
HETATM   17  C   UNL     1      -9.211  15.985  66.780  1.00  0.00    -0.240 A  
HETATM   18  N   UNL     1      -9.003  14.817  65.999  1.00  0.00    -0.473 NA 
HETATM   19  C   UNL     1     -10.107  13.972  65.757  1.00  0.00    -0.327 A  
HETATM   20  H   UNL     1      -8.081  14.595  65.624  1.00  0.00     0.000 HD 
HETATM   21  C   UNL     1     -10.486  13.709  64.431  1.00  0.00    -0.322 A  
HETATM   22  C   UNL     1     -11.672  13.028  64.147  1.00  0.00    -0.470 A  
HETATM   23  C   UNL     1     -12.503  12.611  65.183  1.00  0.00    -0.531 A  
HETATM   24  C   UNL     1     -12.132  12.851  66.503  1.00  0.00    -0.375 A  
HETATM   25  C   UNL     1     -10.926  13.510  66.794  1.00  0.00    -0.297 A  
ENDBRANCH   5   8
TORSDOF 1
ENDMDL
MODEL        9
REMARK 921   NORMALIZED FREE ENERGY PREDICTED BY IDOCK:   -6.41 KCAL/MOL
REMARK 922        TOTAL FREE ENERGY PREDICTED BY IDOCK:   -7.16 KCAL/MOL
REMARK 923 INTER-LIGAND FREE ENERGY PREDICTED BY IDOCK:   -6.82 KCAL/MOL
REMARK 924 INTRA-LIGAND FREE ENERGY PREDICTED BY IDOCK:   -0.34 KCAL/MOL
REMARK 927      BINDING AFFINITY PREDICTED BY RF-SCORE:    0.00 PKD
ROOT
HETATM    1  C   UNL     1     -12.586  11.594  63.534  1.00  0.00    -0.211 C  
HETATM    2  N   UNL     1     -11.789  12.804  63.349  1.00  0.00    -0.536 NA 
HETATM    3  C   UNL     1     -12.493  14.006  63.842  1.00  0.00    -0.120 C  
HETATM    4  C   UNL     1     -12.601  14.127  65.378  1.00  0.00    -0.466 C  
HETATM    5  N   UNL     1     -11.289  13.975  66.023  1.00  0.00    -0.322 NA 
HETATM    6  C   UNL     1     -10.475  12.715  64.029  1.00  0.00    -0.416 C  
HETATM    7  C   UNL     1     -10.512  12.814  65.571  1.00  0.00    -0.287 C  
ENDROOT
BRANCH   5   8
HETATM    8  C   UNL     1     -10.784  14.885  66.958  1.00  0.00    -0.307 C  
HETATM    9  N   UNL     1      -9.886  15.754  66.574  1.00  0.00    -0.255 NA 
HETATM   10  C   UNL     1      -9.329  16.741  67.409  1.00  0.00    -0.233 A  
HETATM   11  H   UNL     1      -9.569  15.714  65.605  1.00  0.00     0.000 HD 
HETATM   12  C   UNL     1      -7.969  17.022  67.225  1.00  0.00    -0.197 A  
HETATM   13  C   UNL     1      -7.337  18.020  67.968  1.00  0.00    -0.232 A  
HETATM   14  C   UNL     1      -8.056  18.776  68.890  1.00  0.00    -0.267 A  
HETATM   15 CL   UNL     1      -5.656  18.314  67.759  1.00  0.00    -0.155 Cl 
HETATM   16  C   UNL     1      -9.417  18.535  69.063  1.00  0.00    -0.195 A  
HETATM   17  C   UNL     1     -10.064  17.523  68.330  1.00  0.00    -0.346 A  
HETATM   18  N   UNL     1     -11.410  17.214  68.658  1.00  0.00    -0.068 NA 
HETATM   19  C   UNL     1     -11.707  15.903  69.091  1.00  0.00    -0.363 A  
HETATM   20  H   UNL     1     -12.143  17.918  68.584  1.00  0.00     0.000 HD 
HETATM   21  C   UNL     1     -12.294  15.717  70.352  1.00  0.00    -0.367 A  
HETATM   22  C   UNL     1     -12.440  14.438  70.894  1.00  0.00    -0.424 A  
HETATM   23  C   UNL     1     -11.990  13.326  70.188  1.00  0.00    -0.388 A  
HETATM   24  C   UNL     1     -11.419  13.493  68.929  1.00  0.00    -0.348 A  
HETATM   25  C   UNL     1     -11.296  14.776  68.369  1.00  0.00    -0.317 A  
ENDBRANCH   5   8
TORSDOF 1
ENDMDL
MODEL       10
REMARK 921   NORMALIZED FREE ENERGY PREDICTED BY IDOCK:   -6.38 KCAL/MOL
REMARK 922        TOTAL FREE ENERGY PREDICTED BY IDOCK:   -7.14 KCAL/MOL
REMARK 923 INTER-LIGAND FREE ENERGY PREDICTED BY IDOCK:   -6.93 KCAL/MOL
REMARK 924 INTRA-LIGAND FREE ENERGY PREDICTED BY IDOCK:   -0.21 KCAL/MOL
REMARK 927      BINDING AFFINITY PREDICTED BY RF-SCORE:    0.00 PKD
ROOT
HETATM    1  C   UNL     1     -13.275  10.093  70.963  1.00  0.00    -0.335 C  
HETATM    2  N   UNL     1     -12.073  10.906  71.134  1.00  0.00    -0.317 NA 
HETATM    3  C   UNL     1     -11.092  10.668  70.054  1.00  0.00    -0.289 C  
HETATM    4  C   UNL     1     -11.473  11.246  68.673  1.00  0.00    -0.297 C  
HETATM    5  N   UNL     1     -11.831  12.668  68.766  1.00  0.00    -0.311 NA 
HETATM    6  C   UNL     1     -12.381  12.354  71.179  1.00  0.00    -0.141 C  
HETATM    7  C   UNL     1     -12.786  12.995  69.832  1.00  0.00     0.341 C  
ENDROOT
BRANCH   5   8
HETATM    8  C   UNL     1     -11.274  13.654  67.943  1.00  0.00    -0.274 C  
HETATM    9  N   UNL     1     -10.849  14.765  68.487  1.00  0.00    -0.244 NA 
HETATM   10  C   UNL     1     -10.240  15.815  67.773  1.00  0.00    -0.251 A  
HETATM   11  H   UNL     1     -10.968  14.878  69.493  1.00  0.00     0.000 HD 
HETATM   12  C   UNL     1     -10.554  17.117  68.184  1.00  0.00    -0.380 A  
HETATM   13  C   UNL     1      -9.961  18.222  67.574  1.00  0.00    -0.335 A  
HETATM   14  C   UNL     1      -9.022  18.051  66.560  1.00  0.00    -0.280 A  
HETATM   15 CL   UNL     1     -10.398  19.812  68.062  1.00  0.00    -0.568 Cl 
HETATM   16  C   UNL     1      -8.670  16.763  66.161  1.00  0.00    -0.299 A  
HETATM   17  C   UNL     1      -9.270  15.639  66.759  1.00  0.00    -0.251 A  
HETATM   18  N   UNL     1      -8.995  14.360  66.207  1.00  0.00    -0.489 NA 
HETATM   19  C   UNL     1     -10.076  13.603  65.708  1.00  0.00    -0.298 A  
HETATM   20  H   UNL     1      -8.042  13.998  66.173  1.00  0.00     0.000 HD 
HETATM   21  C   UNL     1     -10.062  13.198  64.364  1.00  0.00    -0.224 A  
HETATM   22  C   UNL     1     -11.186  12.606  63.782  1.00  0.00    -0.519 A  
HETATM   23  C   UNL     1     -12.343  12.419  64.531  1.00  0.00    -0.519 A  
HETATM   24  C   UNL     1     -12.367  12.802  65.870  1.00  0.00    -0.319 A  
HETATM   25  C   UNL     1     -11.230  13.373  66.466  1.00  0.00    -0.327 A  
ENDBRANCH   5   8
TORSDOF 1
ENDMDL
MODEL       11
REMARK 921   NORMALIZED FREE ENERGY PREDICTED BY IDOCK:   -6.37 KCAL/MOL
REMARK 922        TOTAL FREE ENERGY PREDICTED BY IDOCK:   -7.12 KCAL/MOL
REMARK 923 INTER-LIGAND FREE ENERGY PREDICTED BY IDOCK:   -7.55 KCAL/MOL
REMARK 924 INTRA-LIGAND FREE ENERGY PREDICTED BY IDOCK:    0.42 KCAL/MOL
REMARK 927      BINDING AFFINITY PREDICTED BY RF-SCORE:    0.00 PKD
ROOT
HETATM    1  C   UNL     1     -13.702  16.038  73.080  1.00  0.00    -0.396 C  
HETATM    2  N   UNL     1     -12.715  14.969  73.207  1.00  0.00    -0.482 NA 
HETATM    3  C   UNL     1     -13.298  13.645  72.906  1.00  0.00    -0.154 C  
HETATM    4  C   UNL     1     -13.617  13.384  71.417  1.00  0.00    -0.030 C  
HETATM    5  N   UNL     1     -12.455  13.662  70.561  1.00  0.00    -0.339 NA 
HETATM    6  C   UNL     1     -11.547  15.182  72.320  1.00  0.00    -0.378 C  
HETATM    7  C   UNL     1     -11.801  14.952  70.813  1.00  0.00    -0.312 C  
ENDROOT
BRANCH   5   8
HETATM    8  C   UNL     1     -11.967  12.756  69.613  1.00  0.00    -0.288 C  
HETATM    9  N   UNL     1     -11.771  13.168  68.388  1.00  0.00    -0.331 NA 
HETATM   10  C   UNL     1     -11.253  12.365  67.354  1.00  0.00    -0.297 A  
HETATM   11  H   UNL     1     -12.010  14.134  68.166  1.00  0.00     0.000 HD 
HETATM   12  C   UNL     1     -11.798  12.557  66.078  1.00  0.00    -0.478 A  
HETATM   13  C   UNL     1     -11.314  11.846  64.979  1.00  0.00    -0.273 A  
HETATM   14  C   UNL     1     -10.259  10.950  65.126  1.00  0.00    -0.360 A  
HETATM   15 CL   UNL     1     -12.031  12.063  63.431  1.00  0.00    -0.580 Cl 
HETATM   16  C   UNL     1      -9.681  10.770  66.381  1.00  0.00    -0.241 A  
HETATM   17  C   UNL     1     -10.167  11.471  67.500  1.00  0.00    -0.184 A  
HETATM   18  N   UNL     1      -9.649  11.133  68.778  1.00  0.00    -0.257 NA 
HETATM   19  C   UNL     1     -10.548  10.659  69.758  1.00  0.00    -0.184 A  
HETATM   20  H   UNL     1      -8.655  11.230  68.984  1.00  0.00     0.000 HD 
HETATM   21  C   UNL     1     -10.333   9.392  70.324  1.00  0.00    -0.293 A  
HETATM   22  C   UNL     1     -11.290   8.810  71.160  1.00  0.00    -0.345 A  
HETATM   23  C   UNL     1     -12.479   9.479  71.432  1.00  0.00    -0.450 A  
HETATM   24  C   UNL     1     -12.699  10.742  70.890  1.00  0.00    -0.478 A  
HETATM   25  C   UNL     1     -11.728  11.343  70.072  1.00  0.00    -0.416 A  
ENDBRANCH   5   8
TORSDOF 1
ENDMDL
MODEL       12
REMARK 921   NORMALIZED FREE ENERGY PREDICTED BY IDOCK:   -6.26 KCAL/MOL
REMARK 922        TOTAL FREE ENERGY PREDICTED BY IDOCK:   -7.01 KCAL/MOL
REMARK 923 INTER-LIGAND FREE ENERGY PREDICTED BY IDOCK:   -7.09 KCAL/MOL
REMARK 924 INTRA-LIGAND FREE ENERGY PREDICTED BY IDOCK:    0.08 KCAL/MOL
REMARK 927      BINDING AFFINITY PREDICTED BY RF-SCORE:    0.00 PKD
ROOT
HETATM    1  C   UNL     1     -13.255  15.066  73.187  1.00  0.00    -0.479 C  
HETATM    2  N   UNL     1     -13.963  14.545  72.021  1.00  0.00    -0.449 NA 
HETATM    3  C   UNL     1     -13.855  15.455  70.861  1.00  0.00    -0.163 C  
HETATM    4  C   UNL     1     -12.467  15.508  70.187  1.00  0.00    -0.318 C  
HETATM    5  N   UNL     1     -11.978  14.162  69.856  1.00  0.00    -0.317 NA 
HETATM    6  C   UNL     1     -13.465  13.209  71.618  1.00  0.00    -0.237 C  
HETATM    7  C   UNL     1     -12.072  13.187  70.950  1.00  0.00    -0.119 C  
ENDROOT
BRANCH   5   8
HETATM    8  C   UNL     1     -11.506  13.809  68.587  1.00  0.00    -0.301 C  
HETATM    9  N   UNL     1     -11.579  12.558  68.212  1.00  0.00    -0.307 NA 
HETATM   10  C   UNL     1     -11.171  12.084  66.950  1.00  0.00    -0.320 A  
HETATM   11  H   UNL     1     -11.955  11.882  68.876  1.00  0.00     0.000 HD 
HETATM   12  C   UNL     1     -10.552  10.827  66.924  1.00  0.00    -0.312 A  
HETATM   13  C   UNL     1     -10.159  10.249  65.717  1.00  0.00    -0.255 A  
HETATM   14  C   UNL     1     -10.399  10.899  64.509  1.00  0.00    -0.417 A  
HETATM   15 CL   UNL     1      -9.358   8.727  65.712  1.00  0.00    -0.282 Cl 
HETATM   16  C   UNL     1     -11.044  12.134  64.512  1.00  0.00    -0.375 A  
HETATM   17  C   UNL     1     -11.435  12.735  65.723  1.00  0.00    -0.348 A  
HETATM   18  N   UNL     1     -11.942  14.061  65.680  1.00  0.00    -0.378 NA 
HETATM   19  C   UNL     1     -11.253  15.063  66.397  1.00  0.00    -0.310 A  
HETATM   20  H   UNL     1     -12.782  14.283  65.146  1.00  0.00     0.000 HD 
HETATM   21  C   UNL     1     -10.761  16.181  65.705  1.00  0.00    -0.321 A  
HETATM   22  C   UNL     1      -9.923  17.103  66.336  1.00  0.00    -0.315 A  
HETATM   23  C   UNL     1      -9.554  16.915  67.665  1.00  0.00    -0.248 A  
HETATM   24  C   UNL     1     -10.045  15.819  68.368  1.00  0.00    -0.222 A  
HETATM   25  C   UNL     1     -10.911  14.904  67.745  1.00  0.00    -0.294 A  
ENDBRANCH   5   8
TORSDOF 1
ENDMDL
MODEL       13
REMARK 921   NORMALIZED FREE ENERGY PREDICTED BY IDOCK:   -6.25 KCAL/MOL
REMARK 922        TOTAL FREE ENERGY PREDICTED BY IDOCK:   -6.99 KCAL/MOL
REMARK 923 INTER-LIGAND FREE ENERGY PREDICTED BY IDOCK:   -7.25 KCAL/MOL
REMARK 924 INTRA-LIGAND FREE ENERGY PREDICTED BY IDOCK:    0.25 KCAL/MOL
REMARK 927      BINDING AFFINITY PREDICTED BY RF-SCORE:    0.00 PKD
ROOT
HETATM    1  C   UNL     1     -13.650  16.083  73.144  1.00  0.00    -0.439 C  
HETATM    2  N   UNL     1     -12.711  14.969  73.246  1.00  0.00    -0.482 NA 
HETATM    3  C   UNL     1     -13.277  13.722  72.690  1.00  0.00    -0.470 C  
HETATM    4  C   UNL     1     -13.401  13.678  71.151  1.00  0.00    -0.117 C  
HETATM    5  N   UNL     1     -12.130  14.024  70.499  1.00  0.00    -0.337 NA 
HETATM    6  C   UNL     1     -11.432  15.254  72.555  1.00  0.00    -0.323 C  
HETATM    7  C   UNL     1     -11.488  15.242  71.011  1.00  0.00    -0.356 C  
ENDROOT
BRANCH   5   8
HETATM    8  C   UNL     1     -11.540  13.238  69.504  1.00  0.00    -0.286 C  
HETATM    9  N   UNL     1     -11.208  12.005  69.787  1.00  0.00    -0.490 NA 
HETATM   10  C   UNL     1     -10.641  11.105  68.864  1.00  0.00    -0.207 A  
HETATM   11  H   UNL     1     -11.371  11.674  70.738  1.00  0.00     0.000 HD 
HETATM   12  C   UNL     1      -9.660  10.236  69.360  1.00  0.00    -0.237 A  
HETATM   13  C   UNL     1      -9.075   9.273  68.536  1.00  0.00    -0.132 A  
HETATM   14  C   UNL     1      -9.477   9.139  67.210  1.00  0.00    -0.187 A  
HETATM   15 CL   UNL     1      -7.839   8.250  69.153  1.00  0.00    -0.104 Cl 
HETATM   16  C   UNL     1     -10.476   9.971  66.709  1.00  0.00    -0.267 A  
HETATM   17  C   UNL     1     -11.065  10.955  67.524  1.00  0.00    -0.310 A  
HETATM   18  N   UNL     1     -11.961  11.877  66.921  1.00  0.00    -0.591 NA 
HETATM   19  C   UNL     1     -11.638  13.250  66.969  1.00  0.00    -0.359 A  
HETATM   20  H   UNL     1     -12.814  11.556  66.464  1.00  0.00     0.000 HD 
HETATM   21  C   UNL     1     -11.504  13.962  65.767  1.00  0.00    -0.324 A  
HETATM   22  C   UNL     1     -11.013  15.270  65.760  1.00  0.00    -0.340 A  
HETATM   23  C   UNL     1     -10.636  15.881  66.953  1.00  0.00    -0.309 A  
HETATM   24  C   UNL     1     -10.777  15.192  68.155  1.00  0.00    -0.254 A  
HETATM   25  C   UNL     1     -11.297  13.887  68.169  1.00  0.00    -0.324 A  
ENDBRANCH   5   8
TORSDOF 1
ENDMDL
MODEL       14
REMARK 921   NORMALIZED FREE ENERGY PREDICTED BY IDOCK:   -6.15 KCAL/MOL
REMARK 922        TOTAL FREE ENERGY PREDICTED BY IDOCK:   -6.88 KCAL/MOL
REMARK 923 INTER-LIGAND FREE ENERGY PREDICTED BY IDOCK:   -6.71 KCAL/MOL
REMARK 924 INTRA-LIGAND FREE ENERGY PREDICTED BY IDOCK:   -0.17 KCAL/MOL
REMARK 927      BINDING AFFINITY PREDICTED BY RF-SCORE:    0.00 PKD
ROOT
HETATM    1  C   UNL     1     -12.335   8.496  72.079  1.00  0.00    -0.365 C  
HETATM    2  N   UNL     1     -11.546   9.700  71.828  1.00  0.00    -0.336 NA 
HETATM    3  C   UNL     1     -10.337   9.408  71.030  1.00  0.00    -0.312 C  
HETATM    4  C   UNL     1     -10.589   9.078  69.542  1.00  0.00    -0.225 C  
HETATM    5  N   UNL     1     -11.420  10.104  68.897  1.00  0.00    -0.127 NA 
HETATM    6  C   UNL     1     -12.330  10.745  71.129  1.00  0.00    -0.393 C  
HETATM    7  C   UNL     1     -12.632  10.470  69.639  1.00  0.00     0.128 C  
ENDROOT
BRANCH   5   8
HETATM    8  C   UNL     1     -11.069  10.729  67.695  1.00  0.00    -0.319 C  
HETATM    9  N   UNL     1     -10.631   9.996  66.706  1.00  0.00    -0.194 NA 
HETATM   10  C   UNL     1     -10.280  10.501  65.439  1.00  0.00    -0.270 A  
HETATM   11  H   UNL     1     -10.536   8.992  66.861  1.00  0.00     0.000 HD 
HETATM   12  C   UNL     1      -9.174   9.911  64.813  1.00  0.00    -0.309 A  
HETATM   13  C   UNL     1      -8.780  10.307  63.535  1.00  0.00    -0.206 A  
HETATM   14  C   UNL     1      -9.497  11.279  62.843  1.00  0.00    -0.385 A  
HETATM   15 CL   UNL     1      -7.390   9.604  62.807  1.00  0.00    -0.103 Cl 
HETATM   16  C   UNL     1     -10.621  11.852  63.434  1.00  0.00    -0.485 A  
HETATM   17  C   UNL     1     -11.023  11.472  64.728  1.00  0.00    -0.273 A  
HETATM   18  N   UNL     1     -12.076  12.199  65.343  1.00  0.00    -0.484 NA 
HETATM   19  C   UNL     1     -11.803  12.872  66.554  1.00  0.00    -0.407 A  
HETATM   20  H   UNL     1     -13.004  12.235  64.923  1.00  0.00     0.000 HD 
HETATM   21  C   UNL     1     -12.004  14.260  66.623  1.00  0.00    -0.454 A  
HETATM   22  C   UNL     1     -11.580  14.991  67.735  1.00  0.00    -0.336 A  
HETATM   23  C   UNL     1     -10.939  14.348  68.790  1.00  0.00    -0.264 A  
HETATM   24  C   UNL     1     -10.746  12.970  68.742  1.00  0.00    -0.250 A  
HETATM   25  C   UNL     1     -11.196  12.227  67.638  1.00  0.00    -0.346 A  
ENDBRANCH   5   8
TORSDOF 1
ENDMDL
MODEL       15
REMARK 921   NORMALIZED FREE ENERGY PREDICTED BY IDOCK:   -6.07 KCAL/MOL
REMARK 922        TOTAL FREE ENERGY PREDICTED BY IDOCK:   -6.80 KCAL/MOL
REMARK 923 INTER-LIGAND FREE ENERGY PREDICTED BY IDOCK:   -6.39 KCAL/MOL
REMARK 924 INTRA-LIGAND FREE ENERGY PREDICTED BY IDOCK:   -0.41 KCAL/MOL
REMARK 927      BINDING AFFINITY PREDICTED BY RF-SCORE:    0.00 PKD
ROOT
HETATM    1  C   UNL     1      -8.776  19.504  68.716  1.00  0.00    -0.300 C  
HETATM    2  N   UNL     1      -9.237  18.874  67.482  1.00  0.00    -0.288 NA 
HETATM    3  C   UNL     1      -8.276  17.865  66.988  1.00  0.00    -0.226 C  
HETATM    4  C   UNL     1      -8.206  16.559  67.809  1.00  0.00    -0.165 C  
HETATM    5  N   UNL     1      -9.540  15.975  68.005  1.00  0.00    -0.215 NA 
HETATM    6  C   UNL     1     -10.558  18.224  67.647  1.00  0.00    -0.405 C  
HETATM    7  C   UNL     1     -10.562  16.918  68.474  1.00  0.00    -0.367 C  
ENDROOT
BRANCH   5   8
HETATM    8  C   UNL     1      -9.840  14.638  67.722  1.00  0.00    -0.216 C  
HETATM    9  N   UNL     1      -9.334  13.702  68.482  1.00  0.00    -0.324 NA 
HETATM   10  C   UNL     1      -9.589  12.326  68.322  1.00  0.00    -0.212 A  
HETATM   11  H   UNL     1      -8.715  13.987  69.240  1.00  0.00     0.000 HD 
HETATM   12  C   UNL     1      -8.515  11.459  68.561  1.00  0.00    -0.152 A  
HETATM   13  C   UNL     1      -8.681  10.076  68.479  1.00  0.00    -0.123 A  
HETATM   14  C   UNL     1      -9.927   9.529  68.184  1.00  0.00    -0.191 A  
HETATM   15 CL   UNL     1      -7.338   9.032  68.728  1.00  0.00    -0.075 Cl 
HETATM   16  C   UNL     1     -11.015  10.375  67.977  1.00  0.00    -0.347 A  
HETATM   17  C   UNL     1     -10.860  11.772  68.044  1.00  0.00    -0.213 A  
HETATM   18  N   UNL     1     -11.960  12.587  67.670  1.00  0.00    -0.452 NA 
HETATM   19  C   UNL     1     -11.792  13.480  66.589  1.00  0.00    -0.407 A  
HETATM   20  H   UNL     1     -12.848  12.530  68.167  1.00  0.00     0.000 HD 
HETATM   21  C   UNL     1     -12.641  13.371  65.477  1.00  0.00    -0.520 A  
HETATM   22  C   UNL     1     -12.398  14.110  64.316  1.00  0.00    -0.398 A  
HETATM   23  C   UNL     1     -11.297  14.958  64.246  1.00  0.00    -0.086 A  
HETATM   24  C   UNL     1     -10.455  15.087  65.347  1.00  0.00    -0.406 A  
HETATM   25  C   UNL     1     -10.711  14.368  66.526  1.00  0.00    -0.306 A  
ENDBRANCH   5   8
TORSDOF 1
ENDMDL
MODEL       16
REMARK 921   NORMALIZED FREE ENERGY PREDICTED BY IDOCK:   -6.06 KCAL/MOL
REMARK 922        TOTAL FREE ENERGY PREDICTED BY IDOCK:   -6.79 KCAL/MOL
REMARK 923 INTER-LIGAND FREE ENERGY PREDICTED BY IDOCK:   -6.72 KCAL/MOL
REMARK 924 INTRA-LIGAND FREE ENERGY PREDICTED BY IDOCK:   -0.07 KCAL/MOL
REMARK 927      BINDING AFFINITY PREDICTED BY RF-SCORE:    0.00 PKD
ROOT
HETATM    1  C   UNL     1     -12.742   7.390  71.407  1.00  0.00    -0.369 C  
HETATM    2  N   UNL     1     -12.436   8.564  72.220  1.00  0.00    -0.379 NA 
HETATM    3  C   UNL     1     -11.075   9.076  71.955  1.00  0.00    -0.363 C  
HETATM    4  C   UNL     1     -10.884   9.778  70.593  1.00  0.00    -0.329 C  
HETATM    5  N   UNL     1     -11.897  10.821  70.379  1.00  0.00    -0.329 NA 
HETATM    6  C   UNL     1     -13.404   9.664  71.996  1.00  0.00    -0.457 C  
HETATM    7  C   UNL     1     -13.279  10.401  70.644  1.00  0.00    -0.127 C  
ENDROOT
BRANCH   5   8
HETATM    8  C   UNL     1     -11.581  12.131  70.003  1.00  0.00    -0.171 C  
HETATM    9  N   UNL     1     -10.635  12.325  69.121  1.00  0.00    -0.429 NA 
HETATM   10  C   UNL     1     -10.249  13.590  68.637  1.00  0.00    -0.189 A  
HETATM   11  H   UNL     1     -10.144  11.507  68.762  1.00  0.00     0.000 HD 
HETATM   12  C   UNL     1      -8.881  13.780  68.404  1.00  0.00    -0.165 A  
HETATM   13  C   UNL     1      -8.406  14.981  67.876  1.00  0.00    -0.148 A  
HETATM   14  C   UNL     1      -9.288  16.005  67.542  1.00  0.00    -0.217 A  
HETATM   15 CL   UNL     1      -6.717  15.211  67.644  1.00  0.00    -0.188 Cl 
HETATM   16  C   UNL     1     -10.656  15.821  67.733  1.00  0.00    -0.292 A  
HETATM   17  C   UNL     1     -11.148  14.621  68.278  1.00  0.00    -0.271 A  
HETATM   18  N   UNL     1     -12.529  14.547  68.599  1.00  0.00    -0.566 NA 
HETATM   19  C   UNL     1     -12.890  14.304  69.942  1.00  0.00     0.101 A  
HETATM   20  H   UNL     1     -13.242  14.667  67.880  1.00  0.00     0.000 HD 
HETATM   21  C   UNL     1     -13.698  15.236  70.611  1.00  0.00    -0.109 A  
HETATM   22  C   UNL     1     -13.930  15.128  71.984  1.00  0.00    -0.629 A  
HETATM   23  C   UNL     1     -13.349  14.094  72.711  1.00  0.00    -0.618 A  
HETATM   24  C   UNL     1     -12.557  13.153  72.059  1.00  0.00    -0.058 A  
HETATM   25  C   UNL     1     -12.344  13.242  70.673  1.00  0.00    -0.416 A  
ENDBRANCH   5   8
TORSDOF 1
ENDMDL
MODEL       17
REMARK 921   NORMALIZED FREE ENERGY PREDICTED BY IDOCK:   -6.06 KCAL/MOL
REMARK 922        TOTAL FREE ENERGY PREDICTED BY IDOCK:   -6.79 KCAL/MOL
REMARK 923 INTER-LIGAND FREE ENERGY PREDICTED BY IDOCK:   -6.45 KCAL/MOL
REMARK 924 INTRA-LIGAND FREE ENERGY PREDICTED BY IDOCK:   -0.34 KCAL/MOL
REMARK 927      BINDING AFFINITY PREDICTED BY RF-SCORE:    0.00 PKD
ROOT
HETATM    1  C   UNL     1      -9.202  20.187  66.206  1.00  0.00    -0.284 C  
HETATM    2  N   UNL     1     -10.452  19.535  66.590  1.00  0.00    -0.455 NA 
HETATM    3  C   UNL     1     -10.642  18.253  65.881  1.00  0.00    -0.254 C  
HETATM    4  C   UNL     1      -9.721  17.100  66.337  1.00  0.00    -0.292 C  
HETATM    5  N   UNL     1      -9.770  16.916  67.794  1.00  0.00    -0.246 NA 
HETATM    6  C   UNL     1     -10.521  19.282  68.049  1.00  0.00    -0.386 C  
HETATM    7  C   UNL     1      -9.611  18.149  68.575  1.00  0.00    -0.339 C  
ENDROOT
BRANCH   5   8
HETATM    8  C   UNL     1     -10.000  15.678  68.403  1.00  0.00    -0.210 C  
HETATM    9  N   UNL     1     -11.195  15.413  68.864  1.00  0.00    -0.272 NA 
HETATM   10  C   UNL     1     -11.561  14.193  69.464  1.00  0.00    -0.295 A  
HETATM   11  H   UNL     1     -11.908  16.137  68.783  1.00  0.00     0.000 HD 
HETATM   12  C   UNL     1     -12.446  14.269  70.548  1.00  0.00    -0.428 A  
HETATM   13  C   UNL     1     -12.908  13.113  71.176  1.00  0.00    -0.264 A  
HETATM   14  C   UNL     1     -12.519  11.856  70.720  1.00  0.00    -0.384 A  
HETATM   15 CL   UNL     1     -13.956  13.231  72.534  1.00  0.00    -0.602 Cl 
HETATM   16  C   UNL     1     -11.666  11.759  69.622  1.00  0.00    -0.413 A  
HETATM   17  C   UNL     1     -11.182  12.917  68.987  1.00  0.00    -0.267 A  
HETATM   18  N   UNL     1     -10.194  12.765  67.978  1.00  0.00    -0.222 NA 
HETATM   19  C   UNL     1      -8.941  13.384  68.172  1.00  0.00    -0.188 A  
HETATM   20  H   UNL     1     -10.385  12.222  67.136  1.00  0.00     0.000 HD 
HETATM   21  C   UNL     1      -7.782  12.593  68.175  1.00  0.00    -0.142 A  
HETATM   22  C   UNL     1      -6.546  13.133  68.540  1.00  0.00    -0.088 A  
HETATM   23  C   UNL     1      -6.453  14.469  68.919  1.00  0.00    -0.092 A  
HETATM   24  C   UNL     1      -7.592  15.270  68.907  1.00  0.00    -0.152 A  
HETATM   25  C   UNL     1      -8.831  14.738  68.513  1.00  0.00    -0.176 A  
ENDBRANCH   5   8
TORSDOF 1
ENDMDL
MODEL       18
REMARK 921   NORMALIZED FREE ENERGY PREDICTED BY IDOCK:   -6.02 KCAL/MOL
REMARK 922        TOTAL FREE ENERGY PREDICTED BY IDOCK:   -6.75 KCAL/MOL
REMARK 923 INTER-LIGAND FREE ENERGY PREDICTED BY IDOCK:   -6.44 KCAL/MOL
REMARK 924 INTRA-LIGAND FREE ENERGY PREDICTED BY IDOCK:   -0.32 KCAL/MOL
REMARK 927      BINDING AFFINITY PREDICTED BY RF-SCORE:    0.00 PKD
ROOT
HETATM    1  C   UNL     1     -12.110  14.811  64.278  1.00  0.00    -0.394 C  
HETATM    2  N   UNL     1     -12.900  13.820  65.003  1.00  0.00    -0.735 NA 
HETATM    3  C   UNL     1     -12.761  12.470  64.416  1.00  0.00    -0.358 C  
HETATM    4  C   UNL     1     -11.398  11.783  64.651  1.00  0.00    -0.256 C  
HETATM    5  N   UNL     1     -11.033  11.785  66.075  1.00  0.00    -0.301 NA 
HETATM    6  C   UNL     1     -12.528  13.750  66.436  1.00  0.00    -0.355 C  
HETATM    7  C   UNL     1     -11.167  13.086  66.742  1.00  0.00    -0.298 C  
ENDROOT
BRANCH   5   8
HETATM    8  C   UNL     1     -10.638  10.635  66.766  1.00  0.00    -0.237 C  
HETATM    9  N   UNL     1     -11.298  10.285  67.840  1.00  0.00    -0.575 NA 
HETATM   10  C   UNL     1     -11.021   9.133  68.601  1.00  0.00     0.047 A  
HETATM   11  H   UNL     1     -12.063  10.886  68.146  1.00  0.00     0.000 HD 
HETATM   12  C   UNL     1     -11.153   9.254  69.991  1.00  0.00    -0.228 A  
HETATM   13  C   UNL     1     -10.950   8.156  70.827  1.00  0.00    -0.244 A  
HETATM   14  C   UNL     1     -10.639   6.908  70.293  1.00  0.00    -0.246 A  
HETATM   15 CL   UNL     1     -11.071   8.339  72.532  1.00  0.00    -0.442 Cl 
HETATM   16  C   UNL     1     -10.537   6.760  68.911  1.00  0.00    -0.257 A  
HETATM   17  C   UNL     1     -10.726   7.862  68.056  1.00  0.00    -0.054 A  
HETATM   18  N   UNL     1     -10.455   7.691  66.673  1.00  0.00    -0.504 NA 
HETATM   19  C   UNL     1      -9.455   8.497  66.085  1.00  0.00    -0.217 A  
HETATM   20  H   UNL     1     -10.967   7.006  66.119  1.00  0.00     0.000 HD 
HETATM   21  C   UNL     1      -8.359   7.878  65.464  1.00  0.00    -0.152 A  
HETATM   22  C   UNL     1      -7.264   8.629  65.029  1.00  0.00    -0.084 A  
HETATM   23  C   UNL     1      -7.243  10.007  65.220  1.00  0.00    -0.137 A  
HETATM   24  C   UNL     1      -8.330  10.636  65.822  1.00  0.00    -0.162 A  
HETATM   25  C   UNL     1      -9.445   9.889  66.235  1.00  0.00    -0.245 A  
ENDBRANCH   5   8
TORSDOF 1
ENDMDL
MODEL       19
REMARK 921   NORMALIZED FREE ENERGY PREDICTED BY IDOCK:   -6.01 KCAL/MOL
REMARK 922        TOTAL FREE ENERGY PREDICTED BY IDOCK:   -6.74 KCAL/MOL
REMARK 923 INTER-LIGAND FREE ENERGY PREDICTED BY IDOCK:   -6.35 KCAL/MOL
REMARK 924 INTRA-LIGAND FREE ENERGY PREDICTED BY IDOCK:   -0.39 KCAL/MOL
REMARK 927      BINDING AFFINITY PREDICTED BY RF-SCORE:    0.00 PKD
ROOT
HETATM    1  C   UNL     1      -9.571   4.497  65.288  1.00  0.00    -0.172 C  
HETATM    2  N   UNL     1      -9.116   5.048  66.562  1.00  0.00    -0.122 NA 
HETATM    3  C   UNL     1      -8.257   6.235  66.371  1.00  0.00    -0.114 C  
HETATM    4  C   UNL     1      -8.986   7.513  65.902  1.00  0.00    -0.089 C  
HETATM    5  N   UNL     1     -10.137   7.821  66.762  1.00  0.00    -0.270 NA 
HETATM    6  C   UNL     1     -10.248   5.423  67.442  1.00  0.00    -0.201 C  
HETATM    7  C   UNL     1     -11.032   6.686  67.022  1.00  0.00    -0.393 C  
ENDROOT
BRANCH   5   8
HETATM    8  C   UNL     1     -10.350   9.078  67.337  1.00  0.00    -0.268 C  
HETATM    9  N   UNL     1     -10.556  10.105  66.554  1.00  0.00    -0.154 NA 
HETATM   10  C   UNL     1     -10.816  11.412  67.011  1.00  0.00    -0.282 A  
HETATM   11  H   UNL     1     -10.526   9.950  65.547  1.00  0.00     0.000 HD 
HETATM   12  C   UNL     1     -10.249  12.458  66.272  1.00  0.00    -0.258 A  
HETATM   13  C   UNL     1     -10.491  13.789  66.614  1.00  0.00    -0.272 A  
HETATM   14  C   UNL     1     -11.325  14.103  67.683  1.00  0.00    -0.342 A  
HETATM   15 CL   UNL     1      -9.746  15.056  65.722  1.00  0.00    -0.379 Cl 
HETATM   16  C   UNL     1     -11.926  13.077  68.410  1.00  0.00    -0.309 A  
HETATM   17  C   UNL     1     -11.680  11.730  68.084  1.00  0.00    -0.307 A  
HETATM   18  N   UNL     1     -12.188  10.728  68.951  1.00  0.00    -0.795 NA 
HETATM   19  C   UNL     1     -11.269   9.853  69.571  1.00  0.00    -0.177 A  
HETATM   20  H   UNL     1     -13.189  10.641  69.123  1.00  0.00     0.000 HD 
HETATM   21  C   UNL     1     -11.229   9.787  70.972  1.00  0.00    -0.451 A  
HETATM   22  C   UNL     1     -10.221   9.076  71.628  1.00  0.00    -0.418 A  
HETATM   23  C   UNL     1      -9.232   8.430  70.893  1.00  0.00    -0.192 A  
HETATM   24  C   UNL     1      -9.266   8.475  69.501  1.00  0.00    -0.150 A  
HETATM   25  C   UNL     1     -10.294   9.166  68.838  1.00  0.00    -0.232 A  
ENDBRANCH   5   8
TORSDOF 1
ENDMDL
MODEL       20
REMARK 921   NORMALIZED FREE ENERGY PREDICTED BY IDOCK:   -6.01 KCAL/MOL
REMARK 922        TOTAL FREE ENERGY PREDICTED BY IDOCK:   -6.74 KCAL/MOL
REMARK 923 INTER-LIGAND FREE ENERGY PREDICTED BY IDOCK:   -6.33 KCAL/MOL
REMARK 924 INTRA-LIGAND FREE ENERGY PREDICTED BY IDOCK:   -0.41 KCAL/MOL
REMARK 927      BINDING AFFINITY PREDICTED BY RF-SCORE:    0.00 PKD
ROOT
HETATM    1  C   UNL     1      -9.100   5.173  65.618  1.00  0.00    -0.157 C  
HETATM    2  N   UNL     1      -8.734   5.305  67.026  1.00  0.00    -0.108 NA 
HETATM    3  C   UNL     1      -8.116   6.617  67.313  1.00  0.00    -0.121 C  
HETATM    4  C   UNL     1      -9.081   7.823  67.291  1.00  0.00    -0.131 C  
HETATM    5  N   UNL     1     -10.255   7.588  68.144  1.00  0.00    -0.183 NA 
HETATM    6  C   UNL     1      -9.901   5.128  67.923  1.00  0.00    -0.155 C  
HETATM    7  C   UNL     1     -10.916   6.293  67.939  1.00  0.00    -0.327 C  
ENDROOT
BRANCH   5   8
HETATM    8  C   UNL     1     -10.689   8.495  69.117  1.00  0.00    -0.110 C  
HETATM    9  N   UNL     1     -11.178   9.646  68.734  1.00  0.00    -0.470 NA 
HETATM   10  C   UNL     1     -11.680  10.626  69.611  1.00  0.00    -0.296 A  
HETATM   11  H   UNL     1     -11.198   9.846  67.734  1.00  0.00     0.000 HD 
HETATM   12  C   UNL     1     -11.418  11.961  69.275  1.00  0.00    -0.366 A  
HETATM   13  C   UNL     1     -11.916  13.006  70.053  1.00  0.00    -0.312 A  
HETATM   14  C   UNL     1     -12.709  12.742  71.167  1.00  0.00    -0.355 A  
HETATM   15 CL   UNL     1     -11.542  14.635  69.649  1.00  0.00    -0.325 Cl 
HETATM   16  C   UNL     1     -13.009  11.422  71.498  1.00  0.00    -0.505 A  
HETATM   17  C   UNL     1     -12.502  10.358  70.730  1.00  0.00    -0.368 A  
HETATM   18  N   UNL     1     -12.706   9.034  71.202  1.00  0.00    -0.482 NA 
HETATM   19  C   UNL     1     -11.570   8.244  71.482  1.00  0.00    -0.279 A  
HETATM   20  H   UNL     1     -13.646   8.664  71.335  1.00  0.00     0.000 HD 
HETATM   21  C   UNL     1     -11.402   7.726  72.776  1.00  0.00    -0.446 A  
HETATM   22  C   UNL     1     -10.213   7.093  73.145  1.00  0.00    -0.317 A  
HETATM   23  C   UNL     1      -9.170   6.980  72.232  1.00  0.00    -0.147 A  
HETATM   24  C   UNL     1      -9.327   7.476  70.940  1.00  0.00    -0.154 A  
HETATM   25  C   UNL     1     -10.532   8.088  70.556  1.00  0.00    -0.217 A  
ENDBRANCH   5   8
TORSDOF 1
ENDMDL
MODEL       21
REMARK 921   NORMALIZED FREE ENERGY PREDICTED BY IDOCK:   -5.99 KCAL/MOL
REMARK 922        TOTAL FREE ENERGY PREDICTED BY IDOCK:   -6.72 KCAL/MOL
REMARK 923 INTER-LIGAND FREE ENERGY PREDICTED BY IDOCK:   -6.37 KCAL/MOL
REMARK 924 INTRA-LIGAND FREE ENERGY PREDICTED BY IDOCK:   -0.35 KCAL/MOL
REMARK 927      BINDING AFFINITY PREDICTED BY RF-SCORE:    0.00 PKD
ROOT
HETATM    1  C   UNL     1      -8.196   9.087  65.111  1.00  0.00    -0.145 C  
HETATM    2  N   UNL     1      -8.438   9.284  66.538  1.00  0.00    -0.125 NA 
HETATM    3  C   UNL     1      -7.709  10.458  67.061  1.00  0.00    -0.105 C  
HETATM    4  C   UNL     1      -8.262  11.832  66.621  1.00  0.00    -0.117 C  
HETATM    5  N   UNL     1      -9.704  11.940  66.881  1.00  0.00    -0.198 NA 
HETATM    6  C   UNL     1      -9.879   9.451  66.841  1.00  0.00    -0.201 C  
HETATM    7  C   UNL     1     -10.501  10.799  66.412  1.00  0.00    -0.233 C  
ENDROOT
BRANCH   5   8
HETATM    8  C   UNL     1     -10.281  13.014  67.566  1.00  0.00    -0.221 C  
HETATM    9  N   UNL     1     -10.634  12.851  68.815  1.00  0.00    -0.357 NA 
HETATM   10  C   UNL     1     -11.190  13.863  69.620  1.00  0.00    -0.140 A  
HETATM   11  H   UNL     1     -10.497  11.931  69.232  1.00  0.00     0.000 HD 
HETATM   12  C   UNL     1     -12.193  13.470  70.516  1.00  0.00    -0.433 A  
HETATM   13  C   UNL     1     -12.770  14.389  71.393  1.00  0.00    -0.342 A  
HETATM   14  C   UNL     1     -12.339  15.713  71.414  1.00  0.00    -0.485 A  
HETATM   15 CL   UNL     1     -14.032  13.895  72.450  1.00  0.00    -0.637 Cl 
HETATM   16  C   UNL     1     -11.319  16.116  70.554  1.00  0.00    -0.392 A  
HETATM   17  C   UNL     1     -10.737  15.202  69.655  1.00  0.00    -0.278 A  
HETATM   18  N   UNL     1      -9.817  15.700  68.696  1.00  0.00    -0.204 NA 
HETATM   19  C   UNL     1     -10.124  15.535  67.328  1.00  0.00    -0.250 A  
HETATM   20  H   UNL     1      -8.957  16.165  68.986  1.00  0.00     0.000 HD 
HETATM   21  C   UNL     1     -10.222  16.671  66.509  1.00  0.00    -0.314 A  
HETATM   22  C   UNL     1     -10.697  16.570  65.199  1.00  0.00    -0.261 A  
HETATM   23  C   UNL     1     -11.093  15.336  64.693  1.00  0.00    -0.346 A  
HETATM   24  C   UNL     1     -10.989  14.199  65.489  1.00  0.00    -0.310 A  
HETATM   25  C   UNL     1     -10.485  14.291  66.797  1.00  0.00    -0.273 A  
ENDBRANCH   5   8
TORSDOF 1
ENDMDL
MODEL       22
REMARK 921   NORMALIZED FREE ENERGY PREDICTED BY IDOCK:   -5.97 KCAL/MOL
REMARK 922        TOTAL FREE ENERGY PREDICTED BY IDOCK:   -6.70 KCAL/MOL
REMARK 923 INTER-LIGAND FREE ENERGY PREDICTED BY IDOCK:   -6.85 KCAL/MOL
REMARK 924 INTRA-LIGAND FREE ENERGY PREDICTED BY IDOCK:    0.16 KCAL/MOL
REMARK 927      BINDING AFFINITY PREDICTED BY RF-SCORE:    0.00 PKD
ROOT
HETATM    1  C   UNL     1      -6.609   8.782  64.807  1.00  0.00    -0.066 C  
HETATM    2  N   UNL     1      -7.273  10.080  64.736  1.00  0.00    -0.134 NA 
HETATM    3  C   UNL     1      -8.727   9.941  64.505  1.00  0.00    -0.198 C  
HETATM    4  C   UNL     1      -9.542   9.417  65.708  1.00  0.00    -0.271 C  
HETATM    5  N   UNL     1      -9.267  10.196  66.924  1.00  0.00    -0.145 NA 
HETATM    6  C   UNL     1      -7.067  10.881  65.965  1.00  0.00    -0.067 C  
HETATM    7  C   UNL     1      -7.842  10.402  67.214  1.00  0.00    -0.106 C  
ENDROOT
BRANCH   5   8
HETATM    8  C   UNL     1     -10.272  10.749  67.724  1.00  0.00    -0.182 C  
HETATM    9  N   UNL     1     -10.468  10.261  68.921  1.00  0.00    -0.198 NA 
HETATM   10  C   UNL     1     -11.422  10.753  69.832  1.00  0.00    -0.321 A  
HETATM   11  H   UNL     1      -9.891   9.473  69.214  1.00  0.00     0.000 HD 
HETATM   12  C   UNL     1     -12.084   9.802  70.619  1.00  0.00    -0.311 A  
HETATM   13  C   UNL     1     -13.010  10.194  71.587  1.00  0.00    -0.456 A  
HETATM   14  C   UNL     1     -13.273  11.544  71.808  1.00  0.00    -0.456 A  
HETATM   15 CL   UNL     1     -13.846   9.008  72.509  1.00  0.00    -0.515 Cl 
HETATM   16  C   UNL     1     -12.599  12.506  71.059  1.00  0.00    -0.350 A  
HETATM   17  C   UNL     1     -11.673  12.124  70.071  1.00  0.00    -0.252 A  
HETATM   18  N   UNL     1     -11.135  13.135  69.230  1.00  0.00    -0.420 NA 
HETATM   19  C   UNL     1     -11.362  13.037  67.840  1.00  0.00    -0.288 A  
HETATM   20  H   UNL     1     -10.600  13.910  69.620  1.00  0.00     0.000 HD 
HETATM   21  C   UNL     1     -12.019  14.088  67.181  1.00  0.00    -0.465 A  
HETATM   22  C   UNL     1     -12.423  13.957  65.850  1.00  0.00    -0.519 A  
HETATM   23  C   UNL     1     -12.185  12.771  65.162  1.00  0.00    -0.530 A  
HETATM   24  C   UNL     1     -11.522  11.726  65.798  1.00  0.00    -0.258 A  
HETATM   25  C   UNL     1     -11.090  11.863  67.128  1.00  0.00    -0.347 A  
ENDBRANCH   5   8
TORSDOF 1
ENDMDL
MODEL       23
REMARK 921   NORMALIZED FREE ENERGY PREDICTED BY IDOCK:   -5.90 KCAL/MOL
REMARK 922        TOTAL FREE ENERGY PREDICTED BY IDOCK:   -6.63 KCAL/MOL
REMARK 923 INTER-LIGAND FREE ENERGY PREDICTED BY IDOCK:   -6.36 KCAL/MOL
REMARK 924 INTRA-LIGAND FREE ENERGY PREDICTED BY IDOCK:   -0.26 KCAL/MOL
REMARK 927      BINDING AFFINITY PREDICTED BY RF-SCORE:    0.00 PKD
ROOT
HETATM    1  C   UNL     1      -7.136  19.815  69.380  1.00  0.00    -0.269 C  
HETATM    2  N   UNL     1      -7.155  19.019  68.156  1.00  0.00    -0.241 NA 
HETATM    3  C   UNL     1      -6.803  17.607  68.413  1.00  0.00    -0.214 C  
HETATM    4  C   UNL     1      -7.878  16.779  69.151  1.00  0.00    -0.145 C  
HETATM    5  N   UNL     1      -9.187  16.891  68.494  1.00  0.00    -0.252 NA 
HETATM    6  C   UNL     1      -8.476  19.060  67.486  1.00  0.00    -0.282 C  
HETATM    7  C   UNL     1      -9.604  18.264  68.181  1.00  0.00    -0.304 C  
ENDROOT
BRANCH   5   8
HETATM    8  C   UNL     1      -9.965  15.783  68.141  1.00  0.00    -0.214 C  
HETATM    9  N   UNL     1      -9.856  15.294  66.933  1.00  0.00    -0.231 NA 
HETATM   10  C   UNL     1     -10.557  14.164  66.469  1.00  0.00    -0.282 A  
HETATM   11  H   UNL     1      -9.224  15.762  66.284  1.00  0.00     0.000 HD 
HETATM   12  C   UNL     1     -11.001  14.204  65.140  1.00  0.00    -0.361 A  
HETATM   13  C   UNL     1     -11.658  13.112  64.573  1.00  0.00    -0.364 A  
HETATM   14  C   UNL     1     -11.862  11.948  65.309  1.00  0.00    -0.160 A  
HETATM   15 CL   UNL     1     -12.237  13.202  62.956  1.00  0.00    -0.316 Cl 
HETATM   16  C   UNL     1     -11.397  11.876  66.620  1.00  0.00    -0.400 A  
HETATM   17  C   UNL     1     -10.743  12.974  67.210  1.00  0.00    -0.250 A  
HETATM   18  N   UNL     1     -10.433  12.905  68.594  1.00  0.00    -0.325 NA 
HETATM   19  C   UNL     1     -10.997  13.873  69.453  1.00  0.00    -0.126 A  
HETATM   20  H   UNL     1      -9.820  12.177  68.958  1.00  0.00     0.000 HD 
HETATM   21  C   UNL     1     -11.799  13.450  70.524  1.00  0.00    -0.236 A  
HETATM   22  C   UNL     1     -12.519  14.371  71.288  1.00  0.00    -0.423 A  
HETATM   23  C   UNL     1     -12.457  15.728  70.985  1.00  0.00    -0.473 A  
HETATM   24  C   UNL     1     -11.654  16.164  69.935  1.00  0.00    -0.244 A  
HETATM   25  C   UNL     1     -10.907  15.244  69.182  1.00  0.00    -0.250 A  
ENDBRANCH   5   8
TORSDOF 1
ENDMDL
MODEL       24
REMARK 921   NORMALIZED FREE ENERGY PREDICTED BY IDOCK:   -5.89 KCAL/MOL
REMARK 922        TOTAL FREE ENERGY PREDICTED BY IDOCK:   -6.62 KCAL/MOL
REMARK 923 INTER-LIGAND FREE ENERGY PREDICTED BY IDOCK:   -6.25 KCAL/MOL
REMARK 924 INTRA-LIGAND FREE ENERGY PREDICTED BY IDOCK:   -0.36 KCAL/MOL
REMARK 927      BINDING AFFINITY PREDICTED BY RF-SCORE:    0.00 PKD
ROOT
HETATM    1  C   UNL     1     -12.680  14.631  73.818  1.00  0.00    -0.079 C  
HETATM    2  N   UNL     1     -13.512  14.692  72.619  1.00  0.00    -0.458 NA 
HETATM    3  C   UNL     1     -13.257  15.920  71.836  1.00  0.00    -0.281 C  
HETATM    4  C   UNL     1     -11.906  15.960  71.087  1.00  0.00    -0.438 C  
HETATM    5  N   UNL     1     -11.709  14.754  70.270  1.00  0.00    -0.282 NA 
HETATM    6  C   UNL     1     -13.305  13.520  71.737  1.00  0.00    -0.397 C  
HETATM    7  C   UNL     1     -11.965  13.488  70.968  1.00  0.00     0.008 C  
ENDROOT
BRANCH   5   8
HETATM    8  C   UNL     1     -11.355  14.795  68.917  1.00  0.00    -0.282 C  
HETATM    9  N   UNL     1     -12.183  14.305  68.032  1.00  0.00    -0.584 NA 
HETATM   10  C   UNL     1     -11.958  14.319  66.642  1.00  0.00    -0.430 A  
HETATM   11  H   UNL     1     -13.049  13.886  68.371  1.00  0.00     0.000 HD 
HETATM   12  C   UNL     1     -12.382  13.190  65.928  1.00  0.00    -0.462 A  
HETATM   13  C   UNL     1     -12.250  13.131  64.541  1.00  0.00    -0.406 A  
HETATM   14  C   UNL     1     -11.718  14.206  63.834  1.00  0.00    -0.120 A  
HETATM   15 CL   UNL     1     -12.734  11.717  63.690  1.00  0.00    -0.418 Cl 
HETATM   16  C   UNL     1     -11.322  15.351  64.523  1.00  0.00    -0.321 A  
HETATM   17  C   UNL     1     -11.437  15.420  65.923  1.00  0.00    -0.014 A  
HETATM   18  N   UNL     1     -10.874  16.541  66.588  1.00  0.00    -0.137 NA 
HETATM   19  C   UNL     1      -9.858  16.311  67.540  1.00  0.00    -0.238 A  
HETATM   20  H   UNL     1     -11.194  17.487  66.383  1.00  0.00     0.000 HD 
HETATM   21  C   UNL     1      -8.603  16.914  67.358  1.00  0.00    -0.214 A  
HETATM   22  C   UNL     1      -7.520  16.574  68.172  1.00  0.00    -0.161 A  
HETATM   23  C   UNL     1      -7.671  15.618  69.172  1.00  0.00    -0.212 A  
HETATM   24  C   UNL     1      -8.913  15.021  69.373  1.00  0.00    -0.113 A  
HETATM   25  C   UNL     1     -10.012  15.381  68.575  1.00  0.00    -0.213 A  
ENDBRANCH   5   8
TORSDOF 1
ENDMDL
MODEL       25
REMARK 921   NORMALIZED FREE ENERGY PREDICTED BY IDOCK:   -5.89 KCAL/MOL
REMARK 922        TOTAL FREE ENERGY PREDICTED BY IDOCK:   -6.61 KCAL/MOL
REMARK 923 INTER-LIGAND FREE ENERGY PREDICTED BY IDOCK:   -6.24 KCAL/MOL
REMARK 924 INTRA-LIGAND FREE ENERGY PREDICTED BY IDOCK:   -0.37 KCAL/MOL
REMARK 927      BINDING AFFINITY PREDICTED BY RF-SCORE:    0.00 PKD
ROOT
HETATM    1  C   UNL     1      -8.453   5.140  66.198  1.00  0.00    -0.115 C  
HETATM    2  N   UNL     1      -9.457   6.189  66.037  1.00  0.00    -0.073 NA 
HETATM    3  C   UNL     1     -10.662   5.925  66.851  1.00  0.00    -0.321 C  
HETATM    4  C   UNL     1     -10.487   6.111  68.374  1.00  0.00    -0.231 C  
HETATM    5  N   UNL     1      -9.906   7.423  68.692  1.00  0.00    -0.159 NA 
HETATM    6  C   UNL     1      -8.929   7.525  66.398  1.00  0.00    -0.167 C  
HETATM    7  C   UNL     1      -8.715   7.774  67.908  1.00  0.00    -0.124 C  
ENDROOT
BRANCH   5   8
HETATM    8  C   UNL     1     -10.462   8.301  69.628  1.00  0.00    -0.221 C  
HETATM    9  N   UNL     1     -11.080   9.371  69.200  1.00  0.00    -0.433 NA 
HETATM   10  C   UNL     1     -11.711  10.311  70.038  1.00  0.00    -0.254 A  
HETATM   11  H   UNL     1     -11.108   9.536  68.194  1.00  0.00     0.000 HD 
HETATM   12  C   UNL     1     -11.606  11.657  69.660  1.00  0.00    -0.401 A  
HETATM   13  C   UNL     1     -12.240  12.658  70.397  1.00  0.00    -0.288 A  
HETATM   14  C   UNL     1     -13.013  12.336  71.510  1.00  0.00    -0.390 A  
HETATM   15 CL   UNL     1     -12.059  14.306  69.942  1.00  0.00    -0.382 Cl 
HETATM   16  C   UNL     1     -13.156  11.000  71.881  1.00  0.00    -0.525 A  
HETATM   17  C   UNL     1     -12.513   9.981  71.155  1.00  0.00    -0.379 A  
HETATM   18  N   UNL     1     -12.562   8.658  71.669  1.00  0.00    -0.325 NA 
HETATM   19  C   UNL     1     -11.344   8.021  71.989  1.00  0.00    -0.302 A  
HETATM   20  H   UNL     1     -13.453   8.182  71.803  1.00  0.00     0.000 HD 
HETATM   21  C   UNL     1     -11.136   7.569  73.302  1.00  0.00    -0.294 A  
HETATM   22  C   UNL     1      -9.885   7.097  73.707  1.00  0.00    -0.355 A  
HETATM   23  C   UNL     1      -8.821   7.082  72.810  1.00  0.00    -0.141 A  
HETATM   24  C   UNL     1      -9.016   7.514  71.501  1.00  0.00    -0.142 A  
HETATM   25  C   UNL     1     -10.280   7.962  71.082  1.00  0.00    -0.221 A  
ENDBRANCH   5   8
TORSDOF 1
ENDMDL
MODEL       26
REMARK 921   NORMALIZED FREE ENERGY PREDICTED BY IDOCK:   -5.85 KCAL/MOL
REMARK 922        TOTAL FREE ENERGY PREDICTED BY IDOCK:   -6.57 KCAL/MOL
REMARK 923 INTER-LIGAND FREE ENERGY PREDICTED BY IDOCK:   -6.19 KCAL/MOL
REMARK 924 INTRA-LIGAND FREE ENERGY PREDICTED BY IDOCK:   -0.38 KCAL/MOL
REMARK 927      BINDING AFFINITY PREDICTED BY RF-SCORE:    0.00 PKD
ROOT
HETATM    1  C   UNL     1     -12.586  12.709  64.502  1.00  0.00    -0.412 C  
HETATM    2  N   UNL     1     -12.716  14.004  65.166  1.00  0.00    -0.685 NA 
HETATM    3  C   UNL     1     -12.497  13.897  66.624  1.00  0.00    -0.270 C  
HETATM    4  C   UNL     1     -11.037  13.647  67.059  1.00  0.00    -0.301 C  
HETATM    5  N   UNL     1     -10.120  14.622  66.452  1.00  0.00    -0.268 NA 
HETATM    6  C   UNL     1     -11.770  15.006  64.621  1.00  0.00    -0.382 C  
HETATM    7  C   UNL     1     -10.287  14.806  65.005  1.00  0.00    -0.389 C  
ENDROOT
BRANCH   5   8
HETATM    8  C   UNL     1      -9.191  15.363  67.190  1.00  0.00    -0.213 C  
HETATM    9  N   UNL     1      -8.252  14.729  67.843  1.00  0.00    -0.141 NA 
HETATM   10  C   UNL     1      -7.240  15.361  68.592  1.00  0.00    -0.121 A  
HETATM   11  H   UNL     1      -8.253  13.710  67.808  1.00  0.00     0.000 HD 
HETATM   12  C   UNL     1      -6.858  14.733  69.784  1.00  0.00    -0.173 A  
HETATM   13  C   UNL     1      -5.829  15.253  70.568  1.00  0.00    -0.083 A  
HETATM   14  C   UNL     1      -5.142  16.396  70.167  1.00  0.00    -0.163 A  
HETATM   15 CL   UNL     1      -5.408  14.492  72.052  1.00  0.00    -0.158 Cl 
HETATM   16  C   UNL     1      -5.485  17.016  68.967  1.00  0.00    -0.144 A  
HETATM   17  C   UNL     1      -6.529  16.509  68.172  1.00  0.00    -0.136 A  
HETATM   18  N   UNL     1      -6.941  17.267  67.044  1.00  0.00    -0.172 NA 
HETATM   19  C   UNL     1      -8.277  17.722  66.998  1.00  0.00    -0.221 A  
HETATM   20  H   UNL     1      -6.291  17.478  66.288  1.00  0.00     0.000 HD 
HETATM   21  C   UNL     1      -8.525  19.099  66.896  1.00  0.00    -0.309 A  
HETATM   22  C   UNL     1      -9.821  19.606  67.027  1.00  0.00    -0.491 A  
HETATM   23  C   UNL     1     -10.885  18.744  67.274  1.00  0.00    -0.408 A  
HETATM   24  C   UNL     1     -10.656  17.374  67.364  1.00  0.00    -0.308 A  
HETATM   25  C   UNL     1      -9.359  16.858  67.205  1.00  0.00    -0.241 A  
ENDBRANCH   5   8
TORSDOF 1
ENDMDL
MODEL       27
REMARK 921   NORMALIZED FREE ENERGY PREDICTED BY IDOCK:   -5.82 KCAL/MOL
REMARK 922        TOTAL FREE ENERGY PREDICTED BY IDOCK:   -6.54 KCAL/MOL
REMARK 923 INTER-LIGAND FREE ENERGY PREDICTED BY IDOCK:   -6.93 KCAL/MOL
REMARK 924 INTRA-LIGAND FREE ENERGY PREDICTED BY IDOCK:    0.39 KCAL/MOL
REMARK 927      BINDING AFFINITY PREDICTED BY RF-SCORE:    0.00 PKD
ROOT
HETATM    1  C   UNL     1     -14.220  15.582  71.930  1.00  0.00    -0.481 C  
HETATM    2  N   UNL     1     -12.859  15.125  72.200  1.00  0.00    -0.321 NA 
HETATM    3  C   UNL     1     -12.843  13.773  72.797  1.00  0.00    -0.153 C  
HETATM    4  C   UNL     1     -13.204  12.619  71.836  1.00  0.00    -0.403 C  
HETATM    5  N   UNL     1     -12.398  12.670  70.608  1.00  0.00    -0.342 NA 
HETATM    6  C   UNL     1     -12.023  15.109  70.977  1.00  0.00    -0.333 C  
HETATM    7  C   UNL     1     -12.342  13.988  69.962  1.00  0.00    -0.337 C  
ENDROOT
BRANCH   5   8
HETATM    8  C   UNL     1     -11.691  11.571  70.109  1.00  0.00    -0.309 C  
HETATM    9  N   UNL     1     -10.901  11.741  69.081  1.00  0.00    -0.360 NA 
HETATM   10  C   UNL     1     -10.112  10.724  68.510  1.00  0.00    -0.176 A  
HETATM   11  H   UNL     1     -10.854  12.671  68.666  1.00  0.00     0.000 HD 
HETATM   12  C   UNL     1      -9.985  10.739  67.115  1.00  0.00    -0.230 A  
HETATM   13  C   UNL     1      -9.183   9.804  66.460  1.00  0.00    -0.156 A  
HETATM   14  C   UNL     1      -8.468   8.854  67.184  1.00  0.00    -0.106 A  
HETATM   15 CL   UNL     1      -9.081   9.811  64.743  1.00  0.00    -0.268 Cl 
HETATM   16  C   UNL     1      -8.554   8.846  68.575  1.00  0.00    -0.133 A  
HETATM   17  C   UNL     1      -9.370   9.774  69.248  1.00  0.00    -0.191 A  
HETATM   18  N   UNL     1      -9.545   9.620  70.649  1.00  0.00    -0.322 NA 
HETATM   19  C   UNL     1     -10.852   9.410  71.139  1.00  0.00    -0.357 A  
HETATM   20  H   UNL     1      -8.748   9.660  71.284  1.00  0.00     0.000 HD 
HETATM   21  C   UNL     1     -11.125   8.249  71.879  1.00  0.00    -0.357 A  
HETATM   22  C   UNL     1     -12.435   7.913  72.228  1.00  0.00    -0.265 A  
HETATM   23  C   UNL     1     -13.493   8.726  71.833  1.00  0.00    -0.447 A  
HETATM   24  C   UNL     1     -13.236   9.889  71.111  1.00  0.00    -0.424 A  
HETATM   25  C   UNL     1     -11.918  10.245  70.782  1.00  0.00    -0.456 A  
ENDBRANCH   5   8
TORSDOF 1
ENDMDL
MODEL       28
REMARK 921   NORMALIZED FREE ENERGY PREDICTED BY IDOCK:   -5.80 KCAL/MOL
REMARK 922        TOTAL FREE ENERGY PREDICTED BY IDOCK:   -6.52 KCAL/MOL
REMARK 923 INTER-LIGAND FREE ENERGY PREDICTED BY IDOCK:   -6.76 KCAL/MOL
REMARK 924 INTRA-LIGAND FREE ENERGY PREDICTED BY IDOCK:    0.24 KCAL/MOL
REMARK 927      BINDING AFFINITY PREDICTED BY RF-SCORE:    0.00 PKD
ROOT
HETATM    1  C   UNL     1     -13.220  15.786  73.445  1.00  0.00    -0.544 C  
HETATM    2  N   UNL     1     -13.499  15.782  72.012  1.00  0.00    -0.436 NA 
HETATM    3  C   UNL     1     -12.284  16.058  71.215  1.00  0.00    -0.350 C  
HETATM    4  C   UNL     1     -11.246  14.915  71.173  1.00  0.00    -0.143 C  
HETATM    5  N   UNL     1     -11.864  13.641  70.780  1.00  0.00    -0.191 NA 
HETATM    6  C   UNL     1     -14.075  14.494  71.560  1.00  0.00    -0.415 C  
HETATM    7  C   UNL     1     -13.093  13.302  71.509  1.00  0.00    -0.328 C  
ENDROOT
BRANCH   5   8
HETATM    8  C   UNL     1     -11.362  12.829  69.758  1.00  0.00    -0.033 C  
HETATM    9  N   UNL     1     -10.916  11.637  70.059  1.00  0.00    -0.408 NA 
HETATM   10  C   UNL     1     -10.420  10.714  69.117  1.00  0.00    -0.222 A  
HETATM   11  H   UNL     1     -10.929  11.357  71.039  1.00  0.00     0.000 HD 
HETATM   12  C   UNL     1      -9.327   9.936  69.520  1.00  0.00    -0.236 A  
HETATM   13  C   UNL     1      -8.797   8.958  68.677  1.00  0.00    -0.137 A  
HETATM   14  C   UNL     1      -9.363   8.718  67.428  1.00  0.00    -0.166 A  
HETATM   15 CL   UNL     1      -7.425   8.047  69.173  1.00  0.00    -0.093 Cl 
HETATM   16  C   UNL     1     -10.472   9.459  67.024  1.00  0.00    -0.302 A  
HETATM   17  C   UNL     1     -11.009  10.457  67.858  1.00  0.00    -0.297 A  
HETATM   18  N   UNL     1     -12.036  11.287  67.334  1.00  0.00    -0.452 NA 
HETATM   19  C   UNL     1     -11.799  12.677  67.263  1.00  0.00    -0.328 A  
HETATM   20  H   UNL     1     -12.920  10.890  67.017  1.00  0.00     0.000 HD 
HETATM   21  C   UNL     1     -11.873  13.319  66.018  1.00  0.00    -0.440 A  
HETATM   22  C   UNL     1     -11.473  14.649  65.872  1.00  0.00    -0.338 A  
HETATM   23  C   UNL     1     -10.982  15.354  66.967  1.00  0.00    -0.306 A  
HETATM   24  C   UNL     1     -10.915  14.734  68.212  1.00  0.00    -0.264 A  
HETATM   25  C   UNL     1     -11.343  13.405  68.369  1.00  0.00    -0.329 A  
ENDBRANCH   5   8
TORSDOF 1
ENDMDL
MODEL       29
REMARK 921   NORMALIZED FREE ENERGY PREDICTED BY IDOCK:   -5.79 KCAL/MOL
REMARK 922        TOTAL FREE ENERGY PREDICTED BY IDOCK:   -6.50 KCAL/MOL
REMARK 923 INTER-LIGAND FREE ENERGY PREDICTED BY IDOCK:   -6.38 KCAL/MOL
REMARK 924 INTRA-LIGAND FREE ENERGY PREDICTED BY IDOCK:   -0.12 KCAL/MOL
REMARK 927      BINDING AFFINITY PREDICTED BY RF-SCORE:    0.00 PKD
ROOT
HETATM    1  C   UNL     1     -13.079  13.646  72.703  1.00  0.00    -0.352 C  
HETATM    2  N   UNL     1     -13.543  14.059  71.381  1.00  0.00    -0.297 NA 
HETATM    3  C   UNL     1     -13.286  15.494  71.133  1.00  0.00    -0.480 C  
HETATM    4  C   UNL     1     -11.807  15.873  70.903  1.00  0.00    -0.417 C  
HETATM    5  N   UNL     1     -11.192  15.034  69.865  1.00  0.00    -0.264 NA 
HETATM    6  C   UNL     1     -12.907  13.274  70.297  1.00  0.00     0.153 C  
HETATM    7  C   UNL     1     -11.419  13.592  70.024  1.00  0.00    -0.090 C  
ENDROOT
BRANCH   5   8
HETATM    8  C   UNL     1     -10.486  15.557  68.776  1.00  0.00    -0.234 C  
HETATM    9  N   UNL     1      -9.651  16.543  68.978  1.00  0.00    -0.261 NA 
HETATM   10  C   UNL     1      -8.859  17.130  67.972  1.00  0.00    -0.229 A  
HETATM   11  H   UNL     1      -9.569  16.910  69.925  1.00  0.00     0.000 HD 
HETATM   12  C   UNL     1      -8.675  18.517  68.050  1.00  0.00    -0.313 A  
HETATM   13  C   UNL     1      -7.865  19.183  67.131  1.00  0.00    -0.250 A  
HETATM   14  C   UNL     1      -7.199  18.477  66.132  1.00  0.00    -0.301 A  
HETATM   15 CL   UNL     1      -7.691  20.892  67.217  1.00  0.00    -0.351 Cl 
HETATM   16  C   UNL     1      -7.343  17.093  66.059  1.00  0.00    -0.170 A  
HETATM   17  C   UNL     1      -8.167  16.409  66.972  1.00  0.00    -0.198 A  
HETATM   18  N   UNL     1      -8.403  15.026  66.755  1.00  0.00    -0.357 NA 
HETATM   19  C   UNL     1      -9.733  14.600  66.551  1.00  0.00    -0.280 A  
HETATM   20  H   UNL     1      -7.632  14.358  66.748  1.00  0.00     0.000 HD 
HETATM   21  C   UNL     1     -10.059  13.929  65.361  1.00  0.00    -0.328 A  
HETATM   22  C   UNL     1     -11.389  13.650  65.038  1.00  0.00    -0.339 A  
HETATM   23  C   UNL     1     -12.413  14.047  65.891  1.00  0.00    -0.513 A  
HETATM   24  C   UNL     1     -12.104  14.701  67.081  1.00  0.00    -0.218 A  
HETATM   25  C   UNL     1     -10.766  14.958  67.424  1.00  0.00    -0.292 A  
ENDBRANCH   5   8
TORSDOF 1
ENDMDL
MODEL       30
REMARK 921   NORMALIZED FREE ENERGY PREDICTED BY IDOCK:   -5.79 KCAL/MOL
REMARK 922        TOTAL FREE ENERGY PREDICTED BY IDOCK:   -6.50 KCAL/MOL
REMARK 923 INTER-LIGAND FREE ENERGY PREDICTED BY IDOCK:   -6.63 KCAL/MOL
REMARK 924 INTRA-LIGAND FREE ENERGY PREDICTED BY IDOCK:    0.13 KCAL/MOL
REMARK 927      BINDING AFFINITY PREDICTED BY RF-SCORE:    0.00 PKD
ROOT
HETATM    1  C   UNL     1      -6.542  20.354  66.665  1.00  0.00    -0.233 C  
HETATM    2  N   UNL     1      -7.540  20.398  67.731  1.00  0.00    -0.281 NA 
HETATM    3  C   UNL     1      -8.855  19.902  67.272  1.00  0.00    -0.334 C  
HETATM    4  C   UNL     1      -8.944  18.378  67.041  1.00  0.00    -0.275 C  
HETATM    5  N   UNL     1      -8.470  17.627  68.212  1.00  0.00    -0.263 NA 
HETATM    6  C   UNL     1      -7.126  19.608  68.915  1.00  0.00    -0.353 C  
HETATM    7  C   UNL     1      -7.177  18.073  68.747  1.00  0.00    -0.278 C  
ENDROOT
BRANCH   5   8
HETATM    8  C   UNL     1      -9.205  16.600  68.813  1.00  0.00    -0.253 C  
HETATM    9  N   UNL     1     -10.316  16.899  69.436  1.00  0.00    -0.284 NA 
HETATM   10  C   UNL     1     -11.160  15.953  70.049  1.00  0.00    -0.354 A  
HETATM   11  H   UNL     1     -10.588  17.880  69.480  1.00  0.00     0.000 HD 
HETATM   12  C   UNL     1     -11.765  16.341  71.251  1.00  0.00    -0.396 A  
HETATM   13  C   UNL     1     -12.659  15.494  71.908  1.00  0.00    -0.405 A  
HETATM   14  C   UNL     1     -12.988  14.255  71.365  1.00  0.00    -0.411 A  
HETATM   15 CL   UNL     1     -13.353  15.971  73.407  1.00  0.00    -0.661 Cl 
HETATM   16  C   UNL     1     -12.423  13.866  70.152  1.00  0.00    -0.355 A  
HETATM   17  C   UNL     1     -11.510  14.704  69.486  1.00  0.00    -0.297 A  
HETATM   18  N   UNL     1     -10.845  14.194  68.340  1.00  0.00    -0.247 NA 
HETATM   19  C   UNL     1      -9.436  14.114  68.366  1.00  0.00    -0.214 A  
HETATM   20  H   UNL     1     -11.371  13.893  67.520  1.00  0.00     0.000 HD 
HETATM   21  C   UNL     1      -8.820  12.867  68.178  1.00  0.00    -0.194 A  
HETATM   22  C   UNL     1      -7.446  12.709  68.374  1.00  0.00    -0.127 A  
HETATM   23  C   UNL     1      -6.669  13.793  68.772  1.00  0.00    -0.103 A  
HETATM   24  C   UNL     1      -7.264  15.040  68.949  1.00  0.00    -0.127 A  
HETATM   25  C   UNL     1      -8.641  15.208  68.725  1.00  0.00    -0.182 A  
ENDBRANCH   5   8
TORSDOF 1
ENDMDL
MODEL       31
REMARK 921   NORMALIZED FREE ENERGY PREDICTED BY IDOCK:   -5.78 KCAL/MOL
REMARK 922        TOTAL FREE ENERGY PREDICTED BY IDOCK:   -6.49 KCAL/MOL
REMARK 923 INTER-LIGAND FREE ENERGY PREDICTED BY IDOCK:   -6.09 KCAL/MOL
REMARK 924 INTRA-LIGAND FREE ENERGY PREDICTED BY IDOCK:   -0.40 KCAL/MOL
REMARK 927      BINDING AFFINITY PREDICTED BY RF-SCORE:    0.00 PKD
ROOT
HETATM    1  C   UNL     1     -10.635  15.149  66.030  1.00  0.00    -0.322 C  
HETATM    2  N   UNL     1     -11.506  14.534  67.029  1.00  0.00    -0.357 NA 
HETATM    3  C   UNL     1     -12.266  13.396  66.469  1.00  0.00    -0.356 C  
HETATM    4  C   UNL     1     -11.440  12.124  66.181  1.00  0.00    -0.371 C  
HETATM    5  N   UNL     1     -10.655  11.715  67.354  1.00  0.00    -0.212 NA 
HETATM    6  C   UNL     1     -10.748  14.057  68.210  1.00  0.00    -0.254 C  
HETATM    7  C   UNL     1      -9.886  12.794  67.987  1.00  0.00    -0.226 C  
ENDROOT
BRANCH   5   8
HETATM    8  C   UNL     1     -10.671  10.415  67.871  1.00  0.00    -0.261 C  
HETATM    9  N   UNL     1     -10.207   9.437  67.137  1.00  0.00    -0.236 NA 
HETATM   10  C   UNL     1     -10.136   8.095  67.557  1.00  0.00    -0.224 A  
HETATM   11  H   UNL     1      -9.874   9.662  66.200  1.00  0.00     0.000 HD 
HETATM   12  C   UNL     1     -10.409   7.121  66.588  1.00  0.00    -0.222 A  
HETATM   13  C   UNL     1     -10.314   5.763  66.893  1.00  0.00    -0.251 A  
HETATM   14  C   UNL     1      -9.918   5.348  68.162  1.00  0.00    -0.207 A  
HETATM   15 CL   UNL     1     -10.701   4.584  65.702  1.00  0.00    -0.271 Cl 
HETATM   16  C   UNL     1      -9.609   6.302  69.129  1.00  0.00    -0.148 A  
HETATM   17  C   UNL     1      -9.712   7.675  68.839  1.00  0.00    -0.156 A  
HETATM   18  N   UNL     1      -9.540   8.600  69.904  1.00  0.00    -0.170 NA 
HETATM   19  C   UNL     1     -10.614   9.460  70.221  1.00  0.00    -0.250 A  
HETATM   20  H   UNL     1      -8.665   8.641  70.425  1.00  0.00     0.000 HD 
HETATM   21  C   UNL     1     -11.150   9.432  71.517  1.00  0.00    -0.446 A  
HETATM   22  C   UNL     1     -12.320  10.131  71.824  1.00  0.00    -0.401 A  
HETATM   23  C   UNL     1     -12.978  10.857  70.836  1.00  0.00    -0.347 A  
HETATM   24  C   UNL     1     -12.450  10.906  69.549  1.00  0.00    -0.126 A  
HETATM   25  C   UNL     1     -11.258  10.228  69.243  1.00  0.00    -0.281 A  
ENDBRANCH   5   8
TORSDOF 1
ENDMDL
MODEL       32
REMARK 921   NORMALIZED FREE ENERGY PREDICTED BY IDOCK:   -5.73 KCAL/MOL
REMARK 922        TOTAL FREE ENERGY PREDICTED BY IDOCK:   -6.44 KCAL/MOL
REMARK 923 INTER-LIGAND FREE ENERGY PREDICTED BY IDOCK:   -6.10 KCAL/MOL
REMARK 924 INTRA-LIGAND FREE ENERGY PREDICTED BY IDOCK:   -0.35 KCAL/MOL
REMARK 927      BINDING AFFINITY PREDICTED BY RF-SCORE:    0.00 PKD
ROOT
HETATM    1  C   UNL     1     -12.551  11.777  63.260  1.00  0.00    -0.254 C  
HETATM    2  N   UNL     1     -11.618  12.876  63.499  1.00  0.00    -0.491 NA 
HETATM    3  C   UNL     1     -12.310  14.084  63.998  1.00  0.00    -0.298 C  
HETATM    4  C   UNL     1     -12.824  14.000  65.451  1.00  0.00    -0.410 C  
HETATM    5  N   UNL     1     -11.763  13.574  66.374  1.00  0.00    -0.351 NA 
HETATM    6  C   UNL     1     -10.559  12.507  64.467  1.00  0.00    -0.336 C  
HETATM    7  C   UNL     1     -11.009  12.391  65.941  1.00  0.00    -0.288 C  
ENDROOT
BRANCH   5   8
HETATM    8  C   UNL     1     -11.449  14.262  67.551  1.00  0.00    -0.345 C  
HETATM    9  N   UNL     1     -12.181  14.059  68.616  1.00  0.00    -0.527 NA 
HETATM   10  C   UNL     1     -11.946  14.662  69.866  1.00  0.00    -0.329 A  
HETATM   11  H   UNL     1     -12.973  13.422  68.535  1.00  0.00     0.000 HD 
HETATM   12  C   UNL     1     -13.077  15.037  70.604  1.00  0.00    -0.365 A  
HETATM   13  C   UNL     1     -12.949  15.594  71.876  1.00  0.00    -0.463 A  
HETATM   14  C   UNL     1     -11.692  15.765  72.451  1.00  0.00    -0.577 A  
HETATM   15 CL   UNL     1     -14.349  16.091  72.743  1.00  0.00    -0.242 Cl 
HETATM   16  C   UNL     1     -10.557  15.367  71.747  1.00  0.00     0.666 A  
HETATM   17  C   UNL     1     -10.670  14.815  70.458  1.00  0.00     0.130 A  
HETATM   18  N   UNL     1      -9.478  14.575  69.724  1.00  0.00    -0.184 NA 
HETATM   19  C   UNL     1      -9.307  15.243  68.492  1.00  0.00    -0.200 A  
HETATM   20  H   UNL     1      -8.764  13.939  70.078  1.00  0.00     0.000 HD 
HETATM   21  C   UNL     1      -8.190  16.074  68.316  1.00  0.00    -0.159 A  
HETATM   22  C   UNL     1      -8.074  16.889  67.187  1.00  0.00    -0.214 A  
HETATM   23  C   UNL     1      -9.079  16.895  66.225  1.00  0.00    -0.302 A  
HETATM   24  C   UNL     1     -10.187  16.065  66.379  1.00  0.00    -0.315 A  
HETATM   25  C   UNL     1     -10.293  15.223  67.498  1.00  0.00    -0.244 A  
ENDBRANCH   5   8
TORSDOF 1
ENDMDL
MODEL       33
REMARK 921   NORMALIZED FREE ENERGY PREDICTED BY IDOCK:   -5.70 KCAL/MOL
REMARK 922        TOTAL FREE ENERGY PREDICTED BY IDOCK:   -6.42 KCAL/MOL
REMARK 923 INTER-LIGAND FREE ENERGY PREDICTED BY IDOCK:   -6.37 KCAL/MOL
REMARK 924 INTRA-LIGAND FREE ENERGY PREDICTED BY IDOCK:   -0.05 KCAL/MOL
REMARK 927      BINDING AFFINITY PREDICTED BY RF-SCORE:    0.00 PKD
ROOT
HETATM    1  C   UNL     1     -10.732  11.160  63.374  1.00  0.00    -0.209 C  
HETATM    2  N   UNL     1     -11.484  11.542  64.566  1.00  0.00    -0.197 NA 
HETATM    3  C   UNL     1     -10.675  11.401  65.795  1.00  0.00    -0.251 C  
HETATM    4  C   UNL     1      -9.556  12.450  65.976  1.00  0.00    -0.209 C  
HETATM    5  N   UNL     1     -10.073  13.818  65.833  1.00  0.00    -0.307 NA 
HETATM    6  C   UNL     1     -11.981  12.936  64.488  1.00  0.00    -0.395 C  
HETATM    7  C   UNL     1     -10.910  14.039  64.646  1.00  0.00    -0.403 C  
ENDROOT
BRANCH   5   8
HETATM    8  C   UNL     1      -9.839  14.828  66.772  1.00  0.00    -0.255 C  
HETATM    9  N   UNL     1      -8.905  15.710  66.532  1.00  0.00    -0.285 NA 
HETATM   10  C   UNL     1      -8.598  16.792  67.380  1.00  0.00    -0.193 A  
HETATM   11  H   UNL     1      -8.363  15.608  65.674  1.00  0.00     0.000 HD 
HETATM   12  C   UNL     1      -7.243  17.131  67.497  1.00  0.00    -0.177 A  
HETATM   13  C   UNL     1      -6.843  18.220  68.272  1.00  0.00    -0.230 A  
HETATM   14  C   UNL     1      -7.787  19.009  68.923  1.00  0.00    -0.332 A  
HETATM   15 CL   UNL     1      -5.172  18.588  68.441  1.00  0.00    -0.172 Cl 
HETATM   16  C   UNL     1      -9.141  18.709  68.791  1.00  0.00    -0.297 A  
HETATM   17  C   UNL     1      -9.559  17.606  68.023  1.00  0.00    -0.289 A  
HETATM   18  N   UNL     1     -10.933  17.252  68.051  1.00  0.00    -0.289 NA 
HETATM   19  C   UNL     1     -11.281  15.967  68.521  1.00  0.00    -0.362 A  
HETATM   20  H   UNL     1     -11.650  17.907  67.740  1.00  0.00     0.000 HD 
HETATM   21  C   UNL     1     -12.148  15.854  69.619  1.00  0.00    -0.216 A  
HETATM   22  C   UNL     1     -12.377  14.618  70.227  1.00  0.00    -0.406 A  
HETATM   23  C   UNL     1     -11.734  13.478  69.755  1.00  0.00    -0.363 A  
HETATM   24  C   UNL     1     -10.882  13.572  68.657  1.00  0.00    -0.281 A  
HETATM   25  C   UNL     1     -10.672  14.808  68.025  1.00  0.00    -0.248 A  
ENDBRANCH   5   8
TORSDOF 1
ENDMDL
MODEL       34
REMARK 921   NORMALIZED FREE ENERGY PREDICTED BY IDOCK:   -5.70 KCAL/MOL
REMARK 922        TOTAL FREE ENERGY PREDICTED BY IDOCK:   -6.41 KCAL/MOL
REMARK 923 INTER-LIGAND FREE ENERGY PREDICTED BY IDOCK:   -6.07 KCAL/MOL
REMARK 924 INTRA-LIGAND FREE ENERGY PREDICTED BY IDOCK:   -0.34 KCAL/MOL
REMARK 927      BINDING AFFINITY PREDICTED BY RF-SCORE:    0.00 PKD
ROOT
HETATM    1  C   UNL     1      -9.745   4.694  65.128  1.00  0.00    -0.106 C  
HETATM    2  N   UNL     1      -9.164   5.011  66.431  1.00  0.00    -0.133 NA 
HETATM    3  C   UNL     1      -8.391   6.271  66.395  1.00  0.00    -0.118 C  
HETATM    4  C   UNL     1      -9.232   7.561  66.284  1.00  0.00    -0.146 C  
HETATM    5  N   UNL     1     -10.282   7.609  67.310  1.00  0.00    -0.243 NA 
HETATM    6  C   UNL     1     -10.195   5.122  67.489  1.00  0.00    -0.156 C  
HETATM    7  C   UNL     1     -11.084   6.384  67.428  1.00  0.00    -0.322 C  
ENDROOT
BRANCH   5   8
HETATM    8  C   UNL     1     -10.482   8.708  68.153  1.00  0.00    -0.187 C  
HETATM    9  N   UNL     1     -11.167   9.729  67.708  1.00  0.00    -0.476 NA 
HETATM   10  C   UNL     1     -11.464  10.876  68.469  1.00  0.00    -0.310 A  
HETATM   11  H   UNL     1     -11.507   9.693  66.748  1.00  0.00     0.000 HD 
HETATM   12  C   UNL     1     -11.440  12.102  67.790  1.00  0.00    -0.398 A  
HETATM   13  C   UNL     1     -11.772  13.288  68.444  1.00  0.00    -0.354 A  
HETATM   14  C   UNL     1     -12.161  13.274  69.781  1.00  0.00    -0.355 A  
HETATM   15 CL   UNL     1     -11.688  14.786  67.604  1.00  0.00    -0.378 Cl 
HETATM   16  C   UNL     1     -12.224  12.061  70.464  1.00  0.00    -0.414 A  
HETATM   17  C   UNL     1     -11.880  10.858  69.820  1.00  0.00    -0.345 A  
HETATM   18  N   UNL     1     -11.809   9.676  70.604  1.00  0.00    -0.339 NA 
HETATM   19  C   UNL     1     -10.575   8.994  70.672  1.00  0.00    -0.236 A  
HETATM   20  H   UNL     1     -12.627   9.328  71.103  1.00  0.00     0.000 HD 
HETATM   21  C   UNL     1      -9.976   8.792  71.925  1.00  0.00    -0.401 A  
HETATM   22  C   UNL     1      -8.678   8.285  72.025  1.00  0.00    -0.243 A  
HETATM   23  C   UNL     1      -7.956   7.984  70.874  1.00  0.00    -0.094 A  
HETATM   24  C   UNL     1      -8.542   8.165  69.625  1.00  0.00    -0.131 A  
HETATM   25  C   UNL     1      -9.858   8.648  69.520  1.00  0.00    -0.187 A  
ENDBRANCH   5   8
TORSDOF 1
ENDMDL
MODEL       35
REMARK 921   NORMALIZED FREE ENERGY PREDICTED BY IDOCK:   -5.67 KCAL/MOL
REMARK 922        TOTAL FREE ENERGY PREDICTED BY IDOCK:   -6.38 KCAL/MOL
REMARK 923 INTER-LIGAND FREE ENERGY PREDICTED BY IDOCK:   -5.99 KCAL/MOL
REMARK 924 INTRA-LIGAND FREE ENERGY PREDICTED BY IDOCK:   -0.40 KCAL/MOL
REMARK 927      BINDING AFFINITY PREDICTED BY RF-SCORE:    0.00 PKD
ROOT
HETATM    1  C   UNL     1     -12.400  13.680  63.406  1.00  0.00    -0.101 C  
HETATM    2  N   UNL     1     -11.252  13.928  64.274  1.00  0.00    -0.321 NA 
HETATM    3  C   UNL     1     -11.668  14.354  65.627  1.00  0.00    -0.356 C  
HETATM    4  C   UNL     1     -12.291  13.248  66.507  1.00  0.00    -0.248 C  
HETATM    5  N   UNL     1     -11.431  12.058  66.564  1.00  0.00    -0.418 NA 
HETATM    6  C   UNL     1     -10.383  12.734  64.403  1.00  0.00    -0.364 C  
HETATM    7  C   UNL     1     -10.953  11.581  65.260  1.00  0.00    -0.228 C  
ENDROOT
BRANCH   5   8
HETATM    8  C   UNL     1     -11.046  11.446  67.762  1.00  0.00    -0.265 C  
HETATM    9  N   UNL     1     -11.919  10.718  68.408  1.00  0.00    -0.809 NA 
HETATM   10  C   UNL     1     -11.645  10.025  69.603  1.00  0.00    -0.096 A  
HETATM   11  H   UNL     1     -12.861  10.649  68.022  1.00  0.00     0.000 HD 
HETATM   12  C   UNL     1     -12.670   9.992  70.557  1.00  0.00    -0.199 A  
HETATM   13  C   UNL     1     -12.513   9.286  71.751  1.00  0.00    -0.381 A  
HETATM   14  C   UNL     1     -11.342   8.577  72.005  1.00  0.00    -0.425 A  
HETATM   15 CL   UNL     1     -13.766   9.299  72.929  1.00  0.00    -0.252 Cl 
HETATM   16  C   UNL     1     -10.325   8.570  71.053  1.00  0.00    -0.261 A  
HETATM   17  C   UNL     1     -10.464   9.288  69.851  1.00  0.00    -0.227 A  
HETATM   18  N   UNL     1      -9.338   9.377  68.989  1.00  0.00    -0.150 NA 
HETATM   19  C   UNL     1      -8.823  10.658  68.695  1.00  0.00    -0.151 A  
HETATM   20  H   UNL     1      -8.913   8.539  68.594  1.00  0.00     0.000 HD 
HETATM   21  C   UNL     1      -7.485  10.943  69.008  1.00  0.00    -0.124 A  
HETATM   22  C   UNL     1      -6.986  12.243  68.901  1.00  0.00    -0.098 A  
HETATM   23  C   UNL     1      -7.819  13.280  68.492  1.00  0.00    -0.110 A  
HETATM   24  C   UNL     1      -9.145  13.010  68.165  1.00  0.00    -0.204 A  
HETATM   25  C   UNL     1      -9.644  11.698  68.243  1.00  0.00    -0.198 A  
ENDBRANCH   5   8
TORSDOF 1
ENDMDL
MODEL       36
REMARK 921   NORMALIZED FREE ENERGY PREDICTED BY IDOCK:   -5.61 KCAL/MOL
REMARK 922        TOTAL FREE ENERGY PREDICTED BY IDOCK:   -6.31 KCAL/MOL
REMARK 923 INTER-LIGAND FREE ENERGY PREDICTED BY IDOCK:   -6.04 KCAL/MOL
REMARK 924 INTRA-LIGAND FREE ENERGY PREDICTED BY IDOCK:   -0.28 KCAL/MOL
REMARK 927      BINDING AFFINITY PREDICTED BY RF-SCORE:    0.00 PKD
ROOT
HETATM    1  C   UNL     1     -12.609  12.536  64.706  1.00  0.00    -0.413 C  
HETATM    2  N   UNL     1     -12.711  13.929  65.134  1.00  0.00    -0.689 NA 
HETATM    3  C   UNL     1     -12.417  14.084  66.574  1.00  0.00    -0.311 C  
HETATM    4  C   UNL     1     -10.934  13.910  66.970  1.00  0.00    -0.295 C  
HETATM    5  N   UNL     1     -10.056  14.758  66.152  1.00  0.00    -0.281 NA 
HETATM    6  C   UNL     1     -11.802  14.814  64.370  1.00  0.00    -0.380 C  
HETATM    7  C   UNL     1     -10.299  14.681  64.706  1.00  0.00    -0.253 C  
ENDROOT
BRANCH   5   8
HETATM    8  C   UNL     1      -9.094  15.616  66.696  1.00  0.00    -0.282 C  
HETATM    9  N   UNL     1      -9.087  16.871  66.329  1.00  0.00    -0.361 NA 
HETATM   10  C   UNL     1      -8.195  17.838  66.830  1.00  0.00    -0.250 A  
HETATM   11  H   UNL     1      -9.771  17.168  65.634  1.00  0.00     0.000 HD 
HETATM   12  C   UNL     1      -7.728  18.792  65.916  1.00  0.00    -0.150 A  
HETATM   13  C   UNL     1      -6.881  19.822  66.327  1.00  0.00    -0.225 A  
HETATM   14  C   UNL     1      -6.505  19.938  67.663  1.00  0.00    -0.252 A  
HETATM   15 CL   UNL     1      -6.282  20.954  65.179  1.00  0.00    -0.291 Cl 
HETATM   16  C   UNL     1      -6.987  19.019  68.593  1.00  0.00    -0.319 A  
HETATM   17  C   UNL     1      -7.831  17.968  68.190  1.00  0.00    -0.272 A  
HETATM   18  N   UNL     1      -8.162  16.971  69.146  1.00  0.00    -0.114 NA 
HETATM   19  C   UNL     1      -7.792  15.636  68.873  1.00  0.00    -0.186 A  
HETATM   20  H   UNL     1      -8.654  17.213  70.005  1.00  0.00     0.000 HD 
HETATM   21  C   UNL     1      -6.959  14.961  69.779  1.00  0.00    -0.175 A  
HETATM   22  C   UNL     1      -6.425  13.709  69.464  1.00  0.00    -0.099 A  
HETATM   23  C   UNL     1      -6.705  13.119  68.236  1.00  0.00    -0.101 A  
HETATM   24  C   UNL     1      -7.542  13.771  67.333  1.00  0.00    -0.153 A  
HETATM   25  C   UNL     1      -8.104  15.017  67.657  1.00  0.00    -0.184 A  
ENDBRANCH   5   8
TORSDOF 1
ENDMDL
MODEL       37
REMARK 921   NORMALIZED FREE ENERGY PREDICTED BY IDOCK:   -5.60 KCAL/MOL
REMARK 922        TOTAL FREE ENERGY PREDICTED BY IDOCK:   -6.31 KCAL/MOL
REMARK 923 INTER-LIGAND FREE ENERGY PREDICTED BY IDOCK:   -5.97 KCAL/MOL
REMARK 924 INTRA-LIGAND FREE ENERGY PREDICTED BY IDOCK:   -0.33 KCAL/MOL
REMARK 927      BINDING AFFINITY PREDICTED BY RF-SCORE:    0.00 PKD
ROOT
HETATM    1  C   UNL     1      -5.588   7.839  64.320  1.00  0.00    -0.037 C  
HETATM    2  N   UNL     1      -6.649   8.650  63.727  1.00  0.00    -0.083 NA 
HETATM    3  C   UNL     1      -7.991   8.151  64.095  1.00  0.00    -0.142 C  
HETATM    4  C   UNL     1      -8.410   8.397  65.561  1.00  0.00    -0.154 C  
HETATM    5  N   UNL     1      -8.243   9.807  65.939  1.00  0.00    -0.115 NA 
HETATM    6  C   UNL     1      -6.550  10.073  64.126  1.00  0.00    -0.130 C  
HETATM    7  C   UNL     1      -6.941  10.388  65.587  1.00  0.00    -0.132 C  
ENDROOT
BRANCH   5   8
HETATM    8  C   UNL     1      -9.254  10.564  66.541  1.00  0.00    -0.161 C  
HETATM    9  N   UNL     1      -9.432  10.467  67.833  1.00  0.00    -0.146 NA 
HETATM   10  C   UNL     1     -10.389  11.201  68.559  1.00  0.00    -0.193 A  
HETATM   11  H   UNL     1      -8.839   9.817  68.348  1.00  0.00     0.000 HD 
HETATM   12  C   UNL     1     -11.028  10.530  69.610  1.00  0.00    -0.333 A  
HETATM   13  C   UNL     1     -11.954  11.187  70.420  1.00  0.00    -0.378 A  
HETATM   14  C   UNL     1     -12.242  12.535  70.217  1.00  0.00    -0.345 A  
HETATM   15 CL   UNL     1     -12.762  10.331  71.674  1.00  0.00    -0.527 Cl 
HETATM   16  C   UNL     1     -11.591  13.228  69.198  1.00  0.00    -0.370 A  
HETATM   17  C   UNL     1     -10.664  12.575  68.365  1.00  0.00    -0.240 A  
HETATM   18  N   UNL     1     -10.152  13.284  67.247  1.00  0.00    -0.232 NA 
HETATM   19  C   UNL     1     -10.386  12.758  65.958  1.00  0.00    -0.276 A  
HETATM   20  H   UNL     1      -9.629  14.151  67.371  1.00  0.00     0.000 HD 
HETATM   21  C   UNL     1     -11.067  13.543  65.015  1.00  0.00    -0.338 A  
HETATM   22  C   UNL     1     -11.476  13.000  63.794  1.00  0.00    -0.486 A  
HETATM   23  C   UNL     1     -11.222  11.664  63.504  1.00  0.00    -0.462 A  
HETATM   24  C   UNL     1     -10.534  10.877  64.424  1.00  0.00    -0.403 A  
HETATM   25  C   UNL     1     -10.096  11.426  65.641  1.00  0.00    -0.293 A  
ENDBRANCH   5   8
TORSDOF 1
ENDMDL
MODEL       38
REMARK 921   NORMALIZED FREE ENERGY PREDICTED BY IDOCK:   -5.59 KCAL/MOL
REMARK 922        TOTAL FREE ENERGY PREDICTED BY IDOCK:   -6.30 KCAL/MOL
REMARK 923 INTER-LIGAND FREE ENERGY PREDICTED BY IDOCK:   -5.95 KCAL/MOL
REMARK 924 INTRA-LIGAND FREE ENERGY PREDICTED BY IDOCK:   -0.35 KCAL/MOL
REMARK 927      BINDING AFFINITY PREDICTED BY RF-SCORE:    0.00 PKD
ROOT
HETATM    1  C   UNL     1     -10.655   6.525  73.649  1.00  0.00    -0.286 C  
HETATM    2  N   UNL     1     -10.558   7.902  73.172  1.00  0.00    -0.344 NA 
HETATM    3  C   UNL     1      -9.311   8.132  72.411  1.00  0.00    -0.240 C  
HETATM    4  C   UNL     1      -9.258   7.480  71.012  1.00  0.00    -0.152 C  
HETATM    5  N   UNL     1     -10.442   7.825  70.213  1.00  0.00    -0.220 NA 
HETATM    6  C   UNL     1     -11.707   8.277  72.315  1.00  0.00    -0.388 C  
HETATM    7  C   UNL     1     -11.725   7.647  70.905  1.00  0.00    -0.271 C  
ENDROOT
BRANCH   5   8
HETATM    8  C   UNL     1     -10.367   8.334  68.912  1.00  0.00    -0.215 C  
HETATM    9  N   UNL     1     -10.553   9.614  68.722  1.00  0.00    -0.215 NA 
HETATM   10  C   UNL     1     -10.469  10.251  67.469  1.00  0.00    -0.244 A  
HETATM   11  H   UNL     1     -10.773  10.189  69.535  1.00  0.00     0.000 HD 
HETATM   12  C   UNL     1     -11.386  11.283  67.228  1.00  0.00    -0.329 A  
HETATM   13  C   UNL     1     -11.349  12.009  66.038  1.00  0.00    -0.343 A  
HETATM   14  C   UNL     1     -10.380  11.740  65.075  1.00  0.00    -0.325 A  
HETATM   15 CL   UNL     1     -12.515  13.238  65.743  1.00  0.00    -0.498 Cl 
HETATM   16  C   UNL     1      -9.438  10.741  65.311  1.00  0.00    -0.263 A  
HETATM   17  C   UNL     1      -9.471   9.992  66.502  1.00  0.00    -0.175 A  
HETATM   18  N   UNL     1      -8.590   8.884  66.622  1.00  0.00    -0.120 NA 
HETATM   19  C   UNL     1      -9.152   7.603  66.809  1.00  0.00    -0.151 A  
HETATM   20  H   UNL     1      -7.580   9.011  66.574  1.00  0.00     0.000 HD 
HETATM   21  C   UNL     1      -8.865   6.590  65.880  1.00  0.00    -0.131 A  
HETATM   22  C   UNL     1      -9.537   5.366  65.924  1.00  0.00    -0.116 A  
HETATM   23  C   UNL     1     -10.513   5.140  66.890  1.00  0.00    -0.280 A  
HETATM   24  C   UNL     1     -10.798   6.130  67.827  1.00  0.00    -0.413 A  
HETATM   25  C   UNL     1     -10.105   7.352  67.803  1.00  0.00    -0.232 A  
ENDBRANCH   5   8
TORSDOF 1
ENDMDL
MODEL       39
REMARK 921   NORMALIZED FREE ENERGY PREDICTED BY IDOCK:   -5.57 KCAL/MOL
REMARK 922        TOTAL FREE ENERGY PREDICTED BY IDOCK:   -6.27 KCAL/MOL
REMARK 923 INTER-LIGAND FREE ENERGY PREDICTED BY IDOCK:   -5.91 KCAL/MOL
REMARK 924 INTRA-LIGAND FREE ENERGY PREDICTED BY IDOCK:   -0.36 KCAL/MOL
REMARK 927      BINDING AFFINITY PREDICTED BY RF-SCORE:    0.00 PKD
ROOT
HETATM    1  C   UNL     1     -13.577  13.711  72.653  1.00  0.00    -0.485 C  
HETATM    2  N   UNL     1     -13.527  15.111  72.240  1.00  0.00    -0.395 NA 
HETATM    3  C   UNL     1     -12.223  15.731  72.558  1.00  0.00    -0.472 C  
HETATM    4  C   UNL     1     -11.038  15.269  71.681  1.00  0.00    -0.182 C  
HETATM    5  N   UNL     1     -11.350  15.387  70.250  1.00  0.00    -0.283 NA 
HETATM    6  C   UNL     1     -13.783  15.273  70.789  1.00  0.00    -0.189 C  
HETATM    7  C   UNL     1     -12.642  14.815  69.852  1.00  0.00    -0.174 C  
ENDROOT
BRANCH   5   8
HETATM    8  C   UNL     1     -10.515  16.036  69.334  1.00  0.00    -0.271 C  
HETATM    9  N   UNL     1     -10.850  17.225  68.906  1.00  0.00    -0.298 NA 
HETATM   10  C   UNL     1     -10.078  17.994  68.014  1.00  0.00    -0.365 A  
HETATM   11  H   UNL     1     -11.728  17.622  69.240  1.00  0.00     0.000 HD 
HETATM   12  C   UNL     1     -10.782  18.745  67.063  1.00  0.00    -0.435 A  
HETATM   13  C   UNL     1     -10.109  19.578  66.169  1.00  0.00    -0.469 A  
HETATM   14  C   UNL     1      -8.723  19.701  66.223  1.00  0.00    -0.401 A  
HETATM   15 CL   UNL     1     -10.990  20.454  64.980  1.00  0.00     0.255 Cl 
HETATM   16  C   UNL     1      -8.008  18.988  67.183  1.00  0.00    -0.271 A  
HETATM   17  C   UNL     1      -8.672  18.134  68.083  1.00  0.00    -0.277 A  
HETATM   18  N   UNL     1      -7.885  17.313  68.933  1.00  0.00    -0.241 NA 
HETATM   19  C   UNL     1      -8.031  15.913  68.831  1.00  0.00    -0.204 A  
HETATM   20  H   UNL     1      -7.232  17.723  69.599  1.00  0.00     0.000 HD 
HETATM   21  C   UNL     1      -6.908  15.131  68.520  1.00  0.00    -0.108 A  
HETATM   22  C   UNL     1      -7.040  13.770  68.233  1.00  0.00    -0.109 A  
HETATM   23  C   UNL     1      -8.297  13.173  68.242  1.00  0.00    -0.152 A  
HETATM   24  C   UNL     1      -9.419  13.933  68.562  1.00  0.00    -0.174 A  
HETATM   25  C   UNL     1      -9.287  15.296  68.878  1.00  0.00    -0.213 A  
ENDBRANCH   5   8
TORSDOF 1
ENDMDL
MODEL       40
REMARK 921   NORMALIZED FREE ENERGY PREDICTED BY IDOCK:   -5.56 KCAL/MOL
REMARK 922        TOTAL FREE ENERGY PREDICTED BY IDOCK:   -6.26 KCAL/MOL
REMARK 923 INTER-LIGAND FREE ENERGY PREDICTED BY IDOCK:   -5.97 KCAL/MOL
REMARK 924 INTRA-LIGAND FREE ENERGY PREDICTED BY IDOCK:   -0.29 KCAL/MOL
REMARK 927      BINDING AFFINITY PREDICTED BY RF-SCORE:    0.00 PKD
ROOT
HETATM    1  C   UNL     1     -12.861   8.142  71.659  1.00  0.00    -0.326 C  
HETATM    2  N   UNL     1     -12.079   9.316  72.040  1.00  0.00    -0.359 NA 
HETATM    3  C   UNL     1     -10.679   9.217  71.576  1.00  0.00    -0.355 C  
HETATM    4  C   UNL     1     -10.472   9.382  70.054  1.00  0.00    -0.234 C  
HETATM    5  N   UNL     1     -11.115  10.604  69.553  1.00  0.00    -0.254 NA 
HETATM    6  C   UNL     1     -12.663  10.570  71.510  1.00  0.00    -0.452 C  
HETATM    7  C   UNL     1     -12.505  10.792  69.988  1.00  0.00    -0.248 C  
ENDROOT
BRANCH   5   8
HETATM    8  C   UNL     1     -10.453  11.551  68.765  1.00  0.00    -0.204 C  
HETATM    9  N   UNL     1     -10.460  12.804  69.141  1.00  0.00    -0.433 NA 
HETATM   10  C   UNL     1      -9.802  13.842  68.455  1.00  0.00    -0.229 A  
HETATM   11  H   UNL     1     -10.976  13.044  69.987  1.00  0.00     0.000 HD 
HETATM   12  C   UNL     1     -10.460  15.079  68.410  1.00  0.00    -0.238 A  
HETATM   13  C   UNL     1      -9.866  16.183  67.799  1.00  0.00    -0.232 A  
HETATM   14  C   UNL     1      -8.593  16.084  67.243  1.00  0.00    -0.205 A  
HETATM   15 CL   UNL     1     -10.712  17.678  67.714  1.00  0.00    -0.379 Cl 
HETATM   16  C   UNL     1      -7.909  14.872  67.307  1.00  0.00    -0.235 A  
HETATM   17  C   UNL     1      -8.501  13.747  67.910  1.00  0.00    -0.176 A  
HETATM   18  N   UNL     1      -7.828  12.500  67.807  1.00  0.00    -0.137 NA 
HETATM   19  C   UNL     1      -8.491  11.436  67.160  1.00  0.00    -0.153 A  
HETATM   20  H   UNL     1      -6.891  12.377  68.190  1.00  0.00     0.000 HD 
HETATM   21  C   UNL     1      -7.892  10.839  66.040  1.00  0.00    -0.149 A  
HETATM   22  C   UNL     1      -8.588   9.909  65.265  1.00  0.00    -0.168 A  
HETATM   23  C   UNL     1      -9.898   9.571  65.590  1.00  0.00    -0.343 A  
HETATM   24  C   UNL     1     -10.502  10.144  66.706  1.00  0.00    -0.270 A  
HETATM   25  C   UNL     1      -9.795  11.058  67.505  1.00  0.00    -0.190 A  
ENDBRANCH   5   8
TORSDOF 1
ENDMDL
MODEL       41
REMARK 921   NORMALIZED FREE ENERGY PREDICTED BY IDOCK:   -5.55 KCAL/MOL
REMARK 922        TOTAL FREE ENERGY PREDICTED BY IDOCK:   -6.26 KCAL/MOL
REMARK 923 INTER-LIGAND FREE ENERGY PREDICTED BY IDOCK:   -5.95 KCAL/MOL
REMARK 924 INTRA-LIGAND FREE ENERGY PREDICTED BY IDOCK:   -0.31 KCAL/MOL
REMARK 927      BINDING AFFINITY PREDICTED BY RF-SCORE:    0.00 PKD
ROOT
HETATM    1  C   UNL     1     -10.630   7.082  73.462  1.00  0.00    -0.368 C  
HETATM    2  N   UNL     1     -11.037   6.434  72.218  1.00  0.00    -0.252 NA 
HETATM    3  C   UNL     1     -12.100   7.193  71.526  1.00  0.00    -0.342 C  
HETATM    4  C   UNL     1     -11.649   8.517  70.870  1.00  0.00    -0.263 C  
HETATM    5  N   UNL     1     -10.484   8.315  69.997  1.00  0.00    -0.226 NA 
HETATM    6  C   UNL     1      -9.900   6.258  71.284  1.00  0.00    -0.175 C  
HETATM    7  C   UNL     1      -9.388   7.547  70.602  1.00  0.00    -0.163 C  
ENDROOT
BRANCH   5   8
HETATM    8  C   UNL     1     -10.429   8.768  68.675  1.00  0.00    -0.183 C  
HETATM    9  N   UNL     1     -10.651  10.033  68.430  1.00  0.00    -0.208 NA 
HETATM   10  C   UNL     1     -10.590  10.616  67.150  1.00  0.00    -0.260 A  
HETATM   11  H   UNL     1     -10.883  10.637  69.218  1.00  0.00     0.000 HD 
HETATM   12  C   UNL     1     -11.536  11.610  66.869  1.00  0.00    -0.320 A  
HETATM   13  C   UNL     1     -11.524  12.283  65.647  1.00  0.00    -0.368 A  
HETATM   14  C   UNL     1     -10.552  11.999  64.691  1.00  0.00    -0.351 A  
HETATM   15 CL   UNL     1     -12.725  13.466  65.305  1.00  0.00    -0.517 Cl 
HETATM   16  C   UNL     1      -9.582  11.037  64.966  1.00  0.00    -0.291 A  
HETATM   17  C   UNL     1      -9.589  10.341  66.189  1.00  0.00    -0.197 A  
HETATM   18  N   UNL     1      -8.678   9.265  66.353  1.00  0.00    -0.129 NA 
HETATM   19  C   UNL     1      -9.203   7.978  66.599  1.00  0.00    -0.180 A  
HETATM   20  H   UNL     1      -7.672   9.416  66.293  1.00  0.00     0.000 HD 
HETATM   21  C   UNL     1      -8.893   6.933  65.714  1.00  0.00    -0.088 A  
HETATM   22  C   UNL     1      -9.530   5.694  65.816  1.00  0.00    -0.035 A  
HETATM   23  C   UNL     1     -10.495   5.485  66.797  1.00  0.00    -0.355 A  
HETATM   24  C   UNL     1     -10.803   6.507  67.691  1.00  0.00    -0.419 A  
HETATM   25  C   UNL     1     -10.144   7.745  67.609  1.00  0.00    -0.254 A  
ENDBRANCH   5   8
TORSDOF 1
ENDMDL
MODEL       42
REMARK 921   NORMALIZED FREE ENERGY PREDICTED BY IDOCK:   -5.54 KCAL/MOL
REMARK 922        TOTAL FREE ENERGY PREDICTED BY IDOCK:   -6.25 KCAL/MOL
REMARK 923 INTER-LIGAND FREE ENERGY PREDICTED BY IDOCK:   -6.14 KCAL/MOL
REMARK 924 INTRA-LIGAND FREE ENERGY PREDICTED BY IDOCK:   -0.10 KCAL/MOL
REMARK 927      BINDING AFFINITY PREDICTED BY RF-SCORE:    0.00 PKD
ROOT
HETATM    1  C   UNL     1      -8.400   8.382  62.881  1.00  0.00    -0.117 C  
HETATM    2  N   UNL     1      -8.165   9.821  62.796  1.00  0.00    -0.139 NA 
HETATM    3  C   UNL     1      -9.431  10.584  62.773  1.00  0.00    -0.325 C  
HETATM    4  C   UNL     1     -10.200  10.632  64.112  1.00  0.00    -0.295 C  
HETATM    5  N   UNL     1      -9.333  11.070  65.215  1.00  0.00    -0.211 NA 
HETATM    6  C   UNL     1      -7.337  10.317  63.921  1.00  0.00    -0.061 C  
HETATM    7  C   UNL     1      -8.041  10.376  65.295  1.00  0.00    -0.152 C  
ENDROOT
BRANCH   5   8
HETATM    8  C   UNL     1      -9.676  12.102  66.096  1.00  0.00    -0.240 C  
HETATM    9  N   UNL     1      -9.480  13.340  65.725  1.00  0.00    -0.482 NA 
HETATM   10  C   UNL     1      -9.815  14.464  66.505  1.00  0.00    -0.287 A  
HETATM   11  H   UNL     1      -9.057  13.503  64.812  1.00  0.00     0.000 HD 
HETATM   12  C   UNL     1      -8.930  15.549  66.452  1.00  0.00    -0.359 A  
HETATM   13  C   UNL     1      -9.200  16.727  67.149  1.00  0.00    -0.224 A  
HETATM   14  C   UNL     1     -10.372  16.857  67.889  1.00  0.00    -0.332 A  
HETATM   15 CL   UNL     1      -8.077  18.028  67.109  1.00  0.00    -0.218 Cl 
HETATM   16  C   UNL     1     -11.282  15.802  67.926  1.00  0.00    -0.313 A  
HETATM   17  C   UNL     1     -11.015  14.603  67.239  1.00  0.00    -0.317 A  
HETATM   18  N   UNL     1     -11.895  13.507  67.438  1.00  0.00    -0.376 NA 
HETATM   19  C   UNL     1     -11.364  12.315  67.977  1.00  0.00    -0.293 A  
HETATM   20  H   UNL     1     -12.884  13.578  67.200  1.00  0.00     0.000 HD 
HETATM   21  C   UNL     1     -11.898  11.809  69.172  1.00  0.00    -0.389 A  
HETATM   22  C   UNL     1     -11.289  10.739  69.832  1.00  0.00    -0.385 A  
HETATM   23  C   UNL     1     -10.133  10.166  69.313  1.00  0.00    -0.237 A  
HETATM   24  C   UNL     1      -9.600  10.647  68.120  1.00  0.00    -0.165 A  
HETATM   25  C   UNL     1     -10.225  11.705  67.439  1.00  0.00    -0.226 A  
ENDBRANCH   5   8
TORSDOF 1
ENDMDL
MODEL       43
REMARK 921   NORMALIZED FREE ENERGY PREDICTED BY IDOCK:   -5.50 KCAL/MOL
REMARK 922        TOTAL FREE ENERGY PREDICTED BY IDOCK:   -6.20 KCAL/MOL
REMARK 923 INTER-LIGAND FREE ENERGY PREDICTED BY IDOCK:   -6.24 KCAL/MOL
REMARK 924 INTRA-LIGAND FREE ENERGY PREDICTED BY IDOCK:    0.04 KCAL/MOL
REMARK 927      BINDING AFFINITY PREDICTED BY RF-SCORE:    0.00 PKD
ROOT
HETATM    1  C   UNL     1     -11.574  15.515  72.182  1.00  0.00    -0.460 C  
HETATM    2  N   UNL     1     -12.043  15.851  70.840  1.00  0.00    -0.399 NA 
HETATM    3  C   UNL     1     -10.926  16.221  69.945  1.00  0.00    -0.365 C  
HETATM    4  C   UNL     1     -10.016  15.054  69.502  1.00  0.00    -0.142 C  
HETATM    5  N   UNL     1     -10.800  13.943  68.945  1.00  0.00    -0.256 NA 
HETATM    6  C   UNL     1     -12.795  14.737  70.217  1.00  0.00    -0.217 C  
HETATM    7  C   UNL     1     -11.947  13.527  69.764  1.00  0.00    -0.340 C  
ENDROOT
BRANCH   5   8
HETATM    8  C   UNL     1     -10.520  13.351  67.709  1.00  0.00    -0.243 C  
HETATM    9  N   UNL     1      -9.950  12.175  67.686  1.00  0.00    -0.194 NA 
HETATM   10  C   UNL     1      -9.650  11.462  66.509  1.00  0.00    -0.198 A  
HETATM   11  H   UNL     1      -9.706  11.746  68.578  1.00  0.00     0.000 HD 
HETATM   12  C   UNL     1      -8.450  10.738  66.504  1.00  0.00    -0.147 A  
HETATM   13  C   UNL     1      -8.090   9.959  65.405  1.00  0.00    -0.137 A  
HETATM   14  C   UNL     1      -8.931   9.863  64.299  1.00  0.00    -0.278 A  
HETATM   15 CL   UNL     1      -6.591   9.117  65.402  1.00  0.00    -0.068 Cl 
HETATM   16  C   UNL     1     -10.144  10.549  64.299  1.00  0.00    -0.380 A  
HETATM   17  C   UNL     1     -10.514  11.349  65.396  1.00  0.00    -0.280 A  
HETATM   18  N   UNL     1     -11.681  12.149  65.277  1.00  0.00    -0.337 NA 
HETATM   19  C   UNL     1     -11.546  13.549  65.397  1.00  0.00    -0.316 A  
HETATM   20  H   UNL     1     -12.593  11.724  65.110  1.00  0.00     0.000 HD 
HETATM   21  C   UNL     1     -11.959  14.368  64.334  1.00  0.00    -0.471 A  
HETATM   22  C   UNL     1     -11.680  15.737  64.334  1.00  0.00    -0.201 A  
HETATM   23  C   UNL     1     -10.974  16.305  65.390  1.00  0.00    -0.204 A  
HETATM   24  C   UNL     1     -10.571  15.509  66.458  1.00  0.00    -0.307 A  
HETATM   25  C   UNL     1     -10.874  14.137  66.476  1.00  0.00    -0.298 A  
ENDBRANCH   5   8
TORSDOF 1
ENDMDL
MODEL       44
REMARK 921   NORMALIZED FREE ENERGY PREDICTED BY IDOCK:   -5.49 KCAL/MOL
REMARK 922        TOTAL FREE ENERGY PREDICTED BY IDOCK:   -6.18 KCAL/MOL
REMARK 923 INTER-LIGAND FREE ENERGY PREDICTED BY IDOCK:   -5.83 KCAL/MOL
REMARK 924 INTRA-LIGAND FREE ENERGY PREDICTED BY IDOCK:   -0.36 KCAL/MOL
REMARK 927      BINDING AFFINITY PREDICTED BY RF-SCORE:    0.00 PKD
ROOT
HETATM    1  C   UNL     1      -9.004   4.012  67.371  1.00  0.00    -0.129 C  
HETATM    2  N   UNL     1      -9.252   5.170  66.515  1.00  0.00    -0.131 NA 
HETATM    3  C   UNL     1     -10.618   5.704  66.696  1.00  0.00    -0.295 C  
HETATM    4  C   UNL     1     -10.869   6.442  68.030  1.00  0.00    -0.316 C  
HETATM    5  N   UNL     1      -9.855   7.478  68.270  1.00  0.00    -0.159 NA 
HETATM    6  C   UNL     1      -8.282   6.263  66.762  1.00  0.00    -0.110 C  
HETATM    7  C   UNL     1      -8.467   7.035  68.088  1.00  0.00    -0.129 C  
ENDROOT
BRANCH   5   8
HETATM    8  C   UNL     1     -10.173   8.801  68.598  1.00  0.00    -0.194 C  
HETATM    9  N   UNL     1      -9.798   9.759  67.791  1.00  0.00    -0.155 NA 
HETATM   10  C   UNL     1     -10.087  11.123  67.991  1.00  0.00    -0.174 A  
HETATM   11  H   UNL     1      -9.261   9.502  66.963  1.00  0.00     0.000 HD 
HETATM   12  C   UNL     1      -9.084  12.034  67.635  1.00  0.00    -0.179 A  
HETATM   13  C   UNL     1      -9.294  13.408  67.746  1.00  0.00    -0.211 A  
HETATM   14  C   UNL     1     -10.518  13.903  68.189  1.00  0.00    -0.246 A  
HETATM   15 CL   UNL     1      -8.032  14.507  67.349  1.00  0.00    -0.208 Cl 
HETATM   16  C   UNL     1     -11.539  13.014  68.516  1.00  0.00    -0.363 A  
HETATM   17  C   UNL     1     -11.337  11.624  68.420  1.00  0.00    -0.279 A  
HETATM   18  N   UNL     1     -12.353  10.764  68.914  1.00  0.00    -0.786 NA 
HETATM   19  C   UNL     1     -12.023   9.875  69.960  1.00  0.00    -0.009 A  
HETATM   20  H   UNL     1     -13.295  10.787  68.525  1.00  0.00     0.000 HD 
HETATM   21  C   UNL     1     -12.739   9.945  71.166  1.00  0.00    -0.462 A  
HETATM   22  C   UNL     1     -12.333   9.213  72.284  1.00  0.00    -0.379 A  
HETATM   23  C   UNL     1     -11.198   8.410  72.218  1.00  0.00    -0.446 A  
HETATM   24  C   UNL     1     -10.487   8.319  71.025  1.00  0.00    -0.241 A  
HETATM   25  C   UNL     1     -10.908   9.032  69.890  1.00  0.00    -0.228 A  
ENDBRANCH   5   8
TORSDOF 1
ENDMDL
MODEL       45
REMARK 921   NORMALIZED FREE ENERGY PREDICTED BY IDOCK:   -5.43 KCAL/MOL
REMARK 922        TOTAL FREE ENERGY PREDICTED BY IDOCK:   -6.13 KCAL/MOL
REMARK 923 INTER-LIGAND FREE ENERGY PREDICTED BY IDOCK:   -5.87 KCAL/MOL
REMARK 924 INTRA-LIGAND FREE ENERGY PREDICTED BY IDOCK:   -0.26 KCAL/MOL
REMARK 927      BINDING AFFINITY PREDICTED BY RF-SCORE:    0.00 PKD
ROOT
HETATM    1  C   UNL     1     -11.789  14.791  66.821  1.00  0.00    -0.257 C  
HETATM    2  N   UNL     1     -10.551  14.019  66.755  1.00  0.00    -0.276 NA 
HETATM    3  C   UNL     1     -10.058  13.656  68.100  1.00  0.00    -0.245 C  
HETATM    4  C   UNL     1     -10.876  12.572  68.836  1.00  0.00    -0.196 C  
HETATM    5  N   UNL     1     -11.065  11.380  67.998  1.00  0.00    -0.236 NA 
HETATM    6  C   UNL     1     -10.710  12.777  65.962  1.00  0.00    -0.272 C  
HETATM    7  C   UNL     1     -11.533  11.655  66.633  1.00  0.00    -0.206 C  
ENDROOT
BRANCH   5   8
HETATM    8  C   UNL     1     -10.778  10.082  68.435  1.00  0.00    -0.234 C  
HETATM    9  N   UNL     1     -11.270   9.676  69.575  1.00  0.00    -0.404 NA 
HETATM   10  C   UNL     1     -11.083   8.384  70.105  1.00  0.00    -0.182 A  
HETATM   11  H   UNL     1     -11.827  10.337  70.117  1.00  0.00     0.000 HD 
HETATM   12  C   UNL     1     -10.914   8.295  71.493  1.00  0.00    -0.312 A  
HETATM   13  C   UNL     1     -10.773   7.057  72.119  1.00  0.00    -0.218 A  
HETATM   14  C   UNL     1     -10.825   5.879  71.377  1.00  0.00    -0.332 A  
HETATM   15 CL   UNL     1     -10.518   6.974  73.817  1.00  0.00    -0.414 Cl 
HETATM   16  C   UNL     1     -11.027   5.946  69.999  1.00  0.00    -0.430 A  
HETATM   17  C   UNL     1     -11.158   7.189  69.354  1.00  0.00    -0.110 A  
HETATM   18  N   UNL     1     -11.202   7.205  67.934  1.00  0.00    -0.519 NA 
HETATM   19  C   UNL     1     -10.197   7.919  67.244  1.00  0.00    -0.273 A  
HETATM   20  H   UNL     1     -11.938   6.716  67.427  1.00  0.00     0.000 HD 
HETATM   21  C   UNL     1      -9.389   7.237  66.322  1.00  0.00    -0.160 A  
HETATM   22  C   UNL     1      -8.273   7.856  65.752  1.00  0.00    -0.130 A  
HETATM   23  C   UNL     1      -7.944   9.161  66.105  1.00  0.00    -0.103 A  
HETATM   24  C   UNL     1      -8.745   9.855  67.007  1.00  0.00    -0.137 A  
HETATM   25  C   UNL     1      -9.883   9.246  67.561  1.00  0.00    -0.224 A  
ENDBRANCH   5   8
TORSDOF 1
ENDMDL
MODEL       46
REMARK 921   NORMALIZED FREE ENERGY PREDICTED BY IDOCK:   -5.43 KCAL/MOL
REMARK 922        TOTAL FREE ENERGY PREDICTED BY IDOCK:   -6.12 KCAL/MOL
REMARK 923 INTER-LIGAND FREE ENERGY PREDICTED BY IDOCK:   -5.81 KCAL/MOL
REMARK 924 INTRA-LIGAND FREE ENERGY PREDICTED BY IDOCK:   -0.31 KCAL/MOL
REMARK 927      BINDING AFFINITY PREDICTED BY RF-SCORE:    0.00 PKD
ROOT
HETATM    1  C   UNL     1      -8.131   4.474  66.001  1.00  0.00    -0.103 C  
HETATM    2  N   UNL     1      -9.074   5.588  65.966  1.00  0.00    -0.154 NA 
HETATM    3  C   UNL     1     -10.382   5.219  66.547  1.00  0.00    -0.285 C  
HETATM    4  C   UNL     1     -10.401   5.049  68.082  1.00  0.00    -0.021 C  
HETATM    5  N   UNL     1      -9.828   6.221  68.760  1.00  0.00    -0.134 NA 
HETATM    6  C   UNL     1      -8.559   6.777  66.685  1.00  0.00    -0.123 C  
HETATM    7  C   UNL     1      -8.536   6.669  68.226  1.00  0.00    -0.120 C  
ENDROOT
BRANCH   5   8
HETATM    8  C   UNL     1     -10.476   6.898  69.799  1.00  0.00    -0.217 C  
HETATM    9  N   UNL     1     -11.138   7.991  69.524  1.00  0.00    -0.446 NA 
HETATM   10  C   UNL     1     -11.859   8.741  70.473  1.00  0.00    -0.030 A  
HETATM   11  H   UNL     1     -11.133   8.322  68.560  1.00  0.00     0.000 HD 
HETATM   12  C   UNL     1     -11.820  10.135  70.330  1.00  0.00    -0.373 A  
HETATM   13  C   UNL     1     -12.543  10.962  71.190  1.00  0.00    -0.428 A  
HETATM   14  C   UNL     1     -13.342  10.417  72.191  1.00  0.00    -0.374 A  
HETATM   15 CL   UNL     1     -12.442  12.671  71.026  1.00  0.00    -0.425 Cl 
HETATM   16  C   UNL     1     -13.420   9.032  72.328  1.00  0.00    -0.529 A  
HETATM   17  C   UNL     1     -12.686   8.186  71.476  1.00  0.00    -0.308 A  
HETATM   18  N   UNL     1     -12.678   6.794  71.760  1.00  0.00    -0.431 NA 
HETATM   19  C   UNL     1     -11.438   6.176  72.032  1.00  0.00    -0.313 A  
HETATM   20  H   UNL     1     -13.544   6.256  71.766  1.00  0.00     0.000 HD 
HETATM   21  C   UNL     1     -11.259   5.520  73.260  1.00  0.00    -0.282 A  
HETATM   22  C   UNL     1     -10.000   5.052  73.645  1.00  0.00    -0.185 A  
HETATM   23  C   UNL     1      -8.900   5.244  72.815  1.00  0.00    -0.122 A  
HETATM   24  C   UNL     1      -9.066   5.881  71.587  1.00  0.00    -0.149 A  
HETATM   25  C   UNL     1     -10.335   6.328  71.184  1.00  0.00    -0.255 A  
ENDBRANCH   5   8
TORSDOF 1
ENDMDL
MODEL       47
REMARK 921   NORMALIZED FREE ENERGY PREDICTED BY IDOCK:   -5.39 KCAL/MOL
REMARK 922        TOTAL FREE ENERGY PREDICTED BY IDOCK:   -6.09 KCAL/MOL
REMARK 923 INTER-LIGAND FREE ENERGY PREDICTED BY IDOCK:   -5.71 KCAL/MOL
REMARK 924 INTRA-LIGAND FREE ENERGY PREDICTED BY IDOCK:   -0.37 KCAL/MOL
REMARK 927      BINDING AFFINITY PREDICTED BY RF-SCORE:    0.00 PKD
ROOT
HETATM    1  C   UNL     1      -7.557   5.068  67.524  1.00  0.00    -0.087 C  
HETATM    2  N   UNL     1      -7.880   6.096  66.537  1.00  0.00    -0.103 NA 
HETATM    3  C   UNL     1      -9.330   6.378  66.493  1.00  0.00    -0.155 C  
HETATM    4  C   UNL     1      -9.892   7.149  67.708  1.00  0.00    -0.145 C  
HETATM    5  N   UNL     1      -9.119   8.370  67.975  1.00  0.00    -0.137 NA 
HETATM    6  C   UNL     1      -7.161   7.365  66.799  1.00  0.00    -0.087 C  
HETATM    7  C   UNL     1      -7.664   8.181  68.012  1.00  0.00    -0.114 C  
ENDROOT
BRANCH   5   8
HETATM    8  C   UNL     1      -9.707   9.630  68.132  1.00  0.00    -0.146 C  
HETATM    9  N   UNL     1      -9.453  10.560  67.249  1.00  0.00    -0.157 NA 
HETATM   10  C   UNL     1     -10.008  11.854  67.277  1.00  0.00    -0.186 A  
HETATM   11  H   UNL     1      -8.810  10.334  66.491  1.00  0.00     0.000 HD 
HETATM   12  C   UNL     1      -9.169  12.905  66.887  1.00  0.00    -0.234 A  
HETATM   13  C   UNL     1      -9.642  14.216  66.831  1.00  0.00    -0.270 A  
HETATM   14  C   UNL     1     -10.970  14.502  67.138  1.00  0.00    -0.304 A  
HETATM   15 CL   UNL     1      -8.581  15.497  66.395  1.00  0.00    -0.330 Cl 
HETATM   16  C   UNL     1     -11.830  13.465  67.496  1.00  0.00    -0.408 A  
HETATM   17  C   UNL     1     -11.362  12.140  67.568  1.00  0.00    -0.326 A  
HETATM   18  N   UNL     1     -12.236  11.149  68.090  1.00  0.00    -0.645 NA 
HETATM   19  C   UNL     1     -11.834  10.448  69.247  1.00  0.00    -0.093 A  
HETATM   20  H   UNL     1     -13.129  10.949  67.641  1.00  0.00     0.000 HD 
HETATM   21  C   UNL     1     -12.648  10.493  70.389  1.00  0.00    -0.364 A  
HETATM   22  C   UNL     1     -12.206   9.967  71.605  1.00  0.00    -0.482 A  
HETATM   23  C   UNL     1     -10.940   9.399  71.701  1.00  0.00    -0.382 A  
HETATM   24  C   UNL     1     -10.126   9.334  70.573  1.00  0.00    -0.313 A  
HETATM   25  C   UNL     1     -10.578   9.836  69.341  1.00  0.00    -0.248 A  
ENDBRANCH   5   8
TORSDOF 1
ENDMDL
MODEL       48
REMARK 921   NORMALIZED FREE ENERGY PREDICTED BY IDOCK:   -5.38 KCAL/MOL
REMARK 922        TOTAL FREE ENERGY PREDICTED BY IDOCK:   -6.07 KCAL/MOL
REMARK 923 INTER-LIGAND FREE ENERGY PREDICTED BY IDOCK:   -5.68 KCAL/MOL
REMARK 924 INTRA-LIGAND FREE ENERGY PREDICTED BY IDOCK:   -0.39 KCAL/MOL
REMARK 927      BINDING AFFINITY PREDICTED BY RF-SCORE:    0.00 PKD
ROOT
HETATM    1  C   UNL     1      -8.222   6.532  65.033  1.00  0.00    -0.115 C  
HETATM    2  N   UNL     1      -8.248   6.504  66.493  1.00  0.00    -0.111 NA 
HETATM    3  C   UNL     1      -7.478   7.622  67.078  1.00  0.00    -0.095 C  
HETATM    4  C   UNL     1      -8.125   9.017  66.939  1.00  0.00    -0.112 C  
HETATM    5  N   UNL     1      -9.513   9.016  67.422  1.00  0.00    -0.141 NA 
HETATM    6  C   UNL     1      -9.630   6.555  67.026  1.00  0.00    -0.144 C  
HETATM    7  C   UNL     1     -10.344   7.920  66.906  1.00  0.00    -0.330 C  
ENDROOT
BRANCH   5   8
HETATM    8  C   UNL     1     -10.006   9.948  68.342  1.00  0.00    -0.158 C  
HETATM    9  N   UNL     1     -10.268  11.162  67.932  1.00  0.00    -0.176 NA 
HETATM   10  C   UNL     1     -10.799  12.178  68.751  1.00  0.00    -0.228 A  
HETATM   11  H   UNL     1     -10.075  11.388  66.957  1.00  0.00     0.000 HD 
HETATM   12  C   UNL     1     -10.315  13.474  68.533  1.00  0.00    -0.242 A  
HETATM   13  C   UNL     1     -10.816  14.556  69.257  1.00  0.00    -0.252 A  
HETATM   14  C   UNL     1     -11.830  14.371  70.194  1.00  0.00    -0.380 A  
HETATM   15 CL   UNL     1     -10.174  16.131  69.007  1.00  0.00    -0.234 Cl 
HETATM   16  C   UNL     1     -12.348  13.094  70.400  1.00  0.00    -0.351 A  
HETATM   17  C   UNL     1     -11.843  11.992  69.686  1.00  0.00    -0.333 A  
HETATM   18  N   UNL     1     -12.294  10.695  70.048  1.00  0.00    -0.450 NA 
HETATM   19  C   UNL     1     -11.338   9.756  70.492  1.00  0.00    -0.314 A  
HETATM   20  H   UNL     1     -13.281  10.449  69.989  1.00  0.00     0.000 HD 
HETATM   21  C   UNL     1     -11.481   9.189  71.768  1.00  0.00    -0.452 A  
HETATM   22  C   UNL     1     -10.469   8.396  72.317  1.00  0.00    -0.407 A  
HETATM   23  C   UNL     1      -9.296   8.170  71.604  1.00  0.00    -0.228 A  
HETATM   24  C   UNL     1      -9.146   8.714  70.331  1.00  0.00    -0.176 A  
HETATM   25  C   UNL     1     -10.172   9.488  69.764  1.00  0.00    -0.249 A  
ENDBRANCH   5   8
TORSDOF 1
ENDMDL
MODEL       49
REMARK 921   NORMALIZED FREE ENERGY PREDICTED BY IDOCK:   -5.34 KCAL/MOL
REMARK 922        TOTAL FREE ENERGY PREDICTED BY IDOCK:   -6.03 KCAL/MOL
REMARK 923 INTER-LIGAND FREE ENERGY PREDICTED BY IDOCK:   -5.73 KCAL/MOL
REMARK 924 INTRA-LIGAND FREE ENERGY PREDICTED BY IDOCK:   -0.30 KCAL/MOL
REMARK 927      BINDING AFFINITY PREDICTED BY RF-SCORE:    0.00 PKD
ROOT
HETATM    1  C   UNL     1     -10.569  16.412  67.272  1.00  0.00    -0.293 C  
HETATM    2  N   UNL     1      -9.953  15.331  66.507  1.00  0.00    -0.254 NA 
HETATM    3  C   UNL     1      -8.819  14.721  67.234  1.00  0.00    -0.204 C  
HETATM    4  C   UNL     1      -9.203  13.850  68.450  1.00  0.00    -0.194 C  
HETATM    5  N   UNL     1     -10.211  12.842  68.093  1.00  0.00    -0.233 NA 
HETATM    6  C   UNL     1     -10.924  14.263  66.170  1.00  0.00    -0.313 C  
HETATM    7  C   UNL     1     -11.363  13.362  67.346  1.00  0.00    -0.309 C  
ENDROOT
BRANCH   5   8
HETATM    8  C   UNL     1     -10.073  11.482  68.389  1.00  0.00    -0.204 C  
HETATM    9  N   UNL     1     -10.441  11.051  69.567  1.00  0.00    -0.425 NA 
HETATM   10  C   UNL     1     -10.385   9.703  69.972  1.00  0.00    -0.257 A  
HETATM   11  H   UNL     1     -10.791  11.735  70.237  1.00  0.00     0.000 HD 
HETATM   12  C   UNL     1     -10.018   9.463  71.302  1.00  0.00    -0.274 A  
HETATM   13  C   UNL     1      -9.984   8.166  71.812  1.00  0.00    -0.201 A  
HETATM   14  C   UNL     1     -10.341   7.082  71.014  1.00  0.00    -0.216 A  
HETATM   15 CL   UNL     1      -9.484   7.891  73.435  1.00  0.00    -0.346 Cl 
HETATM   16  C   UNL     1     -10.742   7.303  69.698  1.00  0.00    -0.249 A  
HETATM   17  C   UNL     1     -10.769   8.606  69.166  1.00  0.00    -0.118 A  
HETATM   18  N   UNL     1     -11.030   8.758  67.779  1.00  0.00    -0.485 NA 
HETATM   19  C   UNL     1     -10.044   9.373  66.978  1.00  0.00    -0.240 A  
HETATM   20  H   UNL     1     -11.906   8.432  67.372  1.00  0.00     0.000 HD 
HETATM   21  C   UNL     1      -9.511   8.666  65.890  1.00  0.00    -0.243 A  
HETATM   22  C   UNL     1      -8.413   9.161  65.182  1.00  0.00    -0.182 A  
HETATM   23  C   UNL     1      -7.825  10.364  65.559  1.00  0.00    -0.152 A  
HETATM   24  C   UNL     1      -8.352  11.085  66.627  1.00  0.00    -0.155 A  
HETATM   25  C   UNL     1      -9.473  10.604  67.324  1.00  0.00    -0.178 A  
ENDBRANCH   5   8
TORSDOF 1
ENDMDL
MODEL       50
REMARK 921   NORMALIZED FREE ENERGY PREDICTED BY IDOCK:   -5.33 KCAL/MOL
REMARK 922        TOTAL FREE ENERGY PREDICTED BY IDOCK:   -6.02 KCAL/MOL
REMARK 923 INTER-LIGAND FREE ENERGY PREDICTED BY IDOCK:   -5.61 KCAL/MOL
REMARK 924 INTRA-LIGAND FREE ENERGY PREDICTED BY IDOCK:   -0.41 KCAL/MOL
REMARK 927      BINDING AFFINITY PREDICTED BY RF-SCORE:    0.00 PKD
ROOT
HETATM    1  C   UNL     1      -7.085   7.905  64.226  1.00  0.00    -0.074 C  
HETATM    2  N   UNL     1      -7.449   8.009  65.637  1.00  0.00    -0.078 NA 
HETATM    3  C   UNL     1      -6.737   9.117  66.307  1.00  0.00    -0.071 C  
HETATM    4  C   UNL     1      -7.207  10.536  65.922  1.00  0.00    -0.135 C  
HETATM    5  N   UNL     1      -8.663  10.677  66.061  1.00  0.00    -0.171 NA 
HETATM    6  C   UNL     1      -8.906   8.205  65.823  1.00  0.00    -0.135 C  
HETATM    7  C   UNL     1      -9.447   9.601  65.441  1.00  0.00    -0.278 C  
ENDROOT
BRANCH   5   8
HETATM    8  C   UNL     1      -9.269  11.720  66.770  1.00  0.00    -0.194 C  
HETATM    9  N   UNL     1      -9.173  12.938  66.307  1.00  0.00    -0.432 NA 
HETATM   10  C   UNL     1      -9.766  14.065  66.908  1.00  0.00    -0.271 A  
HETATM   11  H   UNL     1      -8.633  13.082  65.454  1.00  0.00     0.000 HD 
HETATM   12  C   UNL     1      -9.027  15.255  66.875  1.00  0.00    -0.274 A  
HETATM   13  C   UNL     1      -9.551  16.437  67.398  1.00  0.00    -0.231 A  
HETATM   14  C   UNL     1     -10.833  16.463  67.941  1.00  0.00    -0.328 A  
HETATM   15 CL   UNL     1      -8.607  17.874  67.390  1.00  0.00    -0.237 Cl 
HETATM   16  C   UNL     1     -11.597  15.298  67.952  1.00  0.00    -0.301 A  
HETATM   17  C   UNL     1     -11.076  14.095  67.439  1.00  0.00    -0.306 A  
HETATM   18  N   UNL     1     -11.833  12.907  67.619  1.00  0.00    -0.362 NA 
HETATM   19  C   UNL     1     -11.250  11.850  68.350  1.00  0.00    -0.258 A  
HETATM   20  H   UNL     1     -12.772  12.820  67.232  1.00  0.00     0.000 HD 
HETATM   21  C   UNL     1     -11.900  11.375  69.500  1.00  0.00    -0.426 A  
HETATM   22  C   UNL     1     -11.275  10.459  70.349  1.00  0.00    -0.399 A  
HETATM   23  C   UNL     1      -9.988  10.012  70.068  1.00  0.00    -0.273 A  
HETATM   24  C   UNL     1      -9.336  10.462  68.924  1.00  0.00    -0.190 A  
HETATM   25  C   UNL     1      -9.971  11.362  68.052  1.00  0.00    -0.192 A  
ENDBRANCH   5   8
TORSDOF 1
ENDMDL
MODEL       51
REMARK 921   NORMALIZED FREE ENERGY PREDICTED BY IDOCK:   -5.32 KCAL/MOL
REMARK 922        TOTAL FREE ENERGY PREDICTED BY IDOCK:   -6.01 KCAL/MOL
REMARK 923 INTER-LIGAND FREE ENERGY PREDICTED BY IDOCK:   -5.65 KCAL/MOL
REMARK 924 INTRA-LIGAND FREE ENERGY PREDICTED BY IDOCK:   -0.36 KCAL/MOL
REMARK 927      BINDING AFFINITY PREDICTED BY RF-SCORE:    0.00 PKD
ROOT
HETATM    1  C   UNL     1     -10.832  17.871  68.179  1.00  0.00    -0.164 C  
HETATM    2  N   UNL     1      -9.791  17.221  67.387  1.00  0.00    -0.265 NA 
HETATM    3  C   UNL     1      -8.946  16.333  68.214  1.00  0.00    -0.192 C  
HETATM    4  C   UNL     1      -9.620  15.026  68.686  1.00  0.00    -0.219 C  
HETATM    5  N   UNL     1     -10.221  14.295  67.562  1.00  0.00    -0.239 NA 
HETATM    6  C   UNL     1     -10.355  16.426  66.271  1.00  0.00    -0.329 C  
HETATM    7  C   UNL     1     -11.059  15.111  66.674  1.00  0.00    -0.308 C  
ENDROOT
BRANCH   5   8
HETATM    8  C   UNL     1      -9.980  12.939  67.313  1.00  0.00    -0.224 C  
HETATM    9  N   UNL     1      -9.397  12.596  66.194  1.00  0.00    -0.402 NA 
HETATM   10  C   UNL     1      -9.070  11.272  65.844  1.00  0.00    -0.204 A  
HETATM   11  H   UNL     1      -9.164  13.335  65.532  1.00  0.00     0.000 HD 
HETATM   12  C   UNL     1      -9.226  10.923  64.496  1.00  0.00    -0.226 A  
HETATM   13  C   UNL     1      -8.879   9.651  64.042  1.00  0.00    -0.227 A  
HETATM   14  C   UNL     1      -8.343   8.709  64.916  1.00  0.00    -0.174 A  
HETATM   15 CL   UNL     1      -9.125   9.230  62.393  1.00  0.00    -0.221 Cl 
HETATM   16  C   UNL     1      -8.148   9.048  66.253  1.00  0.00    -0.110 A  
HETATM   17  C   UNL     1      -8.505  10.323  66.729  1.00  0.00    -0.123 A  
HETATM   18  N   UNL     1      -8.434  10.562  68.127  1.00  0.00    -0.120 NA 
HETATM   19  C   UNL     1      -9.620  10.919  68.804  1.00  0.00    -0.189 A  
HETATM   20  H   UNL     1      -7.551  10.477  68.628  1.00  0.00     0.000 HD 
HETATM   21  C   UNL     1     -10.066  10.118  69.866  1.00  0.00    -0.268 A  
HETATM   22  C   UNL     1     -11.320  10.328  70.445  1.00  0.00    -0.410 A  
HETATM   23  C   UNL     1     -12.151  11.335  69.963  1.00  0.00    -0.425 A  
HETATM   24  C   UNL     1     -11.716  12.147  68.919  1.00  0.00    -0.381 A  
HETATM   25  C   UNL     1     -10.444  11.957  68.353  1.00  0.00    -0.231 A  
ENDBRANCH   5   8
TORSDOF 1
ENDMDL
MODEL       52
REMARK 921   NORMALIZED FREE ENERGY PREDICTED BY IDOCK:   -5.23 KCAL/MOL
REMARK 922        TOTAL FREE ENERGY PREDICTED BY IDOCK:   -5.92 KCAL/MOL
REMARK 923 INTER-LIGAND FREE ENERGY PREDICTED BY IDOCK:   -5.72 KCAL/MOL
REMARK 924 INTRA-LIGAND FREE ENERGY PREDICTED BY IDOCK:   -0.20 KCAL/MOL
REMARK 927      BINDING AFFINITY PREDICTED BY RF-SCORE:    0.00 PKD
ROOT
HETATM    1  C   UNL     1      -7.878  19.716  67.665  1.00  0.00    -0.282 C  
HETATM    2  N   UNL     1      -8.427  19.010  66.510  1.00  0.00    -0.305 NA 
HETATM    3  C   UNL     1      -7.478  18.011  65.975  1.00  0.00    -0.236 C  
HETATM    4  C   UNL     1      -7.280  16.751  66.846  1.00  0.00    -0.223 C  
HETATM    5  N   UNL     1      -8.566  16.131  67.194  1.00  0.00    -0.176 NA 
HETATM    6  C   UNL     1      -9.701  18.323  66.831  1.00  0.00    -0.315 C  
HETATM    7  C   UNL     1      -9.577  17.061  67.714  1.00  0.00    -0.244 C  
ENDROOT
BRANCH   5   8
HETATM    8  C   UNL     1      -8.838  14.772  67.003  1.00  0.00    -0.237 C  
HETATM    9  N   UNL     1      -7.960  13.889  67.403  1.00  0.00    -0.220 NA 
HETATM   10  C   UNL     1      -8.133  12.496  67.299  1.00  0.00    -0.179 A  
HETATM   11  H   UNL     1      -7.094  14.233  67.816  1.00  0.00     0.000 HD 
HETATM   12  C   UNL     1      -6.993  11.745  66.982  1.00  0.00    -0.135 A  
HETATM   13  C   UNL     1      -7.051  10.354  66.907  1.00  0.00    -0.094 A  
HETATM   14  C   UNL     1      -8.240   9.680  67.175  1.00  0.00    -0.120 A  
HETATM   15 CL   UNL     1      -5.652   9.456  66.469  1.00  0.00    -0.052 Cl 
HETATM   16  C   UNL     1      -9.376  10.406  67.526  1.00  0.00    -0.163 A  
HETATM   17  C   UNL     1      -9.335  11.811  67.592  1.00  0.00    -0.180 A  
HETATM   18  N   UNL     1     -10.555  12.508  67.798  1.00  0.00    -0.215 NA 
HETATM   19  C   UNL     1     -10.977  13.422  66.807  1.00  0.00    -0.288 A  
HETATM   20  H   UNL     1     -11.112  12.353  68.637  1.00  0.00     0.000 HD 
HETATM   21  C   UNL     1     -12.223  13.233  66.191  1.00  0.00    -0.466 A  
HETATM   22  C   UNL     1     -12.601  14.002  65.087  1.00  0.00    -0.453 A  
HETATM   23  C   UNL     1     -11.734  14.963  64.577  1.00  0.00    -0.388 A  
HETATM   24  C   UNL     1     -10.500  15.172  65.187  1.00  0.00    -0.437 A  
HETATM   25  C   UNL     1     -10.128  14.420  66.314  1.00  0.00    -0.308 A  
ENDBRANCH   5   8
TORSDOF 1
ENDMDL
MODEL       53
REMARK 921   NORMALIZED FREE ENERGY PREDICTED BY IDOCK:   -5.18 KCAL/MOL
REMARK 922        TOTAL FREE ENERGY PREDICTED BY IDOCK:   -5.86 KCAL/MOL
REMARK 923 INTER-LIGAND FREE ENERGY PREDICTED BY IDOCK:   -5.49 KCAL/MOL
REMARK 924 INTRA-LIGAND FREE ENERGY PREDICTED BY IDOCK:   -0.37 KCAL/MOL
REMARK 927      BINDING AFFINITY PREDICTED BY RF-SCORE:    0.00 PKD
ROOT
HETATM    1  C   UNL     1     -10.472  18.056  67.685  1.00  0.00    -0.409 C  
HETATM    2  N   UNL     1      -9.298  17.212  67.476  1.00  0.00    -0.236 NA 
HETATM    3  C   UNL     1      -8.871  16.547  68.725  1.00  0.00    -0.255 C  
HETATM    4  C   UNL     1      -9.792  15.409  69.218  1.00  0.00    -0.262 C  
HETATM    5  N   UNL     1     -10.054  14.430  68.154  1.00  0.00    -0.221 NA 
HETATM    6  C   UNL     1      -9.535  16.173  66.447  1.00  0.00    -0.295 C  
HETATM    7  C   UNL     1     -10.462  15.011  66.869  1.00  0.00    -0.279 C  
ENDROOT
BRANCH   5   8
HETATM    8  C   UNL     1      -9.882  13.051  68.322  1.00  0.00    -0.225 C  
HETATM    9  N   UNL     1     -10.802  12.372  68.955  1.00  0.00    -0.374 NA 
HETATM   10  C   UNL     1     -10.762  10.979  69.158  1.00  0.00    -0.234 A  
HETATM   11  H   UNL     1     -11.601  12.885  69.327  1.00  0.00     0.000 HD 
HETATM   12  C   UNL     1     -11.238  10.511  70.389  1.00  0.00    -0.378 A  
HETATM   13  C   UNL     1     -11.288   9.144  70.664  1.00  0.00    -0.273 A  
HETATM   14  C   UNL     1     -10.889   8.215  69.707  1.00  0.00    -0.190 A  
HETATM   15 CL   UNL     1     -11.831   8.595  72.200  1.00  0.00    -0.437 Cl 
HETATM   16  C   UNL     1     -10.445   8.660  68.463  1.00  0.00    -0.209 A  
HETATM   17  C   UNL     1     -10.377  10.036  68.177  1.00  0.00    -0.194 A  
HETATM   18  N   UNL     1      -9.769  10.438  66.958  1.00  0.00    -0.173 NA 
HETATM   19  C   UNL     1      -8.630  11.268  67.023  1.00  0.00    -0.148 A  
HETATM   20  H   UNL     1     -10.145  10.135  66.060  1.00  0.00     0.000 HD 
HETATM   21  C   UNL     1      -7.431  10.828  66.440  1.00  0.00    -0.142 A  
HETATM   22  C   UNL     1      -6.240  11.531  66.635  1.00  0.00    -0.113 A  
HETATM   23  C   UNL     1      -6.226  12.677  67.424  1.00  0.00    -0.149 A  
HETATM   24  C   UNL     1      -7.410  13.134  67.997  1.00  0.00    -0.125 A  
HETATM   25  C   UNL     1      -8.616  12.446  67.780  1.00  0.00    -0.172 A  
ENDBRANCH   5   8
TORSDOF 1
ENDMDL
MODEL       54
REMARK 921   NORMALIZED FREE ENERGY PREDICTED BY IDOCK:   -5.15 KCAL/MOL
REMARK 922        TOTAL FREE ENERGY PREDICTED BY IDOCK:   -5.83 KCAL/MOL
REMARK 923 INTER-LIGAND FREE ENERGY PREDICTED BY IDOCK:   -6.27 KCAL/MOL
REMARK 924 INTRA-LIGAND FREE ENERGY PREDICTED BY IDOCK:    0.44 KCAL/MOL
REMARK 927      BINDING AFFINITY PREDICTED BY RF-SCORE:    0.00 PKD
ROOT
HETATM    1  C   UNL     1     -14.284  16.040  72.878  1.00  0.00     0.074 C  
HETATM    2  N   UNL     1     -12.858  15.727  72.826  1.00  0.00    -0.433 NA 
HETATM    3  C   UNL     1     -12.582  14.346  73.276  1.00  0.00    -0.227 C  
HETATM    4  C   UNL     1     -13.020  13.231  72.301  1.00  0.00    -0.271 C  
HETATM    5  N   UNL     1     -12.499  13.465  70.947  1.00  0.00    -0.371 NA 
HETATM    6  C   UNL     1     -12.299  15.898  71.464  1.00  0.00    -0.448 C  
HETATM    7  C   UNL     1     -12.711  14.824  70.432  1.00  0.00    -0.316 C  
ENDROOT
BRANCH   5   8
HETATM    8  C   UNL     1     -11.806  12.496  70.214  1.00  0.00    -0.223 C  
HETATM    9  N   UNL     1     -11.796  11.262  70.649  1.00  0.00    -0.413 NA 
HETATM   10  C   UNL     1     -11.166  10.192  69.985  1.00  0.00    -0.299 A  
HETATM   11  H   UNL     1     -12.276  11.063  71.526  1.00  0.00     0.000 HD 
HETATM   12  C   UNL     1     -10.537   9.236  70.794  1.00  0.00    -0.351 A  
HETATM   13  C   UNL     1      -9.931   8.112  70.233  1.00  0.00    -0.189 A  
HETATM   14  C   UNL     1      -9.963   7.904  68.856  1.00  0.00    -0.194 A  
HETATM   15 CL   UNL     1      -9.123   6.977  71.240  1.00  0.00    -0.151 Cl 
HETATM   16  C   UNL     1     -10.613   8.826  68.038  1.00  0.00    -0.218 A  
HETATM   17  C   UNL     1     -11.218   9.971  68.589  1.00  0.00    -0.121 A  
HETATM   18  N   UNL     1     -11.726  10.954  67.700  1.00  0.00    -0.623 NA 
HETATM   19  C   UNL     1     -11.186  12.257  67.766  1.00  0.00    -0.276 A  
HETATM   20  H   UNL     1     -12.461  10.726  67.031  1.00  0.00     0.000 HD 
HETATM   21  C   UNL     1     -10.594  12.809  66.619  1.00  0.00    -0.272 A  
HETATM   22  C   UNL     1      -9.892  14.015  66.685  1.00  0.00    -0.288 A  
HETATM   23  C   UNL     1      -9.761  14.680  67.900  1.00  0.00    -0.216 A  
HETATM   24  C   UNL     1     -10.355  14.152  69.044  1.00  0.00    -0.159 A  
HETATM   25  C   UNL     1     -11.086  12.954  68.976  1.00  0.00    -0.284 A  
ENDBRANCH   5   8
TORSDOF 1
ENDMDL
MODEL       55
REMARK 921   NORMALIZED FREE ENERGY PREDICTED BY IDOCK:   -5.15 KCAL/MOL
REMARK 922        TOTAL FREE ENERGY PREDICTED BY IDOCK:   -5.83 KCAL/MOL
REMARK 923 INTER-LIGAND FREE ENERGY PREDICTED BY IDOCK:   -5.88 KCAL/MOL
REMARK 924 INTRA-LIGAND FREE ENERGY PREDICTED BY IDOCK:    0.05 KCAL/MOL
REMARK 927      BINDING AFFINITY PREDICTED BY RF-SCORE:    0.00 PKD
ROOT
HETATM    1  C   UNL     1     -12.083  15.768  72.581  1.00  0.00    -0.486 C  
HETATM    2  N   UNL     1     -12.532  15.837  71.193  1.00  0.00    -0.444 NA 
HETATM    3  C   UNL     1     -11.399  16.003  70.258  1.00  0.00    -0.382 C  
HETATM    4  C   UNL     1     -10.507  14.756  70.069  1.00  0.00     0.045 C  
HETATM    5  N   UNL     1     -11.306  13.569  69.735  1.00  0.00    -0.153 NA 
HETATM    6  C   UNL     1     -13.298  14.633  70.795  1.00  0.00    -0.222 C  
HETATM    7  C   UNL     1     -12.468  13.344  70.604  1.00  0.00    -0.311 C  
ENDROOT
BRANCH   5   8
HETATM    8  C   UNL     1     -11.025  12.738  68.645  1.00  0.00    -0.260 C  
HETATM    9  N   UNL     1     -11.270  13.175  67.437  1.00  0.00    -0.275 NA 
HETATM   10  C   UNL     1     -10.998  12.450  66.261  1.00  0.00    -0.286 A  
HETATM   11  H   UNL     1     -11.684  14.102  67.341  1.00  0.00     0.000 HD 
HETATM   12  C   UNL     1     -11.930  12.571  65.221  1.00  0.00    -0.490 A  
HETATM   13  C   UNL     1     -11.724  11.933  63.998  1.00  0.00    -0.378 A  
HETATM   14  C   UNL     1     -10.571  11.184  63.777  1.00  0.00    -0.422 A  
HETATM   15 CL   UNL     1     -12.903  12.056  62.753  1.00  0.00     0.232 Cl 
HETATM   16  C   UNL     1      -9.617  11.079  64.786  1.00  0.00    -0.292 A  
HETATM   17  C   UNL     1      -9.817  11.707  66.030  1.00  0.00    -0.230 A  
HETATM   18  N   UNL     1      -8.893  11.438  67.073  1.00  0.00    -0.163 NA 
HETATM   19  C   UNL     1      -9.379  10.847  68.259  1.00  0.00    -0.168 A  
HETATM   20  H   UNL     1      -7.905  11.666  66.969  1.00  0.00     0.000 HD 
HETATM   21  C   UNL     1      -8.844   9.619  68.678  1.00  0.00    -0.128 A  
HETATM   22  C   UNL     1      -9.415   8.913  69.740  1.00  0.00    -0.174 A  
HETATM   23  C   UNL     1     -10.536   9.418  70.391  1.00  0.00    -0.311 A  
HETATM   24  C   UNL     1     -11.069  10.642  69.996  1.00  0.00    -0.359 A  
HETATM   25  C   UNL     1     -10.481  11.368  68.947  1.00  0.00    -0.219 A  
ENDBRANCH   5   8
TORSDOF 1
ENDMDL
MODEL       56
REMARK 921   NORMALIZED FREE ENERGY PREDICTED BY IDOCK:   -5.11 KCAL/MOL
REMARK 922        TOTAL FREE ENERGY PREDICTED BY IDOCK:   -5.79 KCAL/MOL
REMARK 923 INTER-LIGAND FREE ENERGY PREDICTED BY IDOCK:   -5.39 KCAL/MOL
REMARK 924 INTRA-LIGAND FREE ENERGY PREDICTED BY IDOCK:   -0.41 KCAL/MOL
REMARK 927      BINDING AFFINITY PREDICTED BY RF-SCORE:    0.00 PKD
ROOT
HETATM    1  C   UNL     1     -12.210  12.982  63.347  1.00  0.00    -0.472 C  
HETATM    2  N   UNL     1     -10.944  13.174  64.049  1.00  0.00    -0.385 NA 
HETATM    3  C   UNL     1     -11.150  13.449  65.487  1.00  0.00    -0.282 C  
HETATM    4  C   UNL     1     -11.613  12.242  66.332  1.00  0.00    -0.383 C  
HETATM    5  N   UNL     1     -10.739  11.077  66.131  1.00  0.00    -0.231 NA 
HETATM    6  C   UNL     1     -10.050  12.000  63.918  1.00  0.00    -0.369 C  
HETATM    7  C   UNL     1     -10.464  10.750  64.726  1.00  0.00    -0.265 C  
ENDROOT
BRANCH   5   8
HETATM    8  C   UNL     1     -10.165  10.359  67.185  1.00  0.00    -0.222 C  
HETATM    9  N   UNL     1     -10.944   9.681  67.987  1.00  0.00    -0.475 NA 
HETATM   10  C   UNL     1     -10.486   8.892  69.059  1.00  0.00    -0.214 A  
HETATM   11  H   UNL     1     -11.950   9.726  67.824  1.00  0.00     0.000 HD 
HETATM   12  C   UNL     1     -11.269   8.900  70.221  1.00  0.00    -0.219 A  
HETATM   13  C   UNL     1     -10.926   8.111  71.319  1.00  0.00    -0.240 A  
HETATM   14  C   UNL     1      -9.812   7.277  71.272  1.00  0.00    -0.183 A  
HETATM   15 CL   UNL     1     -11.874   8.172  72.753  1.00  0.00    -0.398 Cl 
HETATM   16  C   UNL     1      -9.040   7.230  70.112  1.00  0.00    -0.148 A  
HETATM   17  C   UNL     1      -9.367   8.030  69.002  1.00  0.00    -0.147 A  
HETATM   18  N   UNL     1      -8.460   8.062  67.909  1.00  0.00    -0.125 NA 
HETATM   19  C   UNL     1      -7.888   9.303  67.554  1.00  0.00    -0.096 A  
HETATM   20  H   UNL     1      -8.227   7.213  67.396  1.00  0.00     0.000 HD 
HETATM   21  C   UNL     1      -6.491   9.437  67.562  1.00  0.00    -0.063 A  
HETATM   22  C   UNL     1      -5.890  10.687  67.393  1.00  0.00    -0.045 A  
HETATM   23  C   UNL     1      -6.677  11.823  67.225  1.00  0.00    -0.133 A  
HETATM   24  C   UNL     1      -8.064  11.703  67.200  1.00  0.00    -0.166 A  
HETATM   25  C   UNL     1      -8.671  10.444  67.342  1.00  0.00    -0.125 A  
ENDBRANCH   5   8
TORSDOF 1
ENDMDL
MODEL       57
REMARK 921   NORMALIZED FREE ENERGY PREDICTED BY IDOCK:   -5.10 KCAL/MOL
REMARK 922        TOTAL FREE ENERGY PREDICTED BY IDOCK:   -5.77 KCAL/MOL
REMARK 923 INTER-LIGAND FREE ENERGY PREDICTED BY IDOCK:   -5.42 KCAL/MOL
REMARK 924 INTRA-LIGAND FREE ENERGY PREDICTED BY IDOCK:   -0.35 KCAL/MOL
REMARK 927      BINDING AFFINITY PREDICTED BY RF-SCORE:    0.00 PKD
ROOT
HETATM    1  C   UNL     1     -11.541   6.643  71.864  1.00  0.00    -0.303 C  
HETATM    2  N   UNL     1     -10.207   7.090  71.473  1.00  0.00    -0.198 NA 
HETATM    3  C   UNL     1      -9.982   6.942  70.019  1.00  0.00    -0.180 C  
HETATM    4  C   UNL     1     -10.747   7.942  69.125  1.00  0.00    -0.117 C  
HETATM    5  N   UNL     1     -10.528   9.328  69.560  1.00  0.00    -0.214 NA 
HETATM    6  C   UNL     1      -9.961   8.503  71.845  1.00  0.00    -0.294 C  
HETATM    7  C   UNL     1     -10.709   9.558  70.999  1.00  0.00    -0.340 C  
ENDROOT
BRANCH   5   8
HETATM    8  C   UNL     1     -10.128  10.350  68.691  1.00  0.00    -0.176 C  
HETATM    9  N   UNL     1     -11.029  10.932  67.943  1.00  0.00    -0.249 NA 
HETATM   10  C   UNL     1     -10.758  11.993  67.057  1.00  0.00    -0.242 A  
HETATM   11  H   UNL     1     -11.989  10.595  68.005  1.00  0.00     0.000 HD 
HETATM   12  C   UNL     1     -11.458  11.989  65.843  1.00  0.00    -0.392 A  
HETATM   13  C   UNL     1     -11.298  13.024  64.922  1.00  0.00    -0.303 A  
HETATM   14  C   UNL     1     -10.459  14.099  65.205  1.00  0.00    -0.422 A  
HETATM   15 CL   UNL     1     -12.131  12.975  63.419  1.00  0.00    -0.630 Cl 
HETATM   16  C   UNL     1      -9.780  14.138  66.421  1.00  0.00    -0.313 A  
HETATM   17  C   UNL     1      -9.922  13.094  67.354  1.00  0.00    -0.229 A  
HETATM   18  N   UNL     1      -9.089  13.105  68.504  1.00  0.00    -0.358 NA 
HETATM   19  C   UNL     1      -8.215  12.015  68.705  1.00  0.00    -0.052 A  
HETATM   20  H   UNL     1      -9.121  13.879  69.167  1.00  0.00     0.000 HD 
HETATM   21  C   UNL     1      -6.835  12.257  68.801  1.00  0.00    -0.092 A  
HETATM   22  C   UNL     1      -5.922  11.199  68.820  1.00  0.00    -0.043 A  
HETATM   23  C   UNL     1      -6.374   9.886  68.731  1.00  0.00    -0.045 A  
HETATM   24  C   UNL     1      -7.740   9.631  68.649  1.00  0.00    -0.080 A  
HETATM   25  C   UNL     1      -8.663  10.690  68.659  1.00  0.00    -0.148 A  
ENDBRANCH   5   8
TORSDOF 1
ENDMDL
MODEL       58
REMARK 921   NORMALIZED FREE ENERGY PREDICTED BY IDOCK:   -5.08 KCAL/MOL
REMARK 922        TOTAL FREE ENERGY PREDICTED BY IDOCK:   -5.75 KCAL/MOL
REMARK 923 INTER-LIGAND FREE ENERGY PREDICTED BY IDOCK:   -5.36 KCAL/MOL
REMARK 924 INTRA-LIGAND FREE ENERGY PREDICTED BY IDOCK:   -0.39 KCAL/MOL
REMARK 927      BINDING AFFINITY PREDICTED BY RF-SCORE:    0.00 PKD
ROOT
HETATM    1  C   UNL     1      -5.245   5.833  67.852  1.00  0.00    -0.004 C  
HETATM    2  N   UNL     1      -6.239   6.409  66.950  1.00  0.00    -0.038 NA 
HETATM    3  C   UNL     1      -7.598   5.899  67.232  1.00  0.00    -0.096 C  
HETATM    4  C   UNL     1      -8.246   6.424  68.532  1.00  0.00    -0.113 C  
HETATM    5  N   UNL     1      -8.203   7.891  68.599  1.00  0.00    -0.126 NA 
HETATM    6  C   UNL     1      -6.268   7.889  67.025  1.00  0.00    -0.054 C  
HETATM    7  C   UNL     1      -6.891   8.482  68.308  1.00  0.00    -0.066 C  
ENDROOT
BRANCH   5   8
HETATM    8  C   UNL     1      -9.327   8.679  68.868  1.00  0.00    -0.145 C  
HETATM    9  N   UNL     1      -9.922   8.558  70.026  1.00  0.00    -0.185 NA 
HETATM   10  C   UNL     1     -11.037   9.318  70.428  1.00  0.00    -0.255 A  
HETATM   11  H   UNL     1      -9.554   7.869  70.681  1.00  0.00     0.000 HD 
HETATM   12  C   UNL     1     -12.009   8.651  71.187  1.00  0.00    -0.320 A  
HETATM   13  C   UNL     1     -13.125   9.331  71.676  1.00  0.00    -0.382 A  
HETATM   14  C   UNL     1     -13.281  10.694  71.443  1.00  0.00    -0.420 A  
HETATM   15 CL   UNL     1     -14.328   8.482  72.563  1.00  0.00    -0.407 Cl 
HETATM   16  C   UNL     1     -12.308  11.382  70.720  1.00  0.00    -0.483 A  
HETATM   17  C   UNL     1     -11.184  10.707  70.209  1.00  0.00    -0.285 A  
HETATM   18  N   UNL     1     -10.309  11.420  69.348  1.00  0.00    -0.435 NA 
HETATM   19  C   UNL     1     -10.127  10.938  68.034  1.00  0.00    -0.177 A  
HETATM   20  H   UNL     1      -9.824  12.258  69.670  1.00  0.00     0.000 HD 
HETATM   21  C   UNL     1     -10.433  11.777  66.951  1.00  0.00    -0.256 A  
HETATM   22  C   UNL     1     -10.439  11.285  65.643  1.00  0.00    -0.317 A  
HETATM   23  C   UNL     1     -10.152   9.946  65.400  1.00  0.00    -0.270 A  
HETATM   24  C   UNL     1      -9.832   9.105  66.463  1.00  0.00    -0.333 A  
HETATM   25  C   UNL     1      -9.797   9.602  67.776  1.00  0.00    -0.192 A  
ENDBRANCH   5   8
TORSDOF 1
ENDMDL
MODEL       59
REMARK 921   NORMALIZED FREE ENERGY PREDICTED BY IDOCK:   -5.03 KCAL/MOL
REMARK 922        TOTAL FREE ENERGY PREDICTED BY IDOCK:   -5.70 KCAL/MOL
REMARK 923 INTER-LIGAND FREE ENERGY PREDICTED BY IDOCK:   -5.29 KCAL/MOL
REMARK 924 INTRA-LIGAND FREE ENERGY PREDICTED BY IDOCK:   -0.40 KCAL/MOL
REMARK 927      BINDING AFFINITY PREDICTED BY RF-SCORE:    0.00 PKD
ROOT
HETATM    1  C   UNL     1     -10.485  13.864  66.340  1.00  0.00    -0.284 C  
HETATM    2  N   UNL     1     -10.042  12.532  65.939  1.00  0.00    -0.252 NA 
HETATM    3  C   UNL     1      -8.845  12.101  66.692  1.00  0.00    -0.182 C  
HETATM    4  C   UNL     1      -9.088  11.743  68.175  1.00  0.00    -0.185 C  
HETATM    5  N   UNL     1     -10.186  10.778  68.322  1.00  0.00    -0.161 NA 
HETATM    6  C   UNL     1     -11.103  11.514  66.121  1.00  0.00    -0.244 C  
HETATM    7  C   UNL     1     -11.409  11.119  67.583  1.00  0.00    -0.284 C  
ENDROOT
BRANCH   5   8
HETATM    8  C   UNL     1     -10.074   9.595  69.061  1.00  0.00    -0.186 C  
HETATM    9  N   UNL     1      -9.913   9.673  70.356  1.00  0.00    -0.267 NA 
HETATM   10  C   UNL     1      -9.822   8.558  71.213  1.00  0.00    -0.216 A  
HETATM   11  H   UNL     1      -9.849  10.601  70.774  1.00  0.00     0.000 HD 
HETATM   12  C   UNL     1      -8.921   8.661  72.281  1.00  0.00    -0.245 A  
HETATM   13  C   UNL     1      -8.798   7.631  73.213  1.00  0.00    -0.199 A  
HETATM   14  C   UNL     1      -9.589   6.489  73.116  1.00  0.00    -0.164 A  
HETATM   15 CL   UNL     1      -7.651   7.757  74.488  1.00  0.00    -0.196 Cl 
HETATM   16  C   UNL     1     -10.516   6.384  72.080  1.00  0.00    -0.234 A  
HETATM   17  C   UNL     1     -10.642   7.409  71.125  1.00  0.00    -0.222 A  
HETATM   18  N   UNL     1     -11.484   7.182  70.005  1.00  0.00    -0.484 NA 
HETATM   19  C   UNL     1     -10.908   7.224  68.717  1.00  0.00    -0.086 A  
HETATM   20  H   UNL     1     -12.479   6.992  70.127  1.00  0.00     0.000 HD 
HETATM   21  C   UNL     1     -11.001   6.094  67.890  1.00  0.00    -0.399 A  
HETATM   22  C   UNL     1     -10.296   6.027  66.686  1.00  0.00    -0.264 A  
HETATM   23  C   UNL     1      -9.478   7.083  66.297  1.00  0.00    -0.127 A  
HETATM   24  C   UNL     1      -9.387   8.217  67.099  1.00  0.00    -0.183 A  
HETATM   25  C   UNL     1     -10.116   8.300  68.297  1.00  0.00    -0.231 A  
ENDBRANCH   5   8
TORSDOF 1
ENDMDL
MODEL       60
REMARK 921   NORMALIZED FREE ENERGY PREDICTED BY IDOCK:   -5.02 KCAL/MOL
REMARK 922        TOTAL FREE ENERGY PREDICTED BY IDOCK:   -5.69 KCAL/MOL
REMARK 923 INTER-LIGAND FREE ENERGY PREDICTED BY IDOCK:   -5.30 KCAL/MOL
REMARK 924 INTRA-LIGAND FREE ENERGY PREDICTED BY IDOCK:   -0.40 KCAL/MOL
REMARK 927      BINDING AFFINITY PREDICTED BY RF-SCORE:    0.00 PKD
ROOT
HETATM    1  C   UNL     1      -7.235  20.933  66.626  1.00  0.00    -0.130 C  
HETATM    2  N   UNL     1      -8.092  20.401  67.683  1.00  0.00    -0.279 NA 
HETATM    3  C   UNL     1      -9.456  20.114  67.192  1.00  0.00    -0.406 C  
HETATM    4  C   UNL     1      -9.581  18.887  66.262  1.00  0.00    -0.319 C  
HETATM    5  N   UNL     1      -8.966  17.694  66.860  1.00  0.00    -0.239 NA 
HETATM    6  C   UNL     1      -7.536  19.164  68.280  1.00  0.00    -0.304 C  
HETATM    7  C   UNL     1      -7.615  17.900  67.395  1.00  0.00    -0.206 C  
ENDROOT
BRANCH   5   8
HETATM    8  C   UNL     1      -9.625  16.464  66.966  1.00  0.00    -0.237 C  
HETATM    9  N   UNL     1      -9.764  15.727  65.894  1.00  0.00    -0.336 NA 
HETATM   10  C   UNL     1     -10.374  14.458  65.878  1.00  0.00    -0.314 A  
HETATM   11  H   UNL     1      -9.406  16.095  65.013  1.00  0.00     0.000 HD 
HETATM   12  C   UNL     1     -11.154  14.153  64.754  1.00  0.00    -0.393 A  
HETATM   13  C   UNL     1     -11.757  12.903  64.621  1.00  0.00    -0.359 A  
HETATM   14  C   UNL     1     -11.573  11.921  65.591  1.00  0.00    -0.275 A  
HETATM   15 CL   UNL     1     -12.749  12.567  63.257  1.00  0.00    -0.361 Cl 
HETATM   16  C   UNL     1     -10.774  12.194  66.699  1.00  0.00    -0.281 A  
HETATM   17  C   UNL     1     -10.169  13.455  66.853  1.00  0.00    -0.252 A  
HETATM   18  N   UNL     1      -9.498  13.732  68.073  1.00  0.00    -0.201 NA 
HETATM   19  C   UNL     1      -9.960  14.810  68.860  1.00  0.00    -0.233 A  
HETATM   20  H   UNL     1      -8.704  13.168  68.374  1.00  0.00     0.000 HD 
HETATM   21  C   UNL     1     -10.375  14.564  70.178  1.00  0.00     0.396 A  
HETATM   22  C   UNL     1     -11.004  15.560  70.929  1.00  0.00    -0.333 A  
HETATM   23  C   UNL     1     -11.238  16.812  70.369  1.00  0.00     0.205 A  
HETATM   24  C   UNL     1     -10.820  17.076  69.068  1.00  0.00    -0.206 A  
HETATM   25  C   UNL     1     -10.162  16.086  68.319  1.00  0.00    -0.237 A  
ENDBRANCH   5   8
TORSDOF 1
ENDMDL
MODEL       61
REMARK 921   NORMALIZED FREE ENERGY PREDICTED BY IDOCK:   -5.01 KCAL/MOL
REMARK 922        TOTAL FREE ENERGY PREDICTED BY IDOCK:   -5.68 KCAL/MOL
REMARK 923 INTER-LIGAND FREE ENERGY PREDICTED BY IDOCK:   -5.50 KCAL/MOL
REMARK 924 INTRA-LIGAND FREE ENERGY PREDICTED BY IDOCK:   -0.18 KCAL/MOL
REMARK 927      BINDING AFFINITY PREDICTED BY RF-SCORE:    0.00 PKD
ROOT
HETATM    1  C   UNL     1      -7.794   7.859  74.400  1.00  0.00    -0.223 C  
HETATM    2  N   UNL     1      -8.285   7.086  73.262  1.00  0.00    -0.107 NA 
HETATM    3  C   UNL     1      -9.698   7.397  72.956  1.00  0.00    -0.206 C  
HETATM    4  C   UNL     1      -9.950   8.782  72.322  1.00  0.00    -0.232 C  
HETATM    5  N   UNL     1      -9.091   9.002  71.151  1.00  0.00    -0.245 NA 
HETATM    6  C   UNL     1      -7.478   7.319  72.041  1.00  0.00    -0.080 C  
HETATM    7  C   UNL     1      -7.671   8.694  71.363  1.00  0.00    -0.122 C  
ENDROOT
BRANCH   5   8
HETATM    8  C   UNL     1      -9.580   9.422  69.909  1.00  0.00    -0.212 C  
HETATM    9  N   UNL     1      -9.607  10.701  69.640  1.00  0.00    -0.431 NA 
HETATM   10  C   UNL     1     -10.042  11.245  68.417  1.00  0.00    -0.195 A  
HETATM   11  H   UNL     1      -9.292  11.347  70.364  1.00  0.00     0.000 HD 
HETATM   12  C   UNL     1     -10.762  12.446  68.486  1.00  0.00    -0.262 A  
HETATM   13  C   UNL     1     -11.191  13.090  67.325  1.00  0.00    -0.289 A  
HETATM   14  C   UNL     1     -10.888  12.566  66.072  1.00  0.00    -0.309 A  
HETATM   15 CL   UNL     1     -12.114  14.537  67.436  1.00  0.00    -0.369 Cl 
HETATM   16  C   UNL     1     -10.144  11.391  65.981  1.00  0.00    -0.275 A  
HETATM   17  C   UNL     1      -9.715  10.723  67.144  1.00  0.00    -0.170 A  
HETATM   18  N   UNL     1      -9.100   9.452  66.998  1.00  0.00    -0.133 NA 
HETATM   19  C   UNL     1      -9.711   8.340  67.618  1.00  0.00    -0.159 A  
HETATM   20  H   UNL     1      -8.241   9.344  66.460  1.00  0.00     0.000 HD 
HETATM   21  C   UNL     1     -10.103   7.249  66.828  1.00  0.00    -0.291 A  
HETATM   22  C   UNL     1     -10.868   6.211  67.367  1.00  0.00    -0.431 A  
HETATM   23  C   UNL     1     -11.262   6.256  68.701  1.00  0.00    -0.328 A  
HETATM   24  C   UNL     1     -10.868   7.326  69.501  1.00  0.00    -0.224 A  
HETATM   25  C   UNL     1     -10.075   8.357  68.970  1.00  0.00    -0.209 A  
ENDBRANCH   5   8
TORSDOF 1
ENDMDL
MODEL       62
REMARK 921   NORMALIZED FREE ENERGY PREDICTED BY IDOCK:   -4.97 KCAL/MOL
REMARK 922        TOTAL FREE ENERGY PREDICTED BY IDOCK:   -5.64 KCAL/MOL
REMARK 923 INTER-LIGAND FREE ENERGY PREDICTED BY IDOCK:   -6.20 KCAL/MOL
REMARK 924 INTRA-LIGAND FREE ENERGY PREDICTED BY IDOCK:    0.56 KCAL/MOL
REMARK 927      BINDING AFFINITY PREDICTED BY RF-SCORE:    0.00 PKD
ROOT
HETATM    1  C   UNL     1      -6.090  10.623  68.097  1.00  0.00    -0.050 C  
HETATM    2  N   UNL     1      -7.186  11.188  68.880  1.00  0.00    -0.098 NA 
HETATM    3  C   UNL     1      -6.896  12.572  69.311  1.00  0.00    -0.019 C  
HETATM    4  C   UNL     1      -6.941  13.638  68.194  1.00  0.00    -0.119 C  
HETATM    5  N   UNL     1      -8.197  13.568  67.434  1.00  0.00    -0.179 NA 
HETATM    6  C   UNL     1      -8.465  11.187  68.132  1.00  0.00    -0.138 C  
HETATM    7  C   UNL     1      -8.571  12.220  66.987  1.00  0.00    -0.191 C  
ENDROOT
BRANCH   5   8
HETATM    8  C   UNL     1      -9.009  14.681  67.193  1.00  0.00    -0.225 C  
HETATM    9  N   UNL     1      -8.634  15.848  67.648  1.00  0.00    -0.161 NA 
HETATM   10  C   UNL     1      -9.345  17.046  67.441  1.00  0.00    -0.239 A  
HETATM   11  H   UNL     1      -7.771  15.893  68.189  1.00  0.00     0.000 HD 
HETATM   12  C   UNL     1      -9.367  17.953  68.509  1.00  0.00    -0.299 A  
HETATM   13  C   UNL     1     -10.001  19.189  68.383  1.00  0.00    -0.418 A  
HETATM   14  C   UNL     1     -10.602  19.558  67.182  1.00  0.00    -0.605 A  
HETATM   15 CL   UNL     1     -10.058  20.267  69.722  1.00  0.00     0.023 Cl 
HETATM   16  C   UNL     1     -10.560  18.683  66.098  1.00  0.00    -0.409 A  
HETATM   17  C   UNL     1      -9.935  17.428  66.214  1.00  0.00    -0.297 A  
HETATM   18  N   UNL     1     -10.060  16.515  65.134  1.00  0.00    -0.483 NA 
HETATM   19  C   UNL     1     -10.682  15.271  65.380  1.00  0.00    -0.391 A  
HETATM   20  H   UNL     1      -9.710  16.750  64.206  1.00  0.00     0.000 HD 
HETATM   21  C   UNL     1     -11.822  14.921  64.639  1.00  0.00    -0.412 A  
HETATM   22  C   UNL     1     -12.571  13.789  64.969  1.00  0.00    -0.427 A  
HETATM   23  C   UNL     1     -12.199  12.997  66.052  1.00  0.00    -0.463 A  
HETATM   24  C   UNL     1     -11.062  13.325  66.787  1.00  0.00    -0.313 A  
HETATM   25  C   UNL     1     -10.290  14.446  66.441  1.00  0.00    -0.289 A  
ENDBRANCH   5   8
TORSDOF 1
ENDMDL
MODEL       63
REMARK 921   NORMALIZED FREE ENERGY PREDICTED BY IDOCK:   -4.96 KCAL/MOL
REMARK 922        TOTAL FREE ENERGY PREDICTED BY IDOCK:   -5.63 KCAL/MOL
REMARK 923 INTER-LIGAND FREE ENERGY PREDICTED BY IDOCK:   -5.22 KCAL/MOL
REMARK 924 INTRA-LIGAND FREE ENERGY PREDICTED BY IDOCK:   -0.41 KCAL/MOL
REMARK 927      BINDING AFFINITY PREDICTED BY RF-SCORE:    0.00 PKD
ROOT
HETATM    1  C   UNL     1     -10.400  17.263  67.751  1.00  0.00    -0.356 C  
HETATM    2  N   UNL     1     -11.101  16.112  68.315  1.00  0.00    -0.345 NA 
HETATM    3  C   UNL     1     -11.660  15.240  67.261  1.00  0.00    -0.157 C  
HETATM    4  C   UNL     1     -10.624  14.414  66.466  1.00  0.00    -0.296 C  
HETATM    5  N   UNL     1      -9.732  13.665  67.361  1.00  0.00    -0.224 NA 
HETATM    6  C   UNL     1     -10.222  15.296  69.185  1.00  0.00    -0.242 C  
HETATM    7  C   UNL     1      -9.150  14.456  68.454  1.00  0.00    -0.193 C  
ENDROOT
BRANCH   5   8
HETATM    8  C   UNL     1      -9.486  12.294  67.227  1.00  0.00    -0.186 C  
HETATM    9  N   UNL     1      -8.825  11.870  66.181  1.00  0.00    -0.373 NA 
HETATM   10  C   UNL     1      -8.485  10.523  65.951  1.00  0.00    -0.162 A  
HETATM   11  H   UNL     1      -8.537  12.560  65.487  1.00  0.00     0.000 HD 
HETATM   12  C   UNL     1      -8.545  10.081  64.623  1.00  0.00    -0.191 A  
HETATM   13  C   UNL     1      -8.178   8.778  64.285  1.00  0.00    -0.163 A  
HETATM   14  C   UNL     1      -7.716   7.898  65.261  1.00  0.00    -0.097 A  
HETATM   15 CL   UNL     1      -8.306   8.242  62.657  1.00  0.00    -0.162 Cl 
HETATM   16  C   UNL     1      -7.617   8.331  66.582  1.00  0.00    -0.090 A  
HETATM   17  C   UNL     1      -7.996   9.638  66.939  1.00  0.00    -0.105 A  
HETATM   18  N   UNL     1      -8.025   9.974  68.318  1.00  0.00    -0.096 NA 
HETATM   19  C   UNL     1      -9.255  10.383  68.879  1.00  0.00    -0.177 A  
HETATM   20  H   UNL     1      -7.182   9.922  68.888  1.00  0.00     0.000 HD 
HETATM   21  C   UNL     1      -9.785   9.661  69.959  1.00  0.00    -0.280 A  
HETATM   22  C   UNL     1     -11.076   9.917  70.427  1.00  0.00    -0.382 A  
HETATM   23  C   UNL     1     -11.860  10.890  69.815  1.00  0.00    -0.419 A  
HETATM   24  C   UNL     1     -11.342  11.625  68.752  1.00  0.00    -0.324 A  
HETATM   25  C   UNL     1     -10.034  11.390  68.296  1.00  0.00    -0.203 A  
ENDBRANCH   5   8
TORSDOF 1
ENDMDL
MODEL       64
REMARK 921   NORMALIZED FREE ENERGY PREDICTED BY IDOCK:   -4.91 KCAL/MOL
REMARK 922        TOTAL FREE ENERGY PREDICTED BY IDOCK:   -5.58 KCAL/MOL
REMARK 923 INTER-LIGAND FREE ENERGY PREDICTED BY IDOCK:   -5.17 KCAL/MOL
REMARK 924 INTRA-LIGAND FREE ENERGY PREDICTED BY IDOCK:   -0.41 KCAL/MOL
REMARK 927      BINDING AFFINITY PREDICTED BY RF-SCORE:    0.00 PKD
ROOT
HETATM    1  C   UNL     1      -5.878   8.950  68.398  1.00  0.00    -0.041 C  
HETATM    2  N   UNL     1      -7.281   9.342  68.511  1.00  0.00    -0.072 NA 
HETATM    3  C   UNL     1      -7.475  10.401  69.524  1.00  0.00    -0.148 C  
HETATM    4  C   UNL     1      -6.956  11.800  69.128  1.00  0.00    -0.091 C  
HETATM    5  N   UNL     1      -7.474  12.215  67.816  1.00  0.00    -0.111 NA 
HETATM    6  C   UNL     1      -7.832   9.818  67.221  1.00  0.00    -0.098 C  
HETATM    7  C   UNL     1      -7.341  11.208  66.756  1.00  0.00    -0.146 C  
ENDROOT
BRANCH   5   8
HETATM    8  C   UNL     1      -8.095  13.448  67.593  1.00  0.00    -0.175 C  
HETATM    9  N   UNL     1      -7.386  14.541  67.697  1.00  0.00    -0.169 NA 
HETATM   10  C   UNL     1      -7.885  15.837  67.462  1.00  0.00    -0.159 A  
HETATM   11  H   UNL     1      -6.406  14.450  67.965  1.00  0.00     0.000 HD 
HETATM   12  C   UNL     1      -7.408  16.853  68.301  1.00  0.00    -0.193 A  
HETATM   13  C   UNL     1      -7.804  18.178  68.115  1.00  0.00    -0.280 A  
HETATM   14  C   UNL     1      -8.662  18.521  67.073  1.00  0.00    -0.278 A  
HETATM   15 CL   UNL     1      -7.244  19.401  69.186  1.00  0.00    -0.391 Cl 
HETATM   16  C   UNL     1      -9.120  17.529  66.208  1.00  0.00    -0.221 A  
HETATM   17  C   UNL     1      -8.739  16.187  66.391  1.00  0.00    -0.325 A  
HETATM   18  N   UNL     1      -9.358  15.198  65.581  1.00  0.00    -0.438 NA 
HETATM   19  C   UNL     1     -10.099  14.181  66.220  1.00  0.00    -0.300 A  
HETATM   20  H   UNL     1      -9.271  15.223  64.566  1.00  0.00     0.000 HD 
HETATM   21  C   UNL     1     -11.455  14.018  65.896  1.00  0.00    -0.330 A  
HETATM   22  C   UNL     1     -12.267  13.149  66.628  1.00  0.00    -0.331 A  
HETATM   23  C   UNL     1     -11.739  12.438  67.702  1.00  0.00    -0.412 A  
HETATM   24  C   UNL     1     -10.392  12.578  68.026  1.00  0.00    -0.226 A  
HETATM   25  C   UNL     1      -9.566  13.430  67.274  1.00  0.00    -0.234 A  
ENDBRANCH   5   8
TORSDOF 1
ENDMDL
MODEL       65
REMARK 921   NORMALIZED FREE ENERGY PREDICTED BY IDOCK:   -4.90 KCAL/MOL
REMARK 922        TOTAL FREE ENERGY PREDICTED BY IDOCK:   -5.57 KCAL/MOL
REMARK 923 INTER-LIGAND FREE ENERGY PREDICTED BY IDOCK:   -5.19 KCAL/MOL
REMARK 924 INTRA-LIGAND FREE ENERGY PREDICTED BY IDOCK:   -0.38 KCAL/MOL
REMARK 927      BINDING AFFINITY PREDICTED BY RF-SCORE:    0.00 PKD
ROOT
HETATM    1  C   UNL     1     -10.088   5.040  69.884  1.00  0.00    -0.274 C  
HETATM    2  N   UNL     1     -11.079   6.045  69.507  1.00  0.00    -0.403 NA 
HETATM    3  C   UNL     1     -10.923   7.290  70.288  1.00  0.00    -0.260 C  
HETATM    4  C   UNL     1      -9.690   8.147  69.929  1.00  0.00    -0.176 C  
HETATM    5  N   UNL     1      -9.620   8.412  68.485  1.00  0.00    -0.147 NA 
HETATM    6  C   UNL     1     -11.009   6.382  68.065  1.00  0.00    -0.311 C  
HETATM    7  C   UNL     1      -9.790   7.227  67.634  1.00  0.00    -0.151 C  
ENDROOT
BRANCH   5   8
HETATM    8  C   UNL     1      -9.458   9.693  67.947  1.00  0.00    -0.131 C  
HETATM    9  N   UNL     1     -10.455  10.237  67.300  1.00  0.00    -0.236 NA 
HETATM   10  C   UNL     1     -10.428  11.531  66.744  1.00  0.00    -0.239 A  
HETATM   11  H   UNL     1     -11.308   9.689  67.190  1.00  0.00     0.000 HD 
HETATM   12  C   UNL     1     -11.080  11.698  65.515  1.00  0.00    -0.297 A  
HETATM   13  C   UNL     1     -11.153  12.953  64.909  1.00  0.00    -0.297 A  
HETATM   14  C   UNL     1     -10.602  14.071  65.529  1.00  0.00    -0.327 A  
HETATM   15 CL   UNL     1     -11.916  13.126  63.378  1.00  0.00    -0.594 Cl 
HETATM   16  C   UNL     1      -9.979  13.931  66.768  1.00  0.00    -0.269 A  
HETATM   17  C   UNL     1      -9.887  12.669  67.385  1.00  0.00    -0.205 A  
HETATM   18  N   UNL     1      -9.106  12.556  68.566  1.00  0.00    -0.371 NA 
HETATM   19  C   UNL     1      -8.001  11.679  68.553  1.00  0.00    -0.144 A  
HETATM   20  H   UNL     1      -9.338  13.094  69.400  1.00  0.00     0.000 HD 
HETATM   21  C   UNL     1      -6.722  12.189  68.825  1.00  0.00    -0.088 A  
HETATM   22  C   UNL     1      -5.583  11.400  68.649  1.00  0.00    -0.042 A  
HETATM   23  C   UNL     1      -5.704  10.093  68.186  1.00  0.00    -0.038 A  
HETATM   24  C   UNL     1      -6.967   9.568  67.925  1.00  0.00    -0.079 A  
HETATM   25  C   UNL     1      -8.117  10.350  68.128  1.00  0.00    -0.111 A  
ENDBRANCH   5   8
TORSDOF 1
ENDMDL
MODEL       66
REMARK 921   NORMALIZED FREE ENERGY PREDICTED BY IDOCK:   -4.90 KCAL/MOL
REMARK 922        TOTAL FREE ENERGY PREDICTED BY IDOCK:   -5.57 KCAL/MOL
REMARK 923 INTER-LIGAND FREE ENERGY PREDICTED BY IDOCK:   -6.10 KCAL/MOL
REMARK 924 INTRA-LIGAND FREE ENERGY PREDICTED BY IDOCK:    0.53 KCAL/MOL
REMARK 927      BINDING AFFINITY PREDICTED BY RF-SCORE:    0.00 PKD
ROOT
HETATM    1  C   UNL     1     -12.645  15.296  74.158  1.00  0.00    -0.504 C  
HETATM    2  N   UNL     1     -13.318  15.529  72.883  1.00  0.00    -0.503 NA 
HETATM    3  C   UNL     1     -12.422  16.175  71.900  1.00  0.00    -0.320 C  
HETATM    4  C   UNL     1     -11.310  15.273  71.323  1.00  0.00    -0.365 C  
HETATM    5  N   UNL     1     -11.856  14.013  70.800  1.00  0.00    -0.266 NA 
HETATM    6  C   UNL     1     -13.840  14.275  72.290  1.00  0.00    -0.524 C  
HETATM    7  C   UNL     1     -12.777  13.317  71.708  1.00  0.00    -0.192 C  
ENDROOT
BRANCH   5   8
HETATM    8  C   UNL     1     -11.572  13.529  69.518  1.00  0.00    -0.294 C  
HETATM    9  N   UNL     1     -11.536  14.370  68.518  1.00  0.00    -0.281 NA 
HETATM   10  C   UNL     1     -11.228  14.012  67.192  1.00  0.00    -0.313 A  
HETATM   11  H   UNL     1     -11.744  15.349  68.712  1.00  0.00     0.000 HD 
HETATM   12  C   UNL     1     -11.943  14.670  66.183  1.00  0.00    -0.250 A  
HETATM   13  C   UNL     1     -11.674  14.423  64.837  1.00  0.00    -0.408 A  
HETATM   14  C   UNL     1     -10.667  13.534  64.469  1.00  0.00    -0.431 A  
HETATM   15 CL   UNL     1     -12.598  15.206  63.616  1.00  0.00     0.479 Cl 
HETATM   16  C   UNL     1      -9.921  12.896  65.457  1.00  0.00    -0.226 A  
HETATM   17  C   UNL     1     -10.190  13.126  66.819  1.00  0.00    -0.252 A  
HETATM   18  N   UNL     1      -9.510  12.332  67.780  1.00  0.00    -0.191 NA 
HETATM   19  C   UNL     1     -10.281  11.527  68.646  1.00  0.00    -0.208 A  
HETATM   20  H   UNL     1      -8.493  12.343  67.843  1.00  0.00     0.000 HD 
HETATM   21  C   UNL     1     -10.064  10.140  68.661  1.00  0.00    -0.186 A  
HETATM   22  C   UNL     1     -10.920   9.289  69.364  1.00  0.00    -0.138 A  
HETATM   23  C   UNL     1     -12.011   9.810  70.053  1.00  0.00    -0.006 A  
HETATM   24  C   UNL     1     -12.231  11.184  70.059  1.00  0.00    -0.402 A  
HETATM   25  C   UNL     1     -11.356  12.047  69.376  1.00  0.00    -0.317 A  
ENDBRANCH   5   8
TORSDOF 1
ENDMDL
MODEL       67
REMARK 921   NORMALIZED FREE ENERGY PREDICTED BY IDOCK:   -4.89 KCAL/MOL
REMARK 922        TOTAL FREE ENERGY PREDICTED BY IDOCK:   -5.56 KCAL/MOL
REMARK 923 INTER-LIGAND FREE ENERGY PREDICTED BY IDOCK:   -5.25 KCAL/MOL
REMARK 924 INTRA-LIGAND FREE ENERGY PREDICTED BY IDOCK:   -0.31 KCAL/MOL
REMARK 927      BINDING AFFINITY PREDICTED BY RF-SCORE:    0.00 PKD
ROOT
HETATM    1  C   UNL     1     -10.367  17.030  67.745  1.00  0.00    -0.335 C  
HETATM    2  N   UNL     1     -11.172  16.096  68.528  1.00  0.00    -0.354 NA 
HETATM    3  C   UNL     1     -11.778  15.048  67.680  1.00  0.00    -0.262 C  
HETATM    4  C   UNL     1     -10.797  13.987  67.135  1.00  0.00    -0.286 C  
HETATM    5  N   UNL     1      -9.989  13.399  68.212  1.00  0.00    -0.237 NA 
HETATM    6  C   UNL     1     -10.382  15.438  69.595  1.00  0.00    -0.277 C  
HETATM    7  C   UNL     1      -9.368  14.374  69.118  1.00  0.00     0.064 C  
ENDROOT
BRANCH   5   8
HETATM    8  C   UNL     1      -9.854  12.020  68.404  1.00  0.00    -0.204 C  
HETATM    9  N   UNL     1     -10.609  11.429  69.293  1.00  0.00    -0.386 NA 
HETATM   10  C   UNL     1     -10.592  10.045  69.553  1.00  0.00    -0.244 A  
HETATM   11  H   UNL     1     -11.252  12.007  69.833  1.00  0.00     0.000 HD 
HETATM   12  C   UNL     1     -10.750   9.657  70.891  1.00  0.00    -0.402 A  
HETATM   13  C   UNL     1     -10.798   8.308  71.243  1.00  0.00    -0.237 A  
HETATM   14  C   UNL     1     -10.719   7.319  70.267  1.00  0.00    -0.252 A  
HETATM   15 CL   UNL     1     -10.944   7.856  72.896  1.00  0.00    -0.461 Cl 
HETATM   16  C   UNL     1     -10.597   7.685  68.928  1.00  0.00    -0.176 A  
HETATM   17  C   UNL     1     -10.533   9.041  68.559  1.00  0.00    -0.196 A  
HETATM   18  N   UNL     1     -10.249   9.354  67.203  1.00  0.00    -0.236 NA 
HETATM   19  C   UNL     1      -9.090  10.109  66.922  1.00  0.00    -0.142 A  
HETATM   20  H   UNL     1     -10.866   9.043  66.454  1.00  0.00     0.000 HD 
HETATM   21  C   UNL     1      -8.114   9.567  66.070  1.00  0.00    -0.111 A  
HETATM   22  C   UNL     1      -6.878  10.196  65.906  1.00  0.00    -0.115 A  
HETATM   23  C   UNL     1      -6.593  11.368  66.600  1.00  0.00    -0.114 A  
HETATM   24  C   UNL     1      -7.556  11.924  67.438  1.00  0.00    -0.151 A  
HETATM   25  C   UNL     1      -8.812  11.311  67.583  1.00  0.00    -0.138 A  
ENDBRANCH   5   8
TORSDOF 1
ENDMDL
MODEL       68
REMARK 921   NORMALIZED FREE ENERGY PREDICTED BY IDOCK:   -4.82 KCAL/MOL
REMARK 922        TOTAL FREE ENERGY PREDICTED BY IDOCK:   -5.48 KCAL/MOL
REMARK 923 INTER-LIGAND FREE ENERGY PREDICTED BY IDOCK:   -5.13 KCAL/MOL
REMARK 924 INTRA-LIGAND FREE ENERGY PREDICTED BY IDOCK:   -0.35 KCAL/MOL
REMARK 927      BINDING AFFINITY PREDICTED BY RF-SCORE:    0.00 PKD
ROOT
HETATM    1  C   UNL     1      -8.292   6.454  66.097  1.00  0.00    -0.128 C  
HETATM    2  N   UNL     1      -8.140   7.835  65.647  1.00  0.00    -0.121 NA 
HETATM    3  C   UNL     1      -9.447   8.503  65.472  1.00  0.00     0.121 C  
HETATM    4  C   UNL     1     -10.195   8.848  66.779  1.00  0.00    -0.278 C  
HETATM    5  N   UNL     1      -9.336   9.593  67.710  1.00  0.00    -0.128 NA 
HETATM    6  C   UNL     1      -7.323   8.640  66.586  1.00  0.00    -0.081 C  
HETATM    7  C   UNL     1      -8.006   9.008  67.922  1.00  0.00    -0.102 C  
ENDROOT
BRANCH   5   8
HETATM    8  C   UNL     1      -9.721  10.795  68.314  1.00  0.00    -0.164 C  
HETATM    9  N   UNL     1      -9.248  11.919  67.843  1.00  0.00    -0.180 NA 
HETATM   10  C   UNL     1      -9.586  13.192  68.341  1.00  0.00    -0.186 A  
HETATM   11  H   UNL     1      -8.590  11.870  67.065  1.00  0.00     0.000 HD 
HETATM   12  C   UNL     1      -8.557  14.142  68.381  1.00  0.00    -0.176 A  
HETATM   13  C   UNL     1      -8.805  15.447  68.809  1.00  0.00    -0.196 A  
HETATM   14  C   UNL     1     -10.089  15.838  69.179  1.00  0.00    -0.238 A  
HETATM   15 CL   UNL     1      -7.518  16.583  68.896  1.00  0.00    -0.214 Cl 
HETATM   16  C   UNL     1     -11.132  14.917  69.113  1.00  0.00    -0.279 A  
HETATM   17  C   UNL     1     -10.895  13.594  68.695  1.00  0.00    -0.263 A  
HETATM   18  N   UNL     1     -11.957  12.658  68.798  1.00  0.00    -0.289 NA 
HETATM   19  C   UNL     1     -11.770  11.524  69.619  1.00  0.00    -0.351 A  
HETATM   20  H   UNL     1     -12.831  12.800  68.294  1.00  0.00     0.000 HD 
HETATM   21  C   UNL     1     -12.657  11.300  70.684  1.00  0.00    -0.377 A  
HETATM   22  C   UNL     1     -12.408  10.298  71.625  1.00  0.00    -0.445 A  
HETATM   23  C   UNL     1     -11.262   9.514  71.522  1.00  0.00    -0.437 A  
HETATM   24  C   UNL     1     -10.381   9.716  70.464  1.00  0.00    -0.359 A  
HETATM   25  C   UNL     1     -10.643  10.703  69.499  1.00  0.00    -0.265 A  
ENDBRANCH   5   8
TORSDOF 1
ENDMDL
MODEL       69
REMARK 921   NORMALIZED FREE ENERGY PREDICTED BY IDOCK:   -4.81 KCAL/MOL
REMARK 922        TOTAL FREE ENERGY PREDICTED BY IDOCK:   -5.47 KCAL/MOL
REMARK 923 INTER-LIGAND FREE ENERGY PREDICTED BY IDOCK:   -5.46 KCAL/MOL
REMARK 924 INTRA-LIGAND FREE ENERGY PREDICTED BY IDOCK:   -0.01 KCAL/MOL
REMARK 927      BINDING AFFINITY PREDICTED BY RF-SCORE:    0.00 PKD
ROOT
HETATM    1  C   UNL     1     -12.216  14.956  64.327  1.00  0.00    -0.344 C  
HETATM    2  N   UNL     1     -12.738  13.747  64.958  1.00  0.00    -0.688 NA 
HETATM    3  C   UNL     1     -12.354  12.529  64.213  1.00  0.00    -0.456 C  
HETATM    4  C   UNL     1     -10.867  12.128  64.320  1.00  0.00    -0.341 C  
HETATM    5  N   UNL     1     -10.429  12.057  65.721  1.00  0.00    -0.245 NA 
HETATM    6  C   UNL     1     -12.278  13.606  66.359  1.00  0.00    -0.423 C  
HETATM    7  C   UNL     1     -10.792  13.220  66.540  1.00  0.00    -0.281 C  
ENDROOT
BRANCH   5   8
HETATM    8  C   UNL     1      -9.763  10.951  66.261  1.00  0.00    -0.204 C  
HETATM    9  N   UNL     1     -10.450   9.874  66.541  1.00  0.00    -0.181 NA 
HETATM   10  C   UNL     1      -9.891   8.687  67.053  1.00  0.00    -0.220 A  
HETATM   11  H   UNL     1     -11.456   9.896  66.378  1.00  0.00     0.000 HD 
HETATM   12  C   UNL     1     -10.654   7.995  68.002  1.00  0.00    -0.190 A  
HETATM   13  C   UNL     1     -10.210   6.782  68.530  1.00  0.00    -0.175 A  
HETATM   14  C   UNL     1      -9.009   6.222  68.102  1.00  0.00    -0.115 A  
HETATM   15 CL   UNL     1     -11.140   5.973  69.729  1.00  0.00    -0.467 Cl 
HETATM   16  C   UNL     1      -8.253   6.879  67.134  1.00  0.00    -0.118 A  
HETATM   17  C   UNL     1      -8.682   8.109  66.602  1.00  0.00    -0.139 A  
HETATM   18  N   UNL     1      -7.799   8.811  65.739  1.00  0.00    -0.097 NA 
HETATM   19  C   UNL     1      -7.376  10.101  66.124  1.00  0.00    -0.115 A  
HETATM   20  H   UNL     1      -7.479   8.394  64.866  1.00  0.00     0.000 HD 
HETATM   21  C   UNL     1      -6.003  10.354  66.271  1.00  0.00    -0.084 A  
HETATM   22  C   UNL     1      -5.550  11.556  66.820  1.00  0.00    -0.138 A  
HETATM   23  C   UNL     1      -6.463  12.518  67.242  1.00  0.00    -0.124 A  
HETATM   24  C   UNL     1      -7.827  12.288  67.089  1.00  0.00    -0.149 A  
HETATM   25  C   UNL     1      -8.286  11.092  66.511  1.00  0.00    -0.166 A  
ENDBRANCH   5   8
TORSDOF 1
ENDMDL
MODEL       70
REMARK 921   NORMALIZED FREE ENERGY PREDICTED BY IDOCK:   -4.81 KCAL/MOL
REMARK 922        TOTAL FREE ENERGY PREDICTED BY IDOCK:   -5.47 KCAL/MOL
REMARK 923 INTER-LIGAND FREE ENERGY PREDICTED BY IDOCK:   -5.58 KCAL/MOL
REMARK 924 INTRA-LIGAND FREE ENERGY PREDICTED BY IDOCK:    0.11 KCAL/MOL
REMARK 927      BINDING AFFINITY PREDICTED BY RF-SCORE:    0.00 PKD
ROOT
HETATM    1  C   UNL     1     -13.512  15.594  73.662  1.00  0.00    -0.029 C  
HETATM    2  N   UNL     1     -14.094  15.185  72.386  1.00  0.00    -0.502 NA 
HETATM    3  C   UNL     1     -13.526  15.948  71.255  1.00  0.00     0.194 C  
HETATM    4  C   UNL     1     -12.070  15.594  70.880  1.00  0.00    -0.407 C  
HETATM    5  N   UNL     1     -11.901  14.147  70.686  1.00  0.00    -0.292 NA 
HETATM    6  C   UNL     1     -13.900  13.740  72.123  1.00  0.00    -0.554 C  
HETATM    7  C   UNL     1     -12.460  13.313  71.758  1.00  0.00     0.021 C  
ENDROOT
BRANCH   5   8
HETATM    8  C   UNL     1     -11.304  13.590  69.550  1.00  0.00    -0.202 C  
HETATM    9  N   UNL     1     -11.605  12.363  69.215  1.00  0.00    -0.302 NA 
HETATM   10  C   UNL     1     -11.099  11.704  68.078  1.00  0.00    -0.242 A  
HETATM   11  H   UNL     1     -12.248  11.849  69.817  1.00  0.00     0.000 HD 
HETATM   12  C   UNL     1     -10.806  10.342  68.221  1.00  0.00    -0.300 A  
HETATM   13  C   UNL     1     -10.349   9.590  67.138  1.00  0.00    -0.253 A  
HETATM   14  C   UNL     1     -10.202  10.175  65.883  1.00  0.00    -0.281 A  
HETATM   15 CL   UNL     1      -9.950   7.931  67.349  1.00  0.00    -0.235 Cl 
HETATM   16  C   UNL     1     -10.520  11.521  65.713  1.00  0.00    -0.308 A  
HETATM   17  C   UNL     1     -10.970  12.294  66.799  1.00  0.00    -0.276 A  
HETATM   18  N   UNL     1     -11.128  13.692  66.606  1.00  0.00    -0.302 NA 
HETATM   19  C   UNL     1     -10.361  14.567  67.407  1.00  0.00    -0.252 A  
HETATM   20  H   UNL     1     -11.777  14.055  65.909  1.00  0.00     0.000 HD 
HETATM   21  C   UNL     1      -9.498  15.481  66.784  1.00  0.00    -0.257 A  
HETATM   22  C   UNL     1      -8.593  16.237  67.533  1.00  0.00    -0.189 A  
HETATM   23  C   UNL     1      -8.529  16.082  68.914  1.00  0.00    -0.232 A  
HETATM   24  C   UNL     1      -9.389  15.189  69.548  1.00  0.00    -0.139 A  
HETATM   25  C   UNL     1     -10.320  14.447  68.801  1.00  0.00    -0.241 A  
ENDBRANCH   5   8
TORSDOF 1
ENDMDL
MODEL       71
REMARK 921   NORMALIZED FREE ENERGY PREDICTED BY IDOCK:   -4.77 KCAL/MOL
REMARK 922        TOTAL FREE ENERGY PREDICTED BY IDOCK:   -5.43 KCAL/MOL
REMARK 923 INTER-LIGAND FREE ENERGY PREDICTED BY IDOCK:   -5.21 KCAL/MOL
REMARK 924 INTRA-LIGAND FREE ENERGY PREDICTED BY IDOCK:   -0.22 KCAL/MOL
REMARK 927      BINDING AFFINITY PREDICTED BY RF-SCORE:    0.00 PKD
ROOT
HETATM    1  C   UNL     1      -6.186  18.349  67.152  1.00  0.00    -0.169 C  
HETATM    2  N   UNL     1      -6.662  17.608  68.317  1.00  0.00    -0.194 NA 
HETATM    3  C   UNL     1      -8.138  17.597  68.396  1.00  0.00    -0.285 C  
HETATM    4  C   UNL     1      -8.851  16.713  67.349  1.00  0.00    -0.188 C  
HETATM    5  N   UNL     1      -8.307  15.347  67.340  1.00  0.00    -0.169 NA 
HETATM    6  C   UNL     1      -6.180  16.207  68.322  1.00  0.00    -0.118 C  
HETATM    7  C   UNL     1      -6.842  15.269  67.287  1.00  0.00    -0.073 C  
ENDROOT
BRANCH   5   8
HETATM    8  C   UNL     1      -9.107  14.203  67.427  1.00  0.00    -0.198 C  
HETATM    9  N   UNL     1      -8.772  13.260  68.269  1.00  0.00    -0.194 NA 
HETATM   10  C   UNL     1      -9.513  12.080  68.473  1.00  0.00    -0.133 A  
HETATM   11  H   UNL     1      -7.919  13.388  68.812  1.00  0.00     0.000 HD 
HETATM   12  C   UNL     1      -8.776  10.909  68.694  1.00  0.00    -0.154 A  
HETATM   13  C   UNL     1      -9.418   9.699  68.958  1.00  0.00    -0.168 A  
HETATM   14  C   UNL     1     -10.808   9.637  69.035  1.00  0.00    -0.206 A  
HETATM   15 CL   UNL     1      -8.496   8.265  69.178  1.00  0.00    -0.126 Cl 
HETATM   16  C   UNL     1     -11.556  10.798  68.852  1.00  0.00    -0.361 A  
HETATM   17  C   UNL     1     -10.922  12.023  68.572  1.00  0.00    -0.240 A  
HETATM   18  N   UNL     1     -11.736  13.138  68.239  1.00  0.00    -0.330 NA 
HETATM   19  C   UNL     1     -11.559  13.738  66.973  1.00  0.00    -0.365 A  
HETATM   20  H   UNL     1     -12.429  13.495  68.895  1.00  0.00     0.000 HD 
HETATM   21  C   UNL     1     -12.651  13.810  66.094  1.00  0.00    -0.423 A  
HETATM   22  C   UNL     1     -12.481  14.230  64.773  1.00  0.00    -0.390 A  
HETATM   23  C   UNL     1     -11.215  14.572  64.307  1.00  0.00    -0.079 A  
HETATM   24  C   UNL     1     -10.124  14.519  65.172  1.00  0.00    -0.361 A  
HETATM   25  C   UNL     1     -10.296  14.125  66.509  1.00  0.00    -0.284 A  
ENDBRANCH   5   8
TORSDOF 1
ENDMDL
MODEL       72
REMARK 921   NORMALIZED FREE ENERGY PREDICTED BY IDOCK:   -4.76 KCAL/MOL
REMARK 922        TOTAL FREE ENERGY PREDICTED BY IDOCK:   -5.42 KCAL/MOL
REMARK 923 INTER-LIGAND FREE ENERGY PREDICTED BY IDOCK:   -5.01 KCAL/MOL
REMARK 924 INTRA-LIGAND FREE ENERGY PREDICTED BY IDOCK:   -0.41 KCAL/MOL
REMARK 927      BINDING AFFINITY PREDICTED BY RF-SCORE:    0.00 PKD
ROOT
HETATM    1  C   UNL     1     -10.609  18.485  66.265  1.00  0.00    -0.330 C  
HETATM    2  N   UNL     1      -9.787  17.991  67.366  1.00  0.00    -0.299 NA 
HETATM    3  C   UNL     1     -10.460  16.903  68.108  1.00  0.00    -0.350 C  
HETATM    4  C   UNL     1     -10.551  15.552  67.365  1.00  0.00    -0.292 C  
HETATM    5  N   UNL     1      -9.237  15.123  66.865  1.00  0.00    -0.224 NA 
HETATM    6  C   UNL     1      -8.470  17.497  66.901  1.00  0.00    -0.239 C  
HETATM    7  C   UNL     1      -8.490  16.155  66.135  1.00  0.00    -0.253 C  
ENDROOT
BRANCH   5   8
HETATM    8  C   UNL     1      -8.704  13.852  67.103  1.00  0.00    -0.221 C  
HETATM    9  N   UNL     1      -9.262  12.816  66.533  1.00  0.00    -0.338 NA 
HETATM   10  C   UNL     1      -8.798  11.493  66.665  1.00  0.00    -0.187 A  
HETATM   11  H   UNL     1     -10.086  12.977  65.955  1.00  0.00     0.000 HD 
HETATM   12  C   UNL     1      -9.776  10.492  66.745  1.00  0.00    -0.220 A  
HETATM   13  C   UNL     1      -9.417   9.147  66.826  1.00  0.00    -0.175 A  
HETATM   14  C   UNL     1      -8.077   8.769  66.801  1.00  0.00    -0.104 A  
HETATM   15 CL   UNL     1     -10.632   7.939  66.971  1.00  0.00    -0.415 Cl 
HETATM   16  C   UNL     1      -7.091   9.747  66.687  1.00  0.00    -0.086 A  
HETATM   17  C   UNL     1      -7.438  11.109  66.618  1.00  0.00    -0.146 A  
HETATM   18  N   UNL     1      -6.394  12.070  66.664  1.00  0.00    -0.446 NA 
HETATM   19  C   UNL     1      -6.394  13.006  67.721  1.00  0.00    -0.149 A  
HETATM   20  H   UNL     1      -5.663  12.084  65.953  1.00  0.00     0.000 HD 
HETATM   21  C   UNL     1      -5.282  13.070  68.575  1.00  0.00    -0.064 A  
HETATM   22  C   UNL     1      -5.312  13.849  69.734  1.00  0.00    -0.094 A  
HETATM   23  C   UNL     1      -6.459  14.566  70.063  1.00  0.00    -0.160 A  
HETATM   24  C   UNL     1      -7.564  14.524  69.218  1.00  0.00    -0.073 A  
HETATM   25  C   UNL     1      -7.528  13.764  68.037  1.00  0.00    -0.139 A  
ENDBRANCH   5   8
TORSDOF 1
ENDMDL
MODEL       73
REMARK 921   NORMALIZED FREE ENERGY PREDICTED BY IDOCK:   -4.69 KCAL/MOL
REMARK 922        TOTAL FREE ENERGY PREDICTED BY IDOCK:   -5.35 KCAL/MOL
REMARK 923 INTER-LIGAND FREE ENERGY PREDICTED BY IDOCK:   -4.94 KCAL/MOL
REMARK 924 INTRA-LIGAND FREE ENERGY PREDICTED BY IDOCK:   -0.40 KCAL/MOL
REMARK 927      BINDING AFFINITY PREDICTED BY RF-SCORE:    0.00 PKD
ROOT
HETATM    1  C   UNL     1     -10.889   9.867  66.845  1.00  0.00    -0.066 C  
HETATM    2  N   UNL     1      -9.556  10.463  66.891  1.00  0.00    -0.168 NA 
HETATM    3  C   UNL     1      -9.355  11.442  65.802  1.00  0.00    -0.228 C  
HETATM    4  C   UNL     1     -10.124  12.772  65.956  1.00  0.00    -0.268 C  
HETATM    5  N   UNL     1      -9.885  13.382  67.272  1.00  0.00    -0.229 NA 
HETATM    6  C   UNL     1      -9.291  11.136  68.184  1.00  0.00    -0.176 C  
HETATM    7  C   UNL     1     -10.041  12.468  68.411  1.00  0.00    -0.216 C  
ENDROOT
BRANCH   5   8
HETATM    8  C   UNL     1      -9.489  14.713  67.440  1.00  0.00    -0.201 C  
HETATM    9  N   UNL     1     -10.316  15.666  67.099  1.00  0.00    -0.279 NA 
HETATM   10  C   UNL     1     -10.048  17.041  67.252  1.00  0.00    -0.295 A  
HETATM   11  H   UNL     1     -11.213  15.397  66.697  1.00  0.00     0.000 HD 
HETATM   12  C   UNL     1     -10.513  17.885  66.235  1.00  0.00    -0.320 A  
HETATM   13  C   UNL     1     -10.343  19.267  66.320  1.00  0.00    -0.480 A  
HETATM   14  C   UNL     1      -9.731  19.838  67.433  1.00  0.00    -0.498 A  
HETATM   15 CL   UNL     1     -10.878  20.281  65.038  1.00  0.00     0.133 Cl 
HETATM   16  C   UNL     1      -9.293  19.017  68.470  1.00  0.00    -0.425 A  
HETATM   17  C   UNL     1      -9.446  17.620  68.392  1.00  0.00    -0.298 A  
HETATM   18  N   UNL     1      -8.842  16.822  69.399  1.00  0.00     0.033 NA 
HETATM   19  C   UNL     1      -7.869  15.877  69.007  1.00  0.00    -0.216 A  
HETATM   20  H   UNL     1      -9.102  16.928  70.379  1.00  0.00     0.000 HD 
HETATM   21  C   UNL     1      -6.578  15.961  69.552  1.00  0.00    -0.191 A  
HETATM   22  C   UNL     1      -5.540  15.164  69.062  1.00  0.00    -0.097 A  
HETATM   23  C   UNL     1      -5.775  14.281  68.013  1.00  0.00    -0.135 A  
HETATM   24  C   UNL     1      -7.053  14.176  67.472  1.00  0.00    -0.184 A  
HETATM   25  C   UNL     1      -8.106  14.955  67.980  1.00  0.00    -0.137 A  
ENDBRANCH   5   8
TORSDOF 1
ENDMDL
MODEL       74
REMARK 921   NORMALIZED FREE ENERGY PREDICTED BY IDOCK:   -4.69 KCAL/MOL
REMARK 922        TOTAL FREE ENERGY PREDICTED BY IDOCK:   -5.34 KCAL/MOL
REMARK 923 INTER-LIGAND FREE ENERGY PREDICTED BY IDOCK:   -5.40 KCAL/MOL
REMARK 924 INTRA-LIGAND FREE ENERGY PREDICTED BY IDOCK:    0.06 KCAL/MOL
REMARK 927      BINDING AFFINITY PREDICTED BY RF-SCORE:    0.00 PKD
ROOT
HETATM    1  C   UNL     1     -12.682  12.802  63.089  1.00  0.00     0.184 C  
HETATM    2  N   UNL     1     -12.843  13.333  64.441  1.00  0.00    -0.664 NA 
HETATM    3  C   UNL     1     -12.226  12.452  65.454  1.00  0.00    -0.319 C  
HETATM    4  C   UNL     1     -10.681  12.445  65.474  1.00  0.00    -0.280 C  
HETATM    5  N   UNL     1     -10.139  13.809  65.552  1.00  0.00    -0.301 NA 
HETATM    6  C   UNL     1     -12.262  14.689  64.580  1.00  0.00    -0.456 C  
HETATM    7  C   UNL     1     -10.718  14.757  64.592  1.00  0.00    -0.254 C  
ENDROOT
BRANCH   5   8
HETATM    8  C   UNL     1      -9.184  14.201  66.496  1.00  0.00    -0.224 C  
HETATM    9  N   UNL     1      -8.294  13.330  66.894  1.00  0.00    -0.403 NA 
HETATM   10  C   UNL     1      -7.263  13.612  67.811  1.00  0.00    -0.164 A  
HETATM   11  H   UNL     1      -8.351  12.384  66.517  1.00  0.00     0.000 HD 
HETATM   12  C   UNL     1      -6.937  12.596  68.719  1.00  0.00    -0.096 A  
HETATM   13  C   UNL     1      -5.895  12.760  69.632  1.00  0.00    -0.113 A  
HETATM   14  C   UNL     1      -5.138  13.929  69.639  1.00  0.00    -0.084 A  
HETATM   15 CL   UNL     1      -5.545  11.520  70.770  1.00  0.00    -0.136 Cl 
HETATM   16  C   UNL     1      -5.424  14.937  68.720  1.00  0.00    -0.088 A  
HETATM   17  C   UNL     1      -6.481  14.790  67.803  1.00  0.00    -0.164 A  
HETATM   18  N   UNL     1      -6.829  15.907  66.999  1.00  0.00    -0.256 NA 
HETATM   19  C   UNL     1      -8.137  16.428  67.111  1.00  0.00    -0.181 A  
HETATM   20  H   UNL     1      -6.155  16.322  66.357  1.00  0.00     0.000 HD 
HETATM   21  C   UNL     1      -8.306  17.772  67.481  1.00  0.00    -0.227 A  
HETATM   22  C   UNL     1      -9.573  18.279  67.778  1.00  0.00    -0.289 A  
HETATM   23  C   UNL     1     -10.688  17.448  67.722  1.00  0.00    -0.332 A  
HETATM   24  C   UNL     1     -10.538  16.117  67.342  1.00  0.00    -0.311 A  
HETATM   25  C   UNL     1      -9.269  15.611  67.015  1.00  0.00    -0.239 A  
ENDBRANCH   5   8
TORSDOF 1
ENDMDL
MODEL       75
REMARK 921   NORMALIZED FREE ENERGY PREDICTED BY IDOCK:   -4.60 KCAL/MOL
REMARK 922        TOTAL FREE ENERGY PREDICTED BY IDOCK:   -5.24 KCAL/MOL
REMARK 923 INTER-LIGAND FREE ENERGY PREDICTED BY IDOCK:   -5.64 KCAL/MOL
REMARK 924 INTRA-LIGAND FREE ENERGY PREDICTED BY IDOCK:    0.39 KCAL/MOL
REMARK 927      BINDING AFFINITY PREDICTED BY RF-SCORE:    0.00 PKD
ROOT
HETATM    1  C   UNL     1     -14.278  15.127  71.927  1.00  0.00    -0.579 C  
HETATM    2  N   UNL     1     -13.007  14.409  71.945  1.00  0.00    -0.332 NA 
HETATM    3  C   UNL     1     -12.692  13.815  70.629  1.00  0.00    -0.260 C  
HETATM    4  C   UNL     1     -12.286  14.820  69.529  1.00  0.00    -0.243 C  
HETATM    5  N   UNL     1     -11.207  15.709  69.984  1.00  0.00    -0.293 NA 
HETATM    6  C   UNL     1     -11.879  15.282  72.349  1.00  0.00    -0.434 C  
HETATM    7  C   UNL     1     -11.430  16.323  71.299  1.00  0.00    -0.311 C  
ENDROOT
BRANCH   5   8
HETATM    8  C   UNL     1     -10.031  15.922  69.257  1.00  0.00    -0.254 C  
HETATM    9  N   UNL     1      -9.675  17.148  68.976  1.00  0.00    -0.246 NA 
HETATM   10  C   UNL     1      -8.499  17.493  68.283  1.00  0.00    -0.266 A  
HETATM   11  H   UNL     1     -10.290  17.903  69.278  1.00  0.00     0.000 HD 
HETATM   12  C   UNL     1      -8.591  18.568  67.389  1.00  0.00    -0.266 A  
HETATM   13  C   UNL     1      -7.469  19.019  66.694  1.00  0.00    -0.228 A  
HETATM   14  C   UNL     1      -6.226  18.426  66.897  1.00  0.00    -0.194 A  
HETATM   15 CL   UNL     1      -7.616  20.308  65.565  1.00  0.00    -0.176 Cl 
HETATM   16  C   UNL     1      -6.107  17.378  67.808  1.00  0.00    -0.151 A  
HETATM   17  C   UNL     1      -7.233  16.905  68.506  1.00  0.00    -0.199 A  
HETATM   18  N   UNL     1      -7.086  15.736  69.300  1.00  0.00    -0.186 NA 
HETATM   19  C   UNL     1      -7.877  14.610  68.982  1.00  0.00    -0.133 A  
HETATM   20  H   UNL     1      -6.429  15.710  70.078  1.00  0.00     0.000 HD 
HETATM   21  C   UNL     1      -7.242  13.398  68.670  1.00  0.00    -0.107 A  
HETATM   22  C   UNL     1      -7.972  12.313  68.178  1.00  0.00    -0.155 A  
HETATM   23  C   UNL     1      -9.344  12.428  67.978  1.00  0.00    -0.204 A  
HETATM   24  C   UNL     1      -9.990  13.620  68.296  1.00  0.00    -0.236 A  
HETATM   25  C   UNL     1      -9.264  14.704  68.819  1.00  0.00    -0.184 A  
ENDBRANCH   5   8
TORSDOF 1
ENDMDL
MODEL       76
REMARK 921   NORMALIZED FREE ENERGY PREDICTED BY IDOCK:   -4.54 KCAL/MOL
REMARK 922        TOTAL FREE ENERGY PREDICTED BY IDOCK:   -5.18 KCAL/MOL
REMARK 923 INTER-LIGAND FREE ENERGY PREDICTED BY IDOCK:   -4.83 KCAL/MOL
REMARK 924 INTRA-LIGAND FREE ENERGY PREDICTED BY IDOCK:   -0.35 KCAL/MOL
REMARK 927      BINDING AFFINITY PREDICTED BY RF-SCORE:    0.00 PKD
ROOT
HETATM    1  C   UNL     1     -12.782  12.364  64.098  1.00  0.00    -0.347 C  
HETATM    2  N   UNL     1     -12.758  13.649  64.790  1.00  0.00    -0.680 NA 
HETATM    3  C   UNL     1     -12.522  13.487  66.241  1.00  0.00    -0.326 C  
HETATM    4  C   UNL     1     -11.088  13.073  66.637  1.00  0.00    -0.289 C  
HETATM    5  N   UNL     1     -10.085  13.959  66.029  1.00  0.00    -0.304 NA 
HETATM    6  C   UNL     1     -11.723  14.558  64.244  1.00  0.00    -0.295 C  
HETATM    7  C   UNL     1     -10.262  14.193  64.590  1.00  0.00    -0.161 C  
ENDROOT
BRANCH   5   8
HETATM    8  C   UNL     1      -9.067  14.580  66.760  1.00  0.00    -0.261 C  
HETATM    9  N   UNL     1      -9.020  15.887  66.794  1.00  0.00    -0.228 NA 
HETATM   10  C   UNL     1      -8.068  16.628  67.521  1.00  0.00    -0.168 A  
HETATM   11  H   UNL     1      -9.718  16.402  66.258  1.00  0.00     0.000 HD 
HETATM   12  C   UNL     1      -7.597  17.802  66.919  1.00  0.00    -0.238 A  
HETATM   13  C   UNL     1      -6.692  18.631  67.582  1.00  0.00    -0.204 A  
HETATM   14  C   UNL     1      -6.260  18.321  68.869  1.00  0.00    -0.223 A  
HETATM   15 CL   UNL     1      -6.090  20.042  66.806  1.00  0.00    -0.186 Cl 
HETATM   16  C   UNL     1      -6.744  17.175  69.497  1.00  0.00    -0.143 A  
HETATM   17  C   UNL     1      -7.647  16.323  68.836  1.00  0.00    -0.212 A  
HETATM   18  N   UNL     1      -7.984  15.091  69.457  1.00  0.00    -0.355 NA 
HETATM   19  C   UNL     1      -7.682  13.894  68.772  1.00  0.00    -0.096 A  
HETATM   20  H   UNL     1      -8.431  15.071  70.373  1.00  0.00     0.000 HD 
HETATM   21  C   UNL     1      -6.845  12.950  69.385  1.00  0.00     0.040 A  
HETATM   22  C   UNL     1      -6.377  11.840  68.678  1.00  0.00    -0.057 A  
HETATM   23  C   UNL     1      -6.730  11.664  67.343  1.00  0.00    -0.108 A  
HETATM   24  C   UNL     1      -7.572  12.585  66.725  1.00  0.00     0.199 A  
HETATM   25  C   UNL     1      -8.067  13.687  67.442  1.00  0.00    -0.184 A  
ENDBRANCH   5   8
TORSDOF 1
ENDMDL
MODEL       77
REMARK 921   NORMALIZED FREE ENERGY PREDICTED BY IDOCK:   -4.52 KCAL/MOL
REMARK 922        TOTAL FREE ENERGY PREDICTED BY IDOCK:   -5.16 KCAL/MOL
REMARK 923 INTER-LIGAND FREE ENERGY PREDICTED BY IDOCK:   -4.80 KCAL/MOL
REMARK 924 INTRA-LIGAND FREE ENERGY PREDICTED BY IDOCK:   -0.36 KCAL/MOL
REMARK 927      BINDING AFFINITY PREDICTED BY RF-SCORE:    0.00 PKD
ROOT
HETATM    1  C   UNL     1      -5.473  13.679  67.917  1.00  0.00    -0.099 C  
HETATM    2  N   UNL     1      -6.481  13.596  68.971  1.00  0.00    -0.101 NA 
HETATM    3  C   UNL     1      -7.824  13.308  68.426  1.00  0.00    -0.137 C  
HETATM    4  C   UNL     1      -8.032  11.870  67.901  1.00  0.00    -0.144 C  
HETATM    5  N   UNL     1      -7.637  10.870  68.903  1.00  0.00    -0.119 NA 
HETATM    6  C   UNL     1      -6.150  12.560  69.978  1.00  0.00    -0.117 C  
HETATM    7  C   UNL     1      -6.321  11.096  69.514  1.00  0.00    -0.101 C  
ENDROOT
BRANCH   5   8
HETATM    8  C   UNL     1      -8.461   9.809  69.293  1.00  0.00    -0.152 C  
HETATM    9  N   UNL     1      -8.844   9.731  70.541  1.00  0.00    -0.339 NA 
HETATM   10  C   UNL     1      -9.699   8.734  71.048  1.00  0.00    -0.230 A  
HETATM   11  H   UNL     1      -8.500  10.439  71.189  1.00  0.00     0.000 HD 
HETATM   12  C   UNL     1      -9.416   8.262  72.336  1.00  0.00    -0.357 A  
HETATM   13  C   UNL     1     -10.236   7.312  72.946  1.00  0.00    -0.244 A  
HETATM   14  C   UNL     1     -11.370   6.833  72.294  1.00  0.00    -0.310 A  
HETATM   15 CL   UNL     1      -9.842   6.711  74.508  1.00  0.00    -0.338 Cl 
HETATM   16  C   UNL     1     -11.687   7.316  71.026  1.00  0.00    -0.340 A  
HETATM   17  C   UNL     1     -10.862   8.265  70.394  1.00  0.00    -0.235 A  
HETATM   18  N   UNL     1     -11.142   8.602  69.044  1.00  0.00    -0.421 NA 
HETATM   19  C   UNL     1     -10.146   8.356  68.074  1.00  0.00    -0.199 A  
HETATM   20  H   UNL     1     -12.038   9.011  68.781  1.00  0.00     0.000 HD 
HETATM   21  C   UNL     1     -10.443   7.515  66.990  1.00  0.00    -0.409 A  
HETATM   22  C   UNL     1      -9.441   7.102  66.109  1.00  0.00    -0.059 A  
HETATM   23  C   UNL     1      -8.126   7.514  66.304  1.00  0.00    -0.113 A  
HETATM   24  C   UNL     1      -7.819   8.360  67.366  1.00  0.00    -0.099 A  
HETATM   25  C   UNL     1      -8.829   8.801  68.238  1.00  0.00    -0.141 A  
ENDBRANCH   5   8
TORSDOF 1
ENDMDL
MODEL       78
REMARK 921   NORMALIZED FREE ENERGY PREDICTED BY IDOCK:   -4.45 KCAL/MOL
REMARK 922        TOTAL FREE ENERGY PREDICTED BY IDOCK:   -5.08 KCAL/MOL
REMARK 923 INTER-LIGAND FREE ENERGY PREDICTED BY IDOCK:   -4.81 KCAL/MOL
REMARK 924 INTRA-LIGAND FREE ENERGY PREDICTED BY IDOCK:   -0.27 KCAL/MOL
REMARK 927      BINDING AFFINITY PREDICTED BY RF-SCORE:    0.00 PKD
ROOT
HETATM    1  C   UNL     1      -7.551  18.277  68.568  1.00  0.00    -0.300 C  
HETATM    2  N   UNL     1      -6.823  17.094  68.119  1.00  0.00    -0.171 NA 
HETATM    3  C   UNL     1      -6.954  15.973  69.074  1.00  0.00    -0.165 C  
HETATM    4  C   UNL     1      -8.341  15.295  69.113  1.00  0.00    -0.233 C  
HETATM    5  N   UNL     1      -8.787  14.904  67.768  1.00  0.00    -0.169 NA 
HETATM    6  C   UNL     1      -7.278  16.632  66.786  1.00  0.00    -0.237 C  
HETATM    7  C   UNL     1      -8.668  15.956  66.751  1.00  0.00    -0.269 C  
ENDROOT
BRANCH   5   8
HETATM    8  C   UNL     1      -9.243  13.619  67.455  1.00  0.00    -0.222 C  
HETATM    9  N   UNL     1      -8.717  12.993  66.435  1.00  0.00    -0.422 NA 
HETATM   10  C   UNL     1      -9.065  11.687  66.041  1.00  0.00    -0.182 A  
HETATM   11  H   UNL     1      -8.008  13.482  65.890  1.00  0.00     0.000 HD 
HETATM   12  C   UNL     1      -9.110  11.440  64.662  1.00  0.00     0.059 A  
HETATM   13  C   UNL     1      -9.394  10.165  64.173  1.00  0.00    -0.287 A  
HETATM   14  C   UNL     1      -9.612   9.103  65.048  1.00  0.00     0.095 A  
HETATM   15 CL   UNL     1      -9.492   9.895  62.478  1.00  0.00    -0.256 Cl 
HETATM   16  C   UNL     1      -9.537   9.322  66.422  1.00  0.00    -0.301 A  
HETATM   17  C   UNL     1      -9.264  10.605  66.930  1.00  0.00    -0.155 A  
HETATM   18  N   UNL     1      -9.357  10.805  68.333  1.00  0.00    -0.160 NA 
HETATM   19  C   UNL     1     -10.290  11.749  68.812  1.00  0.00    -0.179 A  
HETATM   20  H   UNL     1      -8.766  10.280  68.977  1.00  0.00     0.000 HD 
HETATM   21  C   UNL     1     -11.288  11.329  69.706  1.00  0.00    -0.348 A  
HETATM   22  C   UNL     1     -12.334  12.183  70.064  1.00  0.00    -0.167 A  
HETATM   23  C   UNL     1     -12.405  13.464  69.526  1.00  0.00    -0.155 A  
HETATM   24  C   UNL     1     -11.415  13.899  68.649  1.00  0.00    -0.333 A  
HETATM   25  C   UNL     1     -10.346  13.054  68.308  1.00  0.00    -0.256 A  
ENDBRANCH   5   8
TORSDOF 1
ENDMDL
MODEL       79
REMARK 921   NORMALIZED FREE ENERGY PREDICTED BY IDOCK:   -4.41 KCAL/MOL
REMARK 922        TOTAL FREE ENERGY PREDICTED BY IDOCK:   -5.05 KCAL/MOL
REMARK 923 INTER-LIGAND FREE ENERGY PREDICTED BY IDOCK:   -4.68 KCAL/MOL
REMARK 924 INTRA-LIGAND FREE ENERGY PREDICTED BY IDOCK:   -0.37 KCAL/MOL
REMARK 927      BINDING AFFINITY PREDICTED BY RF-SCORE:    0.00 PKD
ROOT
HETATM    1  C   UNL     1      -7.495   9.468  64.631  1.00  0.00    -0.113 C  
HETATM    2  N   UNL     1      -8.872   9.846  64.938  1.00  0.00    -0.176 NA 
HETATM    3  C   UNL     1      -9.659   8.696  65.432  1.00  0.00     0.282 C  
HETATM    4  C   UNL     1      -9.309   8.217  66.858  1.00  0.00    -0.176 C  
HETATM    5  N   UNL     1      -9.328   9.329  67.819  1.00  0.00    -0.129 NA 
HETATM    6  C   UNL     1      -8.941  10.931  65.946  1.00  0.00    -0.192 C  
HETATM    7  C   UNL     1      -8.587  10.523  67.394  1.00  0.00    -0.122 C  
ENDROOT
BRANCH   5   8
HETATM    8  C   UNL     1     -10.036   9.288  69.025  1.00  0.00    -0.182 C  
HETATM    9  N   UNL     1     -11.025  10.123  69.207  1.00  0.00    -0.231 NA 
HETATM   10  C   UNL     1     -11.834  10.157  70.359  1.00  0.00    -0.288 A  
HETATM   11  H   UNL     1     -11.224  10.794  68.465  1.00  0.00     0.000 HD 
HETATM   12  C   UNL     1     -12.236  11.423  70.805  1.00  0.00    -0.475 A  
HETATM   13  C   UNL     1     -13.080  11.558  71.907  1.00  0.00    -0.387 A  
HETATM   14  C   UNL     1     -13.563  10.433  72.571  1.00  0.00     0.255 A  
HETATM   15 CL   UNL     1     -13.522  13.123  72.466  1.00  0.00    -0.646 Cl 
HETATM   16  C   UNL     1     -13.201   9.165  72.122  1.00  0.00    -0.524 A  
HETATM   17  C   UNL     1     -12.340   9.014  71.019  1.00  0.00    -0.193 A  
HETATM   18  N   UNL     1     -11.879   7.708  70.703  1.00  0.00    -0.463 NA 
HETATM   19  C   UNL     1     -10.488   7.467  70.733  1.00  0.00    -0.212 A  
HETATM   20  H   UNL     1     -12.534   6.965  70.461  1.00  0.00     0.000 HD 
HETATM   21  C   UNL     1      -9.987   6.470  71.585  1.00  0.00    -0.194 A  
HETATM   22  C   UNL     1      -8.612   6.319  71.780  1.00  0.00    -0.133 A  
HETATM   23  C   UNL     1      -7.719   7.169  71.135  1.00  0.00    -0.090 A  
HETATM   24  C   UNL     1      -8.200   8.153  70.276  1.00  0.00    -0.122 A  
HETATM   25  C   UNL     1      -9.581   8.290  70.055  1.00  0.00    -0.168 A  
ENDBRANCH   5   8
TORSDOF 1
ENDMDL
MODEL       80
REMARK 921   NORMALIZED FREE ENERGY PREDICTED BY IDOCK:   -4.38 KCAL/MOL
REMARK 922        TOTAL FREE ENERGY PREDICTED BY IDOCK:   -5.02 KCAL/MOL
REMARK 923 INTER-LIGAND FREE ENERGY PREDICTED BY IDOCK:   -4.62 KCAL/MOL
REMARK 924 INTRA-LIGAND FREE ENERGY PREDICTED BY IDOCK:   -0.40 KCAL/MOL
REMARK 927      BINDING AFFINITY PREDICTED BY RF-SCORE:    0.00 PKD
ROOT
HETATM    1  C   UNL     1      -9.536   7.386  68.959  1.00  0.00    -0.148 C  
HETATM    2  N   UNL     1     -10.506   8.440  68.674  1.00  0.00    -0.196 NA 
HETATM    3  C   UNL     1     -10.535   9.463  69.740  1.00  0.00    -0.226 C  
HETATM    4  C   UNL     1      -9.306  10.396  69.796  1.00  0.00     0.019 C  
HETATM    5  N   UNL     1      -9.028  11.000  68.485  1.00  0.00    -0.158 NA 
HETATM    6  C   UNL     1     -10.233   9.114  67.382  1.00  0.00    -0.247 C  
HETATM    7  C   UNL     1      -9.005  10.053  67.364  1.00  0.00    -0.131 C  
ENDROOT
BRANCH   5   8
HETATM    8  C   UNL     1      -8.850  12.375  68.297  1.00  0.00    -0.174 C  
HETATM    9  N   UNL     1      -7.728  12.925  68.682  1.00  0.00    -0.254 NA 
HETATM   10  C   UNL     1      -7.415  14.288  68.516  1.00  0.00    -0.121 A  
HETATM   11  H   UNL     1      -7.035  12.328  69.133  1.00  0.00     0.000 HD 
HETATM   12  C   UNL     1      -6.702  14.898  69.557  1.00  0.00    -0.165 A  
HETATM   13  C   UNL     1      -6.300  16.231  69.463  1.00  0.00    -0.195 A  
HETATM   14  C   UNL     1      -6.577  16.974  68.319  1.00  0.00    -0.156 A  
HETATM   15 CL   UNL     1      -5.468  16.973  70.772  1.00  0.00    -0.164 Cl 
HETATM   16  C   UNL     1      -7.255  16.375  67.259  1.00  0.00    -0.210 A  
HETATM   17  C   UNL     1      -7.677  15.036  67.345  1.00  0.00    -0.200 A  
HETATM   18  N   UNL     1      -8.500  14.524  66.306  1.00  0.00    -0.258 NA 
HETATM   19  C   UNL     1      -9.788  14.056  66.645  1.00  0.00    -0.284 A  
HETATM   20  H   UNL     1      -8.170  14.497  65.342  1.00  0.00     0.000 HD 
HETATM   21  C   UNL     1     -10.908  14.637  66.031  1.00  0.00    -0.318 A  
HETATM   22  C   UNL     1     -12.201  14.332  66.464  1.00  0.00    -0.419 A  
HETATM   23  C   UNL     1     -12.393  13.452  67.524  1.00  0.00    -0.069 A  
HETATM   24  C   UNL     1     -11.292  12.856  68.133  1.00  0.00    -0.327 A  
HETATM   25  C   UNL     1      -9.991  13.138  67.683  1.00  0.00    -0.219 A  
ENDBRANCH   5   8
TORSDOF 1
ENDMDL
MODEL       81
REMARK 921   NORMALIZED FREE ENERGY PREDICTED BY IDOCK:   -4.38 KCAL/MOL
REMARK 922        TOTAL FREE ENERGY PREDICTED BY IDOCK:   -5.02 KCAL/MOL
REMARK 923 INTER-LIGAND FREE ENERGY PREDICTED BY IDOCK:   -4.64 KCAL/MOL
REMARK 924 INTRA-LIGAND FREE ENERGY PREDICTED BY IDOCK:   -0.38 KCAL/MOL
REMARK 927      BINDING AFFINITY PREDICTED BY RF-SCORE:    0.00 PKD
ROOT
HETATM    1  C   UNL     1      -9.569  13.978  66.687  1.00  0.00    -0.289 C  
HETATM    2  N   UNL     1      -8.731  12.783  66.634  1.00  0.00    -0.121 NA 
HETATM    3  C   UNL     1      -8.236  12.400  67.973  1.00  0.00    -0.168 C  
HETATM    4  C   UNL     1      -9.295  11.803  68.926  1.00  0.00     0.090 C  
HETATM    5  N   UNL     1     -10.027  10.698  68.292  1.00  0.00    -0.154 NA 
HETATM    6  C   UNL     1      -9.448  11.626  66.049  1.00  0.00    -0.229 C  
HETATM    7  C   UNL     1     -10.534  10.989  66.945  1.00  0.00    -0.246 C  
ENDROOT
BRANCH   5   8
HETATM    8  C   UNL     1     -10.192   9.444  68.890  1.00  0.00    -0.200 C  
HETATM    9  N   UNL     1      -9.544   8.420  68.398  1.00  0.00    -0.146 NA 
HETATM   10  C   UNL     1      -9.599   7.117  68.931  1.00  0.00    -0.142 A  
HETATM   11  H   UNL     1      -8.962   8.574  67.576  1.00  0.00     0.000 HD 
HETATM   12  C   UNL     1      -9.594   6.063  68.009  1.00  0.00    -0.120 A  
HETATM   13  C   UNL     1      -9.593   4.736  68.440  1.00  0.00    -0.151 A  
HETATM   14  C   UNL     1      -9.569   4.433  69.799  1.00  0.00    -0.276 A  
HETATM   15 CL   UNL     1      -9.636   3.458  67.290  1.00  0.00    -0.207 Cl 
HETATM   16  C   UNL     1      -9.539   5.468  70.731  1.00  0.00    -0.220 A  
HETATM   17  C   UNL     1      -9.552   6.811  70.311  1.00  0.00    -0.165 A  
HETATM   18  N   UNL     1      -9.681   7.822  71.301  1.00  0.00    -0.157 NA 
HETATM   19  C   UNL     1     -10.797   8.683  71.233  1.00  0.00    -0.260 A  
HETATM   20  H   UNL     1      -8.986   7.922  72.040  1.00  0.00     0.000 HD 
HETATM   21  C   UNL     1     -11.674   8.750  72.327  1.00  0.00    -0.398 A  
HETATM   22  C   UNL     1     -12.881   9.448  72.235  1.00  0.00    -0.452 A  
HETATM   23  C   UNL     1     -13.234  10.079  71.046  1.00  0.00    -0.399 A  
HETATM   24  C   UNL     1     -12.367  10.034  69.958  1.00  0.00     0.018 A  
HETATM   25  C   UNL     1     -11.140   9.357  70.055  1.00  0.00    -0.248 A  
ENDBRANCH   5   8
TORSDOF 1
ENDMDL
MODEL       82
REMARK 921   NORMALIZED FREE ENERGY PREDICTED BY IDOCK:   -4.37 KCAL/MOL
REMARK 922        TOTAL FREE ENERGY PREDICTED BY IDOCK:   -5.00 KCAL/MOL
REMARK 923 INTER-LIGAND FREE ENERGY PREDICTED BY IDOCK:   -4.59 KCAL/MOL
REMARK 924 INTRA-LIGAND FREE ENERGY PREDICTED BY IDOCK:   -0.41 KCAL/MOL
REMARK 927      BINDING AFFINITY PREDICTED BY RF-SCORE:    0.00 PKD
ROOT
HETATM    1  C   UNL     1     -10.991   6.387  68.329  1.00  0.00    -0.312 C  
HETATM    2  N   UNL     1      -9.668   6.934  68.039  1.00  0.00    -0.129 NA 
HETATM    3  C   UNL     1      -9.618   7.574  66.707  1.00  0.00    -0.206 C  
HETATM    4  C   UNL     1     -10.369   8.918  66.589  1.00  0.00    -0.223 C  
HETATM    5  N   UNL     1      -9.965   9.855  67.646  1.00  0.00    -0.163 NA 
HETATM    6  C   UNL     1      -9.241   7.926  69.053  1.00  0.00    -0.147 C  
HETATM    7  C   UNL     1      -9.964   9.291  69.002  1.00  0.00    -0.182 C  
ENDROOT
BRANCH   5   8
HETATM    8  C   UNL     1      -9.559  11.170  67.391  1.00  0.00    -0.168 C  
HETATM    9  N   UNL     1     -10.456  12.048  67.027  1.00  0.00    -0.218 NA 
HETATM   10  C   UNL     1     -10.180  13.407  66.777  1.00  0.00    -0.259 A  
HETATM   11  H   UNL     1     -11.418  11.729  66.917  1.00  0.00     0.000 HD 
HETATM   12  C   UNL     1     -10.879  14.003  65.719  1.00  0.00    -0.291 A  
HETATM   13  C   UNL     1     -10.714  15.356  65.425  1.00  0.00    -0.400 A  
HETATM   14  C   UNL     1      -9.869  16.150  66.197  1.00  0.00    -0.358 A  
HETATM   15 CL   UNL     1     -11.545  16.056  64.092  1.00  0.00    -0.246 Cl 
HETATM   16  C   UNL     1      -9.192  15.583  67.275  1.00  0.00    -0.219 A  
HETATM   17  C   UNL     1      -9.339  14.216  67.575  1.00  0.00    -0.204 A  
HETATM   18  N   UNL     1      -8.507  13.657  68.581  1.00  0.00    -0.327 NA 
HETATM   19  C   UNL     1      -7.638  12.605  68.219  1.00  0.00    -0.133 A  
HETATM   20  H   UNL     1      -8.536  14.005  69.538  1.00  0.00     0.000 HD 
HETATM   21  C   UNL     1      -6.258  12.761  68.419  1.00  0.00    -0.073 A  
HETATM   22  C   UNL     1      -5.350  11.827  67.914  1.00  0.00    -0.051 A  
HETATM   23  C   UNL     1      -5.808  10.729  67.192  1.00  0.00    -0.050 A  
HETATM   24  C   UNL     1      -7.175  10.553  66.998  1.00  0.00    -0.098 A  
HETATM   25  C   UNL     1      -8.093  11.475  67.528  1.00  0.00    -0.137 A  
ENDBRANCH   5   8
TORSDOF 1
ENDMDL
MODEL       83
REMARK 921   NORMALIZED FREE ENERGY PREDICTED BY IDOCK:   -4.37 KCAL/MOL
REMARK 922        TOTAL FREE ENERGY PREDICTED BY IDOCK:   -5.00 KCAL/MOL
REMARK 923 INTER-LIGAND FREE ENERGY PREDICTED BY IDOCK:   -4.74 KCAL/MOL
REMARK 924 INTRA-LIGAND FREE ENERGY PREDICTED BY IDOCK:   -0.26 KCAL/MOL
REMARK 927      BINDING AFFINITY PREDICTED BY RF-SCORE:    0.00 PKD
ROOT
HETATM    1  C   UNL     1     -11.619   5.078  72.856  1.00  0.00    -0.178 C  
HETATM    2  N   UNL     1     -10.322   5.238  72.204  1.00  0.00    -0.206 NA 
HETATM    3  C   UNL     1     -10.440   5.197  70.731  1.00  0.00    -0.193 C  
HETATM    4  C   UNL     1     -11.091   6.439  70.084  1.00  0.00    -0.365 C  
HETATM    5  N   UNL     1     -10.446   7.681  70.533  1.00  0.00    -0.217 NA 
HETATM    6  C   UNL     1      -9.657   6.505  72.588  1.00  0.00    -0.150 C  
HETATM    7  C   UNL     1     -10.269   7.791  71.987  1.00  0.00    -0.201 C  
ENDROOT
BRANCH   5   8
HETATM    8  C   UNL     1      -9.984   8.666  69.655  1.00  0.00    -0.191 C  
HETATM    9  N   UNL     1     -10.811   9.599  69.260  1.00  0.00    -0.274 NA 
HETATM   10  C   UNL     1     -10.459  10.663  68.407  1.00  0.00    -0.188 A  
HETATM   11  H   UNL     1     -11.774   9.553  69.591  1.00  0.00     0.000 HD 
HETATM   12  C   UNL     1     -11.422  11.059  67.470  1.00  0.00    -0.266 A  
HETATM   13  C   UNL     1     -11.187  12.137  66.616  1.00  0.00    -0.324 A  
HETATM   14  C   UNL     1      -9.999  12.858  66.697  1.00  0.00    -0.251 A  
HETATM   15 CL   UNL     1     -12.363  12.576  65.441  1.00  0.00    -0.499 Cl 
HETATM   16  C   UNL     1      -9.043  12.500  67.646  1.00  0.00    -0.187 A  
HETATM   17  C   UNL     1      -9.261  11.408  68.505  1.00  0.00    -0.174 A  
HETATM   18  N   UNL     1      -8.192  10.989  69.341  1.00  0.00    -0.381 NA 
HETATM   19  C   UNL     1      -7.703   9.674  69.190  1.00  0.00    -0.087 A  
HETATM   20  H   UNL     1      -7.789  11.621  70.032  1.00  0.00     0.000 HD 
HETATM   21  C   UNL     1      -6.349   9.482  68.873  1.00  0.00    -0.043 A  
HETATM   22  C   UNL     1      -5.864   8.215  68.540  1.00  0.00    -0.040 A  
HETATM   23  C   UNL     1      -6.726   7.124  68.506  1.00  0.00    -0.060 A  
HETATM   24  C   UNL     1      -8.069   7.296  68.832  1.00  0.00    -0.128 A  
HETATM   25  C   UNL     1      -8.555   8.563  69.196  1.00  0.00    -0.133 A  
ENDBRANCH   5   8
TORSDOF 1
ENDMDL
MODEL       84
REMARK 921   NORMALIZED FREE ENERGY PREDICTED BY IDOCK:   -4.35 KCAL/MOL
REMARK 922        TOTAL FREE ENERGY PREDICTED BY IDOCK:   -4.98 KCAL/MOL
REMARK 923 INTER-LIGAND FREE ENERGY PREDICTED BY IDOCK:   -4.68 KCAL/MOL
REMARK 924 INTRA-LIGAND FREE ENERGY PREDICTED BY IDOCK:   -0.30 KCAL/MOL
REMARK 927      BINDING AFFINITY PREDICTED BY RF-SCORE:    0.00 PKD
ROOT
HETATM    1  C   UNL     1     -10.422   9.223  66.422  1.00  0.00    -0.087 C  
HETATM    2  N   UNL     1     -10.355  10.012  67.649  1.00  0.00    -0.207 NA 
HETATM    3  C   UNL     1      -9.040  10.667  67.810  1.00  0.00    -0.143 C  
HETATM    4  C   UNL     1      -8.765  11.847  66.852  1.00  0.00    -0.191 C  
HETATM    5  N   UNL     1      -9.857  12.830  66.883  1.00  0.00    -0.231 NA 
HETATM    6  C   UNL     1     -11.408  11.054  67.698  1.00  0.00    -0.281 C  
HETATM    7  C   UNL     1     -11.203  12.259  66.752  1.00  0.00    -0.318 C  
ENDROOT
BRANCH   5   8
HETATM    8  C   UNL     1      -9.649  14.200  67.073  1.00  0.00    -0.262 C  
HETATM    9  N   UNL     1      -8.822  14.830  66.281  1.00  0.00    -0.479 NA 
HETATM   10  C   UNL     1      -8.555  16.211  66.348  1.00  0.00    -0.330 A  
HETATM   11  H   UNL     1      -8.337  14.286  65.568  1.00  0.00     0.000 HD 
HETATM   12  C   UNL     1      -7.234  16.607  66.104  1.00  0.00     0.125 A  
HETATM   13  C   UNL     1      -6.881  17.957  66.096  1.00  0.00    -0.289 A  
HETATM   14  C   UNL     1      -7.844  18.941  66.304  1.00  0.00    -0.299 A  
HETATM   15 CL   UNL     1      -5.243  18.417  65.842  1.00  0.00    -0.186 Cl 
HETATM   16  C   UNL     1      -9.170  18.568  66.514  1.00  0.00    -0.312 A  
HETATM   17  C   UNL     1      -9.538  17.211  66.537  1.00  0.00    -0.279 A  
HETATM   18  N   UNL     1     -10.868  16.883  66.912  1.00  0.00    -0.108 NA 
HETATM   19  C   UNL     1     -11.059  16.070  68.050  1.00  0.00    -0.334 A  
HETATM   20  H   UNL     1     -11.663  17.226  66.375  1.00  0.00     0.000 HD 
HETATM   21  C   UNL     1     -11.828  16.559  69.117  1.00  0.00     0.251 A  
HETATM   22  C   UNL     1     -11.894  15.868  70.329  1.00  0.00    -0.343 A  
HETATM   23  C   UNL     1     -11.184  14.683  70.496  1.00  0.00    -0.144 A  
HETATM   24  C   UNL     1     -10.429  14.177  69.442  1.00  0.00    -0.000 A  
HETATM   25  C   UNL     1     -10.382  14.855  68.212  1.00  0.00    -0.232 A  
ENDBRANCH   5   8
TORSDOF 1
ENDMDL
MODEL       85
REMARK 921   NORMALIZED FREE ENERGY PREDICTED BY IDOCK:   -4.32 KCAL/MOL
REMARK 922        TOTAL FREE ENERGY PREDICTED BY IDOCK:   -4.95 KCAL/MOL
REMARK 923 INTER-LIGAND FREE ENERGY PREDICTED BY IDOCK:   -4.54 KCAL/MOL
REMARK 924 INTRA-LIGAND FREE ENERGY PREDICTED BY IDOCK:   -0.40 KCAL/MOL
REMARK 927      BINDING AFFINITY PREDICTED BY RF-SCORE:    0.00 PKD
ROOT
HETATM    1  C   UNL     1     -10.165   7.637  72.305  1.00  0.00    -0.216 C  
HETATM    2  N   UNL     1      -9.711   8.955  71.868  1.00  0.00    -0.313 NA 
HETATM    3  C   UNL     1      -8.420   8.881  71.152  1.00  0.00    -0.198 C  
HETATM    4  C   UNL     1      -8.481   8.263  69.738  1.00  0.00    -0.128 C  
HETATM    5  N   UNL     1      -9.512   8.907  68.913  1.00  0.00    -0.151 NA 
HETATM    6  C   UNL     1     -10.700   9.620  70.988  1.00  0.00    -0.323 C  
HETATM    7  C   UNL     1     -10.823   9.041  69.561  1.00  0.00    -0.166 C  
ENDROOT
BRANCH   5   8
HETATM    8  C   UNL     1      -9.266   9.405  67.630  1.00  0.00    -0.127 C  
HETATM    9  N   UNL     1      -9.116   8.561  66.642  1.00  0.00    -0.155 NA 
HETATM   10  C   UNL     1      -8.900   8.938  65.303  1.00  0.00    -0.184 A  
HETATM   11  H   UNL     1      -9.158   7.565  66.856  1.00  0.00     0.000 HD 
HETATM   12  C   UNL     1      -8.016   8.141  64.563  1.00  0.00    -0.142 A  
HETATM   13  C   UNL     1      -7.777   8.402  63.213  1.00  0.00    -0.140 A  
HETATM   14  C   UNL     1      -8.433   9.446  62.567  1.00  0.00    -0.200 A  
HETATM   15 CL   UNL     1      -6.653   7.440  62.337  1.00  0.00    -0.068 Cl 
HETATM   16  C   UNL     1      -9.341  10.229  63.278  1.00  0.00    -0.340 A  
HETATM   17  C   UNL     1      -9.583   9.985  64.642  1.00  0.00    -0.297 A  
HETATM   18  N   UNL     1     -10.394  10.908  65.355  1.00  0.00    -0.272 NA 
HETATM   19  C   UNL     1      -9.825  11.584  66.456  1.00  0.00    -0.202 A  
HETATM   20  H   UNL     1     -11.360  11.079  65.078  1.00  0.00     0.000 HD 
HETATM   21  C   UNL     1      -9.789  12.987  66.451  1.00  0.00    -0.270 A  
HETATM   22  C   UNL     1      -9.080  13.689  67.429  1.00  0.00    -0.222 A  
HETATM   23  C   UNL     1      -8.388  12.999  68.419  1.00  0.00    -0.118 A  
HETATM   24  C   UNL     1      -8.426  11.607  68.445  1.00  0.00    -0.157 A  
HETATM   25  C   UNL     1      -9.161  10.898  67.480  1.00  0.00    -0.153 A  
ENDBRANCH   5   8
TORSDOF 1
ENDMDL
MODEL       86
REMARK 921   NORMALIZED FREE ENERGY PREDICTED BY IDOCK:   -4.29 KCAL/MOL
REMARK 922        TOTAL FREE ENERGY PREDICTED BY IDOCK:   -4.92 KCAL/MOL
REMARK 923 INTER-LIGAND FREE ENERGY PREDICTED BY IDOCK:   -4.54 KCAL/MOL
REMARK 924 INTRA-LIGAND FREE ENERGY PREDICTED BY IDOCK:   -0.39 KCAL/MOL
REMARK 927      BINDING AFFINITY PREDICTED BY RF-SCORE:    0.00 PKD
ROOT
HETATM    1  C   UNL     1      -7.034   3.739  67.123  1.00  0.00    -0.058 C  
HETATM    2  N   UNL     1      -7.068   4.273  68.482  1.00  0.00    -0.051 NA 
HETATM    3  C   UNL     1      -6.432   5.604  68.565  1.00  0.00    -0.043 C  
HETATM    4  C   UNL     1      -7.230   6.761  67.925  1.00  0.00    -0.091 C  
HETATM    5  N   UNL     1      -8.613   6.799  68.421  1.00  0.00    -0.125 NA 
HETATM    6  C   UNL     1      -8.450   4.379  69.005  1.00  0.00    -0.082 C  
HETATM    7  C   UNL     1      -9.312   5.508  68.395  1.00  0.00    -0.111 C  
ENDROOT
BRANCH   5   8
HETATM    8  C   UNL     1      -9.214   7.956  68.930  1.00  0.00    -0.144 C  
HETATM    9  N   UNL     1      -9.616   8.879  68.096  1.00  0.00    -0.143 NA 
HETATM   10  C   UNL     1     -10.264  10.068  68.481  1.00  0.00    -0.175 A  
HETATM   11  H   UNL     1      -9.449   8.727  67.102  1.00  0.00     0.000 HD 
HETATM   12  C   UNL     1      -9.935  11.222  67.758  1.00  0.00    -0.193 A  
HETATM   13  C   UNL     1     -10.562  12.439  68.030  1.00  0.00    -0.221 A  
HETATM   14  C   UNL     1     -11.548  12.523  69.009  1.00  0.00    -0.365 A  
HETATM   15 CL   UNL     1     -10.108  13.853  67.163  1.00  0.00    -0.249 Cl 
HETATM   16  C   UNL     1     -11.913  11.379  69.715  1.00  0.00    -0.422 A  
HETATM   17  C   UNL     1     -11.281  10.148  69.460  1.00  0.00    -0.238 A  
HETATM   18  N   UNL     1     -11.577   9.053  70.314  1.00  0.00    -0.455 NA 
HETATM   19  C   UNL     1     -10.518   8.471  71.044  1.00  0.00    -0.212 A  
HETATM   20  H   UNL     1     -12.528   8.697  70.399  1.00  0.00     0.000 HD 
HETATM   21  C   UNL     1     -10.596   8.432  72.445  1.00  0.00    -0.405 A  
HETATM   22  C   UNL     1      -9.499   8.031  73.213  1.00  0.00    -0.336 A  
HETATM   23  C   UNL     1      -8.306   7.674  72.592  1.00  0.00    -0.158 A  
HETATM   24  C   UNL     1      -8.219   7.694  71.202  1.00  0.00    -0.100 A  
HETATM   25  C   UNL     1      -9.328   8.070  70.426  1.00  0.00    -0.158 A  
ENDBRANCH   5   8
TORSDOF 1
ENDMDL
MODEL       87
REMARK 921   NORMALIZED FREE ENERGY PREDICTED BY IDOCK:   -4.27 KCAL/MOL
REMARK 922        TOTAL FREE ENERGY PREDICTED BY IDOCK:   -4.90 KCAL/MOL
REMARK 923 INTER-LIGAND FREE ENERGY PREDICTED BY IDOCK:   -4.53 KCAL/MOL
REMARK 924 INTRA-LIGAND FREE ENERGY PREDICTED BY IDOCK:   -0.37 KCAL/MOL
REMARK 927      BINDING AFFINITY PREDICTED BY RF-SCORE:    0.00 PKD
ROOT
HETATM    1  C   UNL     1      -8.077   3.333  69.644  1.00  0.00    -0.048 C  
HETATM    2  N   UNL     1      -7.943   4.332  68.588  1.00  0.00    -0.073 NA 
HETATM    3  C   UNL     1      -9.258   4.854  68.156  1.00  0.00    -0.123 C  
HETATM    4  C   UNL     1      -9.963   5.788  69.163  1.00  0.00    -0.177 C  
HETATM    5  N   UNL     1      -9.076   6.875  69.602  1.00  0.00    -0.144 NA 
HETATM    6  C   UNL     1      -7.098   5.476  69.006  1.00  0.00    -0.068 C  
HETATM    7  C   UNL     1      -7.738   6.444  70.026  1.00  0.00    -0.102 C  
ENDROOT
BRANCH   5   8
HETATM    8  C   UNL     1      -9.445   8.224  69.573  1.00  0.00    -0.162 C  
HETATM    9  N   UNL     1      -8.813   9.035  68.766  1.00  0.00    -0.136 NA 
HETATM   10  C   UNL     1      -9.113  10.403  68.620  1.00  0.00    -0.157 A  
HETATM   11  H   UNL     1      -8.052   8.652  68.205  1.00  0.00     0.000 HD 
HETATM   12  C   UNL     1      -8.026  11.267  68.438  1.00  0.00    -0.140 A  
HETATM   13  C   UNL     1      -8.224  12.633  68.233  1.00  0.00    -0.164 A  
HETATM   14  C   UNL     1      -9.511  13.160  68.178  1.00  0.00    -0.222 A  
HETATM   15 CL   UNL     1      -6.872  13.682  68.059  1.00  0.00    -0.119 Cl 
HETATM   16  C   UNL     1     -10.607  12.312  68.323  1.00  0.00    -0.243 A  
HETATM   17  C   UNL     1     -10.421  10.934  68.543  1.00  0.00    -0.188 A  
HETATM   18  N   UNL     1     -11.563  10.144  68.842  1.00  0.00    -0.504 NA 
HETATM   19  C   UNL     1     -11.599   9.465  70.080  1.00  0.00    -0.009 A  
HETATM   20  H   UNL     1     -12.336  10.069  68.182  1.00  0.00     0.000 HD 
HETATM   21  C   UNL     1     -12.652   9.726  70.970  1.00  0.00    -0.406 A  
HETATM   22  C   UNL     1     -12.633   9.216  72.271  1.00  0.00    -0.425 A  
HETATM   23  C   UNL     1     -11.556   8.449  72.704  1.00  0.00    -0.367 A  
HETATM   24  C   UNL     1     -10.511   8.170  71.827  1.00  0.00    -0.304 A  
HETATM   25  C   UNL     1     -10.540   8.657  70.510  1.00  0.00    -0.248 A  
ENDBRANCH   5   8
TORSDOF 1
ENDMDL
MODEL       88
REMARK 921   NORMALIZED FREE ENERGY PREDICTED BY IDOCK:   -4.22 KCAL/MOL
REMARK 922        TOTAL FREE ENERGY PREDICTED BY IDOCK:   -4.84 KCAL/MOL
REMARK 923 INTER-LIGAND FREE ENERGY PREDICTED BY IDOCK:   -4.55 KCAL/MOL
REMARK 924 INTRA-LIGAND FREE ENERGY PREDICTED BY IDOCK:   -0.29 KCAL/MOL
REMARK 927      BINDING AFFINITY PREDICTED BY RF-SCORE:    0.00 PKD
ROOT
HETATM    1  C   UNL     1      -8.132  13.972  68.316  1.00  0.00    -0.148 C  
HETATM    2  N   UNL     1      -7.809  12.823  67.474  1.00  0.00    -0.159 NA 
HETATM    3  C   UNL     1      -7.046  11.797  68.215  1.00  0.00    -0.079 C  
HETATM    4  C   UNL     1      -7.853  10.997  69.261  1.00  0.00    -0.052 C  
HETATM    5  N   UNL     1      -9.079  10.434  68.679  1.00  0.00    -0.149 NA 
HETATM    6  C   UNL     1      -9.022  12.189  66.907  1.00  0.00    -0.201 C  
HETATM    7  C   UNL     1      -9.886  11.385  67.904  1.00  0.00    -0.179 C  
ENDROOT
BRANCH   5   8
HETATM    8  C   UNL     1      -9.436   9.087  68.801  1.00  0.00    -0.148 C  
HETATM    9  N   UNL     1      -9.139   8.264  67.828  1.00  0.00    -0.132 NA 
HETATM   10  C   UNL     1      -9.413   6.883  67.847  1.00  0.00    -0.120 A  
HETATM   11  H   UNL     1      -8.679   8.648  67.003  1.00  0.00     0.000 HD 
HETATM   12  C   UNL     1      -9.809   6.307  66.633  1.00  0.00    -0.201 A  
HETATM   13  C   UNL     1     -10.053   4.937  66.537  1.00  0.00    -0.255 A  
HETATM   14  C   UNL     1      -9.879   4.108  67.643  1.00  0.00    -0.122 A  
HETATM   15 CL   UNL     1     -10.585   4.259  65.049  1.00  0.00    -0.236 Cl 
HETATM   16  C   UNL     1      -9.452   4.657  68.850  1.00  0.00    -0.218 A  
HETATM   17  C   UNL     1      -9.215   6.039  68.965  1.00  0.00    -0.121 A  
HETATM   18  N   UNL     1      -8.937   6.567  70.253  1.00  0.00    -0.154 NA 
HETATM   19  C   UNL     1      -9.813   7.543  70.778  1.00  0.00    -0.178 A  
HETATM   20  H   UNL     1      -8.128   6.250  70.785  1.00  0.00     0.000 HD 
HETATM   21  C   UNL     1     -10.458   7.293  71.999  1.00  0.00    -0.228 A  
HETATM   22  C   UNL     1     -11.463   8.145  72.465  1.00  0.00    -0.470 A  
HETATM   23  C   UNL     1     -11.846   9.250  71.711  1.00  0.00    -0.454 A  
HETATM   24  C   UNL     1     -11.204   9.518  70.505  1.00  0.00    -0.345 A  
HETATM   25  C   UNL     1     -10.174   8.681  70.047  1.00  0.00    -0.201 A  
ENDBRANCH   5   8
TORSDOF 1
ENDMDL
MODEL       89
REMARK 921   NORMALIZED FREE ENERGY PREDICTED BY IDOCK:   -4.19 KCAL/MOL
REMARK 922        TOTAL FREE ENERGY PREDICTED BY IDOCK:   -4.81 KCAL/MOL
REMARK 923 INTER-LIGAND FREE ENERGY PREDICTED BY IDOCK:   -4.50 KCAL/MOL
REMARK 924 INTRA-LIGAND FREE ENERGY PREDICTED BY IDOCK:   -0.31 KCAL/MOL
REMARK 927      BINDING AFFINITY PREDICTED BY RF-SCORE:    0.00 PKD
ROOT
HETATM    1  C   UNL     1      -5.421   5.822  66.370  1.00  0.00    -0.013 C  
HETATM    2  N   UNL     1      -6.606   6.591  66.000  1.00  0.00    -0.046 NA 
HETATM    3  C   UNL     1      -7.822   6.085  66.672  1.00  0.00    -0.101 C  
HETATM    4  C   UNL     1      -7.914   6.380  68.185  1.00  0.00    -0.109 C  
HETATM    5  N   UNL     1      -7.702   7.806  68.470  1.00  0.00    -0.116 NA 
HETATM    6  C   UNL     1      -6.457   8.031  66.319  1.00  0.00    -0.047 C  
HETATM    7  C   UNL     1      -6.524   8.394  67.819  1.00  0.00    -0.061 C  
ENDROOT
BRANCH   5   8
HETATM    8  C   UNL     1      -8.574   8.569  69.254  1.00  0.00    -0.129 C  
HETATM    9  N   UNL     1      -9.470   9.313  68.661  1.00  0.00    -0.145 NA 
HETATM   10  C   UNL     1     -10.424  10.097  69.338  1.00  0.00    -0.233 A  
HETATM   11  H   UNL     1      -9.479   9.327  67.641  1.00  0.00     0.000 HD 
HETATM   12  C   UNL     1     -10.730  11.340  68.770  1.00  0.00    -0.240 A  
HETATM   13  C   UNL     1     -11.700  12.167  69.338  1.00  0.00    -0.329 A  
HETATM   14  C   UNL     1     -12.404  11.758  70.468  1.00  0.00    -0.387 A  
HETATM   15 CL   UNL     1     -12.024  13.710  68.652  1.00  0.00    -0.399 Cl 
HETATM   16  C   UNL     1     -12.139  10.510  71.027  1.00  0.00    -0.492 A  
HETATM   17  C   UNL     1     -11.154   9.671  70.472  1.00  0.00    -0.308 A  
HETATM   18  N   UNL     1     -10.814   8.484  71.172  1.00  0.00    -0.232 NA 
HETATM   19  C   UNL     1      -9.481   8.326  71.611  1.00  0.00    -0.195 A  
HETATM   20  H   UNL     1     -11.513   7.764  71.354  1.00  0.00     0.000 HD 
HETATM   21  C   UNL     1      -9.231   8.142  72.979  1.00  0.00    -0.343 A  
HETATM   22  C   UNL     1      -7.926   8.162  73.478  1.00  0.00    -0.247 A  
HETATM   23  C   UNL     1      -6.853   8.378  72.618  1.00  0.00    -0.102 A  
HETATM   24  C   UNL     1      -7.085   8.548  71.255  1.00  0.00    -0.078 A  
HETATM   25  C   UNL     1      -8.394   8.500  70.746  1.00  0.00    -0.154 A  
ENDBRANCH   5   8
TORSDOF 1
ENDMDL
MODEL       90
REMARK 921   NORMALIZED FREE ENERGY PREDICTED BY IDOCK:   -4.18 KCAL/MOL
REMARK 922        TOTAL FREE ENERGY PREDICTED BY IDOCK:   -4.80 KCAL/MOL
REMARK 923 INTER-LIGAND FREE ENERGY PREDICTED BY IDOCK:   -4.39 KCAL/MOL
REMARK 924 INTRA-LIGAND FREE ENERGY PREDICTED BY IDOCK:   -0.41 KCAL/MOL
REMARK 927      BINDING AFFINITY PREDICTED BY RF-SCORE:    0.00 PKD
ROOT
HETATM    1  C   UNL     1     -10.031   4.674  69.329  1.00  0.00    -0.161 C  
HETATM    2  N   UNL     1      -9.205   5.126  68.212  1.00  0.00    -0.113 NA 
HETATM    3  C   UNL     1     -10.024   5.685  67.116  1.00  0.00    -0.164 C  
HETATM    4  C   UNL     1     -10.663   7.062  67.402  1.00  0.00    -0.313 C  
HETATM    5  N   UNL     1      -9.663   8.032  67.870  1.00  0.00    -0.155 NA 
HETATM    6  C   UNL     1      -8.216   6.147  68.629  1.00  0.00    -0.108 C  
HETATM    7  C   UNL     1      -8.790   7.546  68.946  1.00  0.00    -0.135 C  
ENDROOT
BRANCH   5   8
HETATM    8  C   UNL     1      -9.508   9.304  67.309  1.00  0.00    -0.144 C  
HETATM    9  N   UNL     1     -10.440  10.200  67.506  1.00  0.00    -0.234 NA 
HETATM   10  C   UNL     1     -10.385  11.522  67.026  1.00  0.00    -0.220 A  
HETATM   11  H   UNL     1     -11.262   9.922  68.043  1.00  0.00     0.000 HD 
HETATM   12  C   UNL     1     -11.591  12.079  66.582  1.00  0.00    -0.389 A  
HETATM   13  C   UNL     1     -11.649  13.399  66.136  1.00  0.00    -0.346 A  
HETATM   14  C   UNL     1     -10.510  14.201  66.150  1.00  0.00    -0.297 A  
HETATM   15 CL   UNL     1     -13.131  14.047  65.552  1.00  0.00    -0.389 Cl 
HETATM   16  C   UNL     1      -9.308  13.675  66.619  1.00  0.00    -0.265 A  
HETATM   17  C   UNL     1      -9.232  12.341  67.060  1.00  0.00    -0.205 A  
HETATM   18  N   UNL     1      -7.954  11.812  67.377  1.00  0.00    -0.146 NA 
HETATM   19  C   UNL     1      -7.494  10.696  66.644  1.00  0.00    -0.129 A  
HETATM   20  H   UNL     1      -7.383  12.226  68.113  1.00  0.00     0.000 HD 
HETATM   21  C   UNL     1      -6.288  10.797  65.933  1.00  0.00    -0.109 A  
HETATM   22  C   UNL     1      -5.887   9.786  65.055  1.00  0.00    -0.079 A  
HETATM   23  C   UNL     1      -6.691   8.666  64.867  1.00  0.00    -0.068 A  
HETATM   24  C   UNL     1      -7.882   8.545  65.577  1.00  0.00    -0.104 A  
HETATM   25  C   UNL     1      -8.275   9.545  66.482  1.00  0.00    -0.119 A  
ENDBRANCH   5   8
TORSDOF 1
ENDMDL
MODEL       91
REMARK 921   NORMALIZED FREE ENERGY PREDICTED BY IDOCK:   -4.16 KCAL/MOL
REMARK 922        TOTAL FREE ENERGY PREDICTED BY IDOCK:   -4.78 KCAL/MOL
REMARK 923 INTER-LIGAND FREE ENERGY PREDICTED BY IDOCK:   -4.39 KCAL/MOL
REMARK 924 INTRA-LIGAND FREE ENERGY PREDICTED BY IDOCK:   -0.39 KCAL/MOL
REMARK 927      BINDING AFFINITY PREDICTED BY RF-SCORE:    0.00 PKD
ROOT
HETATM    1  C   UNL     1      -7.320   5.298  67.207  1.00  0.00    -0.083 C  
HETATM    2  N   UNL     1      -7.924   6.207  66.237  1.00  0.00    -0.104 NA 
HETATM    3  C   UNL     1      -9.372   6.385  66.478  1.00  0.00    -0.155 C  
HETATM    4  C   UNL     1      -9.739   7.222  67.723  1.00  0.00    -0.140 C  
HETATM    5  N   UNL     1      -9.035   8.512  67.729  1.00  0.00    -0.136 NA 
HETATM    6  C   UNL     1      -7.279   7.541  66.246  1.00  0.00    -0.074 C  
HETATM    7  C   UNL     1      -7.591   8.427  67.473  1.00  0.00    -0.098 C  
ENDROOT
BRANCH   5   8
HETATM    8  C   UNL     1      -9.683   9.738  67.912  1.00  0.00    -0.144 C  
HETATM    9  N   UNL     1     -10.074  10.074  69.114  1.00  0.00    -0.195 NA 
HETATM   10  C   UNL     1     -10.704  11.292  69.431  1.00  0.00    -0.141 A  
HETATM   11  H   UNL     1      -9.912   9.409  69.870  1.00  0.00     0.000 HD 
HETATM   12  C   UNL     1     -11.721  11.239  70.394  1.00  0.00    -0.398 A  
HETATM   13  C   UNL     1     -12.370  12.400  70.814  1.00  0.00    -0.286 A  
HETATM   14  C   UNL     1     -11.999  13.642  70.304  1.00  0.00    -0.397 A  
HETATM   15 CL   UNL     1     -13.647  12.306  71.961  1.00  0.00    -0.425 Cl 
HETATM   16  C   UNL     1     -10.967  13.719  69.371  1.00  0.00    -0.142 A  
HETATM   17  C   UNL     1     -10.313  12.554  68.928  1.00  0.00    -0.038 A  
HETATM   18  N   UNL     1      -9.381  12.673  67.864  1.00  0.00    -0.197 NA 
HETATM   19  C   UNL     1      -9.630  11.953  66.675  1.00  0.00    -0.209 A  
HETATM   20  H   UNL     1      -8.554  13.262  67.954  1.00  0.00     0.000 HD 
HETATM   21  C   UNL     1      -9.748  12.654  65.465  1.00  0.00    -0.110 A  
HETATM   22  C   UNL     1     -10.170  12.007  64.301  1.00  0.00    -0.347 A  
HETATM   23  C   UNL     1     -10.492  10.654  64.332  1.00  0.00    -0.247 A  
HETATM   24  C   UNL     1     -10.366   9.942  65.522  1.00  0.00    -0.060 A  
HETATM   25  C   UNL     1      -9.915  10.582  66.688  1.00  0.00    -0.260 A  
ENDBRANCH   5   8
TORSDOF 1
ENDMDL
MODEL       92
REMARK 921   NORMALIZED FREE ENERGY PREDICTED BY IDOCK:   -4.15 KCAL/MOL
REMARK 922        TOTAL FREE ENERGY PREDICTED BY IDOCK:   -4.77 KCAL/MOL
REMARK 923 INTER-LIGAND FREE ENERGY PREDICTED BY IDOCK:   -4.38 KCAL/MOL
REMARK 924 INTRA-LIGAND FREE ENERGY PREDICTED BY IDOCK:   -0.39 KCAL/MOL
REMARK 927      BINDING AFFINITY PREDICTED BY RF-SCORE:    0.00 PKD
ROOT
HETATM    1  C   UNL     1      -9.144   2.701  66.575  1.00  0.00    -0.117 C  
HETATM    2  N   UNL     1      -8.218   3.636  67.210  1.00  0.00    -0.090 NA 
HETATM    3  C   UNL     1      -7.720   4.649  66.255  1.00  0.00    -0.091 C  
HETATM    4  C   UNL     1      -8.749   5.718  65.826  1.00  0.00    -0.151 C  
HETATM    5  N   UNL     1      -9.385   6.350  66.990  1.00  0.00    -0.127 NA 
HETATM    6  C   UNL     1      -8.836   4.338  68.359  1.00  0.00    -0.107 C  
HETATM    7  C   UNL     1      -9.888   5.412  68.002  1.00  0.00    -0.144 C  
ENDROOT
BRANCH   5   8
HETATM    8  C   UNL     1      -9.466   7.737  67.161  1.00  0.00    -0.155 C  
HETATM    9  N   UNL     1     -10.141   8.442  66.292  1.00  0.00    -0.455 NA 
HETATM   10  C   UNL     1     -10.325   9.836  66.372  1.00  0.00    -0.177 A  
HETATM   11  H   UNL     1     -10.563   7.951  65.504  1.00  0.00     0.000 HD 
HETATM   12  C   UNL     1     -10.306  10.541  65.162  1.00  0.00    -0.310 A  
HETATM   13  C   UNL     1     -10.530  11.918  65.133  1.00  0.00    -0.287 A  
HETATM   14  C   UNL     1     -10.806  12.615  66.307  1.00  0.00    -0.300 A  
HETATM   15 CL   UNL     1     -10.454  12.771  63.642  1.00  0.00    -0.344 Cl 
HETATM   16  C   UNL     1     -10.864  11.925  67.516  1.00  0.00    -0.283 A  
HETATM   17  C   UNL     1     -10.627  10.539  67.562  1.00  0.00    -0.259 A  
HETATM   18  N   UNL     1     -10.541   9.915  68.835  1.00  0.00    -0.211 NA 
HETATM   19  C   UNL     1      -9.335   9.267  69.180  1.00  0.00    -0.157 A  
HETATM   20  H   UNL     1     -11.328   9.936  69.483  1.00  0.00     0.000 HD 
HETATM   21  C   UNL     1      -8.642   9.681  70.328  1.00  0.00    -0.234 A  
HETATM   22  C   UNL     1      -7.363   9.194  70.607  1.00  0.00    -0.114 A  
HETATM   23  C   UNL     1      -6.753   8.294  69.738  1.00  0.00    -0.040 A  
HETATM   24  C   UNL     1      -7.435   7.863  68.603  1.00  0.00    -0.099 A  
HETATM   25  C   UNL     1      -8.732   8.329  68.333  1.00  0.00    -0.133 A  
ENDBRANCH   5   8
TORSDOF 1
ENDMDL
MODEL       93
REMARK 921   NORMALIZED FREE ENERGY PREDICTED BY IDOCK:   -4.15 KCAL/MOL
REMARK 922        TOTAL FREE ENERGY PREDICTED BY IDOCK:   -4.77 KCAL/MOL
REMARK 923 INTER-LIGAND FREE ENERGY PREDICTED BY IDOCK:   -4.49 KCAL/MOL
REMARK 924 INTRA-LIGAND FREE ENERGY PREDICTED BY IDOCK:   -0.28 KCAL/MOL
REMARK 927      BINDING AFFINITY PREDICTED BY RF-SCORE:    0.00 PKD
ROOT
HETATM    1  C   UNL     1      -6.595  14.944  67.503  1.00  0.00    -0.112 C  
HETATM    2  N   UNL     1      -7.818  14.781  68.285  1.00  0.00    -0.118 NA 
HETATM    3  C   UNL     1      -8.934  14.273  67.459  1.00  0.00    -0.196 C  
HETATM    4  C   UNL     1      -8.824  12.792  67.035  1.00  0.00    -0.213 C  
HETATM    5  N   UNL     1      -8.575  11.919  68.191  1.00  0.00    -0.159 NA 
HETATM    6  C   UNL     1      -7.628  13.864  69.433  1.00  0.00     0.245 C  
HETATM    7  C   UNL     1      -7.494  12.366  69.079  1.00  0.00     0.075 C  
ENDROOT
BRANCH   5   8
HETATM    8  C   UNL     1      -9.334  10.776  68.466  1.00  0.00    -0.174 C  
HETATM    9  N   UNL     1      -9.001   9.645  67.901  1.00  0.00    -0.119 NA 
HETATM   10  C   UNL     1      -9.662   8.422  68.124  1.00  0.00    -0.155 A  
HETATM   11  H   UNL     1      -8.211   9.649  67.256  1.00  0.00     0.000 HD 
HETATM   12  C   UNL     1      -9.803   7.575  67.017  1.00  0.00    -0.280 A  
HETATM   13  C   UNL     1     -10.397   6.320  67.147  1.00  0.00    -0.229 A  
HETATM   14  C   UNL     1     -10.838   5.872  68.390  1.00  0.00    -0.322 A  
HETATM   15 CL   UNL     1     -10.604   5.318  65.765  1.00  0.00    -0.068 Cl 
HETATM   16  C   UNL     1     -10.675   6.685  69.509  1.00  0.00    -0.305 A  
HETATM   17  C   UNL     1     -10.089   7.959  69.390  1.00  0.00    -0.196 A  
HETATM   18  N   UNL     1     -10.093   8.807  70.529  1.00  0.00    -0.187 NA 
HETATM   19  C   UNL     1     -10.759  10.048  70.434  1.00  0.00    -0.307 A  
HETATM   20  H   UNL     1      -9.626   8.528  71.391  1.00  0.00     0.000 HD 
HETATM   21  C   UNL     1     -11.803  10.331  71.329  1.00  0.00    -0.425 A  
HETATM   22  C   UNL     1     -12.604  11.463  71.160  1.00  0.00    -0.490 A  
HETATM   23  C   UNL     1     -12.382  12.322  70.088  1.00  0.00    -0.212 A  
HETATM   24  C   UNL     1     -11.341  12.061  69.200  1.00  0.00    -0.338 A  
HETATM   25  C   UNL     1     -10.515  10.940  69.383  1.00  0.00    -0.205 A  
ENDBRANCH   5   8
TORSDOF 1
ENDMDL
MODEL       94
REMARK 921   NORMALIZED FREE ENERGY PREDICTED BY IDOCK:   -4.11 KCAL/MOL
REMARK 922        TOTAL FREE ENERGY PREDICTED BY IDOCK:   -4.72 KCAL/MOL
REMARK 923 INTER-LIGAND FREE ENERGY PREDICTED BY IDOCK:   -4.85 KCAL/MOL
REMARK 924 INTRA-LIGAND FREE ENERGY PREDICTED BY IDOCK:    0.12 KCAL/MOL
REMARK 927      BINDING AFFINITY PREDICTED BY RF-SCORE:    0.00 PKD
ROOT
HETATM    1  C   UNL     1      -6.123  13.037  67.596  1.00  0.00    -0.151 C  
HETATM    2  N   UNL     1      -6.011  11.583  67.504  1.00  0.00    -0.062 NA 
HETATM    3  C   UNL     1      -5.773  10.966  68.826  1.00  0.00    -0.040 C  
HETATM    4  C   UNL     1      -6.984  10.967  69.784  1.00  0.00    -0.120 C  
HETATM    5  N   UNL     1      -8.180  10.405  69.141  1.00  0.00    -0.146 NA 
HETATM    6  C   UNL     1      -7.220  10.968  66.908  1.00  0.00    -0.133 C  
HETATM    7  C   UNL     1      -8.475  10.949  67.809  1.00  0.00    -0.124 C  
ENDROOT
BRANCH   5   8
HETATM    8  C   UNL     1      -8.957   9.394  69.716  1.00  0.00    -0.188 C  
HETATM    9  N   UNL     1      -8.446   8.196  69.838  1.00  0.00    -0.123 NA 
HETATM   10  C   UNL     1      -9.112   7.106  70.430  1.00  0.00    -0.156 A  
HETATM   11  H   UNL     1      -7.503   8.042  69.481  1.00  0.00     0.000 HD 
HETATM   12  C   UNL     1      -8.905   5.851  69.843  1.00  0.00    -0.130 A  
HETATM   13  C   UNL     1      -9.480   4.703  70.387  1.00  0.00    -0.171 A  
HETATM   14  C   UNL     1     -10.250   4.778  71.545  1.00  0.00    -0.246 A  
HETATM   15 CL   UNL     1      -9.252   3.180  69.621  1.00  0.00    -0.207 Cl 
HETATM   16  C   UNL     1     -10.439   6.012  72.164  1.00  0.00    -0.246 A  
HETATM   17  C   UNL     1      -9.876   7.181  71.618  1.00  0.00    -0.162 A  
HETATM   18  N   UNL     1     -10.230   8.428  72.196  1.00  0.00    -0.291 NA 
HETATM   19  C   UNL     1     -10.872   9.384  71.379  1.00  0.00    -0.360 A  
HETATM   20  H   UNL     1     -10.027   8.629  73.175  1.00  0.00     0.000 HD 
HETATM   21  C   UNL     1     -12.137   9.863  71.755  1.00  0.00    -0.382 A  
HETATM   22  C   UNL     1     -12.883  10.668  70.891  1.00  0.00    -0.473 A  
HETATM   23  C   UNL     1     -12.382  10.997  69.636  1.00  0.00    -0.303 A  
HETATM   24  C   UNL     1     -11.123  10.542  69.255  1.00  0.00    -0.298 A  
HETATM   25  C   UNL     1     -10.357   9.755  70.132  1.00  0.00    -0.335 A  
ENDBRANCH   5   8
TORSDOF 1
ENDMDL
MODEL       95
REMARK 921   NORMALIZED FREE ENERGY PREDICTED BY IDOCK:   -4.09 KCAL/MOL
REMARK 922        TOTAL FREE ENERGY PREDICTED BY IDOCK:   -4.71 KCAL/MOL
REMARK 923 INTER-LIGAND FREE ENERGY PREDICTED BY IDOCK:   -4.37 KCAL/MOL
REMARK 924 INTRA-LIGAND FREE ENERGY PREDICTED BY IDOCK:   -0.34 KCAL/MOL
REMARK 927      BINDING AFFINITY PREDICTED BY RF-SCORE:    0.00 PKD
ROOT
HETATM    1  C   UNL     1     -10.416  14.220  64.753  1.00  0.00    -0.395 C  
HETATM    2  N   UNL     1     -11.035  13.423  65.809  1.00  0.00    -0.277 NA 
HETATM    3  C   UNL     1     -11.517  12.121  65.302  1.00  0.00    -0.336 C  
HETATM    4  C   UNL     1     -10.416  11.094  64.960  1.00  0.00    -0.293 C  
HETATM    5  N   UNL     1      -9.479  10.917  66.078  1.00  0.00    -0.195 NA 
HETATM    6  C   UNL     1     -10.106  13.174  66.936  1.00  0.00    -0.245 C  
HETATM    7  C   UNL     1      -8.969  12.166  66.657  1.00  0.00    -0.198 C  
ENDROOT
BRANCH   5   8
HETATM    8  C   UNL     1      -9.131   9.665  66.596  1.00  0.00    -0.148 C  
HETATM    9  N   UNL     1      -8.608   8.773  65.795  1.00  0.00    -0.153 NA 
HETATM   10  C   UNL     1      -8.185   7.493  66.202  1.00  0.00    -0.125 A  
HETATM   11  H   UNL     1      -8.500   9.021  64.812  1.00  0.00     0.000 HD 
HETATM   12  C   UNL     1      -8.414   6.443  65.303  1.00  0.00    -0.102 A  
HETATM   13  C   UNL     1      -7.985   5.147  65.592  1.00  0.00    -0.108 A  
HETATM   14  C   UNL     1      -7.295   4.878  66.771  1.00  0.00    -0.086 A  
HETATM   15 CL   UNL     1      -8.320   3.865  64.497  1.00  0.00    -0.097 Cl 
HETATM   16  C   UNL     1      -7.027   5.915  67.661  1.00  0.00    -0.069 A  
HETATM   17  C   UNL     1      -7.465   7.224  67.389  1.00  0.00    -0.096 A  
HETATM   18  N   UNL     1      -7.306   8.209  68.400  1.00  0.00    -0.092 NA 
HETATM   19  C   UNL     1      -8.463   8.843  68.901  1.00  0.00    -0.131 A  
HETATM   20  H   UNL     1      -6.382   8.451  68.754  1.00  0.00     0.000 HD 
HETATM   21  C   UNL     1      -8.746   8.762  70.273  1.00  0.00    -0.170 A  
HETATM   22  C   UNL     1      -9.964   9.218  70.783  1.00  0.00    -0.357 A  
HETATM   23  C   UNL     1     -10.922   9.751  69.926  1.00  0.00    -0.299 A  
HETATM   24  C   UNL     1     -10.651   9.852  68.564  1.00  0.00    -0.248 A  
HETATM   25  C   UNL     1      -9.416   9.420  68.052  1.00  0.00    -0.148 A  
ENDBRANCH   5   8
TORSDOF 1
ENDMDL
MODEL       96
REMARK 921   NORMALIZED FREE ENERGY PREDICTED BY IDOCK:   -4.03 KCAL/MOL
REMARK 922        TOTAL FREE ENERGY PREDICTED BY IDOCK:   -4.65 KCAL/MOL
REMARK 923 INTER-LIGAND FREE ENERGY PREDICTED BY IDOCK:   -4.30 KCAL/MOL
REMARK 924 INTRA-LIGAND FREE ENERGY PREDICTED BY IDOCK:   -0.35 KCAL/MOL
REMARK 927      BINDING AFFINITY PREDICTED BY RF-SCORE:    0.00 PKD
ROOT
HETATM    1  C   UNL     1     -13.632   9.267  72.107  1.00  0.00    -0.471 C  
HETATM    2  N   UNL     1     -12.289   8.755  72.367  1.00  0.00    -0.371 NA 
HETATM    3  C   UNL     1     -12.196   7.302  72.109  1.00  0.00    -0.223 C  
HETATM    4  C   UNL     1     -12.231   6.890  70.621  1.00  0.00    -0.258 C  
HETATM    5  N   UNL     1     -11.241   7.636  69.832  1.00  0.00    -0.152 NA 
HETATM    6  C   UNL     1     -11.262   9.444  71.552  1.00  0.00    -0.386 C  
HETATM    7  C   UNL     1     -11.251   9.089  70.048  1.00  0.00    -0.128 C  
ENDROOT
BRANCH   5   8
HETATM    8  C   UNL     1     -10.320   7.021  68.978  1.00  0.00    -0.200 C  
HETATM    9  N   UNL     1     -10.708   6.666  67.781  1.00  0.00    -0.252 NA 
HETATM   10  C   UNL     1      -9.869   6.072  66.819  1.00  0.00    -0.163 A  
HETATM   11  H   UNL     1     -11.682   6.830  67.527  1.00  0.00     0.000 HD 
HETATM   12  C   UNL     1     -10.442   5.077  66.016  1.00  0.00    -0.289 A  
HETATM   13  C   UNL     1      -9.707   4.466  65.000  1.00  0.00    -0.164 A  
HETATM   14  C   UNL     1      -8.394   4.853  64.746  1.00  0.00    -0.136 A  
HETATM   15 CL   UNL     1     -10.416   3.213  64.059  1.00  0.00    -0.178 Cl 
HETATM   16  C   UNL     1      -7.817   5.865  65.511  1.00  0.00    -0.103 A  
HETATM   17  C   UNL     1      -8.543   6.481  66.547  1.00  0.00    -0.123 A  
HETATM   18  N   UNL     1      -7.858   7.391  67.396  1.00  0.00    -0.110 NA 
HETATM   19  C   UNL     1      -7.793   7.096  68.775  1.00  0.00    -0.122 A  
HETATM   20  H   UNL     1      -7.424   8.233  67.020  1.00  0.00     0.000 HD 
HETATM   21  C   UNL     1      -6.536   6.967  69.387  1.00  0.00    -0.045 A  
HETATM   22  C   UNL     1      -6.422   6.503  70.699  1.00  0.00    -0.048 A  
HETATM   23  C   UNL     1      -7.562   6.151  71.416  1.00  0.00    -0.099 A  
HETATM   24  C   UNL     1      -8.816   6.287  70.827  1.00  0.00    -0.144 A  
HETATM   25  C   UNL     1      -8.937   6.780  69.517  1.00  0.00    -0.139 A  
ENDBRANCH   5   8
TORSDOF 1
ENDMDL
MODEL       97
REMARK 921   NORMALIZED FREE ENERGY PREDICTED BY IDOCK:   -4.00 KCAL/MOL
REMARK 922        TOTAL FREE ENERGY PREDICTED BY IDOCK:   -4.61 KCAL/MOL
REMARK 923 INTER-LIGAND FREE ENERGY PREDICTED BY IDOCK:   -4.22 KCAL/MOL
REMARK 924 INTRA-LIGAND FREE ENERGY PREDICTED BY IDOCK:   -0.39 KCAL/MOL
REMARK 927      BINDING AFFINITY PREDICTED BY RF-SCORE:    0.00 PKD
ROOT
HETATM    1  C   UNL     1     -10.269   7.702  72.151  1.00  0.00    -0.207 C  
HETATM    2  N   UNL     1     -10.584   7.713  70.724  1.00  0.00    -0.218 NA 
HETATM    3  C   UNL     1     -11.569   8.762  70.387  1.00  0.00    -0.088 C  
HETATM    4  C   UNL     1     -11.038  10.212  70.439  1.00  0.00    -0.324 C  
HETATM    5  N   UNL     1      -9.807  10.362  69.649  1.00  0.00    -0.188 NA 
HETATM    6  C   UNL     1      -9.376   7.916  69.889  1.00  0.00    -0.156 C  
HETATM    7  C   UNL     1      -8.782   9.343  69.907  1.00  0.00    -0.197 C  
ENDROOT
BRANCH   5   8
HETATM    8  C   UNL     1      -9.632  11.362  68.686  1.00  0.00    -0.173 C  
HETATM    9  N   UNL     1      -9.662  12.614  69.062  1.00  0.00    -0.368 NA 
HETATM   10  C   UNL     1      -9.465  13.707  68.197  1.00  0.00    -0.217 A  
HETATM   11  H   UNL     1      -9.841  12.811  70.047  1.00  0.00     0.000 HD 
HETATM   12  C   UNL     1     -10.248  14.844  68.435  1.00  0.00    -0.231 A  
HETATM   13  C   UNL     1     -10.090  15.996  67.665  1.00  0.00    -0.245 A  
HETATM   14  C   UNL     1      -9.127  16.048  66.660  1.00  0.00    -0.282 A  
HETATM   15 CL   UNL     1     -11.095  17.362  67.943  1.00  0.00    -0.151 Cl 
HETATM   16  C   UNL     1      -8.315  14.939  66.431  1.00  0.00     0.226 A  
HETATM   17  C   UNL     1      -8.472  13.766  67.191  1.00  0.00    -0.175 A  
HETATM   18  N   UNL     1      -7.730  12.616  66.812  1.00  0.00    -0.387 NA 
HETATM   19  C   UNL     1      -8.442  11.453  66.448  1.00  0.00    -0.160 A  
HETATM   20  H   UNL     1      -6.711  12.631  66.802  1.00  0.00     0.000 HD 
HETATM   21  C   UNL     1      -8.244  10.903  65.172  1.00  0.00     0.048 A  
HETATM   22  C   UNL     1      -9.053   9.865  64.705  1.00  0.00    -0.283 A  
HETATM   23  C   UNL     1     -10.079   9.368  65.503  1.00  0.00     0.029 A  
HETATM   24  C   UNL     1     -10.278   9.893  66.777  1.00  0.00    -0.301 A  
HETATM   25  C   UNL     1      -9.449  10.918  67.261  1.00  0.00    -0.176 A  
ENDBRANCH   5   8
TORSDOF 1
ENDMDL
MODEL       98
REMARK 921   NORMALIZED FREE ENERGY PREDICTED BY IDOCK:   -3.97 KCAL/MOL
REMARK 922        TOTAL FREE ENERGY PREDICTED BY IDOCK:   -4.58 KCAL/MOL
REMARK 923 INTER-LIGAND FREE ENERGY PREDICTED BY IDOCK:   -4.32 KCAL/MOL
REMARK 924 INTRA-LIGAND FREE ENERGY PREDICTED BY IDOCK:   -0.27 KCAL/MOL
REMARK 927      BINDING AFFINITY PREDICTED BY RF-SCORE:    0.00 PKD
ROOT
HETATM    1  C   UNL     1      -9.774   4.205  69.549  1.00  0.00    -0.183 C  
HETATM    2  N   UNL     1     -10.175   5.426  70.242  1.00  0.00    -0.245 NA 
HETATM    3  C   UNL     1      -9.021   6.309  70.510  1.00  0.00    -0.151 C  
HETATM    4  C   UNL     1      -8.430   7.022  69.273  1.00  0.00    -0.133 C  
HETATM    5  N   UNL     1      -9.471   7.722  68.508  1.00  0.00    -0.147 NA 
HETATM    6  C   UNL     1     -11.187   6.193  69.479  1.00  0.00    -0.411 C  
HETATM    7  C   UNL     1     -10.667   6.919  68.219  1.00  0.00    -0.214 C  
ENDROOT
BRANCH   5   8
HETATM    8  C   UNL     1      -9.369   9.063  68.123  1.00  0.00    -0.142 C  
HETATM    9  N   UNL     1      -9.896   9.982  68.888  1.00  0.00    -0.175 NA 
HETATM   10  C   UNL     1      -9.829  11.365  68.628  1.00  0.00    -0.193 A  
HETATM   11  H   UNL     1     -10.388   9.678  69.728  1.00  0.00     0.000 HD 
HETATM   12  C   UNL     1     -10.967  12.118  68.948  1.00  0.00    -0.269 A  
HETATM   13  C   UNL     1     -10.980  13.502  68.776  1.00  0.00    -0.261 A  
HETATM   14  C   UNL     1      -9.849  14.167  68.308  1.00  0.00    -0.235 A  
HETATM   15 CL   UNL     1     -12.403  14.400  69.128  1.00  0.00    -0.238 Cl 
HETATM   16  C   UNL     1      -8.697  13.440  68.018  1.00  0.00    -0.178 A  
HETATM   17  C   UNL     1      -8.674  12.042  68.174  1.00  0.00    -0.177 A  
HETATM   18  N   UNL     1      -7.531  11.335  67.715  1.00  0.00    -0.092 NA 
HETATM   19  C   UNL     1      -7.709  10.360  66.709  1.00  0.00    -0.114 A  
HETATM   20  H   UNL     1      -6.607  11.526  68.100  1.00  0.00     0.000 HD 
HETATM   21  C   UNL     1      -7.009  10.492  65.500  1.00  0.00    -0.100 A  
HETATM   22  C   UNL     1      -7.288   9.657  64.415  1.00  0.00    -0.125 A  
HETATM   23  C   UNL     1      -8.279   8.685  64.520  1.00  0.00    -0.166 A  
HETATM   24  C   UNL     1      -8.972   8.533  65.718  1.00  0.00    -0.229 A  
HETATM   25  C   UNL     1      -8.675   9.353  66.820  1.00  0.00    -0.138 A  
ENDBRANCH   5   8
TORSDOF 1
ENDMDL
MODEL       99
REMARK 921   NORMALIZED FREE ENERGY PREDICTED BY IDOCK:   -3.97 KCAL/MOL
REMARK 922        TOTAL FREE ENERGY PREDICTED BY IDOCK:   -4.58 KCAL/MOL
REMARK 923 INTER-LIGAND FREE ENERGY PREDICTED BY IDOCK:   -4.20 KCAL/MOL
REMARK 924 INTRA-LIGAND FREE ENERGY PREDICTED BY IDOCK:   -0.38 KCAL/MOL
REMARK 927      BINDING AFFINITY PREDICTED BY RF-SCORE:    0.00 PKD
ROOT
HETATM    1  C   UNL     1      -9.207   6.169  71.200  1.00  0.00    -0.153 C  
HETATM    2  N   UNL     1      -8.221   6.668  70.245  1.00  0.00    -0.124 NA 
HETATM    3  C   UNL     1      -8.796   6.822  68.892  1.00  0.00    -0.128 C  
HETATM    4  C   UNL     1      -9.783   7.998  68.722  1.00  0.00    -0.156 C  
HETATM    5  N   UNL     1      -9.205   9.260  69.203  1.00  0.00    -0.146 NA 
HETATM    6  C   UNL     1      -7.649   7.969  70.664  1.00  0.00    -0.076 C  
HETATM    7  C   UNL     1      -8.590   9.187  70.534  1.00  0.00    -0.219 C  
ENDROOT
BRANCH   5   8
HETATM    8  C   UNL     1      -9.188  10.434  68.442  1.00  0.00    -0.147 C  
HETATM    9  N   UNL     1     -10.286  11.135  68.337  1.00  0.00    -0.178 NA 
HETATM   10  C   UNL     1     -10.388  12.350  67.631  1.00  0.00    -0.216 A  
HETATM   11  H   UNL     1     -11.125  10.779  68.796  1.00  0.00     0.000 HD 
HETATM   12  C   UNL     1     -11.580  12.567  66.928  1.00  0.00    -0.436 A  
HETATM   13  C   UNL     1     -11.797  13.762  66.240  1.00  0.00    -0.398 A  
HETATM   14  C   UNL     1     -10.841  14.775  66.263  1.00  0.00    -0.322 A  
HETATM   15 CL   UNL     1     -13.247  13.988  65.344  1.00  0.00    -0.252 Cl 
HETATM   16  C   UNL     1      -9.664  14.590  66.986  1.00  0.00    -0.247 A  
HETATM   17  C   UNL     1      -9.427  13.386  67.673  1.00  0.00    -0.216 A  
HETATM   18  N   UNL     1      -8.148  13.189  68.259  1.00  0.00    -0.148 NA 
HETATM   19  C   UNL     1      -7.374  12.094  67.818  1.00  0.00    -0.114 A  
HETATM   20  H   UNL     1      -7.798  13.822  68.977  1.00  0.00     0.000 HD 
HETATM   21  C   UNL     1      -6.101  12.333  67.276  1.00  0.00    -0.153 A  
HETATM   22  C   UNL     1      -5.378  11.304  66.667  1.00  0.00    -0.122 A  
HETATM   23  C   UNL     1      -5.921  10.026  66.580  1.00  0.00    -0.056 A  
HETATM   24  C   UNL     1      -7.175   9.771  67.126  1.00  0.00    -0.087 A  
HETATM   25  C   UNL     1      -7.894  10.795  67.765  1.00  0.00    -0.109 A  
ENDBRANCH   5   8
TORSDOF 1
ENDMDL
MODEL      100
REMARK 921   NORMALIZED FREE ENERGY PREDICTED BY IDOCK:   -3.94 KCAL/MOL
REMARK 922        TOTAL FREE ENERGY PREDICTED BY IDOCK:   -4.55 KCAL/MOL
REMARK 923 INTER-LIGAND FREE ENERGY PREDICTED BY IDOCK:   -4.18 KCAL/MOL
REMARK 924 INTRA-LIGAND FREE ENERGY PREDICTED BY IDOCK:   -0.38 KCAL/MOL
REMARK 927      BINDING AFFINITY PREDICTED BY RF-SCORE:    0.00 PKD
ROOT
HETATM    1  C   UNL     1     -10.257   8.217  72.706  1.00  0.00    -0.255 C  
HETATM    2  N   UNL     1     -10.818   7.893  71.397  1.00  0.00    -0.224 NA 
HETATM    3  C   UNL     1     -11.540   9.041  70.809  1.00  0.00    -0.265 C  
HETATM    4  C   UNL     1     -10.648  10.200  70.312  1.00  0.00    -0.264 C  
HETATM    5  N   UNL     1      -9.591   9.718  69.412  1.00  0.00    -0.194 NA 
HETATM    6  C   UNL     1      -9.777   7.451  70.439  1.00  0.00    -0.175 C  
HETATM    7  C   UNL     1      -8.839   8.560  69.912  1.00  0.00    -0.137 C  
ENDROOT
BRANCH   5   8
HETATM    8  C   UNL     1      -9.343  10.274  68.152  1.00  0.00    -0.139 C  
HETATM    9  N   UNL     1      -9.661   9.589  67.085  1.00  0.00    -0.163 NA 
HETATM   10  C   UNL     1      -9.495  10.053  65.766  1.00  0.00    -0.214 A  
HETATM   11  H   UNL     1     -10.056   8.658  67.217  1.00  0.00     0.000 HD 
HETATM   12  C   UNL     1      -9.093   9.105  64.815  1.00  0.00    -0.157 A  
HETATM   13  C   UNL     1      -8.951   9.455  63.472  1.00  0.00    -0.115 A  
HETATM   14  C   UNL     1      -9.233  10.750  63.045  1.00  0.00    -0.320 A  
HETATM   15 CL   UNL     1      -8.411   8.288  62.331  1.00  0.00    -0.165 Cl 
HETATM   16  C   UNL     1      -9.666  11.698  63.970  1.00  0.00    -0.225 A  
HETATM   17  C   UNL     1      -9.802  11.362  65.330  1.00  0.00    -0.236 A  
HETATM   18  N   UNL     1     -10.092  12.403  66.252  1.00  0.00    -0.235 NA 
HETATM   19  C   UNL     1      -9.167  12.653  67.289  1.00  0.00    -0.195 A  
HETATM   20  H   UNL     1     -10.945  12.955  66.167  1.00  0.00     0.000 HD 
HETATM   21  C   UNL     1      -8.593  13.929  67.398  1.00  0.00    -0.206 A  
HETATM   22  C   UNL     1      -7.547  14.170  68.291  1.00  0.00    -0.130 A  
HETATM   23  C   UNL     1      -7.050  13.136  69.079  1.00  0.00    -0.030 A  
HETATM   24  C   UNL     1      -7.619  11.868  68.992  1.00  0.00     0.029 A  
HETATM   25  C   UNL     1      -8.690  11.629  68.116  1.00  0.00    -0.159 A  
ENDBRANCH   5   8
TORSDOF 1
ENDMDL
MODEL      101
REMARK 921   NORMALIZED FREE ENERGY PREDICTED BY IDOCK:   -3.92 KCAL/MOL
REMARK 922        TOTAL FREE ENERGY PREDICTED BY IDOCK:   -4.53 KCAL/MOL
REMARK 923 INTER-LIGAND FREE ENERGY PREDICTED BY IDOCK:   -4.13 KCAL/MOL
REMARK 924 INTRA-LIGAND FREE ENERGY PREDICTED BY IDOCK:   -0.40 KCAL/MOL
REMARK 927      BINDING AFFINITY PREDICTED BY RF-SCORE:    0.00 PKD
ROOT
HETATM    1  C   UNL     1     -13.695   7.225  71.703  1.00  0.00    -0.347 C  
HETATM    2  N   UNL     1     -12.280   7.256  72.061  1.00  0.00    -0.295 NA 
HETATM    3  C   UNL     1     -11.469   6.401  71.169  1.00  0.00    -0.323 C  
HETATM    4  C   UNL     1     -11.276   6.935  69.733  1.00  0.00    -0.267 C  
HETATM    5  N   UNL     1     -10.784   8.320  69.736  1.00  0.00    -0.238 NA 
HETATM    6  C   UNL     1     -11.726   8.631  72.025  1.00  0.00    -0.369 C  
HETATM    7  C   UNL     1     -11.522   9.233  70.617  1.00  0.00    -0.274 C  
ENDROOT
BRANCH   5   8
HETATM    8  C   UNL     1      -9.669   8.738  69.002  1.00  0.00    -0.172 C  
HETATM    9  N   UNL     1      -9.783   8.886  67.708  1.00  0.00    -0.155 NA 
HETATM   10  C   UNL     1      -8.747   9.334  66.866  1.00  0.00    -0.127 A  
HETATM   11  H   UNL     1     -10.681   8.663  67.280  1.00  0.00     0.000 HD 
HETATM   12  C   UNL     1      -8.662   8.734  65.603  1.00  0.00    -0.215 A  
HETATM   13  C   UNL     1      -7.703   9.146  64.678  1.00  0.00    -0.113 A  
HETATM   14  C   UNL     1      -6.825  10.183  64.984  1.00  0.00    -0.132 A  
HETATM   15 CL   UNL     1      -7.586   8.363  63.152  1.00  0.00    -0.115 Cl 
HETATM   16  C   UNL     1      -6.916  10.815  66.222  1.00  0.00    -0.134 A  
HETATM   17  C   UNL     1      -7.870  10.402  67.169  1.00  0.00    -0.110 A  
HETATM   18  N   UNL     1      -7.815  10.971  68.469  1.00  0.00    -0.121 NA 
HETATM   19  C   UNL     1      -7.609  10.107  69.567  1.00  0.00    -0.139 A  
HETATM   20  H   UNL     1      -7.920  11.975  68.606  1.00  0.00     0.000 HD 
HETATM   21  C   UNL     1      -6.499  10.315  70.400  1.00  0.00    -0.131 A  
HETATM   22  C   UNL     1      -6.158   9.385  71.385  1.00  0.00    -0.060 A  
HETATM   23  C   UNL     1      -6.914   8.228  71.544  1.00  0.00    -0.068 A  
HETATM   24  C   UNL     1      -8.027   8.015  70.735  1.00  0.00    -0.099 A  
HETATM   25  C   UNL     1      -8.390   8.962  69.762  1.00  0.00    -0.125 A  
ENDBRANCH   5   8
TORSDOF 1
ENDMDL
MODEL      102
REMARK 921   NORMALIZED FREE ENERGY PREDICTED BY IDOCK:   -3.91 KCAL/MOL
REMARK 922        TOTAL FREE ENERGY PREDICTED BY IDOCK:   -4.52 KCAL/MOL
REMARK 923 INTER-LIGAND FREE ENERGY PREDICTED BY IDOCK:   -4.70 KCAL/MOL
REMARK 924 INTRA-LIGAND FREE ENERGY PREDICTED BY IDOCK:    0.18 KCAL/MOL
REMARK 927      BINDING AFFINITY PREDICTED BY RF-SCORE:    0.00 PKD
ROOT
HETATM    1  C   UNL     1      -8.228   7.841  63.068  1.00  0.00    -0.025 C  
HETATM    2  N   UNL     1      -7.585   9.149  62.980  1.00  0.00    -0.103 NA 
HETATM    3  C   UNL     1      -8.574  10.239  62.838  1.00  0.00    -0.190 C  
HETATM    4  C   UNL     1      -9.396  10.557  64.106  1.00  0.00    -0.267 C  
HETATM    5  N   UNL     1      -8.526  10.774  65.271  1.00  0.00    -0.152 NA 
HETATM    6  C   UNL     1      -6.737   9.434  64.162  1.00  0.00    -0.095 C  
HETATM    7  C   UNL     1      -7.497   9.745  65.471  1.00  0.00    -0.115 C  
ENDROOT
BRANCH   5   8
HETATM    8  C   UNL     1      -8.624  11.894  66.103  1.00  0.00     0.052 C  
HETATM    9  N   UNL     1      -7.602  12.218  66.850  1.00  0.00    -0.365 NA 
HETATM   10  C   UNL     1      -7.565  13.340  67.701  1.00  0.00    -0.170 A  
HETATM   11  H   UNL     1      -6.777  11.619  66.815  1.00  0.00     0.000 HD 
HETATM   12  C   UNL     1      -6.906  13.175  68.926  1.00  0.00    -0.103 A  
HETATM   13  C   UNL     1      -6.771  14.242  69.815  1.00  0.00    -0.095 A  
HETATM   14  C   UNL     1      -7.265  15.502  69.488  1.00  0.00    -0.201 A  
HETATM   15 CL   UNL     1      -6.001  14.005  71.334  1.00  0.00    -0.196 Cl 
HETATM   16  C   UNL     1      -7.893  15.694  68.259  1.00  0.00    -0.128 A  
HETATM   17  C   UNL     1      -8.048  14.624  67.358  1.00  0.00    -0.196 A  
HETATM   18  N   UNL     1      -8.832  14.836  66.194  1.00  0.00    -0.454 NA 
HETATM   19  C   UNL     1      -9.981  14.036  66.009  1.00  0.00    -0.315 A  
HETATM   20  H   UNL     1      -8.574  15.547  65.510  1.00  0.00     0.000 HD 
HETATM   21  C   UNL     1     -11.232  14.659  65.881  1.00  0.00    -0.336 A  
HETATM   22  C   UNL     1     -12.409  13.906  65.876  1.00  0.00    -0.517 A  
HETATM   23  C   UNL     1     -12.353  12.522  66.010  1.00  0.00    -0.083 A  
HETATM   24  C   UNL     1     -11.118  11.890  66.123  1.00  0.00    -0.374 A  
HETATM   25  C   UNL     1      -9.931  12.640  66.100  1.00  0.00    -0.269 A  
ENDBRANCH   5   8
TORSDOF 1
ENDMDL
MODEL      103
REMARK 921   NORMALIZED FREE ENERGY PREDICTED BY IDOCK:   -3.86 KCAL/MOL
REMARK 922        TOTAL FREE ENERGY PREDICTED BY IDOCK:   -4.46 KCAL/MOL
REMARK 923 INTER-LIGAND FREE ENERGY PREDICTED BY IDOCK:   -4.06 KCAL/MOL
REMARK 924 INTRA-LIGAND FREE ENERGY PREDICTED BY IDOCK:   -0.40 KCAL/MOL
REMARK 927      BINDING AFFINITY PREDICTED BY RF-SCORE:    0.00 PKD
ROOT
HETATM    1  C   UNL     1     -10.227   5.753  68.725  1.00  0.00    -0.195 C  
HETATM    2  N   UNL     1     -11.029   6.960  68.544  1.00  0.00    -0.174 NA 
HETATM    3  C   UNL     1     -10.868   7.901  69.673  1.00  0.00    -0.176 C  
HETATM    4  C   UNL     1      -9.507   8.629  69.739  1.00  0.00    -0.166 C  
HETATM    5  N   UNL     1      -9.178   9.270  68.459  1.00  0.00    -0.135 NA 
HETATM    6  C   UNL     1     -10.692   7.670  67.288  1.00  0.00    -0.274 C  
HETATM    7  C   UNL     1      -9.335   8.409  67.280  1.00  0.00    -0.146 C  
ENDROOT
BRANCH   5   8
HETATM    8  C   UNL     1      -8.793  10.611  68.349  1.00  0.00    -0.145 C  
HETATM    9  N   UNL     1      -7.663  10.990  68.887  1.00  0.00    -0.133 NA 
HETATM   10  C   UNL     1      -7.151  12.300  68.816  1.00  0.00    -0.107 A  
HETATM   11  H   UNL     1      -7.118  10.292  69.391  1.00  0.00     0.000 HD 
HETATM   12  C   UNL     1      -6.495  12.779  69.958  1.00  0.00     0.109 A  
HETATM   13  C   UNL     1      -5.908  14.044  69.967  1.00  0.00    -0.133 A  
HETATM   14  C   UNL     1      -5.939  14.847  68.830  1.00  0.00    -0.084 A  
HETATM   15 CL   UNL     1      -5.151  14.631  71.395  1.00  0.00    -0.133 Cl 
HETATM   16  C   UNL     1      -6.556  14.374  67.673  1.00  0.00    -0.172 A  
HETATM   17  C   UNL     1      -7.163  13.105  67.653  1.00  0.00    -0.159 A  
HETATM   18  N   UNL     1      -7.914  12.739  66.505  1.00  0.00    -0.256 NA 
HETATM   19  C   UNL     1      -9.285  12.446  66.669  1.00  0.00    -0.218 A  
HETATM   20  H   UNL     1      -7.474  12.689  65.586  1.00  0.00     0.000 HD 
HETATM   21  C   UNL     1     -10.232  13.193  65.951  1.00  0.00    -0.294 A  
HETATM   22  C   UNL     1     -11.598  13.061  66.215  1.00  0.00    -0.408 A  
HETATM   23  C   UNL     1     -12.036  12.189  67.208  1.00  0.00    -0.158 A  
HETATM   24  C   UNL     1     -11.108  11.432  67.918  1.00  0.00    -0.320 A  
HETATM   25  C   UNL     1      -9.736  11.541  67.636  1.00  0.00    -0.182 A  
ENDBRANCH   5   8
TORSDOF 1
ENDMDL
MODEL      104
REMARK 921   NORMALIZED FREE ENERGY PREDICTED BY IDOCK:   -3.81 KCAL/MOL
REMARK 922        TOTAL FREE ENERGY PREDICTED BY IDOCK:   -4.41 KCAL/MOL
REMARK 923 INTER-LIGAND FREE ENERGY PREDICTED BY IDOCK:   -4.15 KCAL/MOL
REMARK 924 INTRA-LIGAND FREE ENERGY PREDICTED BY IDOCK:   -0.26 KCAL/MOL
REMARK 927      BINDING AFFINITY PREDICTED BY RF-SCORE:    0.00 PKD
ROOT
HETATM    1  C   UNL     1      -9.994  17.823  68.716  1.00  0.00    -0.367 C  
HETATM    2  N   UNL     1     -10.455  16.747  69.590  1.00  0.00    -0.261 NA 
HETATM    3  C   UNL     1     -11.515  15.938  68.953  1.00  0.00    -0.386 C  
HETATM    4  C   UNL     1     -11.047  15.015  67.807  1.00  0.00    -0.310 C  
HETATM    5  N   UNL     1      -9.913  14.177  68.220  1.00  0.00    -0.235 NA 
HETATM    6  C   UNL     1      -9.350  15.843  69.990  1.00  0.00     0.371 C  
HETATM    7  C   UNL     1      -8.822  14.902  68.885  1.00  0.00    -0.184 C  
ENDROOT
BRANCH   5   8
HETATM    8  C   UNL     1      -9.883  12.789  68.049  1.00  0.00    -0.226 C  
HETATM    9  N   UNL     1      -9.573  12.032  69.069  1.00  0.00    -0.401 NA 
HETATM   10  C   UNL     1      -9.543  10.625  69.033  1.00  0.00    -0.195 A  
HETATM   11  H   UNL     1      -9.339  12.492  69.949  1.00  0.00     0.000 HD 
HETATM   12  C   UNL     1      -8.526  10.001  69.768  1.00  0.00    -0.189 A  
HETATM   13  C   UNL     1      -8.443   8.611  69.837  1.00  0.00    -0.129 A  
HETATM   14  C   UNL     1      -9.388   7.813  69.197  1.00  0.00    -0.151 A  
HETATM   15 CL   UNL     1      -7.159   7.867  70.705  1.00  0.00    -0.048 Cl 
HETATM   16  C   UNL     1     -10.427   8.415  68.489  1.00  0.00    -0.201 A  
HETATM   17  C   UNL     1     -10.516   9.816  68.401  1.00  0.00    -0.218 A  
HETATM   18  N   UNL     1     -11.497  10.373  67.539  1.00  0.00    -0.538 NA 
HETATM   19  C   UNL     1     -11.063  11.190  66.473  1.00  0.00    -0.167 A  
HETATM   20  H   UNL     1     -12.489  10.187  67.686  1.00  0.00     0.000 HD 
HETATM   21  C   UNL     1     -11.399  10.830  65.158  1.00  0.00     0.577 A  
HETATM   22  C   UNL     1     -10.843  11.504  64.067  1.00  0.00    -0.453 A  
HETATM   23  C   UNL     1      -9.937  12.539  64.274  1.00  0.00    -0.217 A  
HETATM   24  C   UNL     1      -9.606  12.916  65.573  1.00  0.00     0.012 A  
HETATM   25  C   UNL     1     -10.183  12.260  66.673  1.00  0.00    -0.235 A  
ENDBRANCH   5   8
TORSDOF 1
ENDMDL
MODEL      105
REMARK 921   NORMALIZED FREE ENERGY PREDICTED BY IDOCK:   -3.80 KCAL/MOL
REMARK 922        TOTAL FREE ENERGY PREDICTED BY IDOCK:   -4.40 KCAL/MOL
REMARK 923 INTER-LIGAND FREE ENERGY PREDICTED BY IDOCK:   -4.04 KCAL/MOL
REMARK 924 INTRA-LIGAND FREE ENERGY PREDICTED BY IDOCK:   -0.36 KCAL/MOL
REMARK 927      BINDING AFFINITY PREDICTED BY RF-SCORE:    0.00 PKD
ROOT
HETATM    1  C   UNL     1      -9.364  12.182  66.704  1.00  0.00    -0.226 C  
HETATM    2  N   UNL     1      -8.823  11.184  65.785  1.00  0.00    -0.192 NA 
HETATM    3  C   UNL     1      -7.797  10.340  66.433  1.00  0.00    -0.119 C  
HETATM    4  C   UNL     1      -8.331   9.323  67.466  1.00  0.00    -0.119 C  
HETATM    5  N   UNL     1      -9.418   8.508  66.906  1.00  0.00    -0.169 NA 
HETATM    6  C   UNL     1      -9.880  10.303  65.235  1.00  0.00    -0.306 C  
HETATM    7  C   UNL     1     -10.470   9.270  66.222  1.00  0.00    -0.013 C  
ENDROOT
BRANCH   5   8
HETATM    8  C   UNL     1      -9.437   7.110  66.966  1.00  0.00    -0.155 C  
HETATM    9  N   UNL     1      -9.170   6.428  65.883  1.00  0.00    -0.346 NA 
HETATM   10  C   UNL     1      -9.123   5.021  65.823  1.00  0.00    -0.154 A  
HETATM   11  H   UNL     1      -8.985   6.947  65.026  1.00  0.00     0.000 HD 
HETATM   12  C   UNL     1      -9.621   4.427  64.656  1.00  0.00    -0.128 A  
HETATM   13  C   UNL     1      -9.571   3.044  64.481  1.00  0.00    -0.150 A  
HETATM   14  C   UNL     1      -8.997   2.228  65.452  1.00  0.00    -0.126 A  
HETATM   15 CL   UNL     1     -10.232   2.332  63.062  1.00  0.00    -0.112 Cl 
HETATM   16  C   UNL     1      -8.465   2.803  66.604  1.00  0.00    -0.102 A  
HETATM   17  C   UNL     1      -8.521   4.196  66.801  1.00  0.00    -0.104 A  
HETATM   18  N   UNL     1      -8.109   4.712  68.058  1.00  0.00    -0.088 NA 
HETATM   19  C   UNL     1      -9.053   5.428  68.826  1.00  0.00    -0.118 A  
HETATM   20  H   UNL     1      -7.159   4.569  68.397  1.00  0.00     0.000 HD 
HETATM   21  C   UNL     1      -9.365   4.977  70.118  1.00  0.00    -0.215 A  
HETATM   22  C   UNL     1     -10.416   5.545  70.841  1.00  0.00    -0.319 A  
HETATM   23  C   UNL     1     -11.178   6.565  70.279  1.00  0.00    -0.433 A  
HETATM   24  C   UNL     1     -10.872   7.033  69.004  1.00  0.00    -0.212 A  
HETATM   25  C   UNL     1      -9.797   6.484  68.285  1.00  0.00    -0.132 A  
ENDBRANCH   5   8
TORSDOF 1
ENDMDL
MODEL      106
REMARK 921   NORMALIZED FREE ENERGY PREDICTED BY IDOCK:   -3.74 KCAL/MOL
REMARK 922        TOTAL FREE ENERGY PREDICTED BY IDOCK:   -4.34 KCAL/MOL
REMARK 923 INTER-LIGAND FREE ENERGY PREDICTED BY IDOCK:   -4.60 KCAL/MOL
REMARK 924 INTRA-LIGAND FREE ENERGY PREDICTED BY IDOCK:    0.26 KCAL/MOL
REMARK 927      BINDING AFFINITY PREDICTED BY RF-SCORE:    0.00 PKD
ROOT
HETATM    1  C   UNL     1      -6.453  19.917  67.359  1.00  0.00    -0.200 C  
HETATM    2  N   UNL     1      -7.449  19.497  68.342  1.00  0.00    -0.313 NA 
HETATM    3  C   UNL     1      -8.697  19.037  67.696  1.00  0.00    -0.290 C  
HETATM    4  C   UNL     1      -8.606  17.673  66.977  1.00  0.00    -0.237 C  
HETATM    5  N   UNL     1      -8.047  16.637  67.857  1.00  0.00    -0.170 NA 
HETATM    6  C   UNL     1      -6.946  18.414  69.218  1.00  0.00    -0.168 C  
HETATM    7  C   UNL     1      -6.816  17.023  68.557  1.00  0.00    -0.179 C  
ENDROOT
BRANCH   5   8
HETATM    8  C   UNL     1      -8.656  15.394  68.061  1.00  0.00    -0.151 C  
HETATM    9  N   UNL     1      -9.864  15.358  68.561  1.00  0.00    -0.203 NA 
HETATM   10  C   UNL     1     -10.596  14.175  68.781  1.00  0.00    -0.253 A  
HETATM   11  H   UNL     1     -10.305  16.243  68.807  1.00  0.00     0.000 HD 
HETATM   12  C   UNL     1     -11.390  14.135  69.935  1.00  0.00    -0.232 A  
HETATM   13  C   UNL     1     -12.191  13.027  70.213  1.00  0.00    -0.296 A  
HETATM   14  C   UNL     1     -12.239  11.949  69.333  1.00  0.00    -0.185 A  
HETATM   15 CL   UNL     1     -13.120  12.979  71.659  1.00  0.00    -0.475 Cl 
HETATM   16  C   UNL     1     -11.483  11.986  68.163  1.00  0.00    -0.383 A  
HETATM   17  C   UNL     1     -10.660  13.090  67.875  1.00  0.00    -0.229 A  
HETATM   18  N   UNL     1      -9.793  13.006  66.754  1.00  0.00    -0.237 NA 
HETATM   19  C   UNL     1      -8.404  13.116  66.976  1.00  0.00    -0.085 A  
HETATM   20  H   UNL     1     -10.164  12.870  65.814  1.00  0.00     0.000 HD 
HETATM   21  C   UNL     1      -7.564  12.063  66.578  1.00  0.00     0.197 A  
HETATM   22  C   UNL     1      -6.214  12.049  66.936  1.00  0.00    -0.074 A  
HETATM   23  C   UNL     1      -5.686  13.079  67.707  1.00  0.00    -0.134 A  
HETATM   24  C   UNL     1      -6.503  14.137  68.097  1.00  0.00    -0.127 A  
HETATM   25  C   UNL     1      -7.854  14.170  67.715  1.00  0.00    -0.177 A  
ENDBRANCH   5   8
TORSDOF 1
ENDMDL
MODEL      107
REMARK 921   NORMALIZED FREE ENERGY PREDICTED BY IDOCK:   -3.69 KCAL/MOL
REMARK 922        TOTAL FREE ENERGY PREDICTED BY IDOCK:   -4.28 KCAL/MOL
REMARK 923 INTER-LIGAND FREE ENERGY PREDICTED BY IDOCK:   -3.93 KCAL/MOL
REMARK 924 INTRA-LIGAND FREE ENERGY PREDICTED BY IDOCK:   -0.35 KCAL/MOL
REMARK 927      BINDING AFFINITY PREDICTED BY RF-SCORE:    0.00 PKD
ROOT
HETATM    1  C   UNL     1      -8.241   3.659  64.138  1.00  0.00    -0.090 C  
HETATM    2  N   UNL     1      -9.136   4.772  64.443  1.00  0.00    -0.126 NA 
HETATM    3  C   UNL     1     -10.146   4.402  65.456  1.00  0.00    -0.236 C  
HETATM    4  C   UNL     1      -9.612   4.236  66.896  1.00  0.00    -0.203 C  
HETATM    5  N   UNL     1      -8.835   5.409  67.320  1.00  0.00    -0.107 NA 
HETATM    6  C   UNL     1      -8.398   5.963  64.927  1.00  0.00    -0.115 C  
HETATM    7  C   UNL     1      -7.822   5.858  66.357  1.00  0.00    -0.101 C  
ENDROOT
BRANCH   5   8
HETATM    8  C   UNL     1      -9.067   6.088  68.521  1.00  0.00    -0.112 C  
HETATM    9  N   UNL     1      -8.980   5.428  69.647  1.00  0.00    -0.108 NA 
HETATM   10  C   UNL     1      -9.155   6.005  70.920  1.00  0.00    -0.153 A  
HETATM   11  H   UNL     1      -8.771   4.431  69.600  1.00  0.00     0.000 HD 
HETATM   12  C   UNL     1      -9.814   5.221  71.877  1.00  0.00    -0.227 A  
HETATM   13  C   UNL     1      -9.990   5.683  73.181  1.00  0.00    -0.175 A  
HETATM   14  C   UNL     1      -9.489   6.924  73.566  1.00  0.00    -0.207 A  
HETATM   15 CL   UNL     1     -10.843   4.725  74.326  1.00  0.00    -0.268 Cl 
HETATM   16  C   UNL     1      -8.802   7.704  72.637  1.00  0.00    -0.198 A  
HETATM   17  C   UNL     1      -8.627   7.256  71.315  1.00  0.00    -0.119 A  
HETATM   18  N   UNL     1      -8.061   8.154  70.372  1.00  0.00    -0.105 NA 
HETATM   19  C   UNL     1      -8.831   8.509  69.243  1.00  0.00    -0.142 A  
HETATM   20  H   UNL     1      -7.125   8.533  70.507  1.00  0.00     0.000 HD 
HETATM   21  C   UNL     1      -9.126   9.862  69.016  1.00  0.00    -0.164 A  
HETATM   22  C   UNL     1     -10.028  10.241  68.019  1.00  0.00    -0.177 A  
HETATM   23  C   UNL     1     -10.657   9.273  67.242  1.00  0.00    -0.303 A  
HETATM   24  C   UNL     1     -10.363   7.928  67.446  1.00  0.00    -0.349 A  
HETATM   25  C   UNL     1      -9.435   7.544  68.428  1.00  0.00    -0.148 A  
ENDBRANCH   5   8
TORSDOF 1
ENDMDL
MODEL      108
REMARK 921   NORMALIZED FREE ENERGY PREDICTED BY IDOCK:   -3.66 KCAL/MOL
REMARK 922        TOTAL FREE ENERGY PREDICTED BY IDOCK:   -4.25 KCAL/MOL
REMARK 923 INTER-LIGAND FREE ENERGY PREDICTED BY IDOCK:   -4.06 KCAL/MOL
REMARK 924 INTRA-LIGAND FREE ENERGY PREDICTED BY IDOCK:   -0.19 KCAL/MOL
REMARK 927      BINDING AFFINITY PREDICTED BY RF-SCORE:    0.00 PKD
ROOT
HETATM    1  C   UNL     1      -7.143   5.333  64.876  1.00  0.00    -0.058 C  
HETATM    2  N   UNL     1      -8.440   6.001  64.804  1.00  0.00    -0.084 NA 
HETATM    3  C   UNL     1      -8.977   6.303  66.147  1.00  0.00    -0.153 C  
HETATM    4  C   UNL     1      -8.261   7.441  66.907  1.00  0.00    -0.121 C  
HETATM    5  N   UNL     1      -8.161   8.656  66.087  1.00  0.00    -0.105 NA 
HETATM    6  C   UNL     1      -8.375   7.262  64.029  1.00  0.00     0.172 C  
HETATM    7  C   UNL     1      -7.656   8.439  64.725  1.00  0.00    -0.102 C  
ENDROOT
BRANCH   5   8
HETATM    8  C   UNL     1      -8.561   9.919  66.537  1.00  0.00    -0.124 C  
HETATM    9  N   UNL     1      -9.804  10.285  66.368  1.00  0.00    -0.207 NA 
HETATM   10  C   UNL     1     -10.336  11.514  66.806  1.00  0.00    -0.226 A  
HETATM   11  H   UNL     1     -10.430   9.640  65.887  1.00  0.00     0.000 HD 
HETATM   12  C   UNL     1     -11.277  12.124  65.967  1.00  0.00    -0.382 A  
HETATM   13  C   UNL     1     -11.899  13.316  66.338  1.00  0.00    -0.396 A  
HETATM   14  C   UNL     1     -11.616  13.910  67.565  1.00  0.00    -0.392 A  
HETATM   15 CL   UNL     1     -13.016  14.072  65.271  1.00  0.00    -0.422 Cl 
HETATM   16  C   UNL     1     -10.708  13.300  68.428  1.00  0.00    -0.273 A  
HETATM   17  C   UNL     1     -10.063  12.104  68.062  1.00  0.00    -0.204 A  
HETATM   18  N   UNL     1      -9.033  11.612  68.906  1.00  0.00    -0.385 NA 
HETATM   19  C   UNL     1      -7.737  11.472  68.365  1.00  0.00    -0.129 A  
HETATM   20  H   UNL     1      -9.224  11.366  69.877  1.00  0.00     0.000 HD 
HETATM   21  C   UNL     1      -6.671  12.163  68.962  1.00  0.00    -0.103 A  
HETATM   22  C   UNL     1      -5.411  12.198  68.357  1.00  0.00    -0.054 A  
HETATM   23  C   UNL     1      -5.203  11.552  67.142  1.00  0.00    -0.083 A  
HETATM   24  C   UNL     1      -6.247  10.851  66.546  1.00  0.00    -0.122 A  
HETATM   25  C   UNL     1      -7.507  10.790  67.164  1.00  0.00    -0.102 A  
ENDBRANCH   5   8
TORSDOF 1
ENDMDL
MODEL      109
REMARK 921   NORMALIZED FREE ENERGY PREDICTED BY IDOCK:   -3.63 KCAL/MOL
REMARK 922        TOTAL FREE ENERGY PREDICTED BY IDOCK:   -4.22 KCAL/MOL
REMARK 923 INTER-LIGAND FREE ENERGY PREDICTED BY IDOCK:   -4.80 KCAL/MOL
REMARK 924 INTRA-LIGAND FREE ENERGY PREDICTED BY IDOCK:    0.58 KCAL/MOL
REMARK 927      BINDING AFFINITY PREDICTED BY RF-SCORE:    0.00 PKD
ROOT
HETATM    1  C   UNL     1     -13.762   9.915  70.517  1.00  0.00     0.464 C  
HETATM    2  N   UNL     1     -12.503  10.410  71.067  1.00  0.00    -0.352 NA 
HETATM    3  C   UNL     1     -11.379  10.220  70.125  1.00  0.00    -0.316 C  
HETATM    4  C   UNL     1     -11.384  11.150  68.892  1.00  0.00    -0.278 C  
HETATM    5  N   UNL     1     -11.520  12.560  69.283  1.00  0.00    -0.289 NA 
HETATM    6  C   UNL     1     -12.577  11.846  71.427  1.00  0.00    -0.240 C  
HETATM    7  C   UNL     1     -12.601  12.833  70.238  1.00  0.00     0.010 C  
ENDROOT
BRANCH   5   8
HETATM    8  C   UNL     1     -10.662  13.568  68.829  1.00  0.00    -0.238 C  
HETATM    9  N   UNL     1     -10.992  14.817  69.028  1.00  0.00    -0.239 NA 
HETATM   10  C   UNL     1     -10.199  15.917  68.651  1.00  0.00    -0.223 A  
HETATM   11  H   UNL     1     -11.883  15.007  69.486  1.00  0.00     0.000 HD 
HETATM   12  C   UNL     1     -10.878  17.044  68.170  1.00  0.00    -0.338 A  
HETATM   13  C   UNL     1     -10.184  18.202  67.820  1.00  0.00    -0.383 A  
HETATM   14  C   UNL     1      -8.802  18.271  67.969  1.00  0.00    -0.290 A  
HETATM   15 CL   UNL     1     -11.034  19.556  67.186  1.00  0.00    -0.557 Cl 
HETATM   16  C   UNL     1      -8.112  17.173  68.478  1.00  0.00    -0.260 A  
HETATM   17  C   UNL     1      -8.797  15.993  68.823  1.00  0.00    -0.227 A  
HETATM   18  N   UNL     1      -8.031  14.854  69.186  1.00  0.00    -0.194 NA 
HETATM   19  C   UNL     1      -8.163  13.685  68.406  1.00  0.00    -0.146 A  
HETATM   20  H   UNL     1      -7.401  14.880  69.987  1.00  0.00     0.000 HD 
HETATM   21  C   UNL     1      -7.025  13.146  67.786  1.00  0.00    -0.145 A  
HETATM   22  C   UNL     1      -7.138  12.101  66.866  1.00  0.00     0.008 A  
HETATM   23  C   UNL     1      -8.390  11.588  66.542  1.00  0.00    -0.147 A  
HETATM   24  C   UNL     1      -9.527  12.103  67.159  1.00  0.00    -0.190 A  
HETATM   25  C   UNL     1      -9.415  13.135  68.107  1.00  0.00    -0.222 A  
ENDBRANCH   5   8
TORSDOF 1
ENDMDL
MODEL      110
REMARK 921   NORMALIZED FREE ENERGY PREDICTED BY IDOCK:   -3.62 KCAL/MOL
REMARK 922        TOTAL FREE ENERGY PREDICTED BY IDOCK:   -4.21 KCAL/MOL
REMARK 923 INTER-LIGAND FREE ENERGY PREDICTED BY IDOCK:   -4.68 KCAL/MOL
REMARK 924 INTRA-LIGAND FREE ENERGY PREDICTED BY IDOCK:    0.47 KCAL/MOL
REMARK 927      BINDING AFFINITY PREDICTED BY RF-SCORE:    0.00 PKD
ROOT
HETATM    1  C   UNL     1      -5.263  17.567  68.664  1.00  0.00    -0.149 C  
HETATM    2  N   UNL     1      -6.011  16.596  69.459  1.00  0.00    -0.192 NA 
HETATM    3  C   UNL     1      -7.448  16.596  69.116  1.00  0.00    -0.207 C  
HETATM    4  C   UNL     1      -7.803  15.979  67.746  1.00  0.00    -0.140 C  
HETATM    5  N   UNL     1      -7.219  14.640  67.592  1.00  0.00    -0.173 NA 
HETATM    6  C   UNL     1      -5.488  15.219  69.292  1.00  0.00    -0.096 C  
HETATM    7  C   UNL     1      -5.794  14.547  67.936  1.00  0.00    -0.125 C  
ENDROOT
BRANCH   5   8
HETATM    8  C   UNL     1      -7.960  13.520  67.199  1.00  0.00    -0.041 C  
HETATM    9  N   UNL     1      -7.353  12.367  67.089  1.00  0.00    -0.300 NA 
HETATM   10  C   UNL     1      -7.995  11.164  66.737  1.00  0.00    -0.156 A  
HETATM   11  H   UNL     1      -6.350  12.337  67.269  1.00  0.00     0.000 HD 
HETATM   12  C   UNL     1      -7.275  10.289  65.912  1.00  0.00    -0.131 A  
HETATM   13  C   UNL     1      -7.804   9.049  65.551  1.00  0.00    -0.096 A  
HETATM   14  C   UNL     1      -9.049   8.645  66.027  1.00  0.00    -0.255 A  
HETATM   15 CL   UNL     1      -6.924   8.012  64.499  1.00  0.00    -0.070 Cl 
HETATM   16  C   UNL     1      -9.764   9.487  66.876  1.00  0.00    -0.237 A  
HETATM   17  C   UNL     1      -9.249  10.746  67.238  1.00  0.00    -0.147 A  
HETATM   18  N   UNL     1     -10.086  11.626  67.973  1.00  0.00    -0.184 NA 
HETATM   19  C   UNL     1     -10.406  12.876  67.401  1.00  0.00    -0.233 A  
HETATM   20  H   UNL     1     -10.447  11.363  68.890  1.00  0.00     0.000 HD 
HETATM   21  C   UNL     1     -11.754  13.205  67.189  1.00  0.00    -0.430 A  
HETATM   22  C   UNL     1     -12.108  14.346  66.466  1.00  0.00    -0.395 A  
HETATM   23  C   UNL     1     -11.120  15.169  65.934  1.00  0.00    -0.319 A  
HETATM   24  C   UNL     1      -9.779  14.864  66.147  1.00  0.00    -0.333 A  
HETATM   25  C   UNL     1      -9.419  13.733  66.898  1.00  0.00    -0.265 A  
ENDBRANCH   5   8
TORSDOF 1
ENDMDL
MODEL      111
REMARK 921   NORMALIZED FREE ENERGY PREDICTED BY IDOCK:   -3.60 KCAL/MOL
REMARK 922        TOTAL FREE ENERGY PREDICTED BY IDOCK:   -4.19 KCAL/MOL
REMARK 923 INTER-LIGAND FREE ENERGY PREDICTED BY IDOCK:   -4.22 KCAL/MOL
REMARK 924 INTRA-LIGAND FREE ENERGY PREDICTED BY IDOCK:    0.03 KCAL/MOL
REMARK 927      BINDING AFFINITY PREDICTED BY RF-SCORE:    0.00 PKD
ROOT
HETATM    1  C   UNL     1     -10.899   9.868  66.425  1.00  0.00     0.148 C  
HETATM    2  N   UNL     1     -11.333  11.137  67.004  1.00  0.00    -0.417 NA 
HETATM    3  C   UNL     1     -10.678  11.401  68.302  1.00  0.00    -0.204 C  
HETATM    4  C   UNL     1      -9.181  11.771  68.227  1.00  0.00    -0.188 C  
HETATM    5  N   UNL     1      -8.945  12.868  67.279  1.00  0.00    -0.199 NA 
HETATM    6  C   UNL     1     -11.065  12.282  66.101  1.00  0.00    -0.311 C  
HETATM    7  C   UNL     1      -9.583  12.696  65.967  1.00  0.00    -0.188 C  
ENDROOT
BRANCH   5   8
HETATM    8  C   UNL     1      -8.217  14.018  67.602  1.00  0.00    -0.180 C  
HETATM    9  N   UNL     1      -8.513  15.143  67.006  1.00  0.00    -0.215 NA 
HETATM   10  C   UNL     1      -7.879  16.372  67.270  1.00  0.00    -0.166 A  
HETATM   11  H   UNL     1      -9.252  15.129  66.303  1.00  0.00     0.000 HD 
HETATM   12  C   UNL     1      -7.660  17.213  66.170  1.00  0.00    -0.304 A  
HETATM   13  C   UNL     1      -7.085  18.473  66.337  1.00  0.00    -0.235 A  
HETATM   14  C   UNL     1      -6.742  18.932  67.606  1.00  0.00    -0.218 A  
HETATM   15 CL   UNL     1      -6.781  19.468  64.967  1.00  0.00    -0.239 Cl 
HETATM   16  C   UNL     1      -6.984  18.125  68.715  1.00  0.00    -0.276 A  
HETATM   17  C   UNL     1      -7.551  16.846  68.561  1.00  0.00    -0.221 A  
HETATM   18  N   UNL     1      -7.629  16.005  69.703  1.00  0.00    -0.087 NA 
HETATM   19  C   UNL     1      -6.949  14.769  69.668  1.00  0.00    -0.172 A  
HETATM   20  H   UNL     1      -8.161  16.287  70.526  1.00  0.00     0.000 HD 
HETATM   21  C   UNL     1      -5.974  14.498  70.641  1.00  0.00    -0.184 A  
HETATM   22  C   UNL     1      -5.155  13.371  70.540  1.00  0.00    -0.107 A  
HETATM   23  C   UNL     1      -5.290  12.504  69.460  1.00  0.00    -0.075 A  
HETATM   24  C   UNL     1      -6.262  12.752  68.495  1.00  0.00    -0.068 A  
HETATM   25  C   UNL     1      -7.107  13.868  68.607  1.00  0.00    -0.110 A  
ENDBRANCH   5   8
TORSDOF 1
ENDMDL
MODEL      112
REMARK 921   NORMALIZED FREE ENERGY PREDICTED BY IDOCK:   -3.58 KCAL/MOL
REMARK 922        TOTAL FREE ENERGY PREDICTED BY IDOCK:   -4.16 KCAL/MOL
REMARK 923 INTER-LIGAND FREE ENERGY PREDICTED BY IDOCK:   -3.76 KCAL/MOL
REMARK 924 INTRA-LIGAND FREE ENERGY PREDICTED BY IDOCK:   -0.41 KCAL/MOL
REMARK 927      BINDING AFFINITY PREDICTED BY RF-SCORE:    0.00 PKD
ROOT
HETATM    1  C   UNL     1     -10.290  12.937  68.201  1.00  0.00    -0.240 C  
HETATM    2  N   UNL     1      -9.569  11.900  67.468  1.00  0.00    -0.173 NA 
HETATM    3  C   UNL     1      -8.441  11.355  68.252  1.00  0.00    -0.154 C  
HETATM    4  C   UNL     1      -8.835  10.455  69.444  1.00  0.00    -0.123 C  
HETATM    5  N   UNL     1      -9.760   9.391  69.030  1.00  0.00    -0.162 NA 
HETATM    6  C   UNL     1     -10.455  10.777  67.076  1.00  0.00    -0.247 C  
HETATM    7  C   UNL     1     -10.900   9.845  68.224  1.00  0.00    -0.230 C  
ENDROOT
BRANCH   5   8
HETATM    8  C   UNL     1      -9.556   8.039  69.329  1.00  0.00    -0.157 C  
HETATM    9  N   UNL     1      -9.625   7.650  70.576  1.00  0.00    -0.168 NA 
HETATM   10  C   UNL     1      -9.474   6.316  71.000  1.00  0.00    -0.175 A  
HETATM   11  H   UNL     1      -9.800   8.360  71.287  1.00  0.00     0.000 HD 
HETATM   12  C   UNL     1      -8.793   6.116  72.208  1.00  0.00    -0.137 A  
HETATM   13  C   UNL     1      -8.638   4.835  72.738  1.00  0.00    -0.114 A  
HETATM   14  C   UNL     1      -9.181   3.730  72.089  1.00  0.00    -0.169 A  
HETATM   15 CL   UNL     1      -7.757   4.609  74.198  1.00  0.00    -0.088 Cl 
HETATM   16  C   UNL     1      -9.891   3.912  70.904  1.00  0.00    -0.213 A  
HETATM   17  C   UNL     1     -10.045   5.197  70.351  1.00  0.00    -0.262 A  
HETATM   18  N   UNL     1     -10.637   5.307  69.065  1.00  0.00    -0.146 NA 
HETATM   19  C   UNL     1      -9.876   5.886  68.027  1.00  0.00    -0.125 A  
HETATM   20  H   UNL     1     -11.587   4.976  68.895  1.00  0.00     0.000 HD 
HETATM   21  C   UNL     1      -9.625   5.138  66.866  1.00  0.00    -0.157 A  
HETATM   22  C   UNL     1      -8.733   5.599  65.895  1.00  0.00    -0.147 A  
HETATM   23  C   UNL     1      -8.069   6.809  66.076  1.00  0.00    -0.119 A  
HETATM   24  C   UNL     1      -8.318   7.568  67.216  1.00  0.00    -0.118 A  
HETATM   25  C   UNL     1      -9.236   7.122  68.181  1.00  0.00    -0.131 A  
ENDBRANCH   5   8
TORSDOF 1
ENDMDL
MODEL      113
REMARK 921   NORMALIZED FREE ENERGY PREDICTED BY IDOCK:   -3.57 KCAL/MOL
REMARK 922        TOTAL FREE ENERGY PREDICTED BY IDOCK:   -4.16 KCAL/MOL
REMARK 923 INTER-LIGAND FREE ENERGY PREDICTED BY IDOCK:   -4.00 KCAL/MOL
REMARK 924 INTRA-LIGAND FREE ENERGY PREDICTED BY IDOCK:   -0.16 KCAL/MOL
REMARK 927      BINDING AFFINITY PREDICTED BY RF-SCORE:    0.00 PKD
ROOT
HETATM    1  C   UNL     1      -8.823   4.605  72.228  1.00  0.00    -0.122 C  
HETATM    2  N   UNL     1      -8.585   4.197  70.846  1.00  0.00    -0.075 NA 
HETATM    3  C   UNL     1      -9.796   4.352  70.012  1.00  0.00    -0.223 C  
HETATM    4  C   UNL     1     -10.187   5.808  69.676  1.00  0.00    -0.233 C  
HETATM    5  N   UNL     1      -9.053   6.554  69.114  1.00  0.00    -0.136 NA 
HETATM    6  C   UNL     1      -7.482   4.963  70.221  1.00  0.00    -0.058 C  
HETATM    7  C   UNL     1      -7.801   6.434  69.872  1.00  0.00    -0.114 C  
ENDROOT
BRANCH   5   8
HETATM    8  C   UNL     1      -9.130   7.284  67.923  1.00  0.00    -0.132 C  
HETATM    9  N   UNL     1      -9.403   8.561  67.981  1.00  0.00    -0.136 NA 
HETATM   10  C   UNL     1      -9.473   9.409  66.859  1.00  0.00    -0.156 A  
HETATM   11  H   UNL     1      -9.576   8.970  68.899  1.00  0.00     0.000 HD 
HETATM   12  C   UNL     1     -10.465  10.399  66.883  1.00  0.00    -0.300 A  
HETATM   13  C   UNL     1     -10.581  11.320  65.842  1.00  0.00    -0.253 A  
HETATM   14  C   UNL     1      -9.695  11.290  64.769  1.00  0.00    -0.298 A  
HETATM   15 CL   UNL     1     -11.835  12.496  65.870  1.00  0.00    -0.481 Cl 
HETATM   16  C   UNL     1      -8.681  10.335  64.743  1.00  0.00    -0.201 A  
HETATM   17  C   UNL     1      -8.559   9.391  65.780  1.00  0.00    -0.145 A  
HETATM   18  N   UNL     1      -7.612   8.345  65.627  1.00  0.00    -0.087 NA 
HETATM   19  C   UNL     1      -8.082   7.014  65.629  1.00  0.00    -0.129 A  
HETATM   20  H   UNL     1      -6.619   8.549  65.517  1.00  0.00     0.000 HD 
HETATM   21  C   UNL     1      -7.830   6.199  64.514  1.00  0.00    -0.114 A  
HETATM   22  C   UNL     1      -8.426   4.941  64.396  1.00  0.00    -0.137 A  
HETATM   23  C   UNL     1      -9.292   4.484  65.384  1.00  0.00    -0.163 A  
HETATM   24  C   UNL     1      -9.540   5.274  66.503  1.00  0.00    -0.166 A  
HETATM   25  C   UNL     1      -8.920   6.528  66.639  1.00  0.00    -0.144 A  
ENDBRANCH   5   8
TORSDOF 1
ENDMDL
MODEL      114
REMARK 921   NORMALIZED FREE ENERGY PREDICTED BY IDOCK:   -3.56 KCAL/MOL
REMARK 922        TOTAL FREE ENERGY PREDICTED BY IDOCK:   -4.15 KCAL/MOL
REMARK 923 INTER-LIGAND FREE ENERGY PREDICTED BY IDOCK:   -3.77 KCAL/MOL
REMARK 924 INTRA-LIGAND FREE ENERGY PREDICTED BY IDOCK:   -0.37 KCAL/MOL
REMARK 927      BINDING AFFINITY PREDICTED BY RF-SCORE:    0.00 PKD
ROOT
HETATM    1  C   UNL     1     -10.991   6.153  72.820  1.00  0.00    -0.260 C  
HETATM    2  N   UNL     1     -11.280   5.775  71.439  1.00  0.00    -0.216 NA 
HETATM    3  C   UNL     1     -11.857   6.898  70.671  1.00  0.00    -0.368 C  
HETATM    4  C   UNL     1     -10.871   8.033  70.316  1.00  0.00    -0.241 C  
HETATM    5  N   UNL     1      -9.660   7.510  69.668  1.00  0.00    -0.160 NA 
HETATM    6  C   UNL     1     -10.073   5.290  70.729  1.00  0.00    -0.224 C  
HETATM    7  C   UNL     1      -9.036   6.373  70.357  1.00  0.00    -0.155 C  
ENDROOT
BRANCH   5   8
HETATM    8  C   UNL     1      -9.158   8.012  68.463  1.00  0.00    -0.136 C  
HETATM    9  N   UNL     1      -9.266   7.284  67.381  1.00  0.00    -0.126 NA 
HETATM   10  C   UNL     1      -8.833   7.691  66.105  1.00  0.00    -0.164 A  
HETATM   11  H   UNL     1      -9.692   6.362  67.469  1.00  0.00     0.000 HD 
HETATM   12  C   UNL     1      -8.264   6.702  65.292  1.00  0.00    -0.133 A  
HETATM   13  C   UNL     1      -7.851   6.995  63.992  1.00  0.00    -0.109 A  
HETATM   14  C   UNL     1      -8.024   8.273  63.466  1.00  0.00    -0.154 A  
HETATM   15 CL   UNL     1      -7.111   5.778  63.029  1.00  0.00    -0.047 Cl 
HETATM   16  C   UNL     1      -8.620   9.261  64.247  1.00  0.00    -0.214 A  
HETATM   17  C   UNL     1      -9.028   8.983  65.564  1.00  0.00    -0.204 A  
HETATM   18  N   UNL     1      -9.482  10.063  66.367  1.00  0.00    -0.177 NA 
HETATM   19  C   UNL     1      -8.779  10.351  67.557  1.00  0.00    -0.125 A  
HETATM   20  H   UNL     1     -10.293  10.616  66.091  1.00  0.00     0.000 HD 
HETATM   21  C   UNL     1      -8.221  11.627  67.728  1.00  0.00    -0.141 A  
HETATM   22  C   UNL     1      -7.370  11.899  68.802  1.00  0.00    -0.105 A  
HETATM   23  C   UNL     1      -7.055  10.897  69.714  1.00  0.00    -0.092 A  
HETATM   24  C   UNL     1      -7.613   9.630  69.566  1.00  0.00    -0.104 A  
HETATM   25  C   UNL     1      -8.492   9.360  68.503  1.00  0.00    -0.119 A  
ENDBRANCH   5   8
TORSDOF 1
ENDMDL
MODEL      115
REMARK 921   NORMALIZED FREE ENERGY PREDICTED BY IDOCK:   -3.51 KCAL/MOL
REMARK 922        TOTAL FREE ENERGY PREDICTED BY IDOCK:   -4.10 KCAL/MOL
REMARK 923 INTER-LIGAND FREE ENERGY PREDICTED BY IDOCK:   -3.85 KCAL/MOL
REMARK 924 INTRA-LIGAND FREE ENERGY PREDICTED BY IDOCK:   -0.25 KCAL/MOL
REMARK 927      BINDING AFFINITY PREDICTED BY RF-SCORE:    0.00 PKD
ROOT
HETATM    1  C   UNL     1     -12.840  11.519  63.600  1.00  0.00     0.180 C  
HETATM    2  N   UNL     1     -11.420  11.682  63.900  1.00  0.00    -0.378 NA 
HETATM    3  C   UNL     1     -10.915  13.001  63.465  1.00  0.00    -0.058 C  
HETATM    4  C   UNL     1     -11.389  14.204  64.308  1.00  0.00    -0.226 C  
HETATM    5  N   UNL     1     -11.146  13.987  65.741  1.00  0.00    -0.301 NA 
HETATM    6  C   UNL     1     -11.135  11.523  65.346  1.00  0.00    -0.186 C  
HETATM    7  C   UNL     1     -11.598  12.686  66.252  1.00  0.00    -0.386 C  
ENDROOT
BRANCH   5   8
HETATM    8  C   UNL     1     -10.489  14.914  66.556  1.00  0.00    -0.297 C  
HETATM    9  N   UNL     1     -10.885  16.160  66.543  1.00  0.00    -0.209 NA 
HETATM   10  C   UNL     1     -10.330  17.178  67.342  1.00  0.00    -0.333 A  
HETATM   11  H   UNL     1     -11.647  16.411  65.913  1.00  0.00     0.000 HD 
HETATM   12  C   UNL     1     -10.210  18.443  66.751  1.00  0.00    -0.410 A  
HETATM   13  C   UNL     1      -9.720  19.528  67.477  1.00  0.00    -0.347 A  
HETATM   14  C   UNL     1      -9.365  19.381  68.816  1.00  0.00    -0.444 A  
HETATM   15 CL   UNL     1      -9.537  21.060  66.718  1.00  0.00    -0.079 Cl 
HETATM   16  C   UNL     1      -9.509  18.139  69.431  1.00  0.00     0.258 A  
HETATM   17  C   UNL     1      -9.989  17.033  68.707  1.00  0.00    -0.293 A  
HETATM   18  N   UNL     1      -9.966  15.759  69.335  1.00  0.00    -0.258 NA 
HETATM   19  C   UNL     1      -9.202  14.734  68.735  1.00  0.00    -0.196 A  
HETATM   20  H   UNL     1     -10.486  15.590  70.195  1.00  0.00     0.000 HD 
HETATM   21  C   UNL     1      -8.176  14.127  69.476  1.00  0.00     0.510 A  
HETATM   22  C   UNL     1      -7.283  13.240  68.869  1.00  0.00    -0.054 A  
HETATM   23  C   UNL     1      -7.397  12.955  67.511  1.00  0.00    -0.154 A  
HETATM   24  C   UNL     1      -8.418  13.539  66.767  1.00  0.00     0.013 A  
HETATM   25  C   UNL     1      -9.335  14.410  67.380  1.00  0.00    -0.199 A  
ENDBRANCH   5   8
TORSDOF 1
ENDMDL
MODEL      116
REMARK 921   NORMALIZED FREE ENERGY PREDICTED BY IDOCK:   -3.51 KCAL/MOL
REMARK 922        TOTAL FREE ENERGY PREDICTED BY IDOCK:   -4.09 KCAL/MOL
REMARK 923 INTER-LIGAND FREE ENERGY PREDICTED BY IDOCK:   -3.73 KCAL/MOL
REMARK 924 INTRA-LIGAND FREE ENERGY PREDICTED BY IDOCK:   -0.36 KCAL/MOL
REMARK 927      BINDING AFFINITY PREDICTED BY RF-SCORE:    0.00 PKD
ROOT
HETATM    1  C   UNL     1     -10.803   6.446  73.314  1.00  0.00    -0.244 C  
HETATM    2  N   UNL     1     -11.012   6.586  71.875  1.00  0.00    -0.240 NA 
HETATM    3  C   UNL     1     -11.382   7.968  71.506  1.00  0.00    -0.259 C  
HETATM    4  C   UNL     1     -10.243   9.007  71.598  1.00  0.00    -0.348 C  
HETATM    5  N   UNL     1      -9.049   8.561  70.865  1.00  0.00    -0.158 NA 
HETATM    6  C   UNL     1      -9.812   6.197  71.097  1.00  0.00    -0.181 C  
HETATM    7  C   UNL     1      -8.626   7.185  71.157  1.00  0.00    -0.129 C  
ENDROOT
BRANCH   5   8
HETATM    8  C   UNL     1      -8.388   9.355  69.922  1.00  0.00    -0.167 C  
HETATM    9  N   UNL     1      -7.562  10.278  70.341  1.00  0.00    -0.449 NA 
HETATM   10  C   UNL     1      -6.812  11.115  69.493  1.00  0.00    -0.127 A  
HETATM   11  H   UNL     1      -7.454  10.400  71.348  1.00  0.00     0.000 HD 
HETATM   12  C   UNL     1      -6.647  12.443  69.910  1.00  0.00     0.112 A  
HETATM   13  C   UNL     1      -5.877  13.336  69.165  1.00  0.00    -0.080 A  
HETATM   14  C   UNL     1      -5.233  12.917  68.003  1.00  0.00    -0.094 A  
HETATM   15 CL   UNL     1      -5.728  14.973  69.670  1.00  0.00    -0.101 Cl 
HETATM   16  C   UNL     1      -5.357  11.592  67.591  1.00  0.00    -0.054 A  
HETATM   17  C   UNL     1      -6.141  10.683  68.326  1.00  0.00    -0.046 A  
HETATM   18  N   UNL     1      -6.362   9.392  67.777  1.00  0.00    -0.058 NA 
HETATM   19  C   UNL     1      -7.691   9.000  67.509  1.00  0.00    -0.096 A  
HETATM   20  H   UNL     1      -5.582   8.765  67.582  1.00  0.00     0.000 HD 
HETATM   21  C   UNL     1      -8.044   8.639  66.199  1.00  0.00    -0.108 A  
HETATM   22  C   UNL     1      -9.380   8.419  65.852  1.00  0.00    -0.205 A  
HETATM   23  C   UNL     1     -10.382   8.567  66.806  1.00  0.00    -0.346 A  
HETATM   24  C   UNL     1     -10.045   8.910  68.113  1.00  0.00    -0.227 A  
HETATM   25  C   UNL     1      -8.701   9.105  68.472  1.00  0.00    -0.129 A  
ENDBRANCH   5   8
TORSDOF 1
ENDMDL
MODEL      117
REMARK 921   NORMALIZED FREE ENERGY PREDICTED BY IDOCK:   -3.45 KCAL/MOL
REMARK 922        TOTAL FREE ENERGY PREDICTED BY IDOCK:   -4.03 KCAL/MOL
REMARK 923 INTER-LIGAND FREE ENERGY PREDICTED BY IDOCK:   -4.65 KCAL/MOL
REMARK 924 INTRA-LIGAND FREE ENERGY PREDICTED BY IDOCK:    0.62 KCAL/MOL
REMARK 927      BINDING AFFINITY PREDICTED BY RF-SCORE:    0.00 PKD
ROOT
HETATM    1  C   UNL     1     -10.409  11.693  64.128  1.00  0.00    -0.337 C  
HETATM    2  N   UNL     1      -9.520  11.681  65.287  1.00  0.00    -0.194 NA 
HETATM    3  C   UNL     1     -10.275  11.684  66.558  1.00  0.00    -0.214 C  
HETATM    4  C   UNL     1     -10.996  10.363  66.904  1.00  0.00    -0.097 C  
HETATM    5  N   UNL     1     -10.081   9.215  66.830  1.00  0.00    -0.254 NA 
HETATM    6  C   UNL     1      -8.613  10.510  65.282  1.00  0.00    -0.177 C  
HETATM    7  C   UNL     1      -9.273   9.150  65.605  1.00  0.00    -0.234 C  
ENDROOT
BRANCH   5   8
HETATM    8  C   UNL     1      -9.940   8.279  67.860  1.00  0.00    -0.183 C  
HETATM    9  N   UNL     1     -10.096   8.672  69.097  1.00  0.00    -0.193 NA 
HETATM   10  C   UNL     1     -10.014   7.821  70.216  1.00  0.00    -0.189 A  
HETATM   11  H   UNL     1     -10.288   9.660  69.262  1.00  0.00     0.000 HD 
HETATM   12  C   UNL     1      -9.413   8.352  71.364  1.00  0.00    -0.251 A  
HETATM   13  C   UNL     1      -9.332   7.606  72.540  1.00  0.00    -0.163 A  
HETATM   14  C   UNL     1      -9.874   6.324  72.603  1.00  0.00    -0.175 A  
HETATM   15 CL   UNL     1      -8.546   8.259  73.922  1.00  0.00    -0.284 Cl 
HETATM   16  C   UNL     1     -10.507   5.792  71.481  1.00  0.00    -0.291 A  
HETATM   17  C   UNL     1     -10.584   6.529  70.285  1.00  0.00    -0.228 A  
HETATM   18  N   UNL     1     -11.097   5.880  69.130  1.00  0.00    -0.326 NA 
HETATM   19  C   UNL     1     -10.257   5.766  68.002  1.00  0.00    -0.187 A  
HETATM   20  H   UNL     1     -12.045   5.507  69.117  1.00  0.00     0.000 HD 
HETATM   21  C   UNL     1      -9.965   4.490  67.495  1.00  0.00    -0.152 A  
HETATM   22  C   UNL     1      -9.002   4.318  66.498  1.00  0.00    -0.120 A  
HETATM   23  C   UNL     1      -8.309   5.417  66.000  1.00  0.00    -0.120 A  
HETATM   24  C   UNL     1      -8.598   6.691  66.482  1.00  0.00    -0.124 A  
HETATM   25  C   UNL     1      -9.586   6.871  67.465  1.00  0.00    -0.150 A  
ENDBRANCH   5   8
TORSDOF 1
ENDMDL
MODEL      118
REMARK 921   NORMALIZED FREE ENERGY PREDICTED BY IDOCK:   -3.37 KCAL/MOL
REMARK 922        TOTAL FREE ENERGY PREDICTED BY IDOCK:   -3.95 KCAL/MOL
REMARK 923 INTER-LIGAND FREE ENERGY PREDICTED BY IDOCK:   -3.57 KCAL/MOL
REMARK 924 INTRA-LIGAND FREE ENERGY PREDICTED BY IDOCK:   -0.38 KCAL/MOL
REMARK 927      BINDING AFFINITY PREDICTED BY RF-SCORE:    0.00 PKD
ROOT
HETATM    1  C   UNL     1     -10.376  11.133  63.759  1.00  0.00    -0.386 C  
HETATM    2  N   UNL     1      -9.396  11.286  64.831  1.00  0.00    -0.195 NA 
HETATM    3  C   UNL     1     -10.045  11.453  66.148  1.00  0.00    -0.231 C  
HETATM    4  C   UNL     1     -10.707  10.183  66.726  1.00  0.00    -0.121 C  
HETATM    5  N   UNL     1      -9.777   9.045  66.730  1.00  0.00    -0.196 NA 
HETATM    6  C   UNL     1      -8.468  10.134  64.906  1.00  0.00    -0.172 C  
HETATM    7  C   UNL     1      -9.070   8.824  65.462  1.00  0.00    -0.163 C  
ENDROOT
BRANCH   5   8
HETATM    8  C   UNL     1      -9.533   8.257  67.860  1.00  0.00    -0.146 C  
HETATM    9  N   UNL     1     -10.525   7.591  68.392  1.00  0.00    -0.249 NA 
HETATM   10  C   UNL     1     -10.401   6.739  69.506  1.00  0.00    -0.202 A  
HETATM   11  H   UNL     1     -11.448   7.696  67.972  1.00  0.00     0.000 HD 
HETATM   12  C   UNL     1     -11.464   6.743  70.419  1.00  0.00    -0.419 A  
HETATM   13  C   UNL     1     -11.458   5.896  71.527  1.00  0.00    -0.148 A  
HETATM   14  C   UNL     1     -10.406   5.007  71.732  1.00  0.00    -0.268 A  
HETATM   15 CL   UNL     1     -12.750   5.952  72.660  1.00  0.00     0.183 Cl 
HETATM   16  C   UNL     1      -9.357   4.964  70.817  1.00  0.00    -0.211 A  
HETATM   17  C   UNL     1      -9.343   5.822  69.702  1.00  0.00    -0.139 A  
HETATM   18  N   UNL     1      -8.177   5.848  68.891  1.00  0.00    -0.102 NA 
HETATM   19  C   UNL     1      -7.482   7.070  68.762  1.00  0.00    -0.099 A  
HETATM   20  H   UNL     1      -7.852   5.008  68.414  1.00  0.00     0.000 HD 
HETATM   21  C   UNL     1      -6.133   7.130  69.146  1.00  0.00    -0.026 A  
HETATM   22  C   UNL     1      -5.458   8.352  69.205  1.00  0.00    -0.031 A  
HETATM   23  C   UNL     1      -6.125   9.532  68.894  1.00  0.00    -0.042 A  
HETATM   24  C   UNL     1      -7.459   9.487  68.498  1.00  0.00    -0.080 A  
HETATM   25  C   UNL     1      -8.133   8.257  68.409  1.00  0.00    -0.127 A  
ENDBRANCH   5   8
TORSDOF 1
ENDMDL
MODEL      119
REMARK 921   NORMALIZED FREE ENERGY PREDICTED BY IDOCK:   -3.33 KCAL/MOL
REMARK 922        TOTAL FREE ENERGY PREDICTED BY IDOCK:   -3.90 KCAL/MOL
REMARK 923 INTER-LIGAND FREE ENERGY PREDICTED BY IDOCK:   -3.62 KCAL/MOL
REMARK 924 INTRA-LIGAND FREE ENERGY PREDICTED BY IDOCK:   -0.29 KCAL/MOL
REMARK 927      BINDING AFFINITY PREDICTED BY RF-SCORE:    0.00 PKD
ROOT
HETATM    1  C   UNL     1      -5.358  12.466  68.576  1.00  0.00    -0.055 C  
HETATM    2  N   UNL     1      -6.535  12.146  69.379  1.00  0.00    -0.112 NA 
HETATM    3  C   UNL     1      -7.694  11.785  68.536  1.00  0.00    -0.137 C  
HETATM    4  C   UNL     1      -7.605  10.409  67.840  1.00  0.00    -0.088 C  
HETATM    5  N   UNL     1      -7.290   9.341  68.799  1.00  0.00    -0.074 NA 
HETATM    6  C   UNL     1      -6.279  11.036  70.326  1.00  0.00    -0.139 C  
HETATM    7  C   UNL     1      -6.162   9.630  69.694  1.00  0.00    -0.044 C  
ENDROOT
BRANCH   5   8
HETATM    8  C   UNL     1      -8.030   8.158  68.899  1.00  0.00    -0.114 C  
HETATM    9  N   UNL     1      -7.730   7.157  68.113  1.00  0.00    -0.114 NA 
HETATM   10  C   UNL     1      -8.376   5.906  68.141  1.00  0.00    -0.115 A  
HETATM   11  H   UNL     1      -6.980   7.291  67.436  1.00  0.00     0.000 HD 
HETATM   12  C   UNL     1      -8.582   5.280  66.905  1.00  0.00    -0.105 A  
HETATM   13  C   UNL     1      -9.167   4.015  66.832  1.00  0.00    -0.167 A  
HETATM   14  C   UNL     1      -9.532   3.337  67.992  1.00  0.00    -0.217 A  
HETATM   15 CL   UNL     1      -9.455   3.287  65.302  1.00  0.00    -0.151 Cl 
HETATM   16  C   UNL     1      -9.303   3.929  69.233  1.00  0.00    -0.242 A  
HETATM   17  C   UNL     1      -8.727   5.209  69.321  1.00  0.00    -0.096 A  
HETATM   18  N   UNL     1      -8.662   5.829  70.597  1.00  0.00    -0.134 NA 
HETATM   19  C   UNL     1      -9.335   7.058  70.776  1.00  0.00    -0.161 A  
HETATM   20  H   UNL     1      -8.145   5.399  71.363  1.00  0.00     0.000 HD 
HETATM   21  C   UNL     1     -10.323   7.156  71.767  1.00  0.00    -0.216 A  
HETATM   22  C   UNL     1     -11.134   8.289  71.861  1.00  0.00    -0.357 A  
HETATM   23  C   UNL     1     -10.977   9.336  70.957  1.00  0.00    -0.390 A  
HETATM   24  C   UNL     1      -9.991   9.259  69.977  1.00  0.00    -0.238 A  
HETATM   25  C   UNL     1      -9.155   8.133  69.898  1.00  0.00    -0.151 A  
ENDBRANCH   5   8
TORSDOF 1
ENDMDL
MODEL      120
REMARK 921   NORMALIZED FREE ENERGY PREDICTED BY IDOCK:   -3.32 KCAL/MOL
REMARK 922        TOTAL FREE ENERGY PREDICTED BY IDOCK:   -3.89 KCAL/MOL
REMARK 923 INTER-LIGAND FREE ENERGY PREDICTED BY IDOCK:   -4.30 KCAL/MOL
REMARK 924 INTRA-LIGAND FREE ENERGY PREDICTED BY IDOCK:    0.41 KCAL/MOL
REMARK 927      BINDING AFFINITY PREDICTED BY RF-SCORE:    0.00 PKD
ROOT
HETATM    1  C   UNL     1     -13.672   7.272  71.693  1.00  0.00    -0.347 C  
HETATM    2  N   UNL     1     -12.275   7.465  72.072  1.00  0.00    -0.295 NA 
HETATM    3  C   UNL     1     -11.354   6.784  71.138  1.00  0.00    -0.296 C  
HETATM    4  C   UNL     1     -11.225   7.434  69.742  1.00  0.00    -0.091 C  
HETATM    5  N   UNL     1     -10.920   8.868  69.843  1.00  0.00    -0.217 NA 
HETATM    6  C   UNL     1     -11.907   8.899  72.134  1.00  0.00    -0.347 C  
HETATM    7  C   UNL     1     -11.776   9.616  70.772  1.00  0.00    -0.314 C  
ENDROOT
BRANCH   5   8
HETATM    8  C   UNL     1      -9.865   9.477  69.154  1.00  0.00    -0.176 C  
HETATM    9  N   UNL     1      -9.613  10.741  69.374  1.00  0.00    -0.410 NA 
HETATM   10  C   UNL     1      -8.561  11.457  68.772  1.00  0.00    -0.083 A  
HETATM   11  H   UNL     1     -10.219  11.241  70.025  1.00  0.00     0.000 HD 
HETATM   12  C   UNL     1      -8.828  12.787  68.421  1.00  0.00    -0.117 A  
HETATM   13  C   UNL     1      -7.835  13.594  67.866  1.00  0.00    -0.159 A  
HETATM   14  C   UNL     1      -6.547  13.100  67.675  1.00  0.00    -0.165 A  
HETATM   15 CL   UNL     1      -8.199  15.208  67.399  1.00  0.00    -0.195 Cl 
HETATM   16  C   UNL     1      -6.253  11.790  68.049  1.00  0.00    -0.052 A  
HETATM   17  C   UNL     1      -7.248  10.961  68.598  1.00  0.00    -0.088 A  
HETATM   18  N   UNL     1      -6.937   9.592  68.813  1.00  0.00    -0.065 NA 
HETATM   19  C   UNL     1      -7.705   8.619  68.138  1.00  0.00    -0.102 A  
HETATM   20  H   UNL     1      -6.179   9.319  69.438  1.00  0.00     0.000 HD 
HETATM   21  C   UNL     1      -7.059   7.710  67.286  1.00  0.00    -0.085 A  
HETATM   22  C   UNL     1      -7.793   6.852  66.464  1.00  0.00    -0.106 A  
HETATM   23  C   UNL     1      -9.184   6.897  66.473  1.00  0.00    -0.195 A  
HETATM   24  C   UNL     1      -9.839   7.784  67.323  1.00  0.00    -0.249 A  
HETATM   25  C   UNL     1      -9.105   8.629  68.172  1.00  0.00    -0.142 A  
ENDBRANCH   5   8
TORSDOF 1
ENDMDL
MODEL      121
REMARK 921   NORMALIZED FREE ENERGY PREDICTED BY IDOCK:   -3.26 KCAL/MOL
REMARK 922        TOTAL FREE ENERGY PREDICTED BY IDOCK:   -3.83 KCAL/MOL
REMARK 923 INTER-LIGAND FREE ENERGY PREDICTED BY IDOCK:   -4.49 KCAL/MOL
REMARK 924 INTRA-LIGAND FREE ENERGY PREDICTED BY IDOCK:    0.66 KCAL/MOL
REMARK 927      BINDING AFFINITY PREDICTED BY RF-SCORE:    0.00 PKD
ROOT
HETATM    1  C   UNL     1      -7.411   8.117  67.656  1.00  0.00    -0.093 C  
HETATM    2  N   UNL     1      -8.253   8.967  68.494  1.00  0.00    -0.115 NA 
HETATM    3  C   UNL     1      -7.624  10.280  68.751  1.00  0.00    -0.093 C  
HETATM    4  C   UNL     1      -7.585  11.243  67.545  1.00  0.00    -0.110 C  
HETATM    5  N   UNL     1      -8.914  11.398  66.937  1.00  0.00    -0.165 NA 
HETATM    6  C   UNL     1      -9.588   9.194  67.893  1.00  0.00    -0.146 C  
HETATM    7  C   UNL     1      -9.619  10.138  66.670  1.00  0.00    -0.183 C  
ENDROOT
BRANCH   5   8
HETATM    8  C   UNL     1      -9.497  12.643  66.675  1.00  0.00    -0.244 C  
HETATM    9  N   UNL     1      -9.090  13.686  67.350  1.00  0.00    -0.211 NA 
HETATM   10  C   UNL     1      -9.572  14.995  67.155  1.00  0.00    -0.217 A  
HETATM   11  H   UNL     1      -8.377  13.542  68.064  1.00  0.00     0.000 HD 
HETATM   12  C   UNL     1      -9.723  15.784  68.303  1.00  0.00    -0.201 A  
HETATM   13  C   UNL     1     -10.145  17.110  68.208  1.00  0.00    -0.314 A  
HETATM   14  C   UNL     1     -10.398  17.685  66.965  1.00  0.00    -0.330 A  
HETATM   15 CL   UNL     1     -10.370  18.045  69.633  1.00  0.00     0.220 Cl 
HETATM   16  C   UNL     1     -10.220  16.927  65.810  1.00  0.00    -0.287 A  
HETATM   17  C   UNL     1      -9.808  15.584  65.891  1.00  0.00    -0.353 A  
HETATM   18  N   UNL     1      -9.796  14.813  64.699  1.00  0.00    -0.453 NA 
HETATM   19  C   UNL     1     -10.614  13.664  64.639  1.00  0.00    -0.430 A  
HETATM   20  H   UNL     1      -9.214  15.082  63.907  1.00  0.00     0.000 HD 
HETATM   21  C   UNL     1     -11.587  13.571  63.631  1.00  0.00    -0.194 A  
HETATM   22  C   UNL     1     -12.532  12.542  63.641  1.00  0.00    -0.570 A  
HETATM   23  C   UNL     1     -12.527  11.599  64.664  1.00  0.00     0.381 A  
HETATM   24  C   UNL     1     -11.559  11.670  65.663  1.00  0.00    -0.087 A  
HETATM   25  C   UNL     1     -10.589  12.686  65.641  1.00  0.00    -0.299 A  
ENDBRANCH   5   8
TORSDOF 1
ENDMDL
MODEL      122
REMARK 921   NORMALIZED FREE ENERGY PREDICTED BY IDOCK:   -3.24 KCAL/MOL
REMARK 922        TOTAL FREE ENERGY PREDICTED BY IDOCK:   -3.80 KCAL/MOL
REMARK 923 INTER-LIGAND FREE ENERGY PREDICTED BY IDOCK:   -4.37 KCAL/MOL
REMARK 924 INTRA-LIGAND FREE ENERGY PREDICTED BY IDOCK:    0.56 KCAL/MOL
REMARK 927      BINDING AFFINITY PREDICTED BY RF-SCORE:    0.00 PKD
ROOT
HETATM    1  C   UNL     1      -5.478  13.679  67.924  1.00  0.00    -0.099 C  
HETATM    2  N   UNL     1      -6.448  13.690  69.016  1.00  0.00    -0.101 NA 
HETATM    3  C   UNL     1      -7.813  13.378  68.542  1.00  0.00    -0.115 C  
HETATM    4  C   UNL     1      -8.053  11.906  68.138  1.00  0.00    -0.155 C  
HETATM    5  N   UNL     1      -7.633  10.982  69.201  1.00  0.00    -0.128 NA 
HETATM    6  C   UNL     1      -6.091  12.732  70.088  1.00  0.00    -0.090 C  
HETATM    7  C   UNL     1      -6.293  11.238  69.745  1.00  0.00    -0.137 C  
ENDROOT
BRANCH   5   8
HETATM    8  C   UNL     1      -8.453   9.965  69.701  1.00  0.00    -0.187 C  
HETATM    9  N   UNL     1      -9.731  10.199  69.849  1.00  0.00    -0.377 NA 
HETATM   10  C   UNL     1     -10.663   9.248  70.308  1.00  0.00    -0.243 A  
HETATM   11  H   UNL     1     -10.074  11.130  69.617  1.00  0.00     0.000 HD 
HETATM   12  C   UNL     1     -11.681   9.724  71.145  1.00  0.00    -0.465 A  
HETATM   13  C   UNL     1     -12.682   8.870  71.610  1.00  0.00    -0.349 A  
HETATM   14  C   UNL     1     -12.704   7.531  71.227  1.00  0.00    -0.339 A  
HETATM   15 CL   UNL     1     -13.894   9.465  72.675  1.00  0.00    -0.409 Cl 
HETATM   16  C   UNL     1     -11.719   7.048  70.368  1.00  0.00    -0.326 A  
HETATM   17  C   UNL     1     -10.696   7.894  69.902  1.00  0.00    -0.244 A  
HETATM   18  N   UNL     1      -9.633   7.315  69.160  1.00  0.00    -0.155 NA 
HETATM   19  C   UNL     1      -8.322   7.431  69.671  1.00  0.00    -0.132 A  
HETATM   20  H   UNL     1      -9.811   6.828  68.282  1.00  0.00     0.000 HD 
HETATM   21  C   UNL     1      -7.587   6.265  69.934  1.00  0.00    -0.092 A  
HETATM   22  C   UNL     1      -6.362   6.326  70.603  1.00  0.00    -0.040 A  
HETATM   23  C   UNL     1      -5.861   7.552  71.030  1.00  0.00    -0.035 A  
HETATM   24  C   UNL     1      -6.572   8.718  70.764  1.00  0.00    -0.050 A  
HETATM   25  C   UNL     1      -7.790   8.664  70.066  1.00  0.00    -0.103 A  
ENDBRANCH   5   8
TORSDOF 1
ENDMDL
MODEL      123
REMARK 921   NORMALIZED FREE ENERGY PREDICTED BY IDOCK:   -3.19 KCAL/MOL
REMARK 922        TOTAL FREE ENERGY PREDICTED BY IDOCK:   -3.76 KCAL/MOL
REMARK 923 INTER-LIGAND FREE ENERGY PREDICTED BY IDOCK:   -3.34 KCAL/MOL
REMARK 924 INTRA-LIGAND FREE ENERGY PREDICTED BY IDOCK:   -0.41 KCAL/MOL
REMARK 927      BINDING AFFINITY PREDICTED BY RF-SCORE:    0.00 PKD
ROOT
HETATM    1  C   UNL     1      -6.410   7.809  74.217  1.00  0.00    -0.092 C  
HETATM    2  N   UNL     1      -7.038   6.801  73.366  1.00  0.00    -0.076 NA 
HETATM    3  C   UNL     1      -8.409   7.190  72.975  1.00  0.00    -0.106 C  
HETATM    4  C   UNL     1      -8.506   8.340  71.949  1.00  0.00    -0.160 C  
HETATM    5  N   UNL     1      -7.669   8.079  70.769  1.00  0.00    -0.080 NA 
HETATM    6  C   UNL     1      -6.253   6.544  72.135  1.00  0.00    -0.042 C  
HETATM    7  C   UNL     1      -6.293   7.663  71.070  1.00  0.00    -0.035 C  
ENDROOT
BRANCH   5   8
HETATM    8  C   UNL     1      -8.146   8.165  69.457  1.00  0.00    -0.119 C  
HETATM    9  N   UNL     1      -8.442   9.341  68.968  1.00  0.00    -0.129 NA 
HETATM   10  C   UNL     1      -8.896   9.562  67.653  1.00  0.00    -0.118 A  
HETATM   11  H   UNL     1      -8.337  10.151  69.578  1.00  0.00     0.000 HD 
HETATM   12  C   UNL     1      -9.872  10.553  67.487  1.00  0.00    -0.196 A  
HETATM   13  C   UNL     1     -10.348  10.882  66.217  1.00  0.00    -0.250 A  
HETATM   14  C   UNL     1      -9.841  10.248  65.086  1.00  0.00    -0.389 A  
HETATM   15 CL   UNL     1     -11.581  12.068  66.040  1.00  0.00    -0.413 Cl 
HETATM   16  C   UNL     1      -8.845   9.284  65.228  1.00  0.00    -0.237 A  
HETATM   17  C   UNL     1      -8.365   8.933  66.504  1.00  0.00    -0.115 A  
HETATM   18  N   UNL     1      -7.469   7.837  66.604  1.00  0.00    -0.087 NA 
HETATM   19  C   UNL     1      -7.856   6.728  67.387  1.00  0.00    -0.110 A  
HETATM   20  H   UNL     1      -6.569   7.850  66.124  1.00  0.00     0.000 HD 
HETATM   21  C   UNL     1      -7.930   5.461  66.786  1.00  0.00    -0.101 A  
HETATM   22  C   UNL     1      -8.478   4.374  67.471  1.00  0.00    -0.103 A  
HETATM   23  C   UNL     1      -8.970   4.539  68.762  1.00  0.00    -0.149 A  
HETATM   24  C   UNL     1      -8.891   5.786  69.376  1.00  0.00    -0.117 A  
HETATM   25  C   UNL     1      -8.315   6.875  68.701  1.00  0.00    -0.121 A  
ENDBRANCH   5   8
TORSDOF 1
ENDMDL
MODEL      124
REMARK 921   NORMALIZED FREE ENERGY PREDICTED BY IDOCK:   -3.19 KCAL/MOL
REMARK 922        TOTAL FREE ENERGY PREDICTED BY IDOCK:   -3.75 KCAL/MOL
REMARK 923 INTER-LIGAND FREE ENERGY PREDICTED BY IDOCK:   -3.40 KCAL/MOL
REMARK 924 INTRA-LIGAND FREE ENERGY PREDICTED BY IDOCK:   -0.35 KCAL/MOL
REMARK 927      BINDING AFFINITY PREDICTED BY RF-SCORE:    0.00 PKD
ROOT
HETATM    1  C   UNL     1     -10.459   7.016  73.621  1.00  0.00    -0.376 C  
HETATM    2  N   UNL     1     -10.629   5.933  72.656  1.00  0.00    -0.209 NA 
HETATM    3  C   UNL     1     -11.358   6.381  71.450  1.00  0.00    -0.301 C  
HETATM    4  C   UNL     1     -10.566   7.309  70.503  1.00  0.00    -0.222 C  
HETATM    5  N   UNL     1      -9.260   6.732  70.153  1.00  0.00    -0.155 NA 
HETATM    6  C   UNL     1      -9.331   5.355  72.233  1.00  0.00    -0.142 C  
HETATM    7  C   UNL     1      -8.479   6.239  71.294  1.00  0.00    -0.124 C  
ENDROOT
BRANCH   5   8
HETATM    8  C   UNL     1      -8.806   6.607  68.836  1.00  0.00    -0.131 C  
HETATM    9  N   UNL     1      -8.844   5.433  68.262  1.00  0.00    -0.105 NA 
HETATM   10  C   UNL     1      -8.450   5.186  66.933  1.00  0.00    -0.106 A  
HETATM   11  H   UNL     1      -9.182   4.645  68.814  1.00  0.00     0.000 HD 
HETATM   12  C   UNL     1      -7.789   3.974  66.691  1.00  0.00    -0.093 A  
HETATM   13  C   UNL     1      -7.405   3.615  65.399  1.00  0.00    -0.076 A  
HETATM   14  C   UNL     1      -7.695   4.443  64.319  1.00  0.00    -0.080 A  
HETATM   15 CL   UNL     1      -6.552   2.145  65.132  1.00  0.00    -0.027 Cl 
HETATM   16  C   UNL     1      -8.382   5.636  64.535  1.00  0.00    -0.108 A  
HETATM   17  C   UNL     1      -8.765   6.017  65.834  1.00  0.00    -0.154 A  
HETATM   18  N   UNL     1      -9.318   7.312  66.017  1.00  0.00    -0.383 NA 
HETATM   19  C   UNL     1      -8.647   8.210  66.875  1.00  0.00    -0.124 A  
HETATM   20  H   UNL     1     -10.177   7.587  65.541  1.00  0.00     0.000 HD 
HETATM   21  C   UNL     1      -8.211   9.443  66.367  1.00  0.00    -0.111 A  
HETATM   22  C   UNL     1      -7.390  10.281  67.126  1.00  0.00    -0.091 A  
HETATM   23  C   UNL     1      -6.984   9.894  68.399  1.00  0.00    -0.068 A  
HETATM   24  C   UNL     1      -7.421   8.680  68.922  1.00  0.00    -0.090 A  
HETATM   25  C   UNL     1      -8.269   7.847  68.174  1.00  0.00    -0.123 A  
ENDBRANCH   5   8
TORSDOF 1
ENDMDL
MODEL      125
REMARK 921   NORMALIZED FREE ENERGY PREDICTED BY IDOCK:   -3.18 KCAL/MOL
REMARK 922        TOTAL FREE ENERGY PREDICTED BY IDOCK:   -3.75 KCAL/MOL
REMARK 923 INTER-LIGAND FREE ENERGY PREDICTED BY IDOCK:   -3.71 KCAL/MOL
REMARK 924 INTRA-LIGAND FREE ENERGY PREDICTED BY IDOCK:   -0.03 KCAL/MOL
REMARK 927      BINDING AFFINITY PREDICTED BY RF-SCORE:    0.00 PKD
ROOT
HETATM    1  C   UNL     1     -12.343  12.738  64.221  1.00  0.00    -0.416 C  
HETATM    2  N   UNL     1     -12.277  12.807  65.678  1.00  0.00    -0.539 NA 
HETATM    3  C   UNL     1     -11.564  11.646  66.252  1.00  0.00    -0.043 C  
HETATM    4  C   UNL     1     -10.036  11.631  66.030  1.00  0.00    -0.224 C  
HETATM    5  N   UNL     1      -9.419  12.897  66.451  1.00  0.00    -0.248 NA 
HETATM    6  C   UNL     1     -11.613  14.046  66.148  1.00  0.00    -0.367 C  
HETATM    7  C   UNL     1     -10.082  14.104  65.942  1.00  0.00    -0.321 C  
ENDROOT
BRANCH   5   8
HETATM    8  C   UNL     1      -8.317  12.963  67.310  1.00  0.00    -0.185 C  
HETATM    9  N   UNL     1      -8.223  13.970  68.140  1.00  0.00    -0.145 NA 
HETATM   10  C   UNL     1      -7.183  14.132  69.076  1.00  0.00    -0.110 A  
HETATM   11  H   UNL     1      -8.949  14.685  68.106  1.00  0.00     0.000 HD 
HETATM   12  C   UNL     1      -6.730  15.440  69.289  1.00  0.00    -0.150 A  
HETATM   13  C   UNL     1      -5.740  15.709  70.234  1.00  0.00    -0.149 A  
HETATM   14  C   UNL     1      -5.201  14.683  71.006  1.00  0.00    -0.135 A  
HETATM   15 CL   UNL     1      -5.165  17.316  70.445  1.00  0.00    -0.230 Cl 
HETATM   16  C   UNL     1      -5.663  13.380  70.832  1.00  0.00    -0.180 A  
HETATM   17  C   UNL     1      -6.652  13.092  69.874  1.00  0.00     0.129 A  
HETATM   18  N   UNL     1      -6.971  11.730  69.628  1.00  0.00    -0.341 NA 
HETATM   19  C   UNL     1      -6.775  11.224  68.325  1.00  0.00    -0.059 A  
HETATM   20  H   UNL     1      -7.332  11.134  70.372  1.00  0.00     0.000 HD 
HETATM   21  C   UNL     1      -5.917  10.129  68.141  1.00  0.00    -0.041 A  
HETATM   22  C   UNL     1      -5.554   9.710  66.859  1.00  0.00    -0.046 A  
HETATM   23  C   UNL     1      -6.035  10.386  65.742  1.00  0.00    -0.117 A  
HETATM   24  C   UNL     1      -6.899  11.465  65.908  1.00  0.00     0.344 A  
HETATM   25  C   UNL     1      -7.289  11.872  67.196  1.00  0.00    -0.142 A  
ENDBRANCH   5   8
TORSDOF 1
ENDMDL
MODEL      126
REMARK 921   NORMALIZED FREE ENERGY PREDICTED BY IDOCK:   -3.18 KCAL/MOL
REMARK 922        TOTAL FREE ENERGY PREDICTED BY IDOCK:   -3.75 KCAL/MOL
REMARK 923 INTER-LIGAND FREE ENERGY PREDICTED BY IDOCK:   -3.44 KCAL/MOL
REMARK 924 INTRA-LIGAND FREE ENERGY PREDICTED BY IDOCK:   -0.31 KCAL/MOL
REMARK 927      BINDING AFFINITY PREDICTED BY RF-SCORE:    0.00 PKD
ROOT
HETATM    1  C   UNL     1     -11.813   9.978  71.329  1.00  0.00    -0.385 C  
HETATM    2  N   UNL     1     -10.593   9.608  70.615  1.00  0.00    -0.299 NA 
HETATM    3  C   UNL     1      -9.564   9.069  71.530  1.00  0.00    -0.270 C  
HETATM    4  C   UNL     1      -9.848   7.658  72.090  1.00  0.00    -0.178 C  
HETATM    5  N   UNL     1     -10.158   6.705  71.015  1.00  0.00    -0.187 NA 
HETATM    6  C   UNL     1     -10.851   8.606  69.554  1.00  0.00    -0.129 C  
HETATM    7  C   UNL     1     -11.158   7.174  70.047  1.00  0.00    -0.258 C  
ENDROOT
BRANCH   5   8
HETATM    8  C   UNL     1      -9.522   5.466  70.882  1.00  0.00    -0.167 C  
HETATM    9  N   UNL     1      -8.926   5.180  69.754  1.00  0.00    -0.108 NA 
HETATM   10  C   UNL     1      -8.223   3.985  69.509  1.00  0.00    -0.057 A  
HETATM   11  H   UNL     1      -8.974   5.867  69.002  1.00  0.00     0.000 HD 
HETATM   12  C   UNL     1      -8.340   3.441  68.223  1.00  0.00    -0.097 A  
HETATM   13  C   UNL     1      -7.641   2.288  67.868  1.00  0.00    -0.055 A  
HETATM   14  C   UNL     1      -6.789   1.668  68.778  1.00  0.00    -0.029 A  
HETATM   15 CL   UNL     1      -7.837   1.611  66.299  1.00  0.00    -0.069 Cl 
HETATM   16  C   UNL     1      -6.633   2.213  70.051  1.00  0.00    -0.029 A  
HETATM   17  C   UNL     1      -7.342   3.369  70.428  1.00  0.00    -0.041 A  
HETATM   18  N   UNL     1      -7.268   3.789  71.782  1.00  0.00    -0.051 NA 
HETATM   19  C   UNL     1      -8.465   3.850  72.528  1.00  0.00    -0.098 A  
HETATM   20  H   UNL     1      -6.375   4.039  72.205  1.00  0.00     0.000 HD 
HETATM   21  C   UNL     1      -8.578   3.090  73.702  1.00  0.00    -0.073 A  
HETATM   22  C   UNL     1      -9.800   2.980  74.370  1.00  0.00    -0.154 A  
HETATM   23  C   UNL     1     -10.929   3.620  73.869  1.00  0.00    -0.276 A  
HETATM   24  C   UNL     1     -10.830   4.390  72.713  1.00  0.00    -0.214 A  
HETATM   25  C   UNL     1      -9.597   4.526  72.054  1.00  0.00    -0.209 A  
ENDBRANCH   5   8
TORSDOF 1
ENDMDL
MODEL      127
REMARK 921   NORMALIZED FREE ENERGY PREDICTED BY IDOCK:   -3.18 KCAL/MOL
REMARK 922        TOTAL FREE ENERGY PREDICTED BY IDOCK:   -3.75 KCAL/MOL
REMARK 923 INTER-LIGAND FREE ENERGY PREDICTED BY IDOCK:   -3.34 KCAL/MOL
REMARK 924 INTRA-LIGAND FREE ENERGY PREDICTED BY IDOCK:   -0.41 KCAL/MOL
REMARK 927      BINDING AFFINITY PREDICTED BY RF-SCORE:    0.00 PKD
ROOT
HETATM    1  C   UNL     1      -9.089  11.652  66.722  1.00  0.00    -0.186 C  
HETATM    2  N   UNL     1      -8.689  10.671  65.716  1.00  0.00    -0.177 NA 
HETATM    3  C   UNL     1      -7.497   9.906  66.139  1.00  0.00    -0.104 C  
HETATM    4  C   UNL     1      -7.734   8.880  67.268  1.00  0.00    -0.092 C  
HETATM    5  N   UNL     1      -8.858   7.986  66.956  1.00  0.00    -0.130 NA 
HETATM    6  C   UNL     1      -9.778   9.714  65.409  1.00  0.00    -0.295 C  
HETATM    7  C   UNL     1     -10.079   8.667  66.505  1.00  0.00    -0.269 C  
ENDROOT
BRANCH   5   8
HETATM    8  C   UNL     1      -8.772   6.592  67.029  1.00  0.00    -0.112 C  
HETATM    9  N   UNL     1      -8.669   6.025  68.202  1.00  0.00    -0.114 NA 
HETATM   10  C   UNL     1      -8.610   4.633  68.409  1.00  0.00    -0.097 A  
HETATM   11  H   UNL     1      -8.628   6.630  69.022  1.00  0.00     0.000 HD 
HETATM   12  C   UNL     1      -7.758   4.187  69.427  1.00  0.00    -0.053 A  
HETATM   13  C   UNL     1      -7.669   2.831  69.743  1.00  0.00    -0.043 A  
HETATM   14  C   UNL     1      -8.450   1.895  69.068  1.00  0.00    -0.083 A  
HETATM   15 CL   UNL     1      -6.581   2.300  70.963  1.00  0.00    -0.023 Cl 
HETATM   16  C   UNL     1      -9.329   2.324  68.076  1.00  0.00    -0.251 A  
HETATM   17  C   UNL     1      -9.419   3.687  67.738  1.00  0.00    -0.179 A  
HETATM   18  N   UNL     1     -10.210   4.048  66.615  1.00  0.00    -0.292 NA 
HETATM   19  C   UNL     1      -9.577   4.704  65.537  1.00  0.00    -0.179 A  
HETATM   20  H   UNL     1     -11.207   3.840  66.588  1.00  0.00     0.000 HD 
HETATM   21  C   UNL     1      -9.628   4.122  64.261  1.00  0.00    -0.155 A  
HETATM   22  C   UNL     1      -8.869   4.639  63.207  1.00  0.00    -0.128 A  
HETATM   23  C   UNL     1      -8.041   5.737  63.417  1.00  0.00    -0.104 A  
HETATM   24  C   UNL     1      -7.991   6.334  64.674  1.00  0.00    -0.120 A  
HETATM   25  C   UNL     1      -8.774   5.835  65.729  1.00  0.00    -0.152 A  
ENDBRANCH   5   8
TORSDOF 1
ENDMDL
MODEL      128
REMARK 921   NORMALIZED FREE ENERGY PREDICTED BY IDOCK:   -3.15 KCAL/MOL
REMARK 922        TOTAL FREE ENERGY PREDICTED BY IDOCK:   -3.71 KCAL/MOL
REMARK 923 INTER-LIGAND FREE ENERGY PREDICTED BY IDOCK:   -4.09 KCAL/MOL
REMARK 924 INTRA-LIGAND FREE ENERGY PREDICTED BY IDOCK:    0.38 KCAL/MOL
REMARK 927      BINDING AFFINITY PREDICTED BY RF-SCORE:    0.00 PKD
ROOT
HETATM    1  C   UNL     1     -13.321   8.984  72.454  1.00  0.00    -0.460 C  
HETATM    2  N   UNL     1     -12.074   8.223  72.457  1.00  0.00    -0.380 NA 
HETATM    3  C   UNL     1     -12.151   7.039  71.575  1.00  0.00    -0.353 C  
HETATM    4  C   UNL     1     -12.144   7.339  70.060  1.00  0.00     0.277 C  
HETATM    5  N   UNL     1     -11.018   8.209  69.689  1.00  0.00    -0.153 NA 
HETATM    6  C   UNL     1     -10.917   9.048  72.037  1.00  0.00    -0.285 C  
HETATM    7  C   UNL     1     -10.856   9.400  70.533  1.00  0.00    -0.277 C  
ENDROOT
BRANCH   5   8
HETATM    8  C   UNL     1     -10.130   7.912  68.650  1.00  0.00    -0.197 C  
HETATM    9  N   UNL     1      -9.948   8.795  67.703  1.00  0.00    -0.180 NA 
HETATM   10  C   UNL     1      -9.058   8.629  66.625  1.00  0.00    -0.165 A  
HETATM   11  H   UNL     1     -10.486   9.660  67.749  1.00  0.00     0.000 HD 
HETATM   12  C   UNL     1      -9.478   9.126  65.384  1.00  0.00    -0.231 A  
HETATM   13  C   UNL     1      -8.645   9.056  64.266  1.00  0.00    -0.148 A  
HETATM   14  C   UNL     1      -7.366   8.515  64.370  1.00  0.00    -0.097 A  
HETATM   15 CL   UNL     1      -9.200   9.627  62.743  1.00  0.00    -0.260 Cl 
HETATM   16  C   UNL     1      -6.918   8.048  65.603  1.00  0.00    -0.063 A  
HETATM   17  C   UNL     1      -7.751   8.100  66.736  1.00  0.00    -0.095 A  
HETATM   18  N   UNL     1      -7.305   7.467  67.926  1.00  0.00    -0.096 NA 
HETATM   19  C   UNL     1      -8.088   6.420  68.459  1.00  0.00    -0.110 A  
HETATM   20  H   UNL     1      -6.443   7.761  68.384  1.00  0.00     0.000 HD 
HETATM   21  C   UNL     1      -7.507   5.153  68.629  1.00  0.00    -0.074 A  
HETATM   22  C   UNL     1      -8.288   4.049  68.981  1.00  0.00    -0.086 A  
HETATM   23  C   UNL     1      -9.660   4.193  69.158  1.00  0.00    -0.243 A  
HETATM   24  C   UNL     1     -10.248   5.446  69.007  1.00  0.00    -0.291 A  
HETATM   25  C   UNL     1      -9.462   6.564  68.680  1.00  0.00    -0.123 A  
ENDBRANCH   5   8
TORSDOF 1
ENDMDL
MODEL      129
REMARK 921   NORMALIZED FREE ENERGY PREDICTED BY IDOCK:   -3.13 KCAL/MOL
REMARK 922        TOTAL FREE ENERGY PREDICTED BY IDOCK:   -3.69 KCAL/MOL
REMARK 923 INTER-LIGAND FREE ENERGY PREDICTED BY IDOCK:   -3.46 KCAL/MOL
REMARK 924 INTRA-LIGAND FREE ENERGY PREDICTED BY IDOCK:   -0.23 KCAL/MOL
REMARK 927      BINDING AFFINITY PREDICTED BY RF-SCORE:    0.00 PKD
ROOT
HETATM    1  C   UNL     1     -12.199  14.256  66.591  1.00  0.00    -0.381 C  
HETATM    2  N   UNL     1     -10.742  14.169  66.524  1.00  0.00    -0.287 NA 
HETATM    3  C   UNL     1     -10.152  13.827  67.835  1.00  0.00    -0.246 C  
HETATM    4  C   UNL     1     -10.372  12.371  68.301  1.00  0.00    -0.227 C  
HETATM    5  N   UNL     1      -9.968  11.408  67.266  1.00  0.00    -0.192 NA 
HETATM    6  C   UNL     1     -10.289  13.170  65.528  1.00  0.00    -0.290 C  
HETATM    7  C   UNL     1     -10.494  11.690  65.925  1.00  0.00    -0.255 C  
ENDROOT
BRANCH   5   8
HETATM    8  C   UNL     1      -9.108  10.333  67.513  1.00  0.00    -0.137 C  
HETATM    9  N   UNL     1      -8.104  10.127  66.702  1.00  0.00    -0.118 NA 
HETATM   10  C   UNL     1      -7.151   9.103  66.863  1.00  0.00    -0.082 A  
HETATM   11  H   UNL     1      -8.004  10.749  65.900  1.00  0.00     0.000 HD 
HETATM   12  C   UNL     1      -6.694   8.483  65.692  1.00  0.00    -0.060 A  
HETATM   13  C   UNL     1      -5.712   7.493  65.743  1.00  0.00    -0.037 A  
HETATM   14  C   UNL     1      -5.146   7.120  66.960  1.00  0.00    -0.017 A  
HETATM   15 CL   UNL     1      -5.201   6.713  64.299  1.00  0.00    -0.025 Cl 
HETATM   16  C   UNL     1      -5.563   7.749  68.131  1.00  0.00    -0.032 A  
HETATM   17  C   UNL     1      -6.562   8.740  68.096  1.00  0.00    -0.061 A  
HETATM   18  N   UNL     1      -7.060   9.233  69.331  1.00  0.00    -0.052 NA 
HETATM   19  C   UNL     1      -8.435   9.070  69.608  1.00  0.00    -0.128 A  
HETATM   20  H   UNL     1      -6.443   9.692  69.999  1.00  0.00     0.000 HD 
HETATM   21  C   UNL     1      -8.819   8.362  70.758  1.00  0.00    -0.171 A  
HETATM   22  C   UNL     1     -10.157   8.023  70.976  1.00  0.00    -0.213 A  
HETATM   23  C   UNL     1     -11.127   8.376  70.044  1.00  0.00    -0.148 A  
HETATM   24  C   UNL     1     -10.763   9.091  68.906  1.00  0.00    -0.149 A  
HETATM   25  C   UNL     1      -9.424   9.458  68.696  1.00  0.00    -0.147 A  
ENDBRANCH   5   8
TORSDOF 1
ENDMDL
MODEL      130
REMARK 921   NORMALIZED FREE ENERGY PREDICTED BY IDOCK:   -3.02 KCAL/MOL
REMARK 922        TOTAL FREE ENERGY PREDICTED BY IDOCK:   -3.58 KCAL/MOL
REMARK 923 INTER-LIGAND FREE ENERGY PREDICTED BY IDOCK:   -3.37 KCAL/MOL
REMARK 924 INTRA-LIGAND FREE ENERGY PREDICTED BY IDOCK:   -0.21 KCAL/MOL
REMARK 927      BINDING AFFINITY PREDICTED BY RF-SCORE:    0.00 PKD
ROOT
HETATM    1  C   UNL     1      -7.479   6.190  71.776  1.00  0.00    -0.095 C  
HETATM    2  N   UNL     1      -8.392   7.328  71.857  1.00  0.00    -0.107 NA 
HETATM    3  C   UNL     1      -7.664   8.607  71.994  1.00  0.00    -0.045 C  
HETATM    4  C   UNL     1      -6.929   9.090  70.724  1.00  0.00    -0.087 C  
HETATM    5  N   UNL     1      -7.824   9.108  69.558  1.00  0.00    -0.078 NA 
HETATM    6  C   UNL     1      -9.279   7.416  70.674  1.00  0.00    -0.157 C  
HETATM    7  C   UNL     1      -8.604   7.879  69.363  1.00  0.00    -0.137 C  
ENDROOT
BRANCH   5   8
HETATM    8  C   UNL     1      -7.971  10.219  68.721  1.00  0.00    -0.113 C  
HETATM    9  N   UNL     1      -8.882  11.111  69.009  1.00  0.00    -0.365 NA 
HETATM   10  C   UNL     1      -9.104  12.286  68.266  1.00  0.00    -0.187 A  
HETATM   11  H   UNL     1      -9.472  10.944  69.824  1.00  0.00     0.000 HD 
HETATM   12  C   UNL     1     -10.437  12.694  68.120  1.00  0.00    -0.239 A  
HETATM   13  C   UNL     1     -10.755  13.873  67.446  1.00  0.00    -0.272 A  
HETATM   14  C   UNL     1      -9.749  14.685  66.928  1.00  0.00    -0.249 A  
HETATM   15 CL   UNL     1     -12.400  14.328  67.238  1.00  0.00    -0.282 Cl 
HETATM   16  C   UNL     1      -8.416  14.314  67.093  1.00  0.00    -0.220 A  
HETATM   17  C   UNL     1      -8.081  13.121  67.759  1.00  0.00    -0.165 A  
HETATM   18  N   UNL     1      -6.721  12.712  67.759  1.00  0.00    -0.110 NA 
HETATM   19  C   UNL     1      -6.397  11.470  67.173  1.00  0.00    -0.124 A  
HETATM   20  H   UNL     1      -5.997  13.301  68.171  1.00  0.00     0.000 HD 
HETATM   21  C   UNL     1      -5.479  11.434  66.112  1.00  0.00    -0.038 A  
HETATM   22  C   UNL     1      -5.266  10.259  65.388  1.00  0.00    -0.080 A  
HETATM   23  C   UNL     1      -5.976   9.105  65.706  1.00  0.00    -0.051 A  
HETATM   24  C   UNL     1      -6.879   9.121  66.766  1.00  0.00    -0.080 A  
HETATM   25  C   UNL     1      -7.075  10.293  67.514  1.00  0.00    -0.086 A  
ENDBRANCH   5   8
TORSDOF 1
ENDMDL
MODEL      131
REMARK 921   NORMALIZED FREE ENERGY PREDICTED BY IDOCK:   -3.01 KCAL/MOL
REMARK 922        TOTAL FREE ENERGY PREDICTED BY IDOCK:   -3.57 KCAL/MOL
REMARK 923 INTER-LIGAND FREE ENERGY PREDICTED BY IDOCK:   -3.20 KCAL/MOL
REMARK 924 INTRA-LIGAND FREE ENERGY PREDICTED BY IDOCK:   -0.37 KCAL/MOL
REMARK 927      BINDING AFFINITY PREDICTED BY RF-SCORE:    0.00 PKD
ROOT
HETATM    1  C   UNL     1      -9.999   9.296  71.371  1.00  0.00    -0.253 C  
HETATM    2  N   UNL     1      -9.536   9.194  69.989  1.00  0.00    -0.184 NA 
HETATM    3  C   UNL     1      -8.255   8.462  69.893  1.00  0.00    -0.122 C  
HETATM    4  C   UNL     1      -8.340   6.940  70.139  1.00  0.00    -0.135 C  
HETATM    5  N   UNL     1      -9.374   6.317  69.302  1.00  0.00    -0.136 NA 
HETATM    6  C   UNL     1     -10.528   8.522  69.117  1.00  0.00    -0.205 C  
HETATM    7  C   UNL     1     -10.676   6.997  69.322  1.00  0.00    -0.225 C  
ENDROOT
BRANCH   5   8
HETATM    8  C   UNL     1      -9.139   5.194  68.501  1.00  0.00    -0.112 C  
HETATM    9  N   UNL     1      -9.256   5.307  67.204  1.00  0.00    -0.111 NA 
HETATM   10  C   UNL     1      -9.011   4.262  66.292  1.00  0.00    -0.120 A  
HETATM   11  H   UNL     1      -9.542   6.210  66.828  1.00  0.00     0.000 HD 
HETATM   12  C   UNL     1      -9.858   4.193  65.178  1.00  0.00    -0.210 A  
HETATM   13  C   UNL     1      -9.665   3.225  64.191  1.00  0.00    -0.157 A  
HETATM   14  C   UNL     1      -8.606   2.325  64.281  1.00  0.00    -0.088 A  
HETATM   15 CL   UNL     1     -10.745   3.128  62.857  1.00  0.00    -0.196 Cl 
HETATM   16  C   UNL     1      -7.733   2.400  65.364  1.00  0.00    -0.077 A  
HETATM   17  C   UNL     1      -7.923   3.362  66.373  1.00  0.00    -0.084 A  
HETATM   18  N   UNL     1      -7.102   3.293  67.530  1.00  0.00    -0.053 NA 
HETATM   19  C   UNL     1      -7.728   3.105  68.781  1.00  0.00    -0.051 A  
HETATM   20  H   UNL     1      -6.089   3.376  67.458  1.00  0.00     0.000 HD 
HETATM   21  C   UNL     1      -7.378   1.989  69.557  1.00  0.00    -0.043 A  
HETATM   22  C   UNL     1      -8.095   1.666  70.712  1.00  0.00    -0.048 A  
HETATM   23  C   UNL     1      -9.178   2.448  71.102  1.00  0.00    -0.190 A  
HETATM   24  C   UNL     1      -9.528   3.566  70.350  1.00  0.00    -0.254 A  
HETATM   25  C   UNL     1      -8.792   3.910  69.204  1.00  0.00    -0.151 A  
ENDBRANCH   5   8
TORSDOF 1
ENDMDL
MODEL      132
REMARK 921   NORMALIZED FREE ENERGY PREDICTED BY IDOCK:   -3.01 KCAL/MOL
REMARK 922        TOTAL FREE ENERGY PREDICTED BY IDOCK:   -3.56 KCAL/MOL
REMARK 923 INTER-LIGAND FREE ENERGY PREDICTED BY IDOCK:   -3.26 KCAL/MOL
REMARK 924 INTRA-LIGAND FREE ENERGY PREDICTED BY IDOCK:   -0.30 KCAL/MOL
REMARK 927      BINDING AFFINITY PREDICTED BY RF-SCORE:    0.00 PKD
ROOT
HETATM    1  C   UNL     1      -7.695   1.949  66.709  1.00  0.00    -0.066 C  
HETATM    2  N   UNL     1      -7.926   2.321  68.102  1.00  0.00    -0.058 NA 
HETATM    3  C   UNL     1      -6.982   3.363  68.557  1.00  0.00    -0.050 C  
HETATM    4  C   UNL     1      -7.224   4.775  67.979  1.00  0.00    -0.066 C  
HETATM    5  N   UNL     1      -8.618   5.200  68.166  1.00  0.00    -0.103 NA 
HETATM    6  C   UNL     1      -9.308   2.808  68.327  1.00  0.00    -0.200 C  
HETATM    7  C   UNL     1      -9.624   4.210  67.760  1.00  0.00    -0.155 C  
ENDROOT
BRANCH   5   8
HETATM    8  C   UNL     1      -8.975   6.428  68.733  1.00  0.00    -0.126 C  
HETATM    9  N   UNL     1      -8.482   7.527  68.224  1.00  0.00    -0.125 NA 
HETATM   10  C   UNL     1      -8.791   8.822  68.682  1.00  0.00    -0.138 A  
HETATM   11  H   UNL     1      -7.830   7.440  67.444  1.00  0.00     0.000 HD 
HETATM   12  C   UNL     1      -7.743   9.752  68.686  1.00  0.00    -0.080 A  
HETATM   13  C   UNL     1      -7.962  11.074  69.073  1.00  0.00    -0.114 A  
HETATM   14  C   UNL     1      -9.236  11.504  69.437  1.00  0.00     0.604 A  
HETATM   15 CL   UNL     1      -6.651  12.186  69.116  1.00  0.00    -0.101 Cl 
HETATM   16  C   UNL     1     -10.298  10.602  69.407  1.00  0.00    -0.234 A  
HETATM   17  C   UNL     1     -10.089   9.262  69.031  1.00  0.00    -0.199 A  
HETATM   18  N   UNL     1     -11.170   8.351  69.170  1.00  0.00    -0.359 NA 
HETATM   19  C   UNL     1     -11.001   7.241  70.025  1.00  0.00    -0.253 A  
HETATM   20  H   UNL     1     -12.044   8.495  68.665  1.00  0.00     0.000 HD 
HETATM   21  C   UNL     1     -11.886   7.069  71.101  1.00  0.00    -0.380 A  
HETATM   22  C   UNL     1     -11.651   6.093  72.073  1.00  0.00    -0.364 A  
HETATM   23  C   UNL     1     -10.522   5.283  71.990  1.00  0.00    -0.283 A  
HETATM   24  C   UNL     1      -9.643   5.433  70.920  1.00  0.00    -0.226 A  
HETATM   25  C   UNL     1      -9.891   6.394  69.926  1.00  0.00    -0.191 A  
ENDBRANCH   5   8
TORSDOF 1
ENDMDL
MODEL      133
REMARK 921   NORMALIZED FREE ENERGY PREDICTED BY IDOCK:   -3.00 KCAL/MOL
REMARK 922        TOTAL FREE ENERGY PREDICTED BY IDOCK:   -3.55 KCAL/MOL
REMARK 923 INTER-LIGAND FREE ENERGY PREDICTED BY IDOCK:   -3.15 KCAL/MOL
REMARK 924 INTRA-LIGAND FREE ENERGY PREDICTED BY IDOCK:   -0.41 KCAL/MOL
REMARK 927      BINDING AFFINITY PREDICTED BY RF-SCORE:    0.00 PKD
ROOT
HETATM    1  C   UNL     1      -6.652  10.601  70.341  1.00  0.00    -0.070 C  
HETATM    2  N   UNL     1      -7.538   9.602  70.932  1.00  0.00    -0.318 NA 
HETATM    3  C   UNL     1      -8.740   9.374  70.102  1.00  0.00    -0.221 C  
HETATM    4  C   UNL     1      -8.500   8.606  68.784  1.00  0.00    -0.129 C  
HETATM    5  N   UNL     1      -7.768   7.353  69.017  1.00  0.00    -0.115 NA 
HETATM    6  C   UNL     1      -6.855   8.302  71.136  1.00  0.00    -0.052 C  
HETATM    7  C   UNL     1      -6.570   7.488  69.854  1.00  0.00    -0.039 C  
ENDROOT
BRANCH   5   8
HETATM    8  C   UNL     1      -8.196   6.114  68.529  1.00  0.00    -0.111 C  
HETATM    9  N   UNL     1      -8.187   5.905  67.238  1.00  0.00    -0.106 NA 
HETATM   10  C   UNL     1      -8.559   4.692  66.629  1.00  0.00    -0.108 A  
HETATM   11  H   UNL     1      -7.891   6.671  66.634  1.00  0.00     0.000 HD 
HETATM   12  C   UNL     1      -9.257   4.788  65.418  1.00  0.00    -0.156 A  
HETATM   13  C   UNL     1      -9.624   3.642  64.711  1.00  0.00    -0.173 A  
HETATM   14  C   UNL     1      -9.278   2.379  65.183  1.00  0.00    -0.110 A  
HETATM   15 CL   UNL     1     -10.522   3.783  63.251  1.00  0.00    -0.222 Cl 
HETATM   16  C   UNL     1      -8.554   2.264  66.367  1.00  0.00    -0.111 A  
HETATM   17  C   UNL     1      -8.188   3.410  67.097  1.00  0.00    -0.091 A  
HETATM   18  N   UNL     1      -7.593   3.230  68.374  1.00  0.00    -0.056 NA 
HETATM   19  C   UNL     1      -8.251   3.771  69.500  1.00  0.00    -0.053 A  
HETATM   20  H   UNL     1      -6.714   2.724  68.475  1.00  0.00     0.000 HD 
HETATM   21  C   UNL     1      -8.630   2.914  70.545  1.00  0.00    -0.112 A  
HETATM   22  C   UNL     1      -9.437   3.371  71.589  1.00  0.00    -0.219 A  
HETATM   23  C   UNL     1      -9.887   4.688  71.598  1.00  0.00    -0.253 A  
HETATM   24  C   UNL     1      -9.507   5.554  70.576  1.00  0.00    -0.209 A  
HETATM   25  C   UNL     1      -8.672   5.105  69.539  1.00  0.00    -0.113 A  
ENDBRANCH   5   8
TORSDOF 1
ENDMDL
MODEL      134
REMARK 921   NORMALIZED FREE ENERGY PREDICTED BY IDOCK:   -2.90 KCAL/MOL
REMARK 922        TOTAL FREE ENERGY PREDICTED BY IDOCK:   -3.45 KCAL/MOL
REMARK 923 INTER-LIGAND FREE ENERGY PREDICTED BY IDOCK:   -3.29 KCAL/MOL
REMARK 924 INTRA-LIGAND FREE ENERGY PREDICTED BY IDOCK:   -0.17 KCAL/MOL
REMARK 927      BINDING AFFINITY PREDICTED BY RF-SCORE:    0.00 PKD
ROOT
HETATM    1  C   UNL     1      -7.172   1.758  69.143  1.00  0.00    -0.039 C  
HETATM    2  N   UNL     1      -7.090   2.793  70.170  1.00  0.00    -0.034 NA 
HETATM    3  C   UNL     1      -6.443   4.020  69.662  1.00  0.00    -0.033 C  
HETATM    4  C   UNL     1      -7.285   4.853  68.672  1.00  0.00    -0.058 C  
HETATM    5  N   UNL     1      -8.622   5.139  69.210  1.00  0.00    -0.096 NA 
HETATM    6  C   UNL     1      -8.425   3.152  70.706  1.00  0.00    -0.064 C  
HETATM    7  C   UNL     1      -9.327   3.974  69.758  1.00  0.00    -0.172 C  
ENDROOT
BRANCH   5   8
HETATM    8  C   UNL     1      -9.172   6.425  69.253  1.00  0.00    -0.135 C  
HETATM    9  N   UNL     1      -9.808   6.805  70.331  1.00  0.00    -0.175 NA 
HETATM   10  C   UNL     1     -10.374   8.082  70.509  1.00  0.00    -0.202 A  
HETATM   11  H   UNL     1      -9.900   6.133  71.092  1.00  0.00     0.000 HD 
HETATM   12  C   UNL     1     -11.594   8.136  71.196  1.00  0.00    -0.306 A  
HETATM   13  C   UNL     1     -12.208   9.359  71.468  1.00  0.00    -0.369 A  
HETATM   14  C   UNL     1     -11.605  10.554  71.085  1.00  0.00    -0.230 A  
HETATM   15 CL   UNL     1     -13.728   9.399  72.270  1.00  0.00    -0.510 Cl 
HETATM   16  C   UNL     1     -10.375  10.522  70.430  1.00  0.00     0.241 A  
HETATM   17  C   UNL     1      -9.750   9.296  70.138  1.00  0.00    -0.218 A  
HETATM   18  N   UNL     1      -8.581   9.315  69.332  1.00  0.00    -0.135 NA 
HETATM   19  C   UNL     1      -8.605   8.615  68.106  1.00  0.00    -0.141 A  
HETATM   20  H   UNL     1      -7.747   9.819  69.631  1.00  0.00     0.000 HD 
HETATM   21  C   UNL     1      -8.356   9.317  66.916  1.00  0.00    -0.123 A  
HETATM   22  C   UNL     1      -8.545   8.709  65.673  1.00  0.00    -0.191 A  
HETATM   23  C   UNL     1      -8.996   7.394  65.601  1.00  0.00     0.002 A  
HETATM   24  C   UNL     1      -9.233   6.681  66.773  1.00  0.00    -0.168 A  
HETATM   25  C   UNL     1      -9.017   7.280  68.025  1.00  0.00    -0.131 A  
ENDBRANCH   5   8
TORSDOF 1
ENDMDL
MODEL      135
REMARK 921   NORMALIZED FREE ENERGY PREDICTED BY IDOCK:   -2.90 KCAL/MOL
REMARK 922        TOTAL FREE ENERGY PREDICTED BY IDOCK:   -3.45 KCAL/MOL
REMARK 923 INTER-LIGAND FREE ENERGY PREDICTED BY IDOCK:   -3.19 KCAL/MOL
REMARK 924 INTRA-LIGAND FREE ENERGY PREDICTED BY IDOCK:   -0.26 KCAL/MOL
REMARK 927      BINDING AFFINITY PREDICTED BY RF-SCORE:    0.00 PKD
ROOT
HETATM    1  C   UNL     1      -7.999  10.377  62.952  1.00  0.00    -0.147 C  
HETATM    2  N   UNL     1      -7.013   9.713  63.801  1.00  0.00    -0.107 NA 
HETATM    3  C   UNL     1      -7.095  10.176  65.203  1.00  0.00    -0.137 C  
HETATM    4  C   UNL     1      -8.330   9.687  65.991  1.00  0.00    -0.120 C  
HETATM    5  N   UNL     1      -8.483   8.229  65.901  1.00  0.00    -0.132 NA 
HETATM    6  C   UNL     1      -7.164   8.239  63.783  1.00  0.00    -0.092 C  
HETATM    7  C   UNL     1      -8.390   7.683  64.541  1.00  0.00     0.029 C  
ENDROOT
BRANCH   5   8
HETATM    8  C   UNL     1      -8.652   7.405  67.019  1.00  0.00    -0.119 C  
HETATM    9  N   UNL     1      -9.581   7.704  67.890  1.00  0.00    -0.142 NA 
HETATM   10  C   UNL     1      -9.871   6.937  69.035  1.00  0.00    -0.152 A  
HETATM   11  H   UNL     1     -10.130   8.548  67.729  1.00  0.00     0.000 HD 
HETATM   12  C   UNL     1     -10.211   7.647  70.194  1.00  0.00    -0.204 A  
HETATM   13  C   UNL     1     -10.566   6.977  71.365  1.00  0.00    -0.217 A  
HETATM   14  C   UNL     1     -10.616   5.585  71.396  1.00  0.00    -0.310 A  
HETATM   15 CL   UNL     1     -10.931   7.867  72.790  1.00  0.00    -0.433 Cl 
HETATM   16  C   UNL     1     -10.316   4.863  70.243  1.00  0.00    -0.252 A  
HETATM   17  C   UNL     1      -9.944   5.525  69.059  1.00  0.00    -0.181 A  
HETATM   18  N   UNL     1      -9.495   4.740  67.964  1.00  0.00    -0.134 NA 
HETATM   19  C   UNL     1      -8.186   4.955  67.481  1.00  0.00    -0.105 A  
HETATM   20  H   UNL     1     -10.102   4.040  67.538  1.00  0.00     0.000 HD 
HETATM   21  C   UNL     1      -7.280   3.883  67.468  1.00  0.00    -0.067 A  
HETATM   22  C   UNL     1      -5.931   4.089  67.169  1.00  0.00    -0.024 A  
HETATM   23  C   UNL     1      -5.465   5.371  66.891  1.00  0.00    -0.012 A  
HETATM   24  C   UNL     1      -6.355   6.441  66.886  1.00  0.00    -0.041 A  
HETATM   25  C   UNL     1      -7.718   6.234  67.158  1.00  0.00    -0.097 A  
ENDBRANCH   5   8
TORSDOF 1
ENDMDL
MODEL      136
REMARK 921   NORMALIZED FREE ENERGY PREDICTED BY IDOCK:   -2.85 KCAL/MOL
REMARK 922        TOTAL FREE ENERGY PREDICTED BY IDOCK:   -3.40 KCAL/MOL
REMARK 923 INTER-LIGAND FREE ENERGY PREDICTED BY IDOCK:   -3.36 KCAL/MOL
REMARK 924 INTRA-LIGAND FREE ENERGY PREDICTED BY IDOCK:   -0.04 KCAL/MOL
REMARK 927      BINDING AFFINITY PREDICTED BY RF-SCORE:    0.00 PKD
ROOT
HETATM    1  C   UNL     1      -8.794   2.595  63.269  1.00  0.00    -0.085 C  
HETATM    2  N   UNL     1      -9.374   3.936  63.301  1.00  0.00    -0.122 NA 
HETATM    3  C   UNL     1     -10.477   4.033  64.280  1.00  0.00    -0.190 C  
HETATM    4  C   UNL     1     -10.049   4.015  65.764  1.00  0.00    -0.099 C  
HETATM    5  N   UNL     1      -9.005   5.013  66.036  1.00  0.00    -0.131 NA 
HETATM    6  C   UNL     1      -8.365   4.972  63.625  1.00  0.00    -0.127 C  
HETATM    7  C   UNL     1      -7.881   4.999  65.092  1.00  0.00    -0.089 C  
ENDROOT
BRANCH   5   8
HETATM    8  C   UNL     1      -9.087   5.944  67.076  1.00  0.00    -0.116 C  
HETATM    9  N   UNL     1      -9.851   6.995  66.925  1.00  0.00    -0.186 NA 
HETATM   10  C   UNL     1     -10.044   7.983  67.910  1.00  0.00    -0.194 A  
HETATM   11  H   UNL     1     -10.338   7.106  66.037  1.00  0.00     0.000 HD 
HETATM   12  C   UNL     1     -10.147   9.305  67.458  1.00  0.00    -0.273 A  
HETATM   13  C   UNL     1     -10.391  10.349  68.351  1.00  0.00    -0.174 A  
HETATM   14  C   UNL     1     -10.564  10.093  69.709  1.00  0.00    -0.298 A  
HETATM   15 CL   UNL     1     -10.466  11.970  67.781  1.00  0.00    -0.212 Cl 
HETATM   16  C   UNL     1     -10.499   8.780  70.172  1.00  0.00    -0.230 A  
HETATM   17  C   UNL     1     -10.241   7.719  69.285  1.00  0.00    -0.211 A  
HETATM   18  N   UNL     1     -10.028   6.426  69.831  1.00  0.00    -0.166 NA 
HETATM   19  C   UNL     1      -8.787   5.797  69.591  1.00  0.00    -0.122 A  
HETATM   20  H   UNL     1     -10.750   5.964  70.382  1.00  0.00     0.000 HD 
HETATM   21  C   UNL     1      -7.994   5.413  70.684  1.00  0.00    -0.105 A  
HETATM   22  C   UNL     1      -6.688   4.953  70.495  1.00  0.00    -0.036 A  
HETATM   23  C   UNL     1      -6.152   4.882  69.213  1.00  0.00    -0.025 A  
HETATM   24  C   UNL     1      -6.932   5.245  68.118  1.00  0.00    -0.061 A  
HETATM   25  C   UNL     1      -8.255   5.681  68.301  1.00  0.00    -0.103 A  
ENDBRANCH   5   8
TORSDOF 1
ENDMDL
MODEL      137
REMARK 921   NORMALIZED FREE ENERGY PREDICTED BY IDOCK:   -2.82 KCAL/MOL
REMARK 922        TOTAL FREE ENERGY PREDICTED BY IDOCK:   -3.36 KCAL/MOL
REMARK 923 INTER-LIGAND FREE ENERGY PREDICTED BY IDOCK:   -3.84 KCAL/MOL
REMARK 924 INTRA-LIGAND FREE ENERGY PREDICTED BY IDOCK:    0.48 KCAL/MOL
REMARK 927      BINDING AFFINITY PREDICTED BY RF-SCORE:    0.00 PKD
ROOT
HETATM    1  C   UNL     1     -10.887  11.504  64.523  1.00  0.00    -0.327 C  
HETATM    2  N   UNL     1      -9.673  11.431  65.332  1.00  0.00    -0.224 NA 
HETATM    3  C   UNL     1      -9.974  11.467  66.779  1.00  0.00    -0.208 C  
HETATM    4  C   UNL     1     -10.619  10.186  67.353  1.00  0.00    -0.272 C  
HETATM    5  N   UNL     1      -9.844   8.989  66.999  1.00  0.00    -0.190 NA 
HETATM    6  C   UNL     1      -8.885  10.209  65.046  1.00  0.00    -0.181 C  
HETATM    7  C   UNL     1      -9.482   8.887  65.580  1.00  0.00    -0.159 C  
ENDROOT
BRANCH   5   8
HETATM    8  C   UNL     1      -9.432   8.037  67.939  1.00  0.00    -0.145 C  
HETATM    9  N   UNL     1      -8.757   6.995  67.528  1.00  0.00    -0.121 NA 
HETATM   10  C   UNL     1      -8.257   5.989  68.377  1.00  0.00    -0.110 A  
HETATM   11  H   UNL     1      -8.581   6.906  66.528  1.00  0.00     0.000 HD 
HETATM   12  C   UNL     1      -8.304   4.677  67.888  1.00  0.00    -0.099 A  
HETATM   13  C   UNL     1      -7.786   3.617  68.633  1.00  0.00    -0.056 A  
HETATM   14  C   UNL     1      -7.186   3.848  69.868  1.00  0.00    -0.042 A  
HETATM   15 CL   UNL     1      -7.897   2.009  68.035  1.00  0.00    -0.058 Cl 
HETATM   16  C   UNL     1      -7.099   5.150  70.356  1.00  0.00    -0.057 A  
HETATM   17  C   UNL     1      -7.629   6.227  69.622  1.00  0.00    -0.094 A  
HETATM   18  N   UNL     1      -7.656   7.507  70.235  1.00  0.00    -0.088 NA 
HETATM   19  C   UNL     1      -8.908   8.132  70.419  1.00  0.00    -0.141 A  
HETATM   20  H   UNL     1      -6.795   7.963  70.534  1.00  0.00     0.000 HD 
HETATM   21  C   UNL     1      -9.308   8.489  71.716  1.00  0.00    -0.323 A  
HETATM   22  C   UNL     1     -10.606   8.942  71.967  1.00  0.00    -0.388 A  
HETATM   23  C   UNL     1     -11.525   9.036  70.927  1.00  0.00    -0.347 A  
HETATM   24  C   UNL     1     -11.139   8.700  69.632  1.00  0.00    -0.023 A  
HETATM   25  C   UNL     1      -9.827   8.270  69.371  1.00  0.00    -0.185 A  
ENDBRANCH   5   8
TORSDOF 1
ENDMDL
MODEL      138
REMARK 921   NORMALIZED FREE ENERGY PREDICTED BY IDOCK:   -2.79 KCAL/MOL
REMARK 922        TOTAL FREE ENERGY PREDICTED BY IDOCK:   -3.33 KCAL/MOL
REMARK 923 INTER-LIGAND FREE ENERGY PREDICTED BY IDOCK:   -2.94 KCAL/MOL
REMARK 924 INTRA-LIGAND FREE ENERGY PREDICTED BY IDOCK:   -0.39 KCAL/MOL
REMARK 927      BINDING AFFINITY PREDICTED BY RF-SCORE:    0.00 PKD
ROOT
HETATM    1  C   UNL     1      -6.707   7.913  63.556  1.00  0.00    -0.070 C  
HETATM    2  N   UNL     1      -6.629   6.585  64.158  1.00  0.00    -0.037 NA 
HETATM    3  C   UNL     1      -5.789   6.583  65.375  1.00  0.00    -0.026 C  
HETATM    4  C   UNL     1      -6.409   7.275  66.609  1.00  0.00    -0.051 C  
HETATM    5  N   UNL     1      -7.758   6.765  66.891  1.00  0.00    -0.101 NA 
HETATM    6  C   UNL     1      -7.966   6.052  64.509  1.00  0.00    -0.127 C  
HETATM    7  C   UNL     1      -8.652   6.712  65.726  1.00  0.00    -0.140 C  
ENDROOT
BRANCH   5   8
HETATM    8  C   UNL     1      -8.159   6.313  68.152  1.00  0.00    -0.115 C  
HETATM    9  N   UNL     1      -8.422   7.192  69.084  1.00  0.00    -0.132 NA 
HETATM   10  C   UNL     1      -8.867   6.865  70.380  1.00  0.00    -0.152 A  
HETATM   11  H   UNL     1      -8.298   8.178  68.858  1.00  0.00     0.000 HD 
HETATM   12  C   UNL     1      -8.370   7.650  71.429  1.00  0.00    -0.111 A  
HETATM   13  C   UNL     1      -8.791   7.438  72.742  1.00  0.00    -0.131 A  
HETATM   14  C   UNL     1      -9.736   6.457  73.032  1.00  0.00    -0.162 A  
HETATM   15 CL   UNL     1      -8.132   8.382  74.020  1.00  0.00    -0.263 Cl 
HETATM   16  C   UNL     1     -10.267   5.689  71.998  1.00  0.00    -0.252 A  
HETATM   17  C   UNL     1      -9.842   5.884  70.671  1.00  0.00    -0.183 A  
HETATM   18  N   UNL     1     -10.295   4.971  69.682  1.00  0.00    -0.246 NA 
HETATM   19  C   UNL     1      -9.331   4.219  68.976  1.00  0.00    -0.160 A  
HETATM   20  H   UNL     1     -11.290   4.860  69.487  1.00  0.00     0.000 HD 
HETATM   21  C   UNL     1      -9.392   2.818  69.021  1.00  0.00    -0.211 A  
HETATM   22  C   UNL     1      -8.361   2.039  68.489  1.00  0.00    -0.078 A  
HETATM   23  C   UNL     1      -7.250   2.649  67.916  1.00  0.00    -0.049 A  
HETATM   24  C   UNL     1      -7.182   4.038  67.851  1.00  0.00    -0.060 A  
HETATM   25  C   UNL     1      -8.230   4.825  68.359  1.00  0.00    -0.084 A  
ENDBRANCH   5   8
TORSDOF 1
ENDMDL
MODEL      139
REMARK 921   NORMALIZED FREE ENERGY PREDICTED BY IDOCK:   -2.77 KCAL/MOL
REMARK 922        TOTAL FREE ENERGY PREDICTED BY IDOCK:   -3.31 KCAL/MOL
REMARK 923 INTER-LIGAND FREE ENERGY PREDICTED BY IDOCK:   -3.45 KCAL/MOL
REMARK 924 INTRA-LIGAND FREE ENERGY PREDICTED BY IDOCK:    0.14 KCAL/MOL
REMARK 927      BINDING AFFINITY PREDICTED BY RF-SCORE:    0.00 PKD
ROOT
HETATM    1  C   UNL     1      -8.874   7.209  66.505  1.00  0.00    -0.141 C  
HETATM    2  N   UNL     1      -8.838   8.472  65.773  1.00  0.00    -0.184 NA 
HETATM    3  C   UNL     1     -10.074   9.258  65.973  1.00  0.00    -0.192 C  
HETATM    4  C   UNL     1     -10.236   9.894  67.371  1.00  0.00    -0.222 C  
HETATM    5  N   UNL     1      -9.046  10.667  67.751  1.00  0.00    -0.142 NA 
HETATM    6  C   UNL     1      -7.680   9.310  66.164  1.00  0.00    -0.096 C  
HETATM    7  C   UNL     1      -7.770   9.966  67.561  1.00  0.00    -0.091 C  
ENDROOT
BRANCH   5   8
HETATM    8  C   UNL     1      -9.103  11.987  68.211  1.00  0.00    -0.190 C  
HETATM    9  N   UNL     1      -8.039  12.740  68.108  1.00  0.00    -0.150 NA 
HETATM   10  C   UNL     1      -7.981  14.091  68.501  1.00  0.00    -0.141 A  
HETATM   11  H   UNL     1      -7.195  12.320  67.717  1.00  0.00     0.000 HD 
HETATM   12  C   UNL     1      -6.785  14.521  69.089  1.00  0.00    -0.115 A  
HETATM   13  C   UNL     1      -6.611  15.853  69.465  1.00  0.00    -0.191 A  
HETATM   14  C   UNL     1      -7.616  16.790  69.236  1.00  0.00    -0.103 A  
HETATM   15 CL   UNL     1      -5.153  16.349  70.230  1.00  0.00    -0.164 Cl 
HETATM   16  C   UNL     1      -8.800  16.388  68.620  1.00  0.00    -0.234 A  
HETATM   17  C   UNL     1      -8.994  15.045  68.248  1.00  0.00    -0.174 A  
HETATM   18  N   UNL     1     -10.275  14.659  67.772  1.00  0.00    -0.228 NA 
HETATM   19  C   UNL     1     -10.982  13.669  68.487  1.00  0.00    -0.267 A  
HETATM   20  H   UNL     1     -10.673  15.086  66.936  1.00  0.00     0.000 HD 
HETATM   21  C   UNL     1     -12.252  13.976  69.002  1.00  0.00    -0.280 A  
HETATM   22  C   UNL     1     -12.907  13.093  69.863  1.00  0.00     0.436 A  
HETATM   23  C   UNL     1     -12.300  11.897  70.232  1.00  0.00    -0.287 A  
HETATM   24  C   UNL     1     -11.047  11.572  69.718  1.00  0.00    -0.156 A  
HETATM   25  C   UNL     1     -10.397  12.444  68.829  1.00  0.00    -0.142 A  
ENDBRANCH   5   8
TORSDOF 1
ENDMDL
MODEL      140
REMARK 921   NORMALIZED FREE ENERGY PREDICTED BY IDOCK:   -2.73 KCAL/MOL
REMARK 922        TOTAL FREE ENERGY PREDICTED BY IDOCK:   -3.27 KCAL/MOL
REMARK 923 INTER-LIGAND FREE ENERGY PREDICTED BY IDOCK:   -3.78 KCAL/MOL
REMARK 924 INTRA-LIGAND FREE ENERGY PREDICTED BY IDOCK:    0.52 KCAL/MOL
REMARK 927      BINDING AFFINITY PREDICTED BY RF-SCORE:    0.00 PKD
ROOT
HETATM    1  C   UNL     1     -13.417   9.261  71.643  1.00  0.00    -0.398 C  
HETATM    2  N   UNL     1     -12.206   8.649  72.185  1.00  0.00    -0.367 NA 
HETATM    3  C   UNL     1     -12.177   7.190  71.953  1.00  0.00    -0.323 C  
HETATM    4  C   UNL     1     -11.927   6.756  70.492  1.00  0.00    -0.328 C  
HETATM    5  N   UNL     1     -10.735   7.409  69.933  1.00  0.00    -0.240 NA 
HETATM    6  C   UNL     1     -10.977   9.242  71.609  1.00  0.00    -0.363 C  
HETATM    7  C   UNL     1     -10.674   8.861  70.142  1.00  0.00    -0.225 C  
ENDROOT
BRANCH   5   8
HETATM    8  C   UNL     1      -9.705   6.709  69.296  1.00  0.00    -0.146 C  
HETATM    9  N   UNL     1      -9.292   5.582  69.815  1.00  0.00    -0.138 NA 
HETATM   10  C   UNL     1      -8.290   4.769  69.251  1.00  0.00    -0.080 A  
HETATM   11  H   UNL     1      -9.724   5.271  70.685  1.00  0.00     0.000 HD 
HETATM   12  C   UNL     1      -7.417   4.138  70.147  1.00  0.00    -0.046 A  
HETATM   13  C   UNL     1      -6.424   3.272  69.689  1.00  0.00    -0.033 A  
HETATM   14  C   UNL     1      -6.299   2.996  68.330  1.00  0.00    -0.032 A  
HETATM   15 CL   UNL     1      -5.334   2.546  70.802  1.00  0.00    -0.004 Cl 
HETATM   16  C   UNL     1      -7.180   3.587  67.426  1.00  0.00    -0.059 A  
HETATM   17  C   UNL     1      -8.178   4.472  67.873  1.00  0.00    -0.095 A  
HETATM   18  N   UNL     1      -8.942   5.167  66.899  1.00  0.00    -0.109 NA 
HETATM   19  C   UNL     1      -8.895   6.578  66.896  1.00  0.00    -0.120 A  
HETATM   20  H   UNL     1      -9.510   4.661  66.220  1.00  0.00     0.000 HD 
HETATM   21  C   UNL     1      -8.465   7.244  65.737  1.00  0.00    -0.148 A  
HETATM   22  C   UNL     1      -8.232   8.621  65.747  1.00  0.00    -0.126 A  
HETATM   23  C   UNL     1      -8.415   9.351  66.917  1.00  0.00    -0.128 A  
HETATM   24  C   UNL     1      -8.854   8.707  68.071  1.00  0.00    -0.141 A  
HETATM   25  C   UNL     1      -9.117   7.327  68.058  1.00  0.00    -0.133 A  
ENDBRANCH   5   8
TORSDOF 1
ENDMDL
MODEL      141
REMARK 921   NORMALIZED FREE ENERGY PREDICTED BY IDOCK:   -2.72 KCAL/MOL
REMARK 922        TOTAL FREE ENERGY PREDICTED BY IDOCK:   -3.26 KCAL/MOL
REMARK 923 INTER-LIGAND FREE ENERGY PREDICTED BY IDOCK:   -3.25 KCAL/MOL
REMARK 924 INTRA-LIGAND FREE ENERGY PREDICTED BY IDOCK:   -0.01 KCAL/MOL
REMARK 927      BINDING AFFINITY PREDICTED BY RF-SCORE:    0.00 PKD
ROOT
HETATM    1  C   UNL     1      -6.662   7.214  63.630  1.00  0.00    -0.044 C  
HETATM    2  N   UNL     1      -6.896   5.985  64.385  1.00  0.00    -0.045 NA 
HETATM    3  C   UNL     1      -6.072   5.928  65.610  1.00  0.00    -0.029 C  
HETATM    4  C   UNL     1      -6.500   6.887  66.742  1.00  0.00    -0.047 C  
HETATM    5  N   UNL     1      -7.929   6.747  67.054  1.00  0.00    -0.108 NA 
HETATM    6  C   UNL     1      -8.319   5.828  64.767  1.00  0.00    -0.116 C  
HETATM    7  C   UNL     1      -8.819   6.770  65.886  1.00  0.00    -0.110 C  
ENDROOT
BRANCH   5   8
HETATM    8  C   UNL     1      -8.416   6.554  68.351  1.00  0.00    -0.120 C  
HETATM    9  N   UNL     1      -8.294   5.375  68.903  1.00  0.00    -0.100 NA 
HETATM   10  C   UNL     1      -8.711   5.065  70.212  1.00  0.00    -0.107 A  
HETATM   11  H   UNL     1      -7.870   4.631  68.349  1.00  0.00     0.000 HD 
HETATM   12  C   UNL     1      -9.270   3.795  70.407  1.00  0.00    -0.213 A  
HETATM   13  C   UNL     1      -9.666   3.375  71.677  1.00  0.00    -0.164 A  
HETATM   14  C   UNL     1      -9.486   4.201  72.783  1.00  0.00    -0.161 A  
HETATM   15 CL   UNL     1     -10.395   1.832  71.885  1.00  0.00    -0.184 Cl 
HETATM   16  C   UNL     1      -8.899   5.454  72.615  1.00  0.00    -0.123 A  
HETATM   17  C   UNL     1      -8.508   5.896  71.338  1.00  0.00    -0.128 A  
HETATM   18  N   UNL     1      -8.064   7.238  71.200  1.00  0.00    -0.102 NA 
HETATM   19  C   UNL     1      -8.781   8.092  70.335  1.00  0.00    -0.136 A  
HETATM   20  H   UNL     1      -7.249   7.575  71.712  1.00  0.00     0.000 HD 
HETATM   21  C   UNL     1      -9.341   9.271  70.852  1.00  0.00    -0.313 A  
HETATM   22  C   UNL     1     -10.205  10.052  70.080  1.00  0.00    -0.306 A  
HETATM   23  C   UNL     1     -10.532   9.659  68.786  1.00  0.00    -0.238 A  
HETATM   24  C   UNL     1      -9.973   8.500  68.255  1.00  0.00    -0.211 A  
HETATM   25  C   UNL     1      -9.082   7.727  69.018  1.00  0.00    -0.144 A  
ENDBRANCH   5   8
TORSDOF 1
ENDMDL
MODEL      142
REMARK 921   NORMALIZED FREE ENERGY PREDICTED BY IDOCK:   -2.71 KCAL/MOL
REMARK 922        TOTAL FREE ENERGY PREDICTED BY IDOCK:   -3.24 KCAL/MOL
REMARK 923 INTER-LIGAND FREE ENERGY PREDICTED BY IDOCK:   -3.66 KCAL/MOL
REMARK 924 INTRA-LIGAND FREE ENERGY PREDICTED BY IDOCK:    0.42 KCAL/MOL
REMARK 927      BINDING AFFINITY PREDICTED BY RF-SCORE:    0.00 PKD
ROOT
HETATM    1  C   UNL     1      -6.389   8.311  64.984  1.00  0.00    -0.049 C  
HETATM    2  N   UNL     1      -6.858   9.442  64.187  1.00  0.00    -0.092 NA 
HETATM    3  C   UNL     1      -8.320   9.396  63.975  1.00  0.00    -0.174 C  
HETATM    4  C   UNL     1      -9.180   9.716  65.217  1.00  0.00    -0.237 C  
HETATM    5  N   UNL     1      -8.771  10.981  65.843  1.00  0.00    -0.181 NA 
HETATM    6  C   UNL     1      -6.513  10.742  64.809  1.00  0.00     0.218 C  
HETATM    7  C   UNL     1      -7.327  11.119  66.068  1.00  0.00     0.045 C  
ENDROOT
BRANCH   5   8
HETATM    8  C   UNL     1      -9.670  12.006  66.157  1.00  0.00    -0.238 C  
HETATM    9  N   UNL     1      -9.664  12.503  67.367  1.00  0.00    -0.192 NA 
HETATM   10  C   UNL     1     -10.493  13.558  67.795  1.00  0.00    -0.240 A  
HETATM   11  H   UNL     1      -9.016  12.101  68.044  1.00  0.00     0.000 HD 
HETATM   12  C   UNL     1     -10.988  13.473  69.103  1.00  0.00    -0.220 A  
HETATM   13  C   UNL     1     -11.775  14.493  69.638  1.00  0.00    -0.307 A  
HETATM   14  C   UNL     1     -12.062  15.632  68.888  1.00  0.00    -0.183 A  
HETATM   15 CL   UNL     1     -12.412  14.346  71.228  1.00  0.00    -0.401 Cl 
HETATM   16  C   UNL     1     -11.550  15.750  67.598  1.00  0.00    -0.029 A  
HETATM   17  C   UNL     1     -10.765  14.723  67.042  1.00  0.00    -0.300 A  
HETATM   18  N   UNL     1     -10.404  14.823  65.672  1.00  0.00    -0.325 NA 
HETATM   19  C   UNL     1     -10.830  13.803  64.793  1.00  0.00    -0.401 A  
HETATM   20  H   UNL     1      -9.851  15.609  65.332  1.00  0.00     0.000 HD 
HETATM   21  C   UNL     1     -11.623  14.145  63.687  1.00  0.00     0.333 A  
HETATM   22  C   UNL     1     -12.214  13.156  62.897  1.00  0.00     0.301 A  
HETATM   23  C   UNL     1     -12.030  11.812  63.207  1.00  0.00    -0.354 A  
HETATM   24  C   UNL     1     -11.234  11.458  64.293  1.00  0.00    -0.306 A  
HETATM   25  C   UNL     1     -10.615  12.449  65.074  1.00  0.00    -0.330 A  
ENDBRANCH   5   8
TORSDOF 1
ENDMDL
MODEL      143
REMARK 921   NORMALIZED FREE ENERGY PREDICTED BY IDOCK:   -2.70 KCAL/MOL
REMARK 922        TOTAL FREE ENERGY PREDICTED BY IDOCK:   -3.24 KCAL/MOL
REMARK 923 INTER-LIGAND FREE ENERGY PREDICTED BY IDOCK:   -2.83 KCAL/MOL
REMARK 924 INTRA-LIGAND FREE ENERGY PREDICTED BY IDOCK:   -0.41 KCAL/MOL
REMARK 927      BINDING AFFINITY PREDICTED BY RF-SCORE:    0.00 PKD
ROOT
HETATM    1  C   UNL     1      -7.703   2.693  62.550  1.00  0.00    -0.058 C  
HETATM    2  N   UNL     1      -8.232   3.977  63.003  1.00  0.00    -0.080 NA 
HETATM    3  C   UNL     1      -9.445   3.809  63.831  1.00  0.00    -0.151 C  
HETATM    4  C   UNL     1      -9.210   3.233  65.244  1.00  0.00    -0.151 C  
HETATM    5  N   UNL     1      -8.172   3.984  65.965  1.00  0.00    -0.104 NA 
HETATM    6  C   UNL     1      -7.234   4.747  63.782  1.00  0.00    -0.050 C  
HETATM    7  C   UNL     1      -6.938   4.215  65.203  1.00  0.00    -0.058 C  
ENDROOT
BRANCH   5   8
HETATM    8  C   UNL     1      -8.350   4.490  67.257  1.00  0.00    -0.104 C  
HETATM    9  N   UNL     1      -8.349   3.659  68.267  1.00  0.00    -0.082 NA 
HETATM   10  C   UNL     1      -8.484   4.048  69.613  1.00  0.00    -0.060 A  
HETATM   11  H   UNL     1      -8.244   2.665  68.066  1.00  0.00     0.000 HD 
HETATM   12  C   UNL     1      -9.234   3.200  70.438  1.00  0.00    -0.215 A  
HETATM   13  C   UNL     1      -9.382   3.472  71.798  1.00  0.00    -0.131 A  
HETATM   14  C   UNL     1      -8.761   4.579  72.370  1.00  0.00    -0.124 A  
HETATM   15 CL   UNL     1     -10.347   2.444  72.782  1.00  0.00    -0.231 Cl 
HETATM   16  C   UNL     1      -7.982   5.416  71.573  1.00  0.00    -0.115 A  
HETATM   17  C   UNL     1      -7.835   5.161  70.197  1.00  0.00    -0.078 A  
HETATM   18  N   UNL     1      -7.164   6.129  69.404  1.00  0.00    -0.072 NA 
HETATM   19  C   UNL     1      -7.875   6.732  68.344  1.00  0.00    -0.114 A  
HETATM   20  H   UNL     1      -6.195   6.383  69.595  1.00  0.00     0.000 HD 
HETATM   21  C   UNL     1      -8.024   8.128  68.329  1.00  0.00    -0.123 A  
HETATM   22  C   UNL     1      -8.867   8.748  67.404  1.00  0.00    -0.140 A  
HETATM   23  C   UNL     1      -9.581   7.983  66.487  1.00  0.00    -0.295 A  
HETATM   24  C   UNL     1      -9.432   6.599  66.480  1.00  0.00    -0.192 A  
HETATM   25  C   UNL     1      -8.564   5.973  67.390  1.00  0.00    -0.102 A  
ENDBRANCH   5   8
TORSDOF 1
ENDMDL
MODEL      144
REMARK 921   NORMALIZED FREE ENERGY PREDICTED BY IDOCK:   -2.70 KCAL/MOL
REMARK 922        TOTAL FREE ENERGY PREDICTED BY IDOCK:   -3.23 KCAL/MOL
REMARK 923 INTER-LIGAND FREE ENERGY PREDICTED BY IDOCK:   -3.54 KCAL/MOL
REMARK 924 INTRA-LIGAND FREE ENERGY PREDICTED BY IDOCK:    0.31 KCAL/MOL
REMARK 927      BINDING AFFINITY PREDICTED BY RF-SCORE:    0.00 PKD
ROOT
HETATM    1  C   UNL     1      -8.472   7.204  69.254  1.00  0.00    -0.133 C  
HETATM    2  N   UNL     1      -8.994   7.954  68.114  1.00  0.00    -0.132 NA 
HETATM    3  C   UNL     1     -10.101   8.851  68.508  1.00  0.00    -0.188 C  
HETATM    4  C   UNL     1      -9.688  10.091  69.331  1.00  0.00    -0.225 C  
HETATM    5  N   UNL     1      -8.605  10.837  68.675  1.00  0.00    -0.144 NA 
HETATM    6  C   UNL     1      -7.945   8.764  67.452  1.00  0.00    -0.098 C  
HETATM    7  C   UNL     1      -7.474  10.014  68.230  1.00  0.00    -0.079 C  
ENDROOT
BRANCH   5   8
HETATM    8  C   UNL     1      -8.657  12.214  68.439  1.00  0.00    -0.141 C  
HETATM    9  N   UNL     1      -9.658  12.701  67.751  1.00  0.00    -0.191 NA 
HETATM   10  C   UNL     1      -9.841  14.070  67.477  1.00  0.00    -0.236 A  
HETATM   11  H   UNL     1     -10.350  12.046  67.390  1.00  0.00     0.000 HD 
HETATM   12  C   UNL     1     -10.351  14.392  66.213  1.00  0.00    -0.300 A  
HETATM   13  C   UNL     1     -10.616  15.717  65.865  1.00  0.00    -0.339 A  
HETATM   14  C   UNL     1     -10.404  16.745  66.781  1.00  0.00    -0.293 A  
HETATM   15 CL   UNL     1     -11.196  16.094  64.291  1.00  0.00    -0.258 Cl 
HETATM   16  C   UNL     1      -9.929  16.440  68.055  1.00  0.00    -0.242 A  
HETATM   17  C   UNL     1      -9.645  15.110  68.415  1.00  0.00    -0.212 A  
HETATM   18  N   UNL     1      -9.016  14.874  69.665  1.00  0.00    -0.444 NA 
HETATM   19  C   UNL     1      -7.754  14.241  69.668  1.00  0.00     0.307 A  
HETATM   20  H   UNL     1      -9.462  15.154  70.538  1.00  0.00     0.000 HD 
HETATM   21  C   UNL     1      -6.661  14.901  70.252  1.00  0.00    -0.046 A  
HETATM   22  C   UNL     1      -5.365  14.396  70.120  1.00  0.00    -0.100 A  
HETATM   23  C   UNL     1      -5.141  13.231  69.393  1.00  0.00    -0.075 A  
HETATM   24  C   UNL     1      -6.216  12.558  68.820  1.00  0.00    -0.074 A  
HETATM   25  C   UNL     1      -7.524  13.047  68.974  1.00  0.00     0.097 A  
ENDBRANCH   5   8
TORSDOF 1
ENDMDL
MODEL      145
REMARK 921   NORMALIZED FREE ENERGY PREDICTED BY IDOCK:   -2.66 KCAL/MOL
REMARK 922        TOTAL FREE ENERGY PREDICTED BY IDOCK:   -3.19 KCAL/MOL
REMARK 923 INTER-LIGAND FREE ENERGY PREDICTED BY IDOCK:   -3.70 KCAL/MOL
REMARK 924 INTRA-LIGAND FREE ENERGY PREDICTED BY IDOCK:    0.50 KCAL/MOL
REMARK 927      BINDING AFFINITY PREDICTED BY RF-SCORE:    0.00 PKD
ROOT
HETATM    1  C   UNL     1     -12.523  10.833  70.219  1.00  0.00    -0.317 C  
HETATM    2  N   UNL     1     -11.076  10.654  70.298  1.00  0.00    -0.278 NA 
HETATM    3  C   UNL     1     -10.711   9.485  71.126  1.00  0.00    -0.338 C  
HETATM    4  C   UNL     1     -11.001   8.107  70.492  1.00  0.00    -0.243 C  
HETATM    5  N   UNL     1     -10.428   8.005  69.143  1.00  0.00    -0.220 NA 
HETATM    6  C   UNL     1     -10.460  10.493  68.960  1.00  0.00    -0.217 C  
HETATM    7  C   UNL     1     -10.724   9.141  68.260  1.00  0.00    -0.122 C  
ENDROOT
BRANCH   5   8
HETATM    8  C   UNL     1      -9.618   6.940  68.733  1.00  0.00    -0.134 C  
HETATM    9  N   UNL     1      -9.203   6.903  67.494  1.00  0.00    -0.123 NA 
HETATM   10  C   UNL     1      -8.358   5.906  66.970  1.00  0.00    -0.105 A  
HETATM   11  H   UNL     1      -9.512   7.644  66.865  1.00  0.00     0.000 HD 
HETATM   12  C   UNL     1      -8.616   5.492  65.657  1.00  0.00    -0.148 A  
HETATM   13  C   UNL     1      -7.802   4.547  65.032  1.00  0.00    -0.090 A  
HETATM   14  C   UNL     1      -6.698   4.015  65.693  1.00  0.00    -0.052 A  
HETATM   15 CL   UNL     1      -8.166   4.018  63.436  1.00  0.00    -0.088 Cl 
HETATM   16  C   UNL     1      -6.405   4.440  66.988  1.00  0.00    -0.040 A  
HETATM   17  C   UNL     1      -7.224   5.383  67.635  1.00  0.00    -0.072 A  
HETATM   18  N   UNL     1      -6.974   5.660  69.005  1.00  0.00    -0.061 NA 
HETATM   19  C   UNL     1      -8.002   5.400  69.937  1.00  0.00    -0.081 A  
HETATM   20  H   UNL     1      -6.076   6.036  69.308  1.00  0.00     0.000 HD 
HETATM   21  C   UNL     1      -7.755   4.510  70.994  1.00  0.00    -0.072 A  
HETATM   22  C   UNL     1      -8.790   4.087  71.831  1.00  0.00    -0.143 A  
HETATM   23  C   UNL     1     -10.089   4.539  71.617  1.00  0.00    -0.249 A  
HETATM   24  C   UNL     1     -10.346   5.433  70.582  1.00  0.00    -0.333 A  
HETATM   25  C   UNL     1      -9.303   5.883  69.756  1.00  0.00    -0.171 A  
ENDBRANCH   5   8
TORSDOF 1
ENDMDL
MODEL      146
REMARK 921   NORMALIZED FREE ENERGY PREDICTED BY IDOCK:   -2.64 KCAL/MOL
REMARK 922        TOTAL FREE ENERGY PREDICTED BY IDOCK:   -3.17 KCAL/MOL
REMARK 923 INTER-LIGAND FREE ENERGY PREDICTED BY IDOCK:   -2.88 KCAL/MOL
REMARK 924 INTRA-LIGAND FREE ENERGY PREDICTED BY IDOCK:   -0.29 KCAL/MOL
REMARK 927      BINDING AFFINITY PREDICTED BY RF-SCORE:    0.00 PKD
ROOT
HETATM    1  C   UNL     1      -6.276   3.602  67.518  1.00  0.00    -0.036 C  
HETATM    2  N   UNL     1      -6.135   4.793  68.352  1.00  0.00    -0.029 NA 
HETATM    3  C   UNL     1      -5.372   5.857  67.667  1.00  0.00    -0.005 C  
HETATM    4  C   UNL     1      -6.113   6.565  66.512  1.00  0.00    -0.033 C  
HETATM    5  N   UNL     1      -7.435   7.047  66.937  1.00  0.00    -0.084 NA 
HETATM    6  C   UNL     1      -7.448   5.345  68.761  1.00  0.00    -0.075 C  
HETATM    7  C   UNL     1      -8.251   6.055  67.649  1.00  0.00    -0.109 C  
ENDROOT
BRANCH   5   8
HETATM    8  C   UNL     1      -7.875   8.359  66.733  1.00  0.00    -0.094 C  
HETATM    9  N   UNL     1      -8.317   9.044  67.755  1.00  0.00    -0.117 NA 
HETATM   10  C   UNL     1      -8.753  10.381  67.685  1.00  0.00    -0.118 A  
HETATM   11  H   UNL     1      -8.348   8.579  68.662  1.00  0.00     0.000 HD 
HETATM   12  C   UNL     1      -9.853  10.723  68.484  1.00  0.00    -0.182 A  
HETATM   13  C   UNL     1     -10.327  12.035  68.523  1.00  0.00    -0.217 A  
HETATM   14  C   UNL     1      -9.698  13.037  67.789  1.00  0.00    -0.218 A  
HETATM   15 CL   UNL     1     -11.707  12.422  69.473  1.00  0.00    -0.378 Cl 
HETATM   16  C   UNL     1      -8.582  12.723  67.016  1.00  0.00    -0.177 A  
HETATM   17  C   UNL     1      -8.100  11.402  66.957  1.00  0.00    -0.157 A  
HETATM   18  N   UNL     1      -7.063  11.108  66.033  1.00  0.00    -0.353 NA 
HETATM   19  C   UNL     1      -7.317  10.151  65.026  1.00  0.00    -0.139 A  
HETATM   20  H   UNL     1      -6.159  11.575  66.095  1.00  0.00     0.000 HD 
HETATM   21  C   UNL     1      -7.192  10.528  63.680  1.00  0.00     0.090 A  
HETATM   22  C   UNL     1      -7.604   9.673  62.655  1.00  0.00    -0.113 A  
HETATM   23  C   UNL     1      -8.158   8.434  62.961  1.00  0.00    -0.163 A  
HETATM   24  C   UNL     1      -8.276   8.040  64.292  1.00  0.00    -0.070 A  
HETATM   25  C   UNL     1      -7.836   8.886  65.324  1.00  0.00    -0.104 A  
ENDBRANCH   5   8
TORSDOF 1
ENDMDL
MODEL      147
REMARK 921   NORMALIZED FREE ENERGY PREDICTED BY IDOCK:   -2.61 KCAL/MOL
REMARK 922        TOTAL FREE ENERGY PREDICTED BY IDOCK:   -3.14 KCAL/MOL
REMARK 923 INTER-LIGAND FREE ENERGY PREDICTED BY IDOCK:   -2.80 KCAL/MOL
REMARK 924 INTRA-LIGAND FREE ENERGY PREDICTED BY IDOCK:   -0.35 KCAL/MOL
REMARK 927      BINDING AFFINITY PREDICTED BY RF-SCORE:    0.00 PKD
ROOT
HETATM    1  C   UNL     1      -8.424   5.083  74.273  1.00  0.00    -0.108 C  
HETATM    2  N   UNL     1      -7.245   5.643  73.616  1.00  0.00    -0.086 NA 
HETATM    3  C   UNL     1      -6.989   5.002  72.309  1.00  0.00    -0.071 C  
HETATM    4  C   UNL     1      -7.982   5.371  71.185  1.00  0.00    -0.109 C  
HETATM    5  N   UNL     1      -8.122   6.827  71.046  1.00  0.00    -0.113 NA 
HETATM    6  C   UNL     1      -7.366   7.105  73.408  1.00  0.00    -0.072 C  
HETATM    7  C   UNL     1      -8.356   7.545  72.306  1.00  0.00    -0.103 C  
ENDROOT
BRANCH   5   8
HETATM    8  C   UNL     1      -7.993   7.497  69.825  1.00  0.00    -0.124 C  
HETATM    9  N   UNL     1      -7.061   8.406  69.698  1.00  0.00    -0.051 NA 
HETATM   10  C   UNL     1      -6.808   9.122  68.512  1.00  0.00    -0.063 A  
HETATM   11  H   UNL     1      -6.479   8.608  70.511  1.00  0.00     0.000 HD 
HETATM   12  C   UNL     1      -6.453  10.470  68.659  1.00  0.00    -0.051 A  
HETATM   13  C   UNL     1      -6.133  11.250  67.547  1.00  0.00    -0.059 A  
HETATM   14  C   UNL     1      -6.134  10.695  66.270  1.00  0.00    -0.111 A  
HETATM   15 CL   UNL     1      -5.747  12.913  67.746  1.00  0.00    -0.123 Cl 
HETATM   16  C   UNL     1      -6.451   9.348  66.108  1.00  0.00    -0.069 A  
HETATM   17  C   UNL     1      -6.788   8.553  67.218  1.00  0.00    -0.067 A  
HETATM   18  N   UNL     1      -7.256   7.233  66.980  1.00  0.00    -0.089 NA 
HETATM   19  C   UNL     1      -8.552   6.894  67.425  1.00  0.00    -0.121 A  
HETATM   20  H   UNL     1      -6.672   6.549  66.501  1.00  0.00     0.000 HD 
HETATM   21  C   UNL     1      -9.497   6.441  66.492  1.00  0.00    -0.189 A  
HETATM   22  C   UNL     1     -10.835   6.267  66.854  1.00  0.00    -0.428 A  
HETATM   23  C   UNL     1     -11.251   6.554  68.150  1.00  0.00    -0.250 A  
HETATM   24  C   UNL     1     -10.322   6.991  69.091  1.00  0.00    -0.209 A  
HETATM   25  C   UNL     1      -8.970   7.140  68.739  1.00  0.00    -0.128 A  
ENDBRANCH   5   8
TORSDOF 1
ENDMDL
MODEL      148
REMARK 921   NORMALIZED FREE ENERGY PREDICTED BY IDOCK:   -2.50 KCAL/MOL
REMARK 922        TOTAL FREE ENERGY PREDICTED BY IDOCK:   -3.02 KCAL/MOL
REMARK 923 INTER-LIGAND FREE ENERGY PREDICTED BY IDOCK:   -3.57 KCAL/MOL
REMARK 924 INTRA-LIGAND FREE ENERGY PREDICTED BY IDOCK:    0.55 KCAL/MOL
REMARK 927      BINDING AFFINITY PREDICTED BY RF-SCORE:    0.00 PKD
ROOT
HETATM    1  C   UNL     1     -12.797  11.940  62.935  1.00  0.00     0.472 C  
HETATM    2  N   UNL     1     -11.464  12.516  63.096  1.00  0.00    -0.319 NA 
HETATM    3  C   UNL     1     -11.395  13.423  64.261  1.00  0.00    -0.389 C  
HETATM    4  C   UNL     1     -11.432  12.732  65.642  1.00  0.00    -0.342 C  
HETATM    5  N   UNL     1     -10.426  11.665  65.737  1.00  0.00    -0.254 NA 
HETATM    6  C   UNL     1     -10.422  11.473  63.249  1.00  0.00    -0.362 C  
HETATM    7  C   UNL     1     -10.412  10.731  64.604  1.00  0.00    -0.276 C  
ENDROOT
BRANCH   5   8
HETATM    8  C   UNL     1      -9.513  11.565  66.791  1.00  0.00    -0.189 C  
HETATM    9  N   UNL     1      -9.192  10.378  67.238  1.00  0.00    -0.142 NA 
HETATM   10  C   UNL     1      -8.260  10.144  68.269  1.00  0.00    -0.110 A  
HETATM   11  H   UNL     1      -9.645   9.570  66.813  1.00  0.00     0.000 HD 
HETATM   12  C   UNL     1      -8.559   9.103  69.158  1.00  0.00    -0.133 A  
HETATM   13  C   UNL     1      -7.674   8.760  70.180  1.00  0.00    -0.084 A  
HETATM   14  C   UNL     1      -6.461   9.430  70.320  1.00  0.00    -0.064 A  
HETATM   15 CL   UNL     1      -8.082   7.511  71.289  1.00  0.00    -0.095 Cl 
HETATM   16  C   UNL     1      -6.131  10.445  69.424  1.00  0.00    -0.044 A  
HETATM   17  C   UNL     1      -7.019  10.810  68.396  1.00  0.00    -0.070 A  
HETATM   18  N   UNL     1      -6.706  11.953  67.614  1.00  0.00    -0.093 NA 
HETATM   19  C   UNL     1      -7.615  13.033  67.615  1.00  0.00    -0.160 A  
HETATM   20  H   UNL     1      -5.847  11.993  67.066  1.00  0.00     0.000 HD 
HETATM   21  C   UNL     1      -7.170  14.298  68.028  1.00  0.00    -0.146 A  
HETATM   22  C   UNL     1      -8.072  15.349  68.216  1.00  0.00    -0.136 A  
HETATM   23  C   UNL     1      -9.432  15.146  68.006  1.00  0.00    -0.199 A  
HETATM   24  C   UNL     1      -9.887  13.900  67.582  1.00  0.00    -0.236 A  
HETATM   25  C   UNL     1      -8.980  12.849  67.365  1.00  0.00    -0.199 A  
ENDBRANCH   5   8
TORSDOF 1
ENDMDL
MODEL      149
REMARK 921   NORMALIZED FREE ENERGY PREDICTED BY IDOCK:   -2.19 KCAL/MOL
REMARK 922        TOTAL FREE ENERGY PREDICTED BY IDOCK:   -2.70 KCAL/MOL
REMARK 923 INTER-LIGAND FREE ENERGY PREDICTED BY IDOCK:   -3.30 KCAL/MOL
REMARK 924 INTRA-LIGAND FREE ENERGY PREDICTED BY IDOCK:    0.60 KCAL/MOL
REMARK 927      BINDING AFFINITY PREDICTED BY RF-SCORE:    0.00 PKD
ROOT
HETATM    1  C   UNL     1      -5.174  13.832  68.140  1.00  0.00    -0.109 C  
HETATM    2  N   UNL     1      -6.038  13.685  69.309  1.00  0.00    -0.090 NA 
HETATM    3  C   UNL     1      -7.375  13.173  68.942  1.00  0.00    -0.019 C  
HETATM    4  C   UNL     1      -7.425  11.687  68.526  1.00  0.00    -0.113 C  
HETATM    5  N   UNL     1      -6.782  10.826  69.529  1.00  0.00    -0.093 NA 
HETATM    6  C   UNL     1      -5.451  12.780  70.326  1.00  0.00    -0.138 C  
HETATM    7  C   UNL     1      -5.455  11.277  69.967  1.00  0.00    -0.080 C  
ENDROOT
BRANCH   5   8
HETATM    8  C   UNL     1      -7.394   9.691  70.071  1.00  0.00    -0.130 C  
HETATM    9  N   UNL     1      -6.642   8.705  70.487  1.00  0.00    -0.037 NA 
HETATM   10  C   UNL     1      -7.135   7.528  71.082  1.00  0.00    -0.058 A  
HETATM   11  H   UNL     1      -5.633   8.795  70.373  1.00  0.00     0.000 HD 
HETATM   12  C   UNL     1      -6.473   6.337  70.757  1.00  0.00    -0.041 A  
HETATM   13  C   UNL     1      -6.854   5.126  71.335  1.00  0.00    -0.051 A  
HETATM   14  C   UNL     1      -7.885   5.082  72.271  1.00  0.00    -0.100 A  
HETATM   15 CL   UNL     1      -6.059   3.670  70.885  1.00  0.00    -0.017 Cl 
HETATM   16  C   UNL     1      -8.532   6.261  72.633  1.00  0.00    -0.123 A  
HETATM   17  C   UNL     1      -8.167   7.488  72.048  1.00  0.00    -0.102 A  
HETATM   18  N   UNL     1      -8.963   8.629  72.333  1.00  0.00    -0.373 NA 
HETATM   19  C   UNL     1      -9.599   9.285  71.257  1.00  0.00    -0.202 A  
HETATM   20  H   UNL     1      -9.071   8.967  73.289  1.00  0.00     0.000 HD 
HETATM   21  C   UNL     1     -10.997   9.414  71.268  1.00  0.00    -0.440 A  
HETATM   22  C   UNL     1     -11.681   9.892  70.148  1.00  0.00    -0.239 A  
HETATM   23  C   UNL     1     -10.979  10.236  68.996  1.00  0.00    -0.274 A  
HETATM   24  C   UNL     1      -9.592  10.127  68.975  1.00  0.00    -0.202 A  
HETATM   25  C   UNL     1      -8.898   9.673  70.110  1.00  0.00    -0.266 A  
ENDBRANCH   5   8
TORSDOF 1
ENDMDL
MODEL      150
REMARK 921   NORMALIZED FREE ENERGY PREDICTED BY IDOCK:   -2.03 KCAL/MOL
REMARK 922        TOTAL FREE ENERGY PREDICTED BY IDOCK:   -2.53 KCAL/MOL
REMARK 923 INTER-LIGAND FREE ENERGY PREDICTED BY IDOCK:   -3.07 KCAL/MOL
REMARK 924 INTRA-LIGAND FREE ENERGY PREDICTED BY IDOCK:    0.53 KCAL/MOL
REMARK 927      BINDING AFFINITY PREDICTED BY RF-SCORE:    0.00 PKD
ROOT
HETATM    1  C   UNL     1      -5.316  20.054  63.163  1.00  0.00    -0.246 C  
HETATM    2  N   UNL     1      -5.414  20.129  64.618  1.00  0.00    -0.171 NA 
HETATM    3  C   UNL     1      -6.740  20.616  65.054  1.00  0.00    -0.189 C  
HETATM    4  C   UNL     1      -7.905  19.618  64.873  1.00  0.00     1.381 C  
HETATM    5  N   UNL     1      -7.592  18.312  65.471  1.00  0.00    -0.453 NA 
HETATM    6  C   UNL     1      -5.158  18.819  65.262  1.00  0.00    -0.163 C  
HETATM    7  C   UNL     1      -6.279  17.767  65.107  1.00  0.00     0.438 C  
ENDROOT
BRANCH   5   8
HETATM    8  C   UNL     1      -8.447  17.653  66.361  1.00  0.00    -0.246 C  
HETATM    9  N   UNL     1      -8.583  16.356  66.263  1.00  0.00    -0.323 NA 
HETATM   10  C   UNL     1      -9.384  15.575  67.119  1.00  0.00    -0.216 A  
HETATM   11  H   UNL     1      -8.077  15.879  65.518  1.00  0.00     0.000 HD 
HETATM   12  C   UNL     1     -10.074  14.507  66.530  1.00  0.00    -0.280 A  
HETATM   13  C   UNL     1     -10.851  13.645  67.304  1.00  0.00    -0.284 A  
HETATM   14  C   UNL     1     -10.935  13.813  68.683  1.00  0.00    -0.287 A  
HETATM   15 CL   UNL     1     -11.728  12.371  66.553  1.00  0.00    -0.451 Cl 
HETATM   16  C   UNL     1     -10.228  14.849  69.292  1.00  0.00    -0.219 A  
HETATM   17  C   UNL     1      -9.450  15.734  68.523  1.00  0.00    -0.201 A  
HETATM   18  N   UNL     1      -8.881  16.862  69.171  1.00  0.00    -0.155 NA 
HETATM   19  C   UNL     1      -9.249  18.148  68.717  1.00  0.00    -0.233 A  
HETATM   20  H   UNL     1      -8.226  16.748  69.943  1.00  0.00     0.000 HD 
HETATM   21  C   UNL     1      -9.839  19.046  69.618  1.00  0.00     0.219 A  
HETATM   22  C   UNL     1     -10.379  20.256  69.174  1.00  0.00     0.005 A  
HETATM   23  C   UNL     1     -10.348  20.579  67.821  1.00  0.00    -0.225 A  
HETATM   24  C   UNL     1      -9.752  19.704  66.917  1.00  0.00    -0.482 A  
HETATM   25  C   UNL     1      -9.183  18.500  67.363  1.00  0.00    -0.286 A  
ENDBRANCH   5   8
TORSDOF 1
ENDMDL
MODEL      151
REMARK 921   NORMALIZED FREE ENERGY PREDICTED BY IDOCK:   -1.87 KCAL/MOL
REMARK 922        TOTAL FREE ENERGY PREDICTED BY IDOCK:   -2.36 KCAL/MOL
REMARK 923 INTER-LIGAND FREE ENERGY PREDICTED BY IDOCK:   -2.37 KCAL/MOL
REMARK 924 INTRA-LIGAND FREE ENERGY PREDICTED BY IDOCK:    0.01 KCAL/MOL
REMARK 927      BINDING AFFINITY PREDICTED BY RF-SCORE:    0.00 PKD
ROOT
HETATM    1  C   UNL     1      -8.495   2.536  63.562  1.00  0.00    -0.085 C  
HETATM    2  N   UNL     1      -9.166   3.744  64.037  1.00  0.00    -0.129 NA 
HETATM    3  C   UNL     1     -10.208   3.436  65.039  1.00  0.00     0.137 C  
HETATM    4  C   UNL     1      -9.685   2.996  66.425  1.00  0.00     0.232 C  
HETATM    5  N   UNL     1      -8.699   3.949  66.955  1.00  0.00    -0.107 NA 
HETATM    6  C   UNL     1      -8.215   4.713  64.630  1.00  0.00    -0.113 C  
HETATM    7  C   UNL     1      -7.640   4.328  66.011  1.00  0.00    -0.089 C  
ENDROOT
BRANCH   5   8
HETATM    8  C   UNL     1      -8.780   4.501  68.238  1.00  0.00    -0.100 C  
HETATM    9  N   UNL     1      -9.669   5.432  68.470  1.00  0.00    -0.130 NA 
HETATM   10  C   UNL     1      -9.871   6.039  69.725  1.00  0.00    -0.165 A  
HETATM   11  H   UNL     1     -10.253   5.738  67.693  1.00  0.00     0.000 HD 
HETATM   12  C   UNL     1     -10.169   7.408  69.717  1.00  0.00    -0.210 A  
HETATM   13  C   UNL     1     -10.437   8.089  70.905  1.00  0.00    -0.202 A  
HETATM   14  C   UNL     1     -10.442   7.412  72.122  1.00  0.00    -0.243 A  
HETATM   15 CL   UNL     1     -10.751   9.779  70.876  1.00  0.00    -0.391 Cl 
HETATM   16  C   UNL     1     -10.182   6.043  72.146  1.00  0.00    -0.222 A  
HETATM   17  C   UNL     1      -9.897   5.347  70.957  1.00  0.00    -0.187 A  
HETATM   18  N   UNL     1      -9.485   3.992  71.057  1.00  0.00    -0.150 NA 
HETATM   19  C   UNL     1      -8.212   3.643  70.556  1.00  0.00    -0.053 A  
HETATM   20  H   UNL     1     -10.092   3.289  71.479  1.00  0.00     0.000 HD 
HETATM   21  C   UNL     1      -7.275   3.060  71.423  1.00  0.00    -0.033 A  
HETATM   22  C   UNL     1      -5.951   2.865  71.020  1.00  0.00    -0.017 A  
HETATM   23  C   UNL     1      -5.543   3.260  69.750  1.00  0.00    -0.017 A  
HETATM   24  C   UNL     1      -6.465   3.826  68.874  1.00  0.00    -0.040 A  
HETATM   25  C   UNL     1      -7.804   3.998  69.265  1.00  0.00    -0.056 A  
ENDBRANCH   5   8
TORSDOF 1
ENDMDL
MODEL      152
REMARK 921   NORMALIZED FREE ENERGY PREDICTED BY IDOCK:   -1.81 KCAL/MOL
REMARK 922        TOTAL FREE ENERGY PREDICTED BY IDOCK:   -2.29 KCAL/MOL
REMARK 923 INTER-LIGAND FREE ENERGY PREDICTED BY IDOCK:   -2.46 KCAL/MOL
REMARK 924 INTRA-LIGAND FREE ENERGY PREDICTED BY IDOCK:    0.17 KCAL/MOL
REMARK 927      BINDING AFFINITY PREDICTED BY RF-SCORE:    0.00 PKD
ROOT
HETATM    1  C   UNL     1     -13.924  15.338  71.796  1.00  0.00    -0.539 C  
HETATM    2  N   UNL     1     -13.241  15.943  70.655  1.00  0.00    -0.256 NA 
HETATM    3  C   UNL     1     -11.830  16.257  70.963  1.00  0.00    -0.205 C  
HETATM    4  C   UNL     1     -10.889  15.037  71.076  1.00  0.00     0.009 C  
HETATM    5  N   UNL     1     -10.997  14.164  69.899  1.00  0.00    -0.038 NA 
HETATM    6  C   UNL     1     -13.279  15.072  69.457  1.00  0.00     0.979 C  
HETATM    7  C   UNL     1     -12.371  13.822  69.509  1.00  0.00    -0.209 C  
ENDROOT
BRANCH   5   8
HETATM    8  C   UNL     1      -9.889  13.727  69.165  1.00  0.00     0.234 C  
HETATM    9  N   UNL     1      -9.568  12.460  69.199  1.00  0.00    -0.200 NA 
HETATM   10  C   UNL     1      -8.499  11.893  68.478  1.00  0.00    -0.113 A  
HETATM   11  H   UNL     1     -10.128  11.842  69.785  1.00  0.00     0.000 HD 
HETATM   12  C   UNL     1      -7.776  10.881  69.123  1.00  0.00    -0.127 A  
HETATM   13  C   UNL     1      -6.733  10.221  68.472  1.00  0.00    -0.057 A  
HETATM   14  C   UNL     1      -6.407  10.539  67.156  1.00  0.00    -0.068 A  
HETATM   15 CL   UNL     1      -5.829   9.016  69.299  1.00  0.00    -0.035 Cl 
HETATM   16  C   UNL     1      -7.137  11.519  66.486  1.00  0.00    -0.009 A  
HETATM   17  C   UNL     1      -8.183  12.201  67.134  1.00  0.00    -0.182 A  
HETATM   18  N   UNL     1      -8.787  13.296  66.462  1.00  0.00    -0.449 NA 
HETATM   19  C   UNL     1      -8.728  14.568  67.072  1.00  0.00    -0.234 A  
HETATM   20  H   UNL     1      -9.250  13.168  65.563  1.00  0.00     0.000 HD 
HETATM   21  C   UNL     1      -8.124  15.629  66.380  1.00  0.00    -0.046 A  
HETATM   22  C   UNL     1      -7.883  16.852  67.011  1.00  0.00    -0.232 A  
HETATM   23  C   UNL     1      -8.233  17.029  68.346  1.00  0.00    -0.250 A  
HETATM   24  C   UNL     1      -8.847  15.990  69.042  1.00  0.00    -0.244 A  
HETATM   25  C   UNL     1      -9.116  14.768  68.402  1.00  0.00    -0.188 A  
ENDBRANCH   5   8
TORSDOF 1
ENDMDL
MODEL      153
REMARK 921   NORMALIZED FREE ENERGY PREDICTED BY IDOCK:   -1.78 KCAL/MOL
REMARK 922        TOTAL FREE ENERGY PREDICTED BY IDOCK:   -2.27 KCAL/MOL
REMARK 923 INTER-LIGAND FREE ENERGY PREDICTED BY IDOCK:   -2.83 KCAL/MOL
REMARK 924 INTRA-LIGAND FREE ENERGY PREDICTED BY IDOCK:    0.56 KCAL/MOL
REMARK 927      BINDING AFFINITY PREDICTED BY RF-SCORE:    0.00 PKD
ROOT
HETATM    1  C   UNL     1      -8.427   5.206  72.134  1.00  0.00    -0.125 C  
HETATM    2  N   UNL     1      -9.253   6.409  72.064  1.00  0.00    -0.148 NA 
HETATM    3  C   UNL     1      -8.435   7.639  72.101  1.00  0.00    -0.114 C  
HETATM    4  C   UNL     1      -7.623   7.935  70.820  1.00  0.00    -0.078 C  
HETATM    5  N   UNL     1      -8.475   7.896  69.624  1.00  0.00    -0.131 NA 
HETATM    6  C   UNL     1     -10.092   6.439  70.843  1.00  0.00    -0.187 C  
HETATM    7  C   UNL     1      -9.340   6.714  69.521  1.00  0.00    -0.145 C  
ENDROOT
BRANCH   5   8
HETATM    8  C   UNL     1      -8.509   8.923  68.674  1.00  0.00    -0.128 C  
HETATM    9  N   UNL     1      -9.136   8.719  67.545  1.00  0.00    -0.133 NA 
HETATM   10  C   UNL     1      -9.271   9.682  66.527  1.00  0.00    -0.158 A  
HETATM   11  H   UNL     1      -9.555   7.802  67.392  1.00  0.00     0.000 HD 
HETATM   12  C   UNL     1      -9.195   9.215  65.208  1.00  0.00    -0.243 A  
HETATM   13  C   UNL     1      -9.367  10.083  64.130  1.00  0.00    -0.280 A  
HETATM   14  C   UNL     1      -9.647  11.431  64.345  1.00  0.00    -0.216 A  
HETATM   15 CL   UNL     1      -9.222   9.497  62.520  1.00  0.00    -0.243 Cl 
HETATM   16  C   UNL     1      -9.760  11.908  65.649  1.00  0.00    -0.248 A  
HETATM   17  C   UNL     1      -9.576  11.046  66.746  1.00  0.00    -0.190 A  
HETATM   18  N   UNL     1      -9.545  11.614  68.047  1.00  0.00    -0.178 NA 
HETATM   19  C   UNL     1      -8.373  11.452  68.818  1.00  0.00    -0.096 A  
HETATM   20  H   UNL     1     -10.347  12.125  68.415  1.00  0.00     0.000 HD 
HETATM   21  C   UNL     1      -7.694  12.593  69.274  1.00  0.00     0.454 A  
HETATM   22  C   UNL     1      -6.442  12.485  69.883  1.00  0.00     0.036 A  
HETATM   23  C   UNL     1      -5.844  11.237  70.034  1.00  0.00    -0.118 A  
HETATM   24  C   UNL     1      -6.512  10.096  69.600  1.00  0.00    -0.062 A  
HETATM   25  C   UNL     1      -7.784  10.197  69.012  1.00  0.00    -0.100 A  
ENDBRANCH   5   8
TORSDOF 1
ENDMDL
MODEL      154
REMARK 921   NORMALIZED FREE ENERGY PREDICTED BY IDOCK:   -1.69 KCAL/MOL
REMARK 922        TOTAL FREE ENERGY PREDICTED BY IDOCK:   -2.17 KCAL/MOL
REMARK 923 INTER-LIGAND FREE ENERGY PREDICTED BY IDOCK:   -2.82 KCAL/MOL
REMARK 924 INTRA-LIGAND FREE ENERGY PREDICTED BY IDOCK:    0.65 KCAL/MOL
REMARK 927      BINDING AFFINITY PREDICTED BY RF-SCORE:    0.00 PKD
ROOT
HETATM    1  C   UNL     1     -11.069  14.922  66.060  1.00  0.00    -0.334 C  
HETATM    2  N   UNL     1     -11.540  13.578  66.383  1.00  0.00    -0.335 NA 
HETATM    3  C   UNL     1     -11.311  12.632  65.270  1.00  0.00    -0.315 C  
HETATM    4  C   UNL     1      -9.839  12.227  65.038  1.00  0.00    -0.137 C  
HETATM    5  N   UNL     1      -9.209  11.754  66.278  1.00  0.00    -0.220 NA 
HETATM    6  C   UNL     1     -10.891  13.037  67.601  1.00  0.00    -0.239 C  
HETATM    7  C   UNL     1      -9.410  12.626  67.442  1.00  0.00    -0.189 C  
ENDROOT
BRANCH   5   8
HETATM    8  C   UNL     1      -8.514  10.543  66.371  1.00  0.00    -0.143 C  
HETATM    9  N   UNL     1      -8.599   9.688  65.386  1.00  0.00    -0.143 NA 
HETATM   10  C   UNL     1      -7.921   8.454  65.345  1.00  0.00    -0.122 A  
HETATM   11  H   UNL     1      -9.196   9.930  64.595  1.00  0.00     0.000 HD 
HETATM   12  C   UNL     1      -8.616   7.376  64.782  1.00  0.00     0.190 A  
HETATM   13  C   UNL     1      -8.011   6.126  64.649  1.00  0.00    -0.124 A  
HETATM   14  C   UNL     1      -6.691   5.933  65.049  1.00  0.00    -0.043 A  
HETATM   15 CL   UNL     1      -8.899   4.805  63.999  1.00  0.00    -0.140 Cl 
HETATM   16  C   UNL     1      -5.972   7.002  65.580  1.00  0.00    -0.036 A  
HETATM   17  C   UNL     1      -6.574   8.265  65.732  1.00  0.00    -0.052 A  
HETATM   18  N   UNL     1      -5.851   9.273  66.422  1.00  0.00    -0.057 NA 
HETATM   19  C   UNL     1      -6.416   9.814  67.597  1.00  0.00    -0.067 A  
HETATM   20  H   UNL     1      -4.948   9.598  66.079  1.00  0.00     0.000 HD 
HETATM   21  C   UNL     1      -5.699   9.728  68.801  1.00  0.00    -0.035 A  
HETATM   22  C   UNL     1      -6.291  10.085  70.015  1.00  0.00    -0.079 A  
HETATM   23  C   UNL     1      -7.612  10.522  70.045  1.00  0.00     0.044 A  
HETATM   24  C   UNL     1      -8.331  10.627  68.857  1.00  0.00    -0.150 A  
HETATM   25  C   UNL     1      -7.730  10.295  67.631  1.00  0.00    -0.090 A  
ENDBRANCH   5   8
TORSDOF 1
ENDMDL
MODEL      155
REMARK 921   NORMALIZED FREE ENERGY PREDICTED BY IDOCK:   -0.98 KCAL/MOL
REMARK 922        TOTAL FREE ENERGY PREDICTED BY IDOCK:   -1.41 KCAL/MOL
REMARK 923 INTER-LIGAND FREE ENERGY PREDICTED BY IDOCK:   -1.04 KCAL/MOL
REMARK 924 INTRA-LIGAND FREE ENERGY PREDICTED BY IDOCK:   -0.37 KCAL/MOL
REMARK 927      BINDING AFFINITY PREDICTED BY RF-SCORE:    0.00 PKD
ROOT
HETATM    1  C   UNL     1      -8.675  17.830  68.251  1.00  0.00    -0.277 C  
HETATM    2  N   UNL     1      -8.007  16.569  67.941  1.00  0.00    -0.156 NA 
HETATM    3  C   UNL     1      -7.824  15.734  69.147  1.00  0.00    -0.227 C  
HETATM    4  C   UNL     1      -9.110  15.093  69.712  1.00  0.00     0.035 C  
HETATM    5  N   UNL     1      -9.852  14.369  68.670  1.00  0.00    -0.231 NA 
HETATM    6  C   UNL     1      -8.751  15.779  66.931  1.00  0.00    -0.244 C  
HETATM    7  C   UNL     1     -10.059  15.121  67.426  1.00  0.00    -0.229 C  
ENDROOT
BRANCH   5   8
HETATM    8  C   UNL     1     -10.289  13.048  68.818  1.00  0.00    -0.129 C  
HETATM    9  N   UNL     1      -9.674  12.102  68.158  1.00  0.00    -0.203 NA 
HETATM   10  C   UNL     1      -9.996  10.734  68.248  1.00  0.00    -0.168 A  
HETATM   11  H   UNL     1      -8.912  12.372  67.536  1.00  0.00     0.000 HD 
HETATM   12  C   UNL     1      -9.912   9.991  67.063  1.00  0.00    -0.257 A  
HETATM   13  C   UNL     1     -10.161   8.618  67.061  1.00  0.00    -0.290 A  
HETATM   14  C   UNL     1     -10.471   7.953  68.244  1.00  0.00    -0.212 A  
HETATM   15 CL   UNL     1     -10.100   7.735  65.587  1.00  0.00     0.936 Cl 
HETATM   16  C   UNL     1     -10.525   8.669  69.439  1.00  0.00    -0.224 A  
HETATM   17  C   UNL     1     -10.289  10.056  69.454  1.00  0.00    -0.227 A  
HETATM   18  N   UNL     1     -10.512  10.760  70.667  1.00  0.00     0.128 NA 
HETATM   19  C   UNL     1     -11.478  11.790  70.672  1.00  0.00     0.547 A  
HETATM   20  H   UNL     1      -9.990  10.528  71.511  1.00  0.00     0.000 HD 
HETATM   21  C   UNL     1     -12.559  11.706  71.563  1.00  0.00    -0.341 A  
HETATM   22  C   UNL     1     -13.627  12.603  71.480  1.00  0.00     0.123 A  
HETATM   23  C   UNL     1     -13.634  13.590  70.499  1.00  0.00     0.791 A  
HETATM   24  C   UNL     1     -12.561  13.694  69.618  1.00  0.00     0.014 A  
HETATM   25  C   UNL     1     -11.473  12.812  69.715  1.00  0.00    -0.199 A  
ENDBRANCH   5   8
TORSDOF 1
ENDMDL
MODEL      156
REMARK 921   NORMALIZED FREE ENERGY PREDICTED BY IDOCK:   -0.88 KCAL/MOL
REMARK 922        TOTAL FREE ENERGY PREDICTED BY IDOCK:   -1.30 KCAL/MOL
REMARK 923 INTER-LIGAND FREE ENERGY PREDICTED BY IDOCK:   -0.90 KCAL/MOL
REMARK 924 INTRA-LIGAND FREE ENERGY PREDICTED BY IDOCK:   -0.40 KCAL/MOL
REMARK 927      BINDING AFFINITY PREDICTED BY RF-SCORE:    0.00 PKD
ROOT
HETATM    1  C   UNL     1     -13.873  15.864  73.253  1.00  0.00    -0.179 C  
HETATM    2  N   UNL     1     -13.984  14.985  72.092  1.00  0.00    -0.459 NA 
HETATM    3  C   UNL     1     -13.632  15.684  70.839  1.00  0.00    -0.012 C  
HETATM    4  C   UNL     1     -12.130  15.995  70.652  1.00  0.00    -0.228 C  
HETATM    5  N   UNL     1     -11.305  14.794  70.844  1.00  0.00    -0.216 NA 
HETATM    6  C   UNL     1     -13.126  13.784  72.219  1.00  0.00    -0.405 C  
HETATM    7  C   UNL     1     -11.608  14.026  72.058  1.00  0.00     1.260 C  
ENDROOT
BRANCH   5   8
HETATM    8  C   UNL     1     -10.338  14.374  69.924  1.00  0.00     0.333 C  
HETATM    9  N   UNL     1      -9.210  15.031  69.848  1.00  0.00    -0.442 NA 
HETATM   10  C   UNL     1      -8.148  14.687  68.990  1.00  0.00    -0.115 A  
HETATM   11  H   UNL     1      -9.092  15.846  70.450  1.00  0.00     0.000 HD 
HETATM   12  C   UNL     1      -7.444  15.749  68.408  1.00  0.00    -0.121 A  
HETATM   13  C   UNL     1      -6.343  15.512  67.585  1.00  0.00    -0.155 A  
HETATM   14  C   UNL     1      -5.904  14.211  67.348  1.00  0.00     0.286 A  
HETATM   15 CL   UNL     1      -5.523  16.828  66.843  1.00  0.00    -0.172 Cl 
HETATM   16  C   UNL     1      -6.571  13.144  67.945  1.00  0.00    -0.137 A  
HETATM   17  C   UNL     1      -7.691  13.367  68.767  1.00  0.00    -0.037 A  
HETATM   18  N   UNL     1      -8.426  12.240  69.220  1.00  0.00     0.033 NA 
HETATM   19  C   UNL     1      -9.786  12.140  68.856  1.00  0.00     0.119 A  
HETATM   20  H   UNL     1      -7.983  11.522  69.793  1.00  0.00     0.000 HD 
HETATM   21  C   UNL     1     -10.219  11.014  68.138  1.00  0.00    -0.201 A  
HETATM   22  C   UNL     1     -11.508  10.958  67.604  1.00  0.00    -0.281 A  
HETATM   23  C   UNL     1     -12.380  12.030  67.769  1.00  0.00     0.694 A  
HETATM   24  C   UNL     1     -11.969  13.147  68.491  1.00  0.00    -0.324 A  
HETATM   25  C   UNL     1     -10.683  13.197  69.054  1.00  0.00    -0.144 A  
ENDBRANCH   5   8
TORSDOF 1
ENDMDL
MODEL      157
REMARK 921   NORMALIZED FREE ENERGY PREDICTED BY IDOCK:   -0.06 KCAL/MOL
REMARK 922        TOTAL FREE ENERGY PREDICTED BY IDOCK:   -0.44 KCAL/MOL
REMARK 923 INTER-LIGAND FREE ENERGY PREDICTED BY IDOCK:   -0.98 KCAL/MOL
REMARK 924 INTRA-LIGAND FREE ENERGY PREDICTED BY IDOCK:    0.55 KCAL/MOL
REMARK 927      BINDING AFFINITY PREDICTED BY RF-SCORE:    0.00 PKD
ROOT
HETATM    1  C   UNL     1     -12.825  14.729  63.019  1.00  0.00     2.726 C  
HETATM    2  N   UNL     1     -12.856  13.760  64.111  1.00  0.00    -0.454 NA 
HETATM    3  C   UNL     1     -11.611  12.966  64.175  1.00  0.00    -0.398 C  
HETATM    4  C   UNL     1     -10.364  13.726  64.678  1.00  0.00    -0.368 C  
HETATM    5  N   UNL     1     -10.629  14.407  65.954  1.00  0.00    -0.296 NA 
HETATM    6  C   UNL     1     -13.067  14.409  65.426  1.00  0.00     0.031 C  
HETATM    7  C   UNL     1     -11.863  15.202  65.983  1.00  0.00     0.089 C  
ENDROOT
BRANCH   5   8
HETATM    8  C   UNL     1      -9.806  14.276  67.077  1.00  0.00    -0.254 C  
HETATM    9  N   UNL     1      -8.722  13.550  66.986  1.00  0.00    -0.313 NA 
HETATM   10  C   UNL     1      -7.797  13.371  68.032  1.00  0.00    -0.148 A  
HETATM   11  H   UNL     1      -8.534  13.084  66.099  1.00  0.00     0.000 HD 
HETATM   12  C   UNL     1      -7.221  12.099  68.147  1.00  0.00    -0.096 A  
HETATM   13  C   UNL     1      -6.255  11.836  69.120  1.00  0.00    -0.083 A  
HETATM   14  C   UNL     1      -5.824  12.843  69.979  1.00  0.00    -0.142 A  
HETATM   15 CL   UNL     1      -5.597  10.255  69.274  1.00  0.00    -0.038 Cl 
HETATM   16  C   UNL     1      -6.360  14.124  69.857  1.00  0.00    -0.141 A  
HETATM   17  C   UNL     1      -7.344  14.400  68.890  1.00  0.00    -0.127 A  
HETATM   18  N   UNL     1      -7.969  15.675  68.914  1.00  0.00    -0.176 NA 
HETATM   19  C   UNL     1      -9.366  15.730  69.109  1.00  0.00    -0.258 A  
HETATM   20  H   UNL     1      -7.423  16.528  68.794  1.00  0.00     0.000 HD 
HETATM   21  C   UNL     1      -9.874  16.450  70.201  1.00  0.00     0.638 A  
HETATM   22  C   UNL     1     -11.229  16.383  70.535  1.00  0.00    -0.230 A  
HETATM   23  C   UNL     1     -12.093  15.587  69.790  1.00  0.00    -0.372 A  
HETATM   24  C   UNL     1     -11.606  14.879  68.695  1.00  0.00    -0.342 A  
HETATM   25  C   UNL     1     -10.250  14.965  68.339  1.00  0.00    -0.231 A  
ENDBRANCH   5   8
TORSDOF 1
ENDMDL
MODEL      158
REMARK 921   NORMALIZED FREE ENERGY PREDICTED BY IDOCK:   -0.03 KCAL/MOL
REMARK 922        TOTAL FREE ENERGY PREDICTED BY IDOCK:   -0.40 KCAL/MOL
REMARK 923 INTER-LIGAND FREE ENERGY PREDICTED BY IDOCK:   -1.01 KCAL/MOL
REMARK 924 INTRA-LIGAND FREE ENERGY PREDICTED BY IDOCK:    0.60 KCAL/MOL
REMARK 927      BINDING AFFINITY PREDICTED BY RF-SCORE:    0.00 PKD
ROOT
HETATM    1  C   UNL     1      -6.486  15.322  70.448  1.00  0.00     0.045 C  
HETATM    2  N   UNL     1      -7.490  14.262  70.461  1.00  0.00     0.914 NA 
HETATM    3  C   UNL     1      -8.590  14.536  69.513  1.00  0.00     0.312 C  
HETATM    4  C   UNL     1      -8.230  14.388  68.018  1.00  0.00    -0.149 C  
HETATM    5  N   UNL     1      -7.600  13.089  67.743  1.00  0.00    -0.136 NA 
HETATM    6  C   UNL     1      -6.907  12.939  70.135  1.00  0.00     0.687 C  
HETATM    7  C   UNL     1      -6.509  12.728  68.657  1.00  0.00    -0.079 C  
ENDROOT
BRANCH   5   8
HETATM    8  C   UNL     1      -8.029  12.229  66.726  1.00  0.00     0.013 C  
HETATM    9  N   UNL     1      -7.221  11.288  66.311  1.00  0.00    -0.332 NA 
HETATM   10  C   UNL     1      -7.549  10.341  65.322  1.00  0.00    -0.143 A  
HETATM   11  H   UNL     1      -6.294  11.237  66.732  1.00  0.00     0.000 HD 
HETATM   12  C   UNL     1      -6.523   9.978  64.439  1.00  0.00    -0.131 A  
HETATM   13  C   UNL     1      -6.734   9.009  63.458  1.00  0.00    -0.089 A  
HETATM   14  C   UNL     1      -7.963   8.363  63.354  1.00  0.00    -0.160 A  
HETATM   15 CL   UNL     1      -5.475   8.614  62.355  1.00  0.00    -0.071 Cl 
HETATM   16  C   UNL     1      -8.985   8.687  64.245  1.00  0.00     0.275 A  
HETATM   17  C   UNL     1      -8.790   9.671  65.231  1.00  0.00    -0.171 A  
HETATM   18  N   UNL     1      -9.910  10.073  66.007  1.00  0.00    -0.239 NA 
HETATM   19  C   UNL     1     -10.307  11.426  65.952  1.00  0.00    -0.250 A  
HETATM   20  H   UNL     1     -10.413   9.403  66.587  1.00  0.00     0.000 HD 
HETATM   21  C   UNL     1     -11.611  11.738  65.536  1.00  0.00    -0.192 A  
HETATM   22  C   UNL     1     -11.990  13.061  65.296  1.00  0.00    -0.446 A  
HETATM   23  C   UNL     1     -11.068  14.091  65.457  1.00  0.00    -0.309 A  
HETATM   24  C   UNL     1      -9.775  13.798  65.883  1.00  0.00    -0.217 A  
HETATM   25  C   UNL     1      -9.398  12.472  66.153  1.00  0.00    -0.136 A  
ENDBRANCH   5   8
TORSDOF 1
ENDMDL
MODEL      159
REMARK 921   NORMALIZED FREE ENERGY PREDICTED BY IDOCK:    0.78 KCAL/MOL
REMARK 922        TOTAL FREE ENERGY PREDICTED BY IDOCK:    0.45 KCAL/MOL
REMARK 923 INTER-LIGAND FREE ENERGY PREDICTED BY IDOCK:    0.14 KCAL/MOL
REMARK 924 INTRA-LIGAND FREE ENERGY PREDICTED BY IDOCK:    0.31 KCAL/MOL
REMARK 927      BINDING AFFINITY PREDICTED BY RF-SCORE:    0.00 PKD
ROOT
HETATM    1  C   UNL     1      -7.045  15.911  70.487  1.00  0.00     1.125 C  
HETATM    2  N   UNL     1      -8.038  14.844  70.396  1.00  0.00     0.772 NA 
HETATM    3  C   UNL     1      -9.236  15.271  69.644  1.00  0.00    -0.134 C  
HETATM    4  C   UNL     1      -9.040  15.430  68.120  1.00  0.00    -0.184 C  
HETATM    5  N   UNL     1      -8.439  14.227  67.527  1.00  0.00    -0.174 NA 
HETATM    6  C   UNL     1      -7.489  13.626  69.754  1.00  0.00     0.680 C  
HETATM    7  C   UNL     1      -7.253  13.721  68.230  1.00  0.00    -0.114 C  
ENDROOT
BRANCH   5   8
HETATM    8  C   UNL     1      -8.973  13.573  66.411  1.00  0.00     0.034 C  
HETATM    9  N   UNL     1      -8.517  12.390  66.093  1.00  0.00    -0.328 NA 
HETATM   10  C   UNL     1      -8.995  11.618  65.017  1.00  0.00     0.240 A  
HETATM   11  H   UNL     1      -7.764  12.001  66.661  1.00  0.00     0.000 HD 
HETATM   12  C   UNL     1      -8.042  10.879  64.304  1.00  0.00     0.282 A  
HETATM   13  C   UNL     1      -8.425  10.043  63.255  1.00  0.00    -0.183 A  
HETATM   14  C   UNL     1      -9.767   9.906  62.913  1.00  0.00     0.229 A  
HETATM   15 CL   UNL     1      -7.233   9.183  62.362  1.00  0.00    -0.098 Cl 
HETATM   16  C   UNL     1     -10.733  10.606  63.632  1.00  0.00     0.285 A  
HETATM   17  C   UNL     1     -10.361  11.463  64.685  1.00  0.00    -0.307 A  
HETATM   18  N   UNL     1     -11.366  12.271  65.279  1.00  0.00    -0.328 NA 
HETATM   19  C   UNL     1     -11.213  13.673  65.224  1.00  0.00    -0.299 A  
HETATM   20  H   UNL     1     -12.177  11.851  65.732  1.00  0.00     0.000 HD 
HETATM   21  C   UNL     1     -12.211  14.445  64.610  1.00  0.00    -0.479 A  
HETATM   22  C   UNL     1     -12.019  15.809  64.375  1.00  0.00    -0.082 A  
HETATM   23  C   UNL     1     -10.823  16.418  64.740  1.00  0.00    -0.197 A  
HETATM   24  C   UNL     1      -9.829  15.669  65.364  1.00  0.00    -0.253 A  
HETATM   25  C   UNL     1     -10.029  14.303  65.627  1.00  0.00    -0.346 A  
ENDBRANCH   5   8
TORSDOF 1
ENDMDL
MODEL      160
REMARK 921   NORMALIZED FREE ENERGY PREDICTED BY IDOCK:    1.23 KCAL/MOL
REMARK 922        TOTAL FREE ENERGY PREDICTED BY IDOCK:    0.93 KCAL/MOL
REMARK 923 INTER-LIGAND FREE ENERGY PREDICTED BY IDOCK:    0.28 KCAL/MOL
REMARK 924 INTRA-LIGAND FREE ENERGY PREDICTED BY IDOCK:    0.65 KCAL/MOL
REMARK 927      BINDING AFFINITY PREDICTED BY RF-SCORE:    0.00 PKD
ROOT
HETATM    1  C   UNL     1     -12.887  10.187  69.321  1.00  0.00     1.546 C  
HETATM    2  N   UNL     1     -12.721  11.250  68.332  1.00  0.00     0.699 NA 
HETATM    3  C   UNL     1     -12.558  12.573  68.970  1.00  0.00     0.732 C  
HETATM    4  C   UNL     1     -11.203  12.806  69.675  1.00  0.00    -0.002 C  
HETATM    5  N   UNL     1     -10.075  12.500  68.785  1.00  0.00    -0.115 NA 
HETATM    6  C   UNL     1     -11.559  11.009  67.444  1.00  0.00    -0.017 C  
HETATM    7  C   UNL     1     -10.170  11.210  68.091  1.00  0.00    -0.181 C  
ENDROOT
BRANCH   5   8
HETATM    8  C   UNL     1      -9.011  13.382  68.565  1.00  0.00    -0.071 C  
HETATM    9  N   UNL     1      -9.125  14.622  68.964  1.00  0.00    -0.342 NA 
HETATM   10  C   UNL     1      -8.114  15.593  68.833  1.00  0.00    -0.197 A  
HETATM   11  H   UNL     1     -10.004  14.904  69.398  1.00  0.00     0.000 HD 
HETATM   12  C   UNL     1      -8.532  16.894  68.521  1.00  0.00    -0.258 A  
HETATM   13  C   UNL     1      -7.611  17.937  68.421  1.00  0.00    -0.282 A  
HETATM   14  C   UNL     1      -6.257  17.710  68.657  1.00  0.00    -0.187 A  
HETATM   15 CL   UNL     1      -8.141  19.515  67.990  1.00  0.00    -0.340 Cl 
HETATM   16  C   UNL     1      -5.827  16.430  69.002  1.00  0.00    -0.136 A  
HETATM   17  C   UNL     1      -6.743  15.366  69.093  1.00  0.00    -0.138 A  
HETATM   18  N   UNL     1      -6.231  14.057  69.291  1.00  0.00    -0.099 NA 
HETATM   19  C   UNL     1      -6.505  13.079  68.310  1.00  0.00    -0.093 A  
HETATM   20  H   UNL     1      -5.681  13.828  70.118  1.00  0.00     0.000 HD 
HETATM   21  C   UNL     1      -5.433  12.437  67.670  1.00  0.00    -0.114 A  
HETATM   22  C   UNL     1      -5.652  11.598  66.574  1.00  0.00    -0.065 A  
HETATM   23  C   UNL     1      -6.943  11.399  66.095  1.00  0.00     0.150 A  
HETATM   24  C   UNL     1      -8.017  12.017  66.729  1.00  0.00    -0.060 A  
HETATM   25  C   UNL     1      -7.805  12.839  67.849  1.00  0.00    -0.156 A  
ENDBRANCH   5   8
TORSDOF 1
ENDMDL
MODEL      161
REMARK 921   NORMALIZED FREE ENERGY PREDICTED BY IDOCK:    1.77 KCAL/MOL
REMARK 922        TOTAL FREE ENERGY PREDICTED BY IDOCK:    1.49 KCAL/MOL
REMARK 923 INTER-LIGAND FREE ENERGY PREDICTED BY IDOCK:    1.35 KCAL/MOL
REMARK 924 INTRA-LIGAND FREE ENERGY PREDICTED BY IDOCK:    0.14 KCAL/MOL
REMARK 927      BINDING AFFINITY PREDICTED BY RF-SCORE:    0.00 PKD
ROOT
HETATM    1  C   UNL     1      -9.826  11.331  64.774  1.00  0.00    -0.266 C  
HETATM    2  N   UNL     1      -9.383  10.945  66.110  1.00  0.00    -0.180 NA 
HETATM    3  C   UNL     1      -7.954  11.257  66.327  1.00  0.00    -0.086 C  
HETATM    4  C   UNL     1      -7.620  12.757  66.481  1.00  0.00     0.786 C  
HETATM    5  N   UNL     1      -8.465  13.394  67.501  1.00  0.00    -0.180 NA 
HETATM    6  C   UNL     1     -10.175  11.607  67.173  1.00  0.00    -0.213 C  
HETATM    7  C   UNL     1      -9.901  13.115  67.372  1.00  0.00    -0.226 C  
ENDROOT
BRANCH   5   8
HETATM    8  C   UNL     1      -7.952  14.167  68.548  1.00  0.00    -0.145 C  
HETATM    9  N   UNL     1      -7.231  13.583  69.469  1.00  0.00    -0.318 NA 
HETATM   10  C   UNL     1      -6.631  14.256  70.552  1.00  0.00     0.059 A  
HETATM   11  H   UNL     1      -7.093  12.575  69.399  1.00  0.00     0.000 HD 
HETATM   12  C   UNL     1      -6.615  13.578  71.778  1.00  0.00     2.316 A  
HETATM   13  C   UNL     1      -5.998  14.139  72.897  1.00  0.00     0.420 A  
HETATM   14  C   UNL     1      -5.361  15.374  72.808  1.00  0.00     0.482 A  
HETATM   15 CL   UNL     1      -6.032  13.312  74.403  1.00  0.00     0.360 Cl 
HETATM   16  C   UNL     1      -5.337  16.047  71.589  1.00  0.00     0.205 A  
HETATM   17  C   UNL     1      -5.966  15.500  70.455  1.00  0.00    -0.004 A  
HETATM   18  N   UNL     1      -6.048  16.297  69.284  1.00  0.00    -0.150 NA 
HETATM   19  C   UNL     1      -7.329  16.615  68.781  1.00  0.00    -0.220 A  
HETATM   20  H   UNL     1      -5.206  16.632  68.817  1.00  0.00     0.000 HD 
HETATM   21  C   UNL     1      -7.694  17.963  68.648  1.00  0.00    -0.293 A  
HETATM   22  C   UNL     1      -9.006  18.322  68.327  1.00  0.00    -0.318 A  
HETATM   23  C   UNL     1      -9.974  17.339  68.147  1.00  0.00    -0.303 A  
HETATM   24  C   UNL     1      -9.623  15.996  68.262  1.00  0.00    -0.210 A  
HETATM   25  C   UNL     1      -8.299  15.631  68.556  1.00  0.00    -0.166 A  
ENDBRANCH   5   8
TORSDOF 1
ENDMDL
MODEL      162
REMARK 921   NORMALIZED FREE ENERGY PREDICTED BY IDOCK:    2.34 KCAL/MOL
REMARK 922        TOTAL FREE ENERGY PREDICTED BY IDOCK:    2.10 KCAL/MOL
REMARK 923 INTER-LIGAND FREE ENERGY PREDICTED BY IDOCK:    2.47 KCAL/MOL
REMARK 924 INTRA-LIGAND FREE ENERGY PREDICTED BY IDOCK:   -0.38 KCAL/MOL
REMARK 927      BINDING AFFINITY PREDICTED BY RF-SCORE:    0.00 PKD
ROOT
HETATM    1  C   UNL     1      -8.235  16.834  66.643  1.00  0.00    -0.261 C  
HETATM    2  N   UNL     1      -7.829  15.525  67.150  1.00  0.00    -0.204 NA 
HETATM    3  C   UNL     1      -7.947  15.445  68.621  1.00  0.00    -0.149 C  
HETATM    4  C   UNL     1      -9.390  15.380  69.167  1.00  0.00    -0.246 C  
HETATM    5  N   UNL     1     -10.166  14.319  68.511  1.00  0.00    -0.241 NA 
HETATM    6  C   UNL     1      -8.623  14.426  66.553  1.00  0.00     0.099 C  
HETATM    7  C   UNL     1     -10.084  14.313  67.045  1.00  0.00    -0.260 C  
ENDROOT
BRANCH   5   8
HETATM    8  C   UNL     1     -10.890  13.351  69.216  1.00  0.00    -0.040 C  
HETATM    9  N   UNL     1     -10.455  12.118  69.223  1.00  0.00    -0.430 NA 
HETATM   10  C   UNL     1     -11.073  11.063  69.922  1.00  0.00    -0.205 A  
HETATM   11  H   UNL     1      -9.614  11.906  68.687  1.00  0.00     0.000 HD 
HETATM   12  C   UNL     1     -11.078   9.812  69.292  1.00  0.00    -0.184 A  
HETATM   13  C   UNL     1     -11.620   8.693  69.925  1.00  0.00     0.269 A  
HETATM   14  C   UNL     1     -12.143   8.794  71.212  1.00  0.00    -0.344 A  
HETATM   15 CL   UNL     1     -11.658   7.178  69.113  1.00  0.00     0.194 Cl 
HETATM   16  C   UNL     1     -12.116  10.022  71.869  1.00  0.00    -0.186 A  
HETATM   17  C   UNL     1     -11.584  11.161  71.237  1.00  0.00     0.746 A  
HETATM   18  N   UNL     1     -11.726  12.416  71.887  1.00  0.00     1.730 NA 
HETATM   19  C   UNL     1     -12.441  13.435  71.221  1.00  0.00    -0.278 A  
HETATM   20  H   UNL     1     -11.323  12.577  72.809  1.00  0.00     0.000 HD 
HETATM   21  C   UNL     1     -13.570  13.992  71.842  1.00  0.00    -0.520 A  
HETATM   22  C   UNL     1     -14.408  14.870  71.149  1.00  0.00    -0.331 A  
HETATM   23  C   UNL     1     -14.137  15.194  69.824  1.00  0.00     2.758 A  
HETATM   24  C   UNL     1     -13.012  14.660  69.200  1.00  0.00     0.967 A  
HETATM   25  C   UNL     1     -12.152  13.799  69.901  1.00  0.00    -0.412 A  
ENDBRANCH   5   8
TORSDOF 1
ENDMDL
MODEL      163
REMARK 921   NORMALIZED FREE ENERGY PREDICTED BY IDOCK:    4.45 KCAL/MOL
REMARK 922        TOTAL FREE ENERGY PREDICTED BY IDOCK:    4.34 KCAL/MOL
REMARK 923 INTER-LIGAND FREE ENERGY PREDICTED BY IDOCK:    3.89 KCAL/MOL
REMARK 924 INTRA-LIGAND FREE ENERGY PREDICTED BY IDOCK:    0.44 KCAL/MOL
REMARK 927      BINDING AFFINITY PREDICTED BY RF-SCORE:    0.00 PKD
ROOT
HETATM    1  C   UNL     1      -8.754  10.774  64.956  1.00  0.00    -0.151 C  
HETATM    2  N   UNL     1      -9.408  11.387  66.109  1.00  0.00    -0.210 NA 
HETATM    3  C   UNL     1      -8.428  11.876  67.101  1.00  0.00    -0.173 C  
HETATM    4  C   UNL     1      -7.636  13.135  66.686  1.00  0.00     0.802 C  
HETATM    5  N   UNL     1      -8.533  14.214  66.247  1.00  0.00     0.467 NA 
HETATM    6  C   UNL     1     -10.284  12.517  65.717  1.00  0.00    -0.270 C  
HETATM    7  C   UNL     1      -9.555  13.806  65.275  1.00  0.00     0.152 C  
ENDROOT
BRANCH   5   8
HETATM    8  C   UNL     1      -8.463  15.519  66.745  1.00  0.00    -0.279 C  
HETATM    9  N   UNL     1      -7.439  15.860  67.482  1.00  0.00    -0.151 NA 
HETATM   10  C   UNL     1      -7.237  17.150  68.011  1.00  0.00    -0.184 A  
HETATM   11  H   UNL     1      -6.740  15.146  67.687  1.00  0.00     0.000 HD 
HETATM   12  C   UNL     1      -6.686  17.219  69.298  1.00  0.00    -0.230 A  
HETATM   13  C   UNL     1      -6.401  18.451  69.888  1.00  0.00    -0.059 A  
HETATM   14  C   UNL     1      -6.632  19.637  69.197  1.00  0.00    -0.369 A  
HETATM   15 CL   UNL     1      -5.770  18.513  71.486  1.00  0.00     0.140 Cl 
HETATM   16  C   UNL     1      -7.148  19.587  67.903  1.00  0.00    -0.295 A  
HETATM   17  C   UNL     1      -7.453  18.353  67.300  1.00  0.00    -0.217 A  
HETATM   18  N   UNL     1      -8.121  18.366  66.048  1.00  0.00    -0.498 NA 
HETATM   19  C   UNL     1      -9.388  17.748  65.961  1.00  0.00    -0.036 A  
HETATM   20  H   UNL     1      -7.699  18.809  65.233  1.00  0.00     0.000 HD 
HETATM   21  C   UNL     1     -10.492  18.510  65.551  1.00  0.00     0.046 A  
HETATM   22  C   UNL     1     -11.787  17.992  65.623  1.00  0.00     3.618 A  
HETATM   23  C   UNL     1     -11.999  16.708  66.116  1.00  0.00     2.223 A  
HETATM   24  C   UNL     1     -10.912  15.934  66.513  1.00  0.00    -0.121 A  
HETATM   25  C   UNL     1      -9.605  16.442  66.416  1.00  0.00    -0.313 A  
ENDBRANCH   5   8
TORSDOF 1
ENDMDL
MODEL      164
REMARK 921   NORMALIZED FREE ENERGY PREDICTED BY IDOCK:    4.83 KCAL/MOL
REMARK 922        TOTAL FREE ENERGY PREDICTED BY IDOCK:    4.74 KCAL/MOL
REMARK 923 INTER-LIGAND FREE ENERGY PREDICTED BY IDOCK:    4.61 KCAL/MOL
REMARK 924 INTRA-LIGAND FREE ENERGY PREDICTED BY IDOCK:    0.13 KCAL/MOL
REMARK 927      BINDING AFFINITY PREDICTED BY RF-SCORE:    0.00 PKD
ROOT
HETATM    1  C   UNL     1      -5.174  17.655  69.865  1.00  0.00    -0.205 C  
HETATM    2  N   UNL     1      -6.629  17.743  69.966  1.00  0.00     0.159 NA 
HETATM    3  C   UNL     1      -7.247  18.120  68.678  1.00  0.00    -0.281 C  
HETATM    4  C   UNL     1      -7.234  17.024  67.590  1.00  0.00    -0.153 C  
HETATM    5  N   UNL     1      -7.785  15.759  68.096  1.00  0.00    -0.125 NA 
HETATM    6  C   UNL     1      -7.233  16.470  70.423  1.00  0.00     1.671 C  
HETATM    7  C   UNL     1      -7.240  15.322  69.388  1.00  0.00    -0.201 C  
ENDROOT
BRANCH   5   8
HETATM    8  C   UNL     1      -8.789  15.041  67.436  1.00  0.00    -0.190 C  
HETATM    9  N   UNL     1      -8.483  13.903  66.869  1.00  0.00    -0.409 NA 
HETATM   10  C   UNL     1      -9.408  13.074  66.206  1.00  0.00    -0.140 A  
HETATM   11  H   UNL     1      -7.512  13.596  66.910  1.00  0.00     0.000 HD 
HETATM   12  C   UNL     1      -8.950  12.420  65.055  1.00  0.00     0.873 A  
HETATM   13  C   UNL     1      -9.775  11.537  64.358  1.00  0.00    -0.200 A  
HETATM   14  C   UNL     1     -11.064  11.266  64.810  1.00  0.00    -0.200 A  
HETATM   15 CL   UNL     1      -9.208  10.782  62.920  1.00  0.00    -0.290 Cl 
HETATM   16  C   UNL     1     -11.525  11.880  65.973  1.00  0.00    -0.344 A  
HETATM   17  C   UNL     1     -10.709  12.783  66.679  1.00  0.00    -0.261 A  
HETATM   18  N   UNL     1     -11.283  13.499  67.762  1.00  0.00    -0.271 NA 
HETATM   19  C   UNL     1     -11.309  14.909  67.691  1.00  0.00    -0.337 A  
HETATM   20  H   UNL     1     -11.665  13.009  68.570  1.00  0.00     0.000 HD 
HETATM   21  C   UNL     1     -12.544  15.572  67.764  1.00  0.00     1.443 A  
HETATM   22  C   UNL     1     -12.635  16.945  67.519  1.00  0.00     3.625 A  
HETATM   23  C   UNL     1     -11.496  17.672  67.187  1.00  0.00     1.015 A  
HETATM   24  C   UNL     1     -10.262  17.030  67.125  1.00  0.00    -0.306 A  
HETATM   25  C   UNL     1     -10.161  15.655  67.398  1.00  0.00    -0.264 A  
ENDBRANCH   5   8
TORSDOF 1
ENDMDL
MODEL      165
REMARK 921   NORMALIZED FREE ENERGY PREDICTED BY IDOCK:    7.02 KCAL/MOL
REMARK 922        TOTAL FREE ENERGY PREDICTED BY IDOCK:    7.06 KCAL/MOL
REMARK 923 INTER-LIGAND FREE ENERGY PREDICTED BY IDOCK:    6.51 KCAL/MOL
REMARK 924 INTRA-LIGAND FREE ENERGY PREDICTED BY IDOCK:    0.54 KCAL/MOL
REMARK 927      BINDING AFFINITY PREDICTED BY RF-SCORE:    0.00 PKD
ROOT
HETATM    1  C   UNL     1     -13.633  13.799  71.137  1.00  0.00    -0.027 C  
HETATM    2  N   UNL     1     -13.218  12.402  71.241  1.00  0.00    -0.116 NA 
HETATM    3  C   UNL     1     -13.397  11.680  69.964  1.00  0.00     1.463 C  
HETATM    4  C   UNL     1     -12.401  12.054  68.845  1.00  0.00     0.241 C  
HETATM    5  N   UNL     1     -11.010  11.971  69.313  1.00  0.00    -0.179 NA 
HETATM    6  C   UNL     1     -11.802  12.272  71.660  1.00  0.00     1.734 C  
HETATM    7  C   UNL     1     -10.750  12.646  70.592  1.00  0.00     3.102 C  
ENDROOT
BRANCH   5   8
HETATM    8  C   UNL     1     -10.012  11.265  68.632  1.00  0.00    -0.204 C  
HETATM    9  N   UNL     1     -10.310  10.113  68.092  1.00  0.00    -0.175 NA 
HETATM   10  C   UNL     1      -9.406   9.325  67.354  1.00  0.00    -0.127 A  
HETATM   11  H   UNL     1     -11.260   9.761  68.214  1.00  0.00     0.000 HD 
HETATM   12  C   UNL     1      -9.501   7.938  67.523  1.00  0.00    -0.175 A  
HETATM   13  C   UNL     1      -8.684   7.071  66.796  1.00  0.00    -0.123 A  
HETATM   14  C   UNL     1      -7.776   7.569  65.865  1.00  0.00    -0.099 A  
HETATM   15 CL   UNL     1      -8.784   5.374  67.055  1.00  0.00    -0.109 Cl 
HETATM   16  C   UNL     1      -7.691   8.945  65.658  1.00  0.00    -0.087 A  
HETATM   17  C   UNL     1      -8.500   9.831  66.393  1.00  0.00    -0.124 A  
HETATM   18  N   UNL     1      -8.261  11.224  66.258  1.00  0.00    -0.262 NA 
HETATM   19  C   UNL     1      -7.898  11.954  67.411  1.00  0.00    -0.158 A  
HETATM   20  H   UNL     1      -8.350  11.685  65.353  1.00  0.00     0.000 HD 
HETATM   21  C   UNL     1      -6.681  12.653  67.420  1.00  0.00    -0.143 A  
HETATM   22  C   UNL     1      -6.200  13.237  68.595  1.00  0.00    -0.084 A  
HETATM   23  C   UNL     1      -6.922  13.121  69.778  1.00  0.00     0.353 A  
HETATM   24  C   UNL     1      -8.138  12.443  69.781  1.00  0.00     1.847 A  
HETATM   25  C   UNL     1      -8.639  11.879  68.596  1.00  0.00    -0.037 A  
ENDBRANCH   5   8
TORSDOF 1
ENDMDL
MODEL      166
REMARK 921   NORMALIZED FREE ENERGY PREDICTED BY IDOCK:    9.09 KCAL/MOL
REMARK 922        TOTAL FREE ENERGY PREDICTED BY IDOCK:    9.24 KCAL/MOL
REMARK 923 INTER-LIGAND FREE ENERGY PREDICTED BY IDOCK:    8.84 KCAL/MOL
REMARK 924 INTRA-LIGAND FREE ENERGY PREDICTED BY IDOCK:    0.41 KCAL/MOL
REMARK 927      BINDING AFFINITY PREDICTED BY RF-SCORE:    0.00 PKD
ROOT
HETATM    1  C   UNL     1     -10.468  18.266  73.248  1.00  0.00     4.192 C  
HETATM    2  N   UNL     1     -11.626  17.602  72.655  1.00  0.00     1.311 NA 
HETATM    3  C   UNL     1     -11.654  17.758  71.185  1.00  0.00     3.722 C  
HETATM    4  C   UNL     1     -10.596  16.942  70.411  1.00  0.00     0.457 C  
HETATM    5  N   UNL     1     -10.622  15.524  70.798  1.00  0.00    -0.191 NA 
HETATM    6  C   UNL     1     -11.663  16.156  72.975  1.00  0.00    -0.270 C  
HETATM    7  C   UNL     1     -10.619  15.281  72.246  1.00  0.00     1.402 C  
ENDROOT
BRANCH   5   8
HETATM    8  C   UNL     1     -10.696  14.478  69.872  1.00  0.00     0.018 C  
HETATM    9  N   UNL     1     -10.810  13.252  70.311  1.00  0.00     0.342 NA 
HETATM   10  C   UNL     1     -10.929  12.120  69.482  1.00  0.00     0.032 A  
HETATM   11  H   UNL     1     -10.814  13.106  71.321  1.00  0.00     0.000 HD 
HETATM   12  C   UNL     1     -10.271  10.959  69.910  1.00  0.00     0.222 A  
HETATM   13  C   UNL     1     -10.372   9.772  69.184  1.00  0.00    -0.211 A  
HETATM   14  C   UNL     1     -11.151   9.711  68.032  1.00  0.00    -0.108 A  
HETATM   15 CL   UNL     1      -9.517   8.372  69.701  1.00  0.00    -0.165 Cl 
HETATM   16  C   UNL     1     -11.840  10.846  67.610  1.00  0.00     0.206 A  
HETATM   17  C   UNL     1     -11.738  12.053  68.325  1.00  0.00    -0.334 A  
HETATM   18  N   UNL     1     -12.330  13.216  67.764  1.00  0.00    -0.042 NA 
HETATM   19  C   UNL     1     -11.494  14.315  67.470  1.00  0.00    -0.345 A  
HETATM   20  H   UNL     1     -13.332  13.257  67.580  1.00  0.00     0.000 HD 
HETATM   21  C   UNL     1     -11.437  14.794  66.152  1.00  0.00    -0.311 A  
HETATM   22  C   UNL     1     -10.495  15.756  65.779  1.00  0.00    -0.384 A  
HETATM   23  C   UNL     1      -9.589  16.244  66.715  1.00  0.00    -0.254 A  
HETATM   24  C   UNL     1      -9.642  15.789  68.030  1.00  0.00    -0.210 A  
HETATM   25  C   UNL     1     -10.606  14.842  68.415  1.00  0.00    -0.244 A  
ENDBRANCH   5   8
TORSDOF 1
ENDMDL
MODEL      167
REMARK 921   NORMALIZED FREE ENERGY PREDICTED BY IDOCK:    9.62 KCAL/MOL
REMARK 922        TOTAL FREE ENERGY PREDICTED BY IDOCK:    9.80 KCAL/MOL
REMARK 923 INTER-LIGAND FREE ENERGY PREDICTED BY IDOCK:   10.13 KCAL/MOL
REMARK 924 INTRA-LIGAND FREE ENERGY PREDICTED BY IDOCK:   -0.32 KCAL/MOL
REMARK 927      BINDING AFFINITY PREDICTED BY RF-SCORE:    0.00 PKD
ROOT
HETATM    1  C   UNL     1      -5.346  20.996  65.903  1.00  0.00    -0.214 C  
HETATM    2  N   UNL     1      -6.777  20.828  65.661  1.00  0.00    -0.165 NA 
HETATM    3  C   UNL     1      -7.052  19.692  64.756  1.00  0.00     0.509 C  
HETATM    4  C   UNL     1      -6.834  18.291  65.367  1.00  0.00    -0.036 C  
HETATM    5  N   UNL     1      -7.550  18.142  66.642  1.00  0.00    -0.219 NA 
HETATM    6  C   UNL     1      -7.534  20.622  66.918  1.00  0.00    -0.258 C  
HETATM    7  C   UNL     1      -7.349  19.244  67.592  1.00  0.00    -0.236 C  
ENDROOT
BRANCH   5   8
HETATM    8  C   UNL     1      -8.401  17.068  66.923  1.00  0.00    -0.218 C  
HETATM    9  N   UNL     1      -7.883  15.946  67.350  1.00  0.00    -0.153 NA 
HETATM   10  C   UNL     1      -8.634  14.808  67.700  1.00  0.00    -0.174 A  
HETATM   11  H   UNL     1      -6.868  15.893  67.436  1.00  0.00     0.000 HD 
HETATM   12  C   UNL     1      -8.081  13.565  67.363  1.00  0.00    -0.184 A  
HETATM   13  C   UNL     1      -8.725  12.378  67.713  1.00  0.00    -0.176 A  
HETATM   14  C   UNL     1      -9.918  12.404  68.429  1.00  0.00    -0.210 A  
HETATM   15 CL   UNL     1      -8.052  10.865  67.247  1.00  0.00    -0.120 Cl 
HETATM   16  C   UNL     1     -10.466  13.630  68.803  1.00  0.00    -0.214 A  
HETATM   17  C   UNL     1      -9.835  14.835  68.446  1.00  0.00    -0.220 A  
HETATM   18  N   UNL     1     -10.516  16.053  68.712  1.00  0.00    -0.235 NA 
HETATM   19  C   UNL     1     -10.833  16.892  67.623  1.00  0.00    -0.244 A  
HETATM   20  H   UNL     1     -10.769  16.314  69.665  1.00  0.00     0.000 HD 
HETATM   21  C   UNL     1     -12.176  17.229  67.390  1.00  0.00     2.938 A  
HETATM   22  C   UNL     1     -12.553  17.905  66.227  1.00  0.00     7.524 A  
HETATM   23  C   UNL     1     -11.597  18.244  65.275  1.00  0.00     2.554 A  
HETATM   24  C   UNL     1     -10.259  17.928  65.499  1.00  0.00     0.179 A  
HETATM   25  C   UNL     1      -9.871  17.274  66.680  1.00  0.00    -0.299 A  
ENDBRANCH   5   8
TORSDOF 1
ENDMDL
MODEL      168
REMARK 921   NORMALIZED FREE ENERGY PREDICTED BY IDOCK:   10.34 KCAL/MOL
REMARK 922        TOTAL FREE ENERGY PREDICTED BY IDOCK:   10.57 KCAL/MOL
REMARK 923 INTER-LIGAND FREE ENERGY PREDICTED BY IDOCK:   10.38 KCAL/MOL
REMARK 924 INTRA-LIGAND FREE ENERGY PREDICTED BY IDOCK:    0.18 KCAL/MOL
REMARK 927      BINDING AFFINITY PREDICTED BY RF-SCORE:    0.00 PKD
ROOT
HETATM    1  C   UNL     1      -7.701  11.574  64.058  1.00  0.00     1.799 C  
HETATM    2  N   UNL     1      -7.250  10.704  65.141  1.00  0.00    -0.009 NA 
HETATM    3  C   UNL     1      -6.011  11.208  65.770  1.00  0.00     0.037 C  
HETATM    4  C   UNL     1      -6.177  12.470  66.644  1.00  0.00     0.852 C  
HETATM    5  N   UNL     1      -7.247  12.300  67.637  1.00  0.00    -0.116 NA 
HETATM    6  C   UNL     1      -8.281  10.546  66.194  1.00  0.00    -0.151 C  
HETATM    7  C   UNL     1      -8.509  11.779  67.098  1.00  0.00    -0.170 C  
ENDROOT
BRANCH   5   8
HETATM    8  C   UNL     1      -7.076  12.559  69.001  1.00  0.00    -0.037 C  
HETATM    9  N   UNL     1      -6.236  11.825  69.683  1.00  0.00    -0.116 NA 
HETATM   10  C   UNL     1      -5.950  12.010  71.050  1.00  0.00     0.419 A  
HETATM   11  H   UNL     1      -5.757  11.070  69.194  1.00  0.00     0.000 HD 
HETATM   12  C   UNL     1      -5.753  10.849  71.811  1.00  0.00     0.514 A  
HETATM   13  C   UNL     1      -5.414  10.929  73.161  1.00  0.00     0.916 A  
HETATM   14  C   UNL     1      -5.238  12.167  73.775  1.00  0.00     0.575 A  
HETATM   15 CL   UNL     1      -5.224   9.492  74.087  1.00  0.00    -0.129 Cl 
HETATM   16  C   UNL     1      -5.397  13.331  73.027  1.00  0.00     0.182 A  
HETATM   17  C   UNL     1      -5.751  13.266  71.667  1.00  0.00     0.147 A  
HETATM   18  N   UNL     1      -6.054  14.480  70.994  1.00  0.00    -0.173 NA 
HETATM   19  C   UNL     1      -7.344  14.631  70.440  1.00  0.00     0.564 A  
HETATM   20  H   UNL     1      -5.360  15.222  70.914  1.00  0.00     0.000 HD 
HETATM   21  C   UNL     1      -8.145  15.704  70.860  1.00  0.00     2.750 A  
HETATM   22  C   UNL     1      -9.486  15.790  70.476  1.00  0.00     1.130 A  
HETATM   23  C   UNL     1     -10.047  14.800  69.676  1.00  0.00    -0.008 A  
HETATM   24  C   UNL     1      -9.261  13.738  69.239  1.00  0.00     0.568 A  
HETATM   25  C   UNL     1      -7.905  13.662  69.600  1.00  0.00     0.840 A  
ENDBRANCH   5   8
TORSDOF 1
ENDMDL
MODEL      169
REMARK 921   NORMALIZED FREE ENERGY PREDICTED BY IDOCK:   11.42 KCAL/MOL
REMARK 922        TOTAL FREE ENERGY PREDICTED BY IDOCK:   11.71 KCAL/MOL
REMARK 923 INTER-LIGAND FREE ENERGY PREDICTED BY IDOCK:   11.25 KCAL/MOL
REMARK 924 INTRA-LIGAND FREE ENERGY PREDICTED BY IDOCK:    0.47 KCAL/MOL
REMARK 927      BINDING AFFINITY PREDICTED BY RF-SCORE:    0.00 PKD
ROOT
HETATM    1  C   UNL     1     -13.600  13.813  71.089  1.00  0.00    -0.027 C  
HETATM    2  N   UNL     1     -13.044  12.467  70.970  1.00  0.00    -0.055 NA 
HETATM    3  C   UNL     1     -13.307  11.881  69.639  1.00  0.00     2.302 C  
HETATM    4  C   UNL     1     -12.492  12.487  68.475  1.00  0.00     0.669 C  
HETATM    5  N   UNL     1     -11.054  12.503  68.777  1.00  0.00    -0.257 NA 
HETATM    6  C   UNL     1     -11.583  12.444  71.214  1.00  0.00     1.829 C  
HETATM    7  C   UNL     1     -10.708  13.050  70.094  1.00  0.00     1.358 C  
ENDROOT
BRANCH   5   8
HETATM    8  C   UNL     1     -10.083  11.992  67.908  1.00  0.00    -0.195 C  
HETATM    9  N   UNL     1     -10.439  11.637  66.701  1.00  0.00    -0.225 NA 
HETATM   10  C   UNL     1      -9.552  11.144  65.726  1.00  0.00    -0.221 A  
HETATM   11  H   UNL     1     -11.424  11.722  66.450  1.00  0.00     0.000 HD 
HETATM   12  C   UNL     1     -10.037  10.124  64.896  1.00  0.00    -0.277 A  
HETATM   13  C   UNL     1      -9.252   9.606  63.866  1.00  0.00    -0.132 A  
HETATM   14  C   UNL     1      -7.977  10.112  63.624  1.00  0.00    -0.160 A  
HETATM   15 CL   UNL     1      -9.849   8.322  62.891  1.00  0.00     3.417 Cl 
HETATM   16  C   UNL     1      -7.490  11.150  64.417  1.00  0.00     0.949 A  
HETATM   17  C   UNL     1      -8.266  11.673  65.468  1.00  0.00     0.559 A  
HETATM   18  N   UNL     1      -7.662  12.616  66.341  1.00  0.00     0.028 NA 
HETATM   19  C   UNL     1      -7.572  12.292  67.712  1.00  0.00    -0.131 A  
HETATM   20  H   UNL     1      -7.304  13.503  65.988  1.00  0.00     0.000 HD 
HETATM   21  C   UNL     1      -6.309  12.257  68.323  1.00  0.00    -0.055 A  
HETATM   22  C   UNL     1      -6.155  11.770  69.623  1.00  0.00    -0.119 A  
HETATM   23  C   UNL     1      -7.259  11.301  70.328  1.00  0.00     0.949 A  
HETATM   24  C   UNL     1      -8.521  11.343  69.741  1.00  0.00     1.197 A  
HETATM   25  C   UNL     1      -8.684  11.858  68.444  1.00  0.00    -0.157 A  
ENDBRANCH   5   8
TORSDOF 1
ENDMDL
MODEL      170
REMARK 921   NORMALIZED FREE ENERGY PREDICTED BY IDOCK:   15.24 KCAL/MOL
REMARK 922        TOTAL FREE ENERGY PREDICTED BY IDOCK:   15.75 KCAL/MOL
REMARK 923 INTER-LIGAND FREE ENERGY PREDICTED BY IDOCK:   15.63 KCAL/MOL
REMARK 924 INTRA-LIGAND FREE ENERGY PREDICTED BY IDOCK:    0.12 KCAL/MOL
REMARK 927      BINDING AFFINITY PREDICTED BY RF-SCORE:    0.00 PKD
ROOT
HETATM    1  C   UNL     1     -10.440  18.377  73.244  1.00  0.00     4.007 C  
HETATM    2  N   UNL     1     -11.656  17.899  72.590  1.00  0.00     1.840 NA 
HETATM    3  C   UNL     1     -11.822  18.485  71.244  1.00  0.00     8.236 C  
HETATM    4  C   UNL     1     -10.851  17.957  70.166  1.00  0.00     1.608 C  
HETATM    5  N   UNL     1     -10.854  16.488  70.112  1.00  0.00    -0.284 NA 
HETATM    6  C   UNL     1     -11.678  16.422  72.466  1.00  0.00    -0.352 C  
HETATM    7  C   UNL     1     -10.716  15.824  71.415  1.00  0.00     0.389 C  
ENDROOT
BRANCH   5   8
HETATM    8  C   UNL     1     -11.026  15.765  68.927  1.00  0.00    -0.283 C  
HETATM    9  N   UNL     1     -11.480  14.541  68.994  1.00  0.00    -0.273 NA 
HETATM   10  C   UNL     1     -11.729  13.724  67.874  1.00  0.00    -0.360 A  
HETATM   11  H   UNL     1     -11.666  14.151  69.918  1.00  0.00     0.000 HD 
HETATM   12  C   UNL     1     -11.424  12.364  68.010  1.00  0.00    -0.377 A  
HETATM   13  C   UNL     1     -11.683  11.465  66.975  1.00  0.00     0.090 A  
HETATM   14  C   UNL     1     -12.277  11.900  65.793  1.00  0.00     0.409 A  
HETATM   15 CL   UNL     1     -11.256   9.808  67.147  1.00  0.00     0.052 Cl 
HETATM   16  C   UNL     1     -12.619  13.243  65.652  1.00  0.00    -0.469 A  
HETATM   17  C   UNL     1     -12.352  14.163  66.683  1.00  0.00    -0.339 A  
HETATM   18  N   UNL     1     -12.574  15.542  66.425  1.00  0.00     1.023 NA 
HETATM   19  C   UNL     1     -11.475  16.423  66.519  1.00  0.00     0.695 A  
HETATM   20  H   UNL     1     -13.501  15.886  66.179  1.00  0.00     0.000 HD 
HETATM   21  C   UNL     1     -11.116  17.187  65.397  1.00  0.00     0.182 A  
HETATM   22  C   UNL     1      -9.936  17.934  65.387  1.00  0.00     0.668 A  
HETATM   23  C   UNL     1      -9.091  17.919  66.493  1.00  0.00    -0.276 A  
HETATM   24  C   UNL     1      -9.441  17.177  67.618  1.00  0.00    -0.241 A  
HETATM   25  C   UNL     1     -10.641  16.448  67.643  1.00  0.00    -0.313 A  
ENDBRANCH   5   8
TORSDOF 1
ENDMDL
MODEL      171
REMARK 921   NORMALIZED FREE ENERGY PREDICTED BY IDOCK:   15.78 KCAL/MOL
REMARK 922        TOTAL FREE ENERGY PREDICTED BY IDOCK:   16.32 KCAL/MOL
REMARK 923 INTER-LIGAND FREE ENERGY PREDICTED BY IDOCK:   16.56 KCAL/MOL
REMARK 924 INTRA-LIGAND FREE ENERGY PREDICTED BY IDOCK:   -0.24 KCAL/MOL
REMARK 927      BINDING AFFINITY PREDICTED BY RF-SCORE:    0.00 PKD
ROOT
HETATM    1  C   UNL     1      -7.764  17.473  66.196  1.00  0.00    -0.268 C  
HETATM    2  N   UNL     1      -7.583  16.100  66.660  1.00  0.00    -0.233 NA 
HETATM    3  C   UNL     1      -7.384  16.037  68.124  1.00  0.00    -0.127 C  
HETATM    4  C   UNL     1      -8.640  16.322  68.976  1.00  0.00    -0.247 C  
HETATM    5  N   UNL     1      -9.776  15.491  68.556  1.00  0.00    -0.199 NA 
HETATM    6  C   UNL     1      -8.732  15.235  66.304  1.00  0.00    -0.153 C  
HETATM    7  C   UNL     1     -10.029  15.479  67.109  1.00  0.00    -0.242 C  
ENDROOT
BRANCH   5   8
HETATM    8  C   UNL     1     -10.535  14.723  69.446  1.00  0.00    -0.199 C  
HETATM    9  N   UNL     1     -10.776  13.471  69.154  1.00  0.00    -0.425 NA 
HETATM   10  C   UNL     1     -11.495  12.588  69.983  1.00  0.00    -0.018 A  
HETATM   11  H   UNL     1     -10.419  13.111  68.270  1.00  0.00     0.000 HD 
HETATM   12  C   UNL     1     -12.337  11.672  69.339  1.00  0.00    -0.131 A  
HETATM   13  C   UNL     1     -13.052  10.722  70.070  1.00  0.00     0.245 A  
HETATM   14  C   UNL     1     -12.919  10.648  71.454  1.00  0.00    -0.545 A  
HETATM   15 CL   UNL     1     -14.117   9.640  69.264  1.00  0.00     4.512 Cl 
HETATM   16  C   UNL     1     -12.060  11.528  72.108  1.00  0.00     1.740 A  
HETATM   17  C   UNL     1     -11.343  12.500  71.386  1.00  0.00     3.155 A  
HETATM   18  N   UNL     1     -10.607  13.470  72.116  1.00  0.00     5.803 NA 
HETATM   19  C   UNL     1     -10.945  14.830  71.947  1.00  0.00     0.798 A  
HETATM   20  H   UNL     1      -9.854  13.192  72.745  1.00  0.00     0.000 HD 
HETATM   21  C   UNL     1     -11.332  15.581  73.068  1.00  0.00     0.067 A  
HETATM   22  C   UNL     1     -11.844  16.872  72.923  1.00  0.00     0.063 A  
HETATM   23  C   UNL     1     -11.989  17.427  71.655  1.00  0.00     3.039 A  
HETATM   24  C   UNL     1     -11.596  16.700  70.535  1.00  0.00     0.289 A  
HETATM   25  C   UNL     1     -11.054  15.412  70.678  1.00  0.00    -0.364 A  
ENDBRANCH   5   8
TORSDOF 1
ENDMDL
MODEL      172
REMARK 921   NORMALIZED FREE ENERGY PREDICTED BY IDOCK:   17.16 KCAL/MOL
REMARK 922        TOTAL FREE ENERGY PREDICTED BY IDOCK:   17.78 KCAL/MOL
REMARK 923 INTER-LIGAND FREE ENERGY PREDICTED BY IDOCK:   17.89 KCAL/MOL
REMARK 924 INTRA-LIGAND FREE ENERGY PREDICTED BY IDOCK:   -0.11 KCAL/MOL
REMARK 927      BINDING AFFINITY PREDICTED BY RF-SCORE:    0.00 PKD
ROOT
HETATM    1  C   UNL     1     -12.685   8.137  70.129  1.00  0.00     1.351 C  
HETATM    2  N   UNL     1     -12.839   9.029  71.276  1.00  0.00    -0.285 NA 
HETATM    3  C   UNL     1     -11.617   9.822  71.523  1.00  0.00    -0.353 C  
HETATM    4  C   UNL     1     -11.334  10.941  70.496  1.00  0.00    -0.120 C  
HETATM    5  N   UNL     1     -12.505  11.809  70.310  1.00  0.00    -0.205 NA 
HETATM    6  C   UNL     1     -13.979   9.960  71.108  1.00  0.00     0.223 C  
HETATM    7  C   UNL     1     -13.769  11.097  70.082  1.00  0.00     2.094 C  
ENDROOT
BRANCH   5   8
HETATM    8  C   UNL     1     -12.446  13.204  70.393  1.00  0.00    -0.210 C  
HETATM    9  N   UNL     1     -12.479  13.769  71.572  1.00  0.00    -0.315 NA 
HETATM   10  C   UNL     1     -12.391  15.158  71.788  1.00  0.00    -0.354 A  
HETATM   11  H   UNL     1     -12.573  13.165  72.387  1.00  0.00     0.000 HD 
HETATM   12  C   UNL     1     -13.182  15.682  72.819  1.00  0.00    -0.610 A  
HETATM   13  C   UNL     1     -13.127  17.037  73.145  1.00  0.00     1.780 A  
HETATM   14  C   UNL     1     -12.261  17.892  72.468  1.00  0.00     4.715 A  
HETATM   15 CL   UNL     1     -14.142  17.667  74.381  1.00  0.00     4.332 Cl 
HETATM   16  C   UNL     1     -11.441  17.383  71.463  1.00  0.00     1.833 A  
HETATM   17  C   UNL     1     -11.496  16.021  71.115  1.00  0.00    -0.419 A  
HETATM   18  N   UNL     1     -10.758  15.589  69.982  1.00  0.00    -0.298 NA 
HETATM   19  C   UNL     1     -11.466  15.010  68.906  1.00  0.00    -0.314 A  
HETATM   20  H   UNL     1      -9.745  15.693  69.945  1.00  0.00     0.000 HD 
HETATM   21  C   UNL     1     -11.369  15.594  67.633  1.00  0.00    -0.228 A  
HETATM   22  C   UNL     1     -12.187  15.167  66.584  1.00  0.00     0.429 A  
HETATM   23  C   UNL     1     -13.122  14.158  66.796  1.00  0.00     1.414 A  
HETATM   24  C   UNL     1     -13.220  13.560  68.049  1.00  0.00     3.601 A  
HETATM   25  C   UNL     1     -12.380  13.967  69.098  1.00  0.00    -0.169 A  
ENDBRANCH   5   8
TORSDOF 1
ENDMDL
MODEL      173
REMARK 921   NORMALIZED FREE ENERGY PREDICTED BY IDOCK:   27.34 KCAL/MOL
REMARK 922        TOTAL FREE ENERGY PREDICTED BY IDOCK:   28.57 KCAL/MOL
REMARK 923 INTER-LIGAND FREE ENERGY PREDICTED BY IDOCK:   28.97 KCAL/MOL
REMARK 924 INTRA-LIGAND FREE ENERGY PREDICTED BY IDOCK:   -0.40 KCAL/MOL
REMARK 927      BINDING AFFINITY PREDICTED BY RF-SCORE:    0.00 PKD
ROOT
HETATM    1  C   UNL     1     -13.375   9.139  68.343  1.00  0.00    11.256 C  
HETATM    2  N   UNL     1     -13.291  10.421  67.648  1.00  0.00     8.845 NA 
HETATM    3  C   UNL     1     -13.162  11.550  68.593  1.00  0.00     3.862 C  
HETATM    4  C   UNL     1     -11.795  11.670  69.301  1.00  0.00    -0.331 C  
HETATM    5  N   UNL     1     -10.686  11.652  68.336  1.00  0.00    -0.206 NA 
HETATM    6  C   UNL     1     -12.152  10.468  66.701  1.00  0.00     3.136 C  
HETATM    7  C   UNL     1     -10.751  10.572  67.344  1.00  0.00    -0.281 C  
ENDROOT
BRANCH   5   8
HETATM    8  C   UNL     1      -9.670  12.614  68.318  1.00  0.00    -0.216 C  
HETATM    9  N   UNL     1      -8.752  12.580  69.249  1.00  0.00     0.166 NA 
HETATM   10  C   UNL     1      -7.662  13.468  69.320  1.00  0.00     0.345 A  
HETATM   11  H   UNL     1      -8.832  11.864  69.971  1.00  0.00     0.000 HD 
HETATM   12  C   UNL     1      -7.271  13.879  70.601  1.00  0.00     1.422 A  
HETATM   13  C   UNL     1      -6.170  14.717  70.779  1.00  0.00    -0.070 A  
HETATM   14  C   UNL     1      -5.418  15.139  69.685  1.00  0.00    -0.094 A  
HETATM   15 CL   UNL     1      -5.739  15.248  72.357  1.00  0.00     0.539 Cl 
HETATM   16  C   UNL     1      -5.770  14.712  68.406  1.00  0.00    -0.106 A  
HETATM   17  C   UNL     1      -6.886  13.878  68.211  1.00  0.00    -0.108 A  
HETATM   18  N   UNL     1      -7.293  13.604  66.878  1.00  0.00    -0.282 NA 
HETATM   19  C   UNL     1      -8.591  13.994  66.484  1.00  0.00     0.189 A  
HETATM   20  H   UNL     1      -6.665  13.139  66.224  1.00  0.00     0.000 HD 
HETATM   21  C   UNL     1      -8.739  14.874  65.401  1.00  0.00     1.999 A  
HETATM   22  C   UNL     1      -9.985  15.425  65.090  1.00  0.00    -0.229 A  
HETATM   23  C   UNL     1     -11.098  15.113  65.864  1.00  0.00    -0.319 A  
HETATM   24  C   UNL     1     -10.970  14.230  66.933  1.00  0.00    -0.304 A  
HETATM   25  C   UNL     1      -9.724  13.652  67.231  1.00  0.00    -0.243 A  
ENDBRANCH   5   8
TORSDOF 1
ENDMDL
MODEL      174
REMARK 921   NORMALIZED FREE ENERGY PREDICTED BY IDOCK:   31.73 KCAL/MOL
REMARK 922        TOTAL FREE ENERGY PREDICTED BY IDOCK:   33.20 KCAL/MOL
REMARK 923 INTER-LIGAND FREE ENERGY PREDICTED BY IDOCK:   33.32 KCAL/MOL
REMARK 924 INTRA-LIGAND FREE ENERGY PREDICTED BY IDOCK:   -0.12 KCAL/MOL
REMARK 927      BINDING AFFINITY PREDICTED BY RF-SCORE:    0.00 PKD
ROOT
HETATM    1  C   UNL     1     -11.808  14.510  62.884  1.00  0.00     2.470 C  
HETATM    2  N   UNL     1     -10.755  14.087  63.804  1.00  0.00     0.547 NA 
HETATM    3  C   UNL     1      -9.699  15.112  63.937  1.00  0.00     5.489 C  
HETATM    4  C   UNL     1     -10.098  16.376  64.731  1.00  0.00     0.998 C  
HETATM    5  N   UNL     1     -10.674  16.030  66.038  1.00  0.00    -0.301 NA 
HETATM    6  C   UNL     1     -11.285  13.779  65.153  1.00  0.00    -0.316 C  
HETATM    7  C   UNL     1     -11.718  14.998  65.997  1.00  0.00    -0.094 C  
ENDROOT
BRANCH   5   8
HETATM    8  C   UNL     1     -10.237  16.593  67.242  1.00  0.00    -0.290 C  
HETATM    9  N   UNL     1     -10.149  15.831  68.301  1.00  0.00    -0.220 NA 
HETATM   10  C   UNL     1      -9.690  16.270  69.558  1.00  0.00    -0.131 A  
HETATM   11  H   UNL     1     -10.431  14.855  68.210  1.00  0.00     0.000 HD 
HETATM   12  C   UNL     1     -10.339  15.739  70.681  1.00  0.00     0.186 A  
HETATM   13  C   UNL     1      -9.923  16.072  71.970  1.00  0.00     4.307 A  
HETATM   14  C   UNL     1      -8.835  16.919  72.166  1.00  0.00    12.959 A  
HETATM   15 CL   UNL     1     -10.764  15.448  73.334  1.00  0.00     2.016 Cl 
HETATM   16  C   UNL     1      -8.156  17.430  71.062  1.00  0.00     6.697 A  
HETATM   17  C   UNL     1      -8.572  17.112  69.756  1.00  0.00     1.185 A  
HETATM   18  N   UNL     1      -7.947  17.783  68.672  1.00  0.00    -0.287 NA 
HETATM   19  C   UNL     1      -8.753  18.568  67.818  1.00  0.00    -0.275 A  
HETATM   20  H   UNL     1      -6.943  17.701  68.513  1.00  0.00     0.000 HD 
HETATM   21  C   UNL     1      -8.460  19.932  67.667  1.00  0.00    -0.374 A  
HETATM   22  C   UNL     1      -9.331  20.780  66.980  1.00  0.00    -0.354 A  
HETATM   23  C   UNL     1     -10.513  20.280  66.443  1.00  0.00    -0.331 A  
HETATM   24  C   UNL     1     -10.811  18.926  66.572  1.00  0.00    -0.238 A  
HETATM   25  C   UNL     1      -9.924  18.064  67.239  1.00  0.00    -0.324 A  
ENDBRANCH   5   8
TORSDOF 1
ENDMDL
MODEL      175
REMARK 921   NORMALIZED FREE ENERGY PREDICTED BY IDOCK:   45.01 KCAL/MOL
REMARK 922        TOTAL FREE ENERGY PREDICTED BY IDOCK:   47.27 KCAL/MOL
REMARK 923 INTER-LIGAND FREE ENERGY PREDICTED BY IDOCK:   46.66 KCAL/MOL
REMARK 924 INTRA-LIGAND FREE ENERGY PREDICTED BY IDOCK:    0.61 KCAL/MOL
REMARK 927      BINDING AFFINITY PREDICTED BY RF-SCORE:    0.00 PKD
ROOT
HETATM    1  C   UNL     1     -13.213  13.417  69.480  1.00  0.00     1.812 C  
HETATM    2  N   UNL     1     -13.017  14.818  69.115  1.00  0.00     0.649 NA 
HETATM    3  C   UNL     1     -11.878  15.419  69.839  1.00  0.00    -0.350 C  
HETATM    4  C   UNL     1     -10.479  14.945  69.385  1.00  0.00    -0.222 C  
HETATM    5  N   UNL     1     -10.314  15.073  67.930  1.00  0.00    -0.239 NA 
HETATM    6  C   UNL     1     -12.793  14.988  67.660  1.00  0.00     1.852 C  
HETATM    7  C   UNL     1     -11.418  14.519  67.135  1.00  0.00    -0.368 C  
ENDROOT
BRANCH   5   8
HETATM    8  C   UNL     1      -9.222  15.714  67.336  1.00  0.00    -0.198 C  
HETATM    9  N   UNL     1      -8.688  16.743  67.941  1.00  0.00    -0.200 NA 
HETATM   10  C   UNL     1      -7.567  17.450  67.464  1.00  0.00    -0.187 A  
HETATM   11  H   UNL     1      -9.110  17.054  68.816  1.00  0.00     0.000 HD 
HETATM   12  C   UNL     1      -7.576  18.838  67.651  1.00  0.00    -0.247 A  
HETATM   13  C   UNL     1      -6.489  19.620  67.259  1.00  0.00    -0.194 A  
HETATM   14  C   UNL     1      -5.359  19.030  66.699  1.00  0.00    -0.160 A  
HETATM   15 CL   UNL     1      -6.542  21.327  67.454  1.00  0.00    -0.430 Cl 
HETATM   16  C   UNL     1      -5.317  17.647  66.536  1.00  0.00    -0.216 A  
HETATM   17  C   UNL     1      -6.412  16.847  66.915  1.00  0.00    -0.213 A  
HETATM   18  N   UNL     1      -6.380  15.467  66.582  1.00  0.00     0.185 NA 
HETATM   19  C   UNL     1      -7.397  14.960  65.744  1.00  0.00     5.336 A  
HETATM   20  H   UNL     1      -5.644  14.859  66.938  1.00  0.00     0.000 HD 
HETATM   21  C   UNL     1      -7.040  14.345  64.534  1.00  0.00    18.579 A  
HETATM   22  C   UNL     1      -8.013  13.991  63.595  1.00  0.00    15.612 A  
HETATM   23  C   UNL     1      -9.355  14.258  63.848  1.00  0.00     5.551 A  
HETATM   24  C   UNL     1      -9.726  14.854  65.050  1.00  0.00     0.107 A  
HETATM   25  C   UNL     1      -8.753  15.185  66.008  1.00  0.00     0.201 A  
ENDBRANCH   5   8
TORSDOF 1
ENDMDL
MODEL      176
REMARK 921   NORMALIZED FREE ENERGY PREDICTED BY IDOCK:   46.86 KCAL/MOL
REMARK 922        TOTAL FREE ENERGY PREDICTED BY IDOCK:   49.22 KCAL/MOL
REMARK 923 INTER-LIGAND FREE ENERGY PREDICTED BY IDOCK:   49.39 KCAL/MOL
REMARK 924 INTRA-LIGAND FREE ENERGY PREDICTED BY IDOCK:   -0.17 KCAL/MOL
REMARK 927      BINDING AFFINITY PREDICTED BY RF-SCORE:    0.00 PKD
ROOT
HETATM    1  C   UNL     1     -14.012   6.215  65.937  1.00  0.00    13.993 C  
HETATM    2  N   UNL     1     -13.411   7.165  66.870  1.00  0.00    13.336 NA 
HETATM    3  C   UNL     1     -12.855   6.488  68.061  1.00  0.00     8.993 C  
HETATM    4  C   UNL     1     -11.565   5.673  67.818  1.00  0.00     1.911 C  
HETATM    5  N   UNL     1     -10.542   6.477  67.135  1.00  0.00    -0.283 NA 
HETATM    6  C   UNL     1     -12.334   7.962  66.237  1.00  0.00     9.836 C  
HETATM    7  C   UNL     1     -11.019   7.204  65.951  1.00  0.00     2.745 C  
ENDROOT
BRANCH   5   8
HETATM    8  C   UNL     1      -9.225   6.593  67.594  1.00  0.00    -0.110 C  
HETATM    9  N   UNL     1      -8.945   7.507  68.485  1.00  0.00    -0.129 NA 
HETATM   10  C   UNL     1      -7.669   7.700  69.050  1.00  0.00    -0.117 A  
HETATM   11  H   UNL     1      -9.699   8.121  68.791  1.00  0.00     0.000 HD 
HETATM   12  C   UNL     1      -7.285   9.025  69.293  1.00  0.00    -0.065 A  
HETATM   13  C   UNL     1      -6.062   9.316  69.897  1.00  0.00    -0.038 A  
HETATM   14  C   UNL     1      -5.209   8.291  70.297  1.00  0.00    -0.022 A  
HETATM   15 CL   UNL     1      -5.591  10.952  70.141  1.00  0.00    -0.068 Cl 
HETATM   16  C   UNL     1      -5.588   6.966  70.095  1.00  0.00    -0.023 A  
HETATM   17  C   UNL     1      -6.813   6.657  69.475  1.00  0.00    -0.065 A  
HETATM   18  N   UNL     1      -7.078   5.300  69.151  1.00  0.00    -0.056 NA 
HETATM   19  C   UNL     1      -7.288   4.967  67.795  1.00  0.00    -0.075 A  
HETATM   20  H   UNL     1      -7.115   4.586  69.877  1.00  0.00     0.000 HD 
HETATM   21  C   UNL     1      -6.450   4.018  67.189  1.00  0.00    -0.041 A  
HETATM   22  C   UNL     1      -6.506   3.791  65.811  1.00  0.00    -0.033 A  
HETATM   23  C   UNL     1      -7.391   4.516  65.019  1.00  0.00    -0.072 A  
HETATM   24  C   UNL     1      -8.238   5.450  65.609  1.00  0.00    -0.124 A  
HETATM   25  C   UNL     1      -8.205   5.662  66.998  1.00  0.00    -0.101 A  
ENDBRANCH   5   8
TORSDOF 1
ENDMDL
MODEL      177
REMARK 921   NORMALIZED FREE ENERGY PREDICTED BY IDOCK:   47.65 KCAL/MOL
REMARK 922        TOTAL FREE ENERGY PREDICTED BY IDOCK:   50.06 KCAL/MOL
REMARK 923 INTER-LIGAND FREE ENERGY PREDICTED BY IDOCK:   49.40 KCAL/MOL
REMARK 924 INTRA-LIGAND FREE ENERGY PREDICTED BY IDOCK:    0.66 KCAL/MOL
REMARK 927      BINDING AFFINITY PREDICTED BY RF-SCORE:    0.00 PKD
ROOT
HETATM    1  C   UNL     1     -13.973   5.384  65.837  1.00  0.00    14.462 C  
HETATM    2  N   UNL     1     -13.361   6.306  66.790  1.00  0.00    11.623 NA 
HETATM    3  C   UNL     1     -12.803   5.596  67.960  1.00  0.00    11.972 C  
HETATM    4  C   UNL     1     -11.519   4.781  67.690  1.00  0.00     3.914 C  
HETATM    5  N   UNL     1     -10.495   5.596  67.022  1.00  0.00    -0.254 NA 
HETATM    6  C   UNL     1     -12.283   7.113  66.172  1.00  0.00     7.103 C  
HETATM    7  C   UNL     1     -10.974   6.355  65.860  1.00  0.00     1.610 C  
ENDROOT
BRANCH   5   8
HETATM    8  C   UNL     1      -9.175   5.692  67.477  1.00  0.00    -0.109 C  
HETATM    9  N   UNL     1      -8.899   5.316  68.699  1.00  0.00    -0.096 NA 
HETATM   10  C   UNL     1      -7.608   5.332  69.260  1.00  0.00    -0.073 A  
HETATM   11  H   UNL     1      -9.669   4.991  69.283  1.00  0.00     0.000 HD 
HETATM   12  C   UNL     1      -7.516   5.697  70.610  1.00  0.00    -0.085 A  
HETATM   13  C   UNL     1      -6.288   5.692  71.270  1.00  0.00    -0.036 A  
HETATM   14  C   UNL     1      -5.129   5.297  70.606  1.00  0.00    -0.004 A  
HETATM   15 CL   UNL     1      -6.192   6.190  72.913  1.00  0.00    -0.053 Cl 
HETATM   16  C   UNL     1      -5.205   4.897  69.274  1.00  0.00     0.000 A  
HETATM   17  C   UNL     1      -6.436   4.909  68.591  1.00  0.00    -0.037 A  
HETATM   18  N   UNL     1      -6.431   4.646  67.196  1.00  0.00    -0.041 NA 
HETATM   19  C   UNL     1      -6.915   5.648  66.327  1.00  0.00    -0.060 A  
HETATM   20  H   UNL     1      -6.087   3.759  66.831  1.00  0.00     0.000 HD 
HETATM   21  C   UNL     1      -6.067   6.154  65.330  1.00  0.00    -0.030 A  
HETATM   22  C   UNL     1      -6.439   7.264  64.567  1.00  0.00    -0.040 A  
HETATM   23  C   UNL     1      -7.660   7.891  64.798  1.00  0.00    -0.110 A  
HETATM   24  C   UNL     1      -8.518   7.391  65.774  1.00  0.00    -0.149 A  
HETATM   25  C   UNL     1      -8.159   6.259  66.524  1.00  0.00    -0.110 A  
ENDBRANCH   5   8
TORSDOF 1
ENDMDL
MODEL      178
REMARK 921   NORMALIZED FREE ENERGY PREDICTED BY IDOCK:   48.86 KCAL/MOL
REMARK 922        TOTAL FREE ENERGY PREDICTED BY IDOCK:   51.34 KCAL/MOL
REMARK 923 INTER-LIGAND FREE ENERGY PREDICTED BY IDOCK:   50.99 KCAL/MOL
REMARK 924 INTRA-LIGAND FREE ENERGY PREDICTED BY IDOCK:    0.36 KCAL/MOL
REMARK 927      BINDING AFFINITY PREDICTED BY RF-SCORE:    0.00 PKD
ROOT
HETATM    1  C   UNL     1     -11.808  14.510  62.884  1.00  0.00     2.470 C  
HETATM    2  N   UNL     1     -10.743  14.090  63.790  1.00  0.00     0.547 NA 
HETATM    3  C   UNL     1      -9.689  15.119  63.914  1.00  0.00     5.489 C  
HETATM    4  C   UNL     1     -10.085  16.379  64.716  1.00  0.00     0.998 C  
HETATM    5  N   UNL     1     -10.644  16.028  66.028  1.00  0.00    -0.328 NA 
HETATM    6  C   UNL     1     -11.256  13.776  65.145  1.00  0.00    -0.316 C  
HETATM    7  C   UNL     1     -11.685  14.992  65.997  1.00  0.00    -0.094 C  
ENDROOT
BRANCH   5   8
HETATM    8  C   UNL     1     -10.196  16.590  67.228  1.00  0.00    -0.287 C  
HETATM    9  N   UNL     1      -8.920  16.539  67.512  1.00  0.00    -0.195 NA 
HETATM   10  C   UNL     1      -8.342  17.097  68.668  1.00  0.00    -0.257 A  
HETATM   11  H   UNL     1      -8.304  16.063  66.853  1.00  0.00     0.000 HD 
HETATM   12  C   UNL     1      -7.298  16.373  69.258  1.00  0.00    -0.211 A  
HETATM   13  C   UNL     1      -6.626  16.869  70.376  1.00  0.00     0.928 A  
HETATM   14  C   UNL     1      -6.964  18.109  70.912  1.00  0.00     2.883 A  
HETATM   15 CL   UNL     1      -5.380  15.941  71.113  1.00  0.00    -0.064 Cl 
HETATM   16  C   UNL     1      -7.977  18.860  70.318  1.00  0.00     1.791 A  
HETATM   17  C   UNL     1      -8.671  18.366  69.198  1.00  0.00     0.105 A  
HETATM   18  N   UNL     1      -9.796  19.097  68.732  1.00  0.00    -0.422 NA 
HETATM   19  C   UNL     1     -11.052  18.453  68.722  1.00  0.00     1.138 A  
HETATM   20  H   UNL     1      -9.700  20.060  68.413  1.00  0.00     0.000 HD 
HETATM   21  C   UNL     1     -12.112  19.014  69.451  1.00  0.00     8.477 A  
HETATM   22  C   UNL     1     -13.315  18.322  69.615  1.00  0.00    19.238 A  
HETATM   23  C   UNL     1     -13.471  17.054  69.064  1.00  0.00     7.243 A  
HETATM   24  C   UNL     1     -12.433  16.491  68.326  1.00  0.00     1.827 A  
HETATM   25  C   UNL     1     -11.233  17.195  68.134  1.00  0.00     0.024 A  
ENDBRANCH   5   8
TORSDOF 1
ENDMDL
MODEL      179
REMARK 921   NORMALIZED FREE ENERGY PREDICTED BY IDOCK:   50.55 KCAL/MOL
REMARK 922        TOTAL FREE ENERGY PREDICTED BY IDOCK:   53.12 KCAL/MOL
REMARK 923 INTER-LIGAND FREE ENERGY PREDICTED BY IDOCK:   53.03 KCAL/MOL
REMARK 924 INTRA-LIGAND FREE ENERGY PREDICTED BY IDOCK:    0.10 KCAL/MOL
REMARK 927      BINDING AFFINITY PREDICTED BY RF-SCORE:    0.00 PKD
ROOT
HETATM    1  C   UNL     1      -8.898  12.239  72.878  1.00  0.00    26.063 C  
HETATM    2  N   UNL     1      -9.262  11.824  71.526  1.00  0.00    11.554 NA 
HETATM    3  C   UNL     1     -10.573  12.371  71.118  1.00  0.00     5.784 C  
HETATM    4  C   UNL     1     -10.597  13.887  70.825  1.00  0.00     2.125 C  
HETATM    5  N   UNL     1      -9.542  14.268  69.876  1.00  0.00     0.772 NA 
HETATM    6  C   UNL     1      -8.249  12.236  70.526  1.00  0.00     5.627 C  
HETATM    7  C   UNL     1      -8.208  13.745  70.196  1.00  0.00     2.279 C  
ENDROOT
BRANCH   5   8
HETATM    8  C   UNL     1      -9.783  15.026  68.725  1.00  0.00    -0.227 C  
HETATM    9  N   UNL     1      -9.370  16.266  68.688  1.00  0.00    -0.210 NA 
HETATM   10  C   UNL     1      -9.520  17.119  67.577  1.00  0.00    -0.247 A  
HETATM   11  H   UNL     1      -8.908  16.641  69.516  1.00  0.00     0.000 HD 
HETATM   12  C   UNL     1      -9.807  18.462  67.853  1.00  0.00    -0.348 A  
HETATM   13  C   UNL     1      -9.924  19.395  66.823  1.00  0.00    -0.378 A  
HETATM   14  C   UNL     1      -9.729  19.014  65.498  1.00  0.00     0.678 A  
HETATM   15 CL   UNL     1     -10.324  21.029  67.181  1.00  0.00     0.320 Cl 
HETATM   16  C   UNL     1      -9.408  17.690  65.206  1.00  0.00     1.610 A  
HETATM   17  C   UNL     1      -9.301  16.735  66.234  1.00  0.00    -0.279 A  
HETATM   18  N   UNL     1      -9.130  15.373  65.869  1.00  0.00    -0.430 NA 
HETATM   19  C   UNL     1     -10.112  14.445  66.278  1.00  0.00    -0.297 A  
HETATM   20  H   UNL     1      -8.321  15.074  65.326  1.00  0.00     0.000 HD 
HETATM   21  C   UNL     1     -10.789  13.694  65.304  1.00  0.00    -0.324 A  
HETATM   22  C   UNL     1     -11.886  12.900  65.646  1.00  0.00    -0.464 A  
HETATM   23  C   UNL     1     -12.330  12.854  66.964  1.00  0.00     0.056 A  
HETATM   24  C   UNL     1     -11.660  13.582  67.944  1.00  0.00    -0.377 A  
HETATM   25  C   UNL     1     -10.539  14.360  67.609  1.00  0.00    -0.260 A  
ENDBRANCH   5   8
TORSDOF 1
ENDMDL
MODEL      180
REMARK 921   NORMALIZED FREE ENERGY PREDICTED BY IDOCK:   72.42 KCAL/MOL
REMARK 922        TOTAL FREE ENERGY PREDICTED BY IDOCK:   76.27 KCAL/MOL
REMARK 923 INTER-LIGAND FREE ENERGY PREDICTED BY IDOCK:   75.94 KCAL/MOL
REMARK 924 INTRA-LIGAND FREE ENERGY PREDICTED BY IDOCK:    0.34 KCAL/MOL
REMARK 927      BINDING AFFINITY PREDICTED BY RF-SCORE:    0.00 PKD
ROOT
HETATM    1  C   UNL     1     -10.660  14.373  74.055  1.00  0.00     5.056 C  
HETATM    2  N   UNL     1     -10.624  14.383  72.595  1.00  0.00     3.059 NA 
HETATM    3  C   UNL     1      -9.421  13.704  72.070  1.00  0.00    11.906 C  
HETATM    4  C   UNL     1      -9.412  12.166  72.213  1.00  0.00    20.966 C  
HETATM    5  N   UNL     1     -10.640  11.569  71.671  1.00  0.00     5.615 NA 
HETATM    6  C   UNL     1     -11.822  13.741  72.003  1.00  0.00     1.055 C  
HETATM    7  C   UNL     1     -11.885  12.202  72.125  1.00  0.00     3.119 C  
ENDROOT
BRANCH   5   8
HETATM    8  C   UNL     1     -10.639  10.513  70.752  1.00  0.00     0.593 C  
HETATM    9  N   UNL     1      -9.552   9.801  70.611  1.00  0.00    -0.341 NA 
HETATM   10  C   UNL     1      -9.436   8.694  69.748  1.00  0.00    -0.166 A  
HETATM   11  H   UNL     1      -8.735  10.063  71.162  1.00  0.00     0.000 HD 
HETATM   12  C   UNL     1      -8.209   8.540  69.089  1.00  0.00    -0.119 A  
HETATM   13  C   UNL     1      -7.979   7.447  68.253  1.00  0.00    -0.124 A  
HETATM   14  C   UNL     1      -8.956   6.471  68.080  1.00  0.00    -0.116 A  
HETATM   15 CL   UNL     1      -6.483   7.303  67.417  1.00  0.00    -0.057 Cl 
HETATM   16  C   UNL     1     -10.170   6.588  68.754  1.00  0.00    -0.194 A  
HETATM   17  C   UNL     1     -10.421   7.692  69.589  1.00  0.00    -0.235 A  
HETATM   18  N   UNL     1     -11.728   7.844  70.124  1.00  0.00    -0.466 NA 
HETATM   19  C   UNL     1     -12.449   9.013  69.800  1.00  0.00     1.492 A  
HETATM   20  H   UNL     1     -12.134   7.128  70.726  1.00  0.00     0.000 HD 
HETATM   21  C   UNL     1     -13.692   8.892  69.159  1.00  0.00     7.783 A  
HETATM   22  C   UNL     1     -14.354  10.017  68.661  1.00  0.00    10.651 A  
HETATM   23  C   UNL     1     -13.779  11.278  68.786  1.00  0.00     6.616 A  
HETATM   24  C   UNL     1     -12.553  11.415  69.433  1.00  0.00     0.147 A  
HETATM   25  C   UNL     1     -11.898  10.290  69.960  1.00  0.00    -0.305 A  
ENDBRANCH   5   8
TORSDOF 1
ENDMDL
MODEL      181
REMARK 921   NORMALIZED FREE ENERGY PREDICTED BY IDOCK:   74.07 KCAL/MOL
REMARK 922        TOTAL FREE ENERGY PREDICTED BY IDOCK:   78.02 KCAL/MOL
REMARK 923 INTER-LIGAND FREE ENERGY PREDICTED BY IDOCK:   77.36 KCAL/MOL
REMARK 924 INTRA-LIGAND FREE ENERGY PREDICTED BY IDOCK:    0.66 KCAL/MOL
REMARK 927      BINDING AFFINITY PREDICTED BY RF-SCORE:    0.00 PKD
ROOT
HETATM    1  C   UNL     1     -12.175  13.285  73.840  1.00  0.00     5.491 C  
HETATM    2  N   UNL     1     -11.262  12.223  74.256  1.00  0.00    14.982 NA 
HETATM    3  C   UNL     1     -11.945  10.916  74.349  1.00  0.00    20.655 C  
HETATM    4  C   UNL     1     -12.327  10.270  72.999  1.00  0.00     3.565 C  
HETATM    5  N   UNL     1     -11.175  10.206  72.088  1.00  0.00     1.379 NA 
HETATM    6  C   UNL     1     -10.110  12.087  73.334  1.00  0.00    23.797 C  
HETATM    7  C   UNL     1     -10.425  11.461  71.956  1.00  0.00     9.538 C  
ENDROOT
BRANCH   5   8
HETATM    8  C   UNL     1     -10.781   9.035  71.432  1.00  0.00    -0.331 C  
HETATM    9  N   UNL     1     -11.174   7.882  71.906  1.00  0.00    -0.258 NA 
HETATM   10  C   UNL     1     -10.874   6.639  71.317  1.00  0.00    -0.238 A  
HETATM   11  H   UNL     1     -11.735   7.883  72.758  1.00  0.00     0.000 HD 
HETATM   12  C   UNL     1     -10.612   5.578  72.194  1.00  0.00    -0.280 A  
HETATM   13  C   UNL     1     -10.356   4.295  71.708  1.00  0.00    -0.040 A  
HETATM   14  C   UNL     1     -10.383   4.038  70.340  1.00  0.00     0.484 A  
HETATM   15 CL   UNL     1      -9.989   3.019  72.800  1.00  0.00    -0.198 Cl 
HETATM   16  C   UNL     1     -10.676   5.073  69.454  1.00  0.00     0.235 A  
HETATM   17  C   UNL     1     -10.924   6.374  69.929  1.00  0.00    -0.348 A  
HETATM   18  N   UNL     1     -11.059   7.420  68.978  1.00  0.00    -0.436 NA 
HETATM   19  C   UNL     1     -10.146   8.496  69.036  1.00  0.00    -0.199 A  
HETATM   20  H   UNL     1     -11.794   7.396  68.273  1.00  0.00     0.000 HD 
HETATM   21  C   UNL     1      -9.358   8.782  67.910  1.00  0.00    -0.155 A  
HETATM   22  C   UNL     1      -8.321   9.716  67.981  1.00  0.00    -0.117 A  
HETATM   23  C   UNL     1      -8.050  10.369  69.180  1.00  0.00    -0.151 A  
HETATM   24  C   UNL     1      -8.833  10.106  70.300  1.00  0.00     0.231 A  
HETATM   25  C   UNL     1      -9.895   9.189  70.226  1.00  0.00    -0.245 A  
ENDBRANCH   5   8
TORSDOF 1
ENDMDL
MODEL      182
REMARK 921   NORMALIZED FREE ENERGY PREDICTED BY IDOCK:   80.29 KCAL/MOL
REMARK 922        TOTAL FREE ENERGY PREDICTED BY IDOCK:   84.60 KCAL/MOL
REMARK 923 INTER-LIGAND FREE ENERGY PREDICTED BY IDOCK:   84.53 KCAL/MOL
REMARK 924 INTRA-LIGAND FREE ENERGY PREDICTED BY IDOCK:    0.07 KCAL/MOL
REMARK 927      BINDING AFFINITY PREDICTED BY RF-SCORE:    0.00 PKD
ROOT
HETATM    1  C   UNL     1     -13.927   8.977  63.263  1.00  0.00    15.911 C  
HETATM    2  N   UNL     1     -12.574   9.439  62.964  1.00  0.00    12.260 NA 
HETATM    3  C   UNL     1     -12.507  10.912  62.861  1.00  0.00     2.422 C  
HETATM    4  C   UNL     1     -12.639  11.677  64.196  1.00  0.00     0.070 C  
HETATM    5  N   UNL     1     -11.695  11.169  65.202  1.00  0.00     0.296 NA 
HETATM    6  C   UNL     1     -11.596   8.994  63.984  1.00  0.00    13.267 C  
HETATM    7  C   UNL     1     -11.682   9.708  65.351  1.00  0.00     5.761 C  
ENDROOT
BRANCH   5   8
HETATM    8  C   UNL     1     -10.833  11.996  65.931  1.00  0.00    -0.288 C  
HETATM    9  N   UNL     1     -11.092  12.223  67.192  1.00  0.00    -0.262 NA 
HETATM   10  C   UNL     1     -10.284  13.006  68.039  1.00  0.00    -0.233 A  
HETATM   11  H   UNL     1     -11.933  11.805  67.588  1.00  0.00     0.000 HD 
HETATM   12  C   UNL     1     -10.951  13.806  68.976  1.00  0.00    -0.277 A  
HETATM   13  C   UNL     1     -10.238  14.578  69.893  1.00  0.00     0.307 A  
HETATM   14  C   UNL     1      -8.845  14.547  69.913  1.00  0.00     0.762 A  
HETATM   15 CL   UNL     1     -11.076  15.589  71.003  1.00  0.00    -0.396 Cl 
HETATM   16  C   UNL     1      -8.165  13.731  69.012  1.00  0.00     0.199 A  
HETATM   17  C   UNL     1      -8.871  12.957  68.072  1.00  0.00    -0.195 A  
HETATM   18  N   UNL     1      -8.128  12.269  67.077  1.00  0.00    -0.276 NA 
HETATM   19  C   UNL     1      -8.374  12.585  65.723  1.00  0.00     1.191 A  
HETATM   20  H   UNL     1      -7.435  11.566  67.332  1.00  0.00     0.000 HD 
HETATM   21  C   UNL     1      -7.315  13.047  64.927  1.00  0.00     8.935 A  
HETATM   22  C   UNL     1      -7.547  13.539  63.640  1.00  0.00    15.517 A  
HETATM   23  C   UNL     1      -8.843  13.587  63.135  1.00  0.00     8.811 A  
HETATM   24  C   UNL     1      -9.902  13.119  63.908  1.00  0.00     0.765 A  
HETATM   25  C   UNL     1      -9.670  12.598  65.191  1.00  0.00    -0.018 A  
ENDBRANCH   5   8
TORSDOF 1
ENDMDL
