MODEL        1
REMARK 921   NORMALIZED FREE ENERGY PREDICTED BY IDOCK:   -7.91 KCAL/MOL
REMARK 922        TOTAL FREE ENERGY PREDICTED BY IDOCK:  -11.50 KCAL/MOL
REMARK 923 INTER-LIGAND FREE ENERGY PREDICTED BY IDOCK:   -9.76 KCAL/MOL
REMARK 924 INTRA-LIGAND FREE ENERGY PREDICTED BY IDOCK:   -1.75 KCAL/MOL
REMARK 927      BINDING AFFINITY PREDICTED BY RF-SCORE:    0.00 PKD
ROOT
HETATM    1  O   UNL     1      -7.007  12.941  66.715  1.00  0.00    -0.366 OA 
HETATM    2  H   UNL     1      -6.457  13.560  67.181  1.00  0.00     0.000 HD 
HETATM    3  C   UNL     1      -8.366  12.790  67.212  1.00  0.00    -0.187 C  
HETATM    4  C   UNL     1      -9.276  11.765  66.440  1.00  0.00    -0.217 C  
HETATM    5  O   UNL     1     -12.033  11.777  67.084  1.00  0.00    -0.617 OA 
HETATM    6  C   UNL     1      -8.573  11.746  68.377  1.00  0.00    -0.156 C  
HETATM    7  N   UNL     1      -9.895  11.521  67.776  1.00  0.00    -0.174 N  
HETATM    8  C   UNL     1     -11.240  11.849  68.029  1.00  0.00    -0.257 C  
ENDROOT
BRANCH   3   9
HETATM    9  C   UNL     1      -8.975  14.184  67.577  1.00  0.00    -0.198 C  
HETATM   10  C   UNL     1     -10.204  16.257  66.886  1.00  0.00    -0.288 C  
HETATM   11  C   UNL     1      -9.157  17.079  67.632  1.00  0.00    -0.229 C  
HETATM   12  H   UNL     1      -7.166  15.204  67.697  1.00  0.00     0.000 HD 
HETATM   13  C   UNL     1      -9.589  14.939  66.389  1.00  0.00    -0.317 C  
HETATM   14  C   UNL     1      -8.563  16.269  68.776  1.00  0.00    -0.240 C  
HETATM   15  N   UNL     1      -7.981  15.024  68.283  1.00  0.00    -0.123 NA 
ENDBRANCH   3   9
BRANCH   8  16
HETATM   16  C   UNL     1     -11.774  12.419  69.338  1.00  0.00    -0.384 A  
HETATM   17  C   UNL     1     -12.268  11.562  70.378  1.00  0.00    -0.355 A  
HETATM   18  C   UNL     1     -11.943  13.805  69.515  1.00  0.00    -0.399 A  
HETATM   19  C   UNL     1     -13.054  13.531  71.618  1.00  0.00    -0.374 A  
HETATM   20  F   UNL     1     -13.477  11.405  72.451  1.00  0.00    -0.552 F  
HETATM   21  F   UNL     1     -13.683  14.058  72.678  1.00  0.00    -0.524 F  
HETATM   22  C   UNL     1     -12.573  14.362  70.634  1.00  0.00    -0.424 A  
HETATM   23  C   UNL     1     -12.918  12.161  71.493  1.00  0.00    -0.295 A  
BRANCH  17  24
HETATM   24  N   UNL     1     -12.185  10.136  70.309  1.00  0.00    -0.462 NA 
HETATM   25  H   UNL     1     -12.786   9.671  69.628  1.00  0.00     0.000 HD 
BRANCH  24  26
HETATM   26  C   UNL     1     -11.345   9.301  71.100  1.00  0.00    -0.342 A  
HETATM   27  C   UNL     1     -11.855   8.499  72.122  1.00  0.00    -0.379 A  
HETATM   28  F   UNL     1     -13.179   8.451  72.342  1.00  0.00    -0.333 F  
HETATM   29  C   UNL     1     -11.009   7.787  72.983  1.00  0.00    -0.442 A  
HETATM   30  C   UNL     1      -9.628   7.873  72.812  1.00  0.00    -0.247 A  
HETATM   31  C   UNL     1      -9.093   8.650  71.787  1.00  0.00    -0.317 A  
HETATM   32  I   UNL     1      -8.347   6.859  74.098  1.00  0.00    -0.210 I  
HETATM   33  C   UNL     1      -9.951   9.347  70.930  1.00  0.00    -0.353 A  
ENDBRANCH  24  26
ENDBRANCH  17  24
ENDBRANCH   8  16
TORSDOF 4
ENDMDL
MODEL        2
REMARK 921   NORMALIZED FREE ENERGY PREDICTED BY IDOCK:   -7.85 KCAL/MOL
REMARK 922        TOTAL FREE ENERGY PREDICTED BY IDOCK:  -11.43 KCAL/MOL
REMARK 923 INTER-LIGAND FREE ENERGY PREDICTED BY IDOCK:   -9.74 KCAL/MOL
REMARK 924 INTRA-LIGAND FREE ENERGY PREDICTED BY IDOCK:   -1.69 KCAL/MOL
REMARK 927      BINDING AFFINITY PREDICTED BY RF-SCORE:    0.00 PKD
ROOT
HETATM    1  O   UNL     1      -7.453  15.686  66.345  1.00  0.00    -0.201 OA 
HETATM    2  H   UNL     1      -6.839  16.274  66.770  1.00  0.00     0.000 HD 
HETATM    3  C   UNL     1      -8.674  15.396  67.080  1.00  0.00    -0.229 C  
HETATM    4  C   UNL     1      -9.690  14.423  66.377  1.00  0.00    -0.302 C  
HETATM    5  O   UNL     1     -12.254  14.193  67.556  1.00  0.00    -0.370 OA 
HETATM    6  C   UNL     1      -8.603  14.204  68.113  1.00  0.00    -0.175 C  
HETATM    7  N   UNL     1     -10.012  13.978  67.764  1.00  0.00    -0.232 N  
HETATM    8  C   UNL     1     -11.286  14.193  68.323  1.00  0.00    -0.272 C  
ENDROOT
BRANCH   3   9
HETATM    9  C   UNL     1      -9.239  16.695  67.743  1.00  0.00    -0.214 C  
HETATM   10  C   UNL     1     -10.802  18.655  67.677  1.00  0.00    -0.347 C  
HETATM   11  C   UNL     1      -9.637  19.547  68.098  1.00  0.00    -0.457 C  
HETATM   12  H   UNL     1      -7.591  17.897  67.339  1.00  0.00     0.000 HD 
HETATM   13  C   UNL     1     -10.281  17.437  66.895  1.00  0.00    -0.322 C  
HETATM   14  C   UNL     1      -8.623  18.749  68.907  1.00  0.00    -0.199 C  
HETATM   15  N   UNL     1      -8.140  17.601  68.146  1.00  0.00    -0.243 NA 
ENDBRANCH   3   9
BRANCH   8  16
HETATM   16  C   UNL     1     -11.556  14.563  69.777  1.00  0.00    -0.345 A  
HETATM   17  C   UNL     1     -12.319  13.703  70.637  1.00  0.00    -0.368 A  
HETATM   18  C   UNL     1     -11.200  15.826  70.287  1.00  0.00    -0.377 A  
HETATM   19  C   UNL     1     -12.308  15.439  72.374  1.00  0.00    -0.381 A  
HETATM   20  F   UNL     1     -13.476  13.464  72.731  1.00  0.00    -0.601 F  
HETATM   21  F   UNL     1     -12.685  15.867  73.587  1.00  0.00    -0.490 F  
HETATM   22  C   UNL     1     -11.566  16.266  71.564  1.00  0.00    -0.435 A  
HETATM   23  C   UNL     1     -12.688  14.189  71.922  1.00  0.00    -0.320 A  
BRANCH  17  24
HETATM   24  N   UNL     1     -12.769  12.407  70.231  1.00  0.00     0.088 NA 
HETATM   25  H   UNL     1     -13.478  12.374  69.499  1.00  0.00     0.000 HD 
BRANCH  24  26
HETATM   26  C   UNL     1     -12.322  11.159  70.752  1.00  0.00    -0.406 A  
HETATM   27  C   UNL     1     -11.163  10.538  70.284  1.00  0.00    -0.313 A  
HETATM   28  F   UNL     1     -10.401  11.145  69.360  1.00  0.00    -0.233 F  
HETATM   29  C   UNL     1     -10.805   9.250  70.702  1.00  0.00    -0.339 A  
HETATM   30  C   UNL     1     -11.617   8.574  71.613  1.00  0.00    -0.299 A  
HETATM   31  C   UNL     1     -12.768   9.179  72.112  1.00  0.00    -0.467 A  
HETATM   32  I   UNL     1     -11.133   6.647  72.222  1.00  0.00    -0.342 I  
HETATM   33  C   UNL     1     -13.107  10.470  71.692  1.00  0.00    -0.551 A  
ENDBRANCH  24  26
ENDBRANCH  17  24
ENDBRANCH   8  16
TORSDOF 4
ENDMDL
MODEL        3
REMARK 921   NORMALIZED FREE ENERGY PREDICTED BY IDOCK:   -7.56 KCAL/MOL
REMARK 922        TOTAL FREE ENERGY PREDICTED BY IDOCK:  -11.07 KCAL/MOL
REMARK 923 INTER-LIGAND FREE ENERGY PREDICTED BY IDOCK:   -9.58 KCAL/MOL
REMARK 924 INTRA-LIGAND FREE ENERGY PREDICTED BY IDOCK:   -1.50 KCAL/MOL
REMARK 927      BINDING AFFINITY PREDICTED BY RF-SCORE:    0.00 PKD
ROOT
HETATM    1  O   UNL     1      -6.873  12.578  66.933  1.00  0.00    -0.366 OA 
HETATM    2  H   UNL     1      -6.314  13.121  67.477  1.00  0.00     0.000 HD 
HETATM    3  C   UNL     1      -8.251  12.433  67.376  1.00  0.00    -0.180 C  
HETATM    4  C   UNL     1      -9.177  11.536  66.476  1.00  0.00    -0.194 C  
HETATM    5  O   UNL     1     -11.950  11.595  67.048  1.00  0.00    -0.593 OA 
HETATM    6  C   UNL     1      -8.534  11.279  68.416  1.00  0.00    -0.153 C  
HETATM    7  N   UNL     1      -9.845  11.176  67.761  1.00  0.00    -0.169 N  
HETATM    8  C   UNL     1     -11.183  11.531  68.013  1.00  0.00    -0.269 C  
ENDROOT
BRANCH   3   9
HETATM    9  C   UNL     1      -8.816  13.804  67.876  1.00  0.00    -0.186 C  
HETATM   10  C   UNL     1      -9.966  15.978  67.387  1.00  0.00    -0.241 C  
HETATM   11  C   UNL     1      -8.898  16.684  68.218  1.00  0.00    -0.214 C  
HETATM   12  H   UNL     1      -6.974  14.742  68.108  1.00  0.00     0.000 HD 
HETATM   13  C   UNL     1      -9.391  14.694  66.765  1.00  0.00    -0.275 C  
HETATM   14  C   UNL     1      -8.344  15.744  69.279  1.00  0.00    -0.249 C  
HETATM   15  N   UNL     1      -7.801  14.534  68.669  1.00  0.00    -0.135 NA 
ENDBRANCH   3   9
BRANCH   8  16
HETATM   16  C   UNL     1     -11.733  11.980  69.363  1.00  0.00    -0.402 A  
HETATM   17  C   UNL     1     -12.274  11.036  70.299  1.00  0.00    -0.363 A  
HETATM   18  C   UNL     1     -11.870  13.345  69.679  1.00  0.00    -0.394 A  
HETATM   19  C   UNL     1     -13.037  12.889  71.718  1.00  0.00    -0.360 A  
HETATM   20  F   UNL     1     -13.535  10.701  72.319  1.00  0.00    -0.524 F  
HETATM   21  F   UNL     1     -13.677  13.322  72.814  1.00  0.00    -0.615 F  
HETATM   22  C   UNL     1     -12.511  13.802  70.835  1.00  0.00    -0.451 A  
HETATM   23  C   UNL     1     -12.933  11.536  71.456  1.00  0.00    -0.380 A  
BRANCH  17  24
HETATM   24  N   UNL     1     -12.227   9.622  70.086  1.00  0.00    -0.460 NA 
HETATM   25  H   UNL     1     -12.524   9.284  69.170  1.00  0.00     0.000 HD 
BRANCH  24  26
HETATM   26  C   UNL     1     -11.805   8.641  71.028  1.00  0.00    -0.265 A  
HETATM   27  C   UNL     1     -10.527   8.660  71.590  1.00  0.00    -0.296 A  
HETATM   28  F   UNL     1      -9.677   9.656  71.293  1.00  0.00    -0.310 F  
HETATM   29  C   UNL     1     -10.074   7.618  72.410  1.00  0.00    -0.265 A  
HETATM   30  C   UNL     1     -10.918   6.542  72.679  1.00  0.00    -0.255 A  
HETATM   31  C   UNL     1     -12.205   6.508  72.148  1.00  0.00    -0.277 A  
HETATM   32  I   UNL     1     -10.260   4.962  73.859  1.00  0.00    -0.352 I  
HETATM   33  C   UNL     1     -12.647   7.560  71.340  1.00  0.00    -0.382 A  
ENDBRANCH  24  26
ENDBRANCH  17  24
ENDBRANCH   8  16
TORSDOF 4
ENDMDL
MODEL        4
REMARK 921   NORMALIZED FREE ENERGY PREDICTED BY IDOCK:   -7.33 KCAL/MOL
REMARK 922        TOTAL FREE ENERGY PREDICTED BY IDOCK:  -10.79 KCAL/MOL
REMARK 923 INTER-LIGAND FREE ENERGY PREDICTED BY IDOCK:   -9.02 KCAL/MOL
REMARK 924 INTRA-LIGAND FREE ENERGY PREDICTED BY IDOCK:   -1.78 KCAL/MOL
REMARK 927      BINDING AFFINITY PREDICTED BY RF-SCORE:    0.00 PKD
ROOT
HETATM    1  O   UNL     1      -6.905  12.902  66.745  1.00  0.00    -0.388 OA 
HETATM    2  H   UNL     1      -6.358  13.482  67.262  1.00  0.00     0.000 HD 
HETATM    3  C   UNL     1      -8.273  12.729  67.209  1.00  0.00    -0.181 C  
HETATM    4  C   UNL     1      -9.178  11.769  66.354  1.00  0.00    -0.217 C  
HETATM    5  O   UNL     1     -11.945  11.760  66.954  1.00  0.00    -0.605 OA 
HETATM    6  C   UNL     1      -8.507  11.608  68.296  1.00  0.00    -0.160 C  
HETATM    7  N   UNL     1      -9.821  11.437  67.659  1.00  0.00    -0.174 N  
HETATM    8  C   UNL     1     -11.167  11.759  67.913  1.00  0.00    -0.267 C  
ENDROOT
BRANCH   3   9
HETATM    9  C   UNL     1      -8.877  14.099  67.662  1.00  0.00    -0.194 C  
HETATM   10  C   UNL     1      -9.597  16.436  67.107  1.00  0.00    -0.239 C  
HETATM   11  C   UNL     1      -8.863  16.916  68.357  1.00  0.00    -0.244 C  
HETATM   12  H   UNL     1      -7.187  14.777  68.669  1.00  0.00     0.000 HD 
HETATM   13  C   UNL     1      -8.931  15.164  66.558  1.00  0.00    -0.326 C  
HETATM   14  C   UNL     1      -8.814  15.810  69.401  1.00  0.00    -0.237 C  
HETATM   15  N   UNL     1      -8.176  14.613  68.861  1.00  0.00    -0.158 NA 
ENDBRANCH   3   9
BRANCH   8  16
HETATM   16  C   UNL     1     -11.718  12.241  69.251  1.00  0.00    -0.388 A  
HETATM   17  C   UNL     1     -12.230  11.317  70.223  1.00  0.00    -0.345 A  
HETATM   18  C   UNL     1     -11.885  13.612  69.520  1.00  0.00    -0.394 A  
HETATM   19  C   UNL     1     -13.027  13.200  71.583  1.00  0.00    -0.335 A  
HETATM   20  F   UNL     1     -13.469  11.024  72.263  1.00  0.00    -0.549 F  
HETATM   21  F   UNL     1     -13.669  13.656  72.668  1.00  0.00    -0.561 F  
HETATM   22  C   UNL     1     -12.529  14.094  70.665  1.00  0.00    -0.432 A  
HETATM   23  C   UNL     1     -12.893  11.841  71.367  1.00  0.00    -0.335 A  
BRANCH  17  24
HETATM   24  N   UNL     1     -12.152   9.898  70.058  1.00  0.00    -0.473 NA 
HETATM   25  H   UNL     1     -12.968   9.435  69.658  1.00  0.00     0.000 HD 
BRANCH  24  26
HETATM   26  C   UNL     1     -11.044   9.070  70.398  1.00  0.00    -0.244 A  
HETATM   27  C   UNL     1     -10.387   8.291  69.445  1.00  0.00    -0.222 A  
HETATM   28  F   UNL     1     -10.755   8.354  68.155  1.00  0.00    -0.248 F  
HETATM   29  C   UNL     1      -9.388   7.378  69.810  1.00  0.00    -0.146 A  
HETATM   30  C   UNL     1      -9.035   7.250  71.152  1.00  0.00    -0.147 A  
HETATM   31  C   UNL     1      -9.660   8.031  72.122  1.00  0.00    -0.277 A  
HETATM   32  I   UNL     1      -7.585   5.876  71.730  1.00  0.00    -0.098 I  
HETATM   33  C   UNL     1     -10.648   8.944  71.740  1.00  0.00    -0.432 A  
ENDBRANCH  24  26
ENDBRANCH  17  24
ENDBRANCH   8  16
TORSDOF 4
ENDMDL
MODEL        5
REMARK 921   NORMALIZED FREE ENERGY PREDICTED BY IDOCK:   -7.31 KCAL/MOL
REMARK 922        TOTAL FREE ENERGY PREDICTED BY IDOCK:  -10.76 KCAL/MOL
REMARK 923 INTER-LIGAND FREE ENERGY PREDICTED BY IDOCK:   -9.56 KCAL/MOL
REMARK 924 INTRA-LIGAND FREE ENERGY PREDICTED BY IDOCK:   -1.20 KCAL/MOL
REMARK 927      BINDING AFFINITY PREDICTED BY RF-SCORE:    0.00 PKD
ROOT
HETATM    1  O   UNL     1     -11.403  11.092  63.816  1.00  0.00    -0.503 OA 
HETATM    2  H   UNL     1     -11.661  10.246  64.162  1.00  0.00     0.000 HD 
HETATM    3  C   UNL     1     -11.242  12.160  64.790  1.00  0.00    -0.323 C  
HETATM    4  C   UNL     1     -10.815  13.562  64.217  1.00  0.00    -0.322 C  
HETATM    5  O   UNL     1     -10.057  15.530  66.106  1.00  0.00    -0.271 OA 
HETATM    6  C   UNL     1     -12.546  12.968  65.165  1.00  0.00    -0.469 C  
HETATM    7  N   UNL     1     -11.641  14.114  65.330  1.00  0.00    -0.325 N  
HETATM    8  C   UNL     1     -11.058  14.857  66.373  1.00  0.00    -0.342 C  
ENDROOT
BRANCH   3   9
HETATM    9  C   UNL     1     -10.509  11.634  66.067  1.00  0.00    -0.251 C  
HETATM   10  C   UNL     1      -8.446  10.704  67.150  1.00  0.00    -0.128 C  
HETATM   11  C   UNL     1      -9.325   9.661  67.835  1.00  0.00    -0.141 C  
HETATM   12  H   UNL     1     -11.473   9.793  66.147  1.00  0.00     0.000 HD 
HETATM   13  C   UNL     1      -9.078  11.135  65.816  1.00  0.00    -0.222 C  
HETATM   14  C   UNL     1     -10.736  10.199  68.029  1.00  0.00    -0.260 C  
HETATM   15  N   UNL     1     -11.318  10.600  66.751  1.00  0.00    -0.154 NA 
ENDBRANCH   3   9
BRANCH   8  16
HETATM   16  C   UNL     1     -11.475  14.793  67.838  1.00  0.00    -0.361 A  
HETATM   17  C   UNL     1     -11.316  15.922  68.710  1.00  0.00    -0.378 A  
HETATM   18  C   UNL     1     -11.890  13.583  68.427  1.00  0.00    -0.408 A  
HETATM   19  C   UNL     1     -11.963  14.528  70.626  1.00  0.00    -0.319 A  
HETATM   20  F   UNL     1     -11.334  16.737  70.972  1.00  0.00    -0.361 F  
HETATM   21  F   UNL     1     -12.166  14.392  71.943  1.00  0.00    -0.372 F  
HETATM   22  C   UNL     1     -12.131  13.443  69.798  1.00  0.00    -0.374 A  
HETATM   23  C   UNL     1     -11.554  15.739  70.101  1.00  0.00    -0.357 A  
BRANCH  17  24
HETATM   24  N   UNL     1     -10.873  17.201  68.245  1.00  0.00    -0.357 NA 
HETATM   25  H   UNL     1     -11.520  17.727  67.656  1.00  0.00     0.000 HD 
BRANCH  24  26
HETATM   26  C   UNL     1      -9.617  17.810  68.526  1.00  0.00    -0.322 A  
HETATM   27  C   UNL     1      -9.478  19.195  68.636  1.00  0.00    -0.405 A  
HETATM   28  F   UNL     1     -10.557  19.989  68.539  1.00  0.00    -0.540 F  
HETATM   29  C   UNL     1      -8.219  19.794  68.776  1.00  0.00    -0.208 A  
HETATM   30  C   UNL     1      -7.079  18.992  68.815  1.00  0.00    -0.318 A  
HETATM   31  C   UNL     1      -7.191  17.606  68.728  1.00  0.00    -0.268 A  
HETATM   32  I   UNL     1      -5.195  19.854  68.982  1.00  0.00    -0.245 I  
HETATM   33  C   UNL     1      -8.456  17.022  68.598  1.00  0.00    -0.262 A  
ENDBRANCH  24  26
ENDBRANCH  17  24
ENDBRANCH   8  16
TORSDOF 4
ENDMDL
MODEL        6
REMARK 921   NORMALIZED FREE ENERGY PREDICTED BY IDOCK:   -7.29 KCAL/MOL
REMARK 922        TOTAL FREE ENERGY PREDICTED BY IDOCK:  -10.74 KCAL/MOL
REMARK 923 INTER-LIGAND FREE ENERGY PREDICTED BY IDOCK:   -9.12 KCAL/MOL
REMARK 924 INTRA-LIGAND FREE ENERGY PREDICTED BY IDOCK:   -1.62 KCAL/MOL
REMARK 927      BINDING AFFINITY PREDICTED BY RF-SCORE:    0.00 PKD
ROOT
HETATM    1  O   UNL     1      -8.754   8.148  70.704  1.00  0.00    -0.129 OA 
HETATM    2  H   UNL     1      -8.058   7.567  70.419  1.00  0.00     0.000 HD 
HETATM    3  C   UNL     1      -9.435   8.894  69.657  1.00  0.00    -0.168 C  
HETATM    4  C   UNL     1     -10.586   9.855  70.130  1.00  0.00    -0.297 C  
HETATM    5  O   UNL     1     -12.222  10.970  68.105  1.00  0.00    -0.578 OA 
HETATM    6  C   UNL     1      -8.776  10.265  69.234  1.00  0.00    -0.174 C  
HETATM    7  N   UNL     1     -10.154  10.710  68.985  1.00  0.00    -0.205 N  
HETATM    8  C   UNL     1     -11.006  10.948  67.890  1.00  0.00    -0.271 C  
ENDROOT
BRANCH   3   9
HETATM    9  C   UNL     1      -9.702   7.980  68.416  1.00  0.00    -0.158 C  
HETATM   10  C   UNL     1     -11.026   6.156  67.317  1.00  0.00    -0.418 C  
HETATM   11  C   UNL     1      -9.710   5.526  66.868  1.00  0.00    -0.163 C  
HETATM   12  H   UNL     1      -8.063   6.730  68.690  1.00  0.00     0.000 HD 
HETATM   13  C   UNL     1     -10.819   6.946  68.620  1.00  0.00    -0.236 C  
HETATM   14  C   UNL     1      -8.636   6.594  66.714  1.00  0.00    -0.118 C  
HETATM   15  N   UNL     1      -8.452   7.329  67.962  1.00  0.00    -0.123 NA 
ENDBRANCH   3   9
BRANCH   8  16
HETATM   16  C   UNL     1     -10.560  11.044  66.435  1.00  0.00    -0.308 A  
HETATM   17  C   UNL     1     -11.011  12.109  65.585  1.00  0.00    -0.295 A  
HETATM   18  C   UNL     1      -9.814  10.015  65.830  1.00  0.00    -0.330 A  
HETATM   19  C   UNL     1      -9.967  11.005  63.656  1.00  0.00    -0.361 A  
HETATM   20  F   UNL     1     -11.179  12.961  63.343  1.00  0.00    -0.467 F  
HETATM   21  F   UNL     1      -9.710  10.968  62.341  1.00  0.00    -0.248 F  
HETATM   22  C   UNL     1      -9.518   9.986  64.463  1.00  0.00    -0.359 A  
HETATM   23  C   UNL     1     -10.707  12.040  64.197  1.00  0.00    -0.357 A  
BRANCH  17  24
HETATM   24  N   UNL     1     -11.801  13.201  66.067  1.00  0.00    -0.386 NA 
HETATM   25  H   UNL     1     -12.815  13.086  66.035  1.00  0.00     0.000 HD 
BRANCH  24  26
HETATM   26  C   UNL     1     -11.309  14.432  66.586  1.00  0.00    -0.353 A  
HETATM   27  C   UNL     1     -11.547  14.823  67.905  1.00  0.00    -0.351 A  
HETATM   28  F   UNL     1     -12.204  14.003  68.741  1.00  0.00    -0.373 F  
HETATM   29  C   UNL     1     -11.178  16.093  68.369  1.00  0.00    -0.358 A  
HETATM   30  C   UNL     1     -10.552  16.984  67.498  1.00  0.00    -0.310 A  
HETATM   31  C   UNL     1     -10.284  16.612  66.183  1.00  0.00    -0.360 A  
HETATM   32  I   UNL     1     -10.028  18.889  68.145  1.00  0.00    -0.504 I  
HETATM   33  C   UNL     1     -10.649  15.338  65.738  1.00  0.00    -0.359 A  
ENDBRANCH  24  26
ENDBRANCH  17  24
ENDBRANCH   8  16
TORSDOF 4
ENDMDL
MODEL        7
REMARK 921   NORMALIZED FREE ENERGY PREDICTED BY IDOCK:   -7.01 KCAL/MOL
REMARK 922        TOTAL FREE ENERGY PREDICTED BY IDOCK:  -10.40 KCAL/MOL
REMARK 923 INTER-LIGAND FREE ENERGY PREDICTED BY IDOCK:   -8.76 KCAL/MOL
REMARK 924 INTRA-LIGAND FREE ENERGY PREDICTED BY IDOCK:   -1.64 KCAL/MOL
REMARK 927      BINDING AFFINITY PREDICTED BY RF-SCORE:    0.00 PKD
ROOT
HETATM    1  O   UNL     1     -10.974  16.446  64.321  1.00  0.00    -1.132 OA 
HETATM    2  H   UNL     1     -10.186  16.969  64.418  1.00  0.00     0.000 HD 
HETATM    3  C   UNL     1     -10.984  15.168  65.015  1.00  0.00    -0.430 C  
HETATM    4  C   UNL     1     -12.288  14.303  64.854  1.00  0.00    -0.425 C  
HETATM    5  O   UNL     1     -12.528  12.039  66.538  1.00  0.00    -0.081 OA 
HETATM    6  C   UNL     1     -10.355  13.945  64.239  1.00  0.00     0.189 C  
HETATM    7  N   UNL     1     -11.361  13.138  64.942  1.00  0.00    -0.301 N  
HETATM    8  C   UNL     1     -11.425  12.233  66.018  1.00  0.00    -0.381 C  
ENDROOT
BRANCH   3   9
HETATM    9  C   UNL     1     -10.371  15.314  66.446  1.00  0.00    -0.289 C  
HETATM   10  C   UNL     1      -9.941  16.710  68.484  1.00  0.00    -0.261 C  
HETATM   11  C   UNL     1      -8.491  16.233  68.456  1.00  0.00    -0.206 C  
HETATM   12  H   UNL     1      -8.388  15.458  65.835  1.00  0.00     0.000 HD 
HETATM   13  C   UNL     1     -10.526  16.712  67.062  1.00  0.00    -0.283 C  
HETATM   14  C   UNL     1      -8.397  14.859  67.808  1.00  0.00    -0.157 C  
HETATM   15  N   UNL     1      -8.954  14.883  66.458  1.00  0.00    -0.271 NA 
ENDBRANCH   3   9
BRANCH   8  16
HETATM   16  C   UNL     1     -10.222  11.576  66.687  1.00  0.00    -0.254 A  
HETATM   17  C   UNL     1     -10.285  11.108  68.042  1.00  0.00    -0.181 A  
HETATM   18  C   UNL     1      -8.965  11.540  66.055  1.00  0.00    -0.181 A  
HETATM   19  C   UNL     1      -7.872  10.657  67.993  1.00  0.00    -0.105 A  
HETATM   20  F   UNL     1      -9.066  10.310  69.955  1.00  0.00    -0.214 F  
HETATM   21  F   UNL     1      -6.756  10.251  68.615  1.00  0.00    -0.052 F  
HETATM   22  C   UNL     1      -7.802  11.090  66.690  1.00  0.00    -0.153 A  
HETATM   23  C   UNL     1      -9.081  10.674  68.662  1.00  0.00    -0.170 A  
BRANCH  17  24
HETATM   24  N   UNL     1     -11.494  11.118  68.807  1.00  0.00    -0.271 NA 
HETATM   25  H   UNL     1     -12.154  10.359  68.636  1.00  0.00     0.000 HD 
BRANCH  24  26
HETATM   26  C   UNL     1     -11.864  12.084  69.786  1.00  0.00    -0.331 A  
HETATM   27  C   UNL     1     -12.620  11.743  70.909  1.00  0.00    -0.289 A  
HETATM   28  F   UNL     1     -12.966  10.464  71.123  1.00  0.00    -0.391 F  
HETATM   29  C   UNL     1     -13.095  12.720  71.794  1.00  0.00    -0.455 A  
HETATM   30  C   UNL     1     -12.801  14.062  71.555  1.00  0.00    -0.362 A  
HETATM   31  C   UNL     1     -12.031  14.428  70.453  1.00  0.00    -0.395 A  
HETATM   32  I   UNL     1     -13.525  15.538  72.827  1.00  0.00    -0.593 I  
HETATM   33  C   UNL     1     -11.556  13.440  69.584  1.00  0.00    -0.334 A  
ENDBRANCH  24  26
ENDBRANCH  17  24
ENDBRANCH   8  16
TORSDOF 4
ENDMDL
MODEL        8
REMARK 921   NORMALIZED FREE ENERGY PREDICTED BY IDOCK:   -6.96 KCAL/MOL
REMARK 922        TOTAL FREE ENERGY PREDICTED BY IDOCK:  -10.33 KCAL/MOL
REMARK 923 INTER-LIGAND FREE ENERGY PREDICTED BY IDOCK:   -8.72 KCAL/MOL
REMARK 924 INTRA-LIGAND FREE ENERGY PREDICTED BY IDOCK:   -1.60 KCAL/MOL
REMARK 927      BINDING AFFINITY PREDICTED BY RF-SCORE:    0.00 PKD
ROOT
HETATM    1  O   UNL     1      -7.436  17.078  65.614  1.00  0.00    -0.121 OA 
HETATM    2  H   UNL     1      -6.913  17.665  66.146  1.00  0.00     0.000 HD 
HETATM    3  C   UNL     1      -8.564  16.444  66.280  1.00  0.00    -0.340 C  
HETATM    4  C   UNL     1      -9.431  15.471  65.399  1.00  0.00     0.002 C  
HETATM    5  O   UNL     1     -11.874  14.580  66.517  1.00  0.00    -0.383 OA 
HETATM    6  C   UNL     1      -8.257  15.101  67.051  1.00  0.00    -0.228 C  
HETATM    7  N   UNL     1      -9.621  14.713  66.670  1.00  0.00    -0.264 N  
HETATM    8  C   UNL     1     -10.891  14.593  67.265  1.00  0.00    -0.305 C  
ENDROOT
BRANCH   3   9
HETATM    9  C   UNL     1      -9.310  17.471  67.193  1.00  0.00    -0.250 C  
HETATM   10  C   UNL     1     -10.902  19.394  67.437  1.00  0.00    -0.555 C  
HETATM   11  C   UNL     1      -9.892  20.060  68.368  1.00  0.00    -0.436 C  
HETATM   12  H   UNL     1      -7.665  18.686  67.570  1.00  0.00     0.000 HD 
HETATM   13  C   UNL     1     -10.177  18.484  66.431  1.00  0.00    -0.449 C  
HETATM   14  C   UNL     1      -9.043  19.009  69.069  1.00  0.00    -0.199 C  
HETATM   15  N   UNL     1      -8.361  18.159  68.097  1.00  0.00    -0.269 NA 
ENDBRANCH   3   9
BRANCH   8  16
HETATM   16  C   UNL     1     -11.164  14.617  68.765  1.00  0.00    -0.285 A  
HETATM   17  C   UNL     1     -11.818  13.521  69.422  1.00  0.00    -0.335 A  
HETATM   18  C   UNL     1     -10.922  15.772  69.533  1.00  0.00    -0.295 A  
HETATM   19  C   UNL     1     -11.940  14.841  71.489  1.00  0.00    -0.353 A  
HETATM   20  F   UNL     1     -12.898  12.727  71.418  1.00  0.00    -0.433 F  
HETATM   21  F   UNL     1     -12.330  14.961  72.766  1.00  0.00    -0.379 F  
HETATM   22  C   UNL     1     -11.302  15.892  70.874  1.00  0.00    -0.428 A  
HETATM   23  C   UNL     1     -12.205  13.684  70.781  1.00  0.00    -0.347 A  
BRANCH  17  24
HETATM   24  N   UNL     1     -12.148  12.302  68.749  1.00  0.00    -0.210 NA 
HETATM   25  H   UNL     1     -13.095  12.221  68.379  1.00  0.00     0.000 HD 
BRANCH  24  26
HETATM   26  C   UNL     1     -11.280  11.191  68.546  1.00  0.00    -0.258 A  
HETATM   27  C   UNL     1     -10.939  10.323  69.585  1.00  0.00    -0.270 A  
HETATM   28  F   UNL     1     -11.480  10.487  70.803  1.00  0.00    -0.362 F  
HETATM   29  C   UNL     1      -9.981   9.316  69.411  1.00  0.00    -0.184 A  
HETATM   30  C   UNL     1      -9.359   9.169  68.171  1.00  0.00    -0.138 A  
HETATM   31  C   UNL     1      -9.696  10.008  67.112  1.00  0.00    -0.217 A  
HETATM   32  I   UNL     1      -7.905   7.710  67.893  1.00  0.00    -0.120 I  
HETATM   33  C   UNL     1     -10.661  11.003  67.299  1.00  0.00    -0.312 A  
ENDBRANCH  24  26
ENDBRANCH  17  24
ENDBRANCH   8  16
TORSDOF 4
ENDMDL
MODEL        9
REMARK 921   NORMALIZED FREE ENERGY PREDICTED BY IDOCK:   -6.89 KCAL/MOL
REMARK 922        TOTAL FREE ENERGY PREDICTED BY IDOCK:  -10.24 KCAL/MOL
REMARK 923 INTER-LIGAND FREE ENERGY PREDICTED BY IDOCK:   -8.39 KCAL/MOL
REMARK 924 INTRA-LIGAND FREE ENERGY PREDICTED BY IDOCK:   -1.85 KCAL/MOL
REMARK 927      BINDING AFFINITY PREDICTED BY RF-SCORE:    0.00 PKD
ROOT
HETATM    1  O   UNL     1      -8.607  17.845  68.738  1.00  0.00    -0.281 OA 
HETATM    2  H   UNL     1      -7.832  17.832  68.189  1.00  0.00     0.000 HD 
HETATM    3  C   UNL     1      -9.504  16.707  68.607  1.00  0.00    -0.249 C  
HETATM    4  C   UNL     1     -10.786  16.728  69.518  1.00  0.00    -0.273 C  
HETATM    5  O   UNL     1     -12.308  14.343  69.624  1.00  0.00    -0.317 OA 
HETATM    6  C   UNL     1     -10.592  16.802  67.468  1.00  0.00    -0.309 C  
HETATM    7  N   UNL     1     -11.438  16.018  68.378  1.00  0.00    -0.362 N  
HETATM    8  C   UNL     1     -11.904  14.697  68.512  1.00  0.00    -0.311 C  
ENDROOT
BRANCH   3   9
HETATM    9  C   UNL     1      -8.691  15.374  68.512  1.00  0.00    -0.178 C  
HETATM   10  C   UNL     1      -6.763  13.957  69.262  1.00  0.00    -0.108 C  
HETATM   11  C   UNL     1      -6.463  13.659  67.795  1.00  0.00    -0.178 C  
HETATM   12  H   UNL     1      -7.776  15.789  66.691  1.00  0.00     0.000 HD 
HETATM   13  C   UNL     1      -7.437  15.332  69.397  1.00  0.00    -0.212 C  
HETATM   14  C   UNL     1      -7.735  13.746  66.965  1.00  0.00     0.190 C  
HETATM   15  N   UNL     1      -8.357  15.060  67.104  1.00  0.00    -0.204 NA 
ENDBRANCH   3   9
BRANCH   8  16
HETATM   16  C   UNL     1     -11.824  13.623  67.432  1.00  0.00    -0.429 A  
HETATM   17  C   UNL     1     -11.033  12.439  67.615  1.00  0.00    -0.236 A  
HETATM   18  C   UNL     1     -12.398  13.821  66.162  1.00  0.00    -0.496 A  
HETATM   19  C   UNL     1     -11.446  11.810  65.277  1.00  0.00    -0.186 A  
HETATM   20  F   UNL     1     -10.055  10.495  66.592  1.00  0.00    -0.228 F  
HETATM   21  F   UNL     1     -11.247  10.973  64.250  1.00  0.00    -0.381 F  
HETATM   22  C   UNL     1     -12.217  12.934  65.095  1.00  0.00    -0.519 A  
HETATM   23  C   UNL     1     -10.857  11.569  66.503  1.00  0.00    -0.288 A  
BRANCH  17  24
HETATM   24  N   UNL     1     -10.372  12.133  68.846  1.00  0.00    -0.400 NA 
HETATM   25  H   UNL     1      -9.719  12.831  69.204  1.00  0.00     0.000 HD 
BRANCH  24  26
HETATM   26  C   UNL     1     -10.538  10.949  69.620  1.00  0.00    -0.129 A  
HETATM   27  C   UNL     1     -11.689  10.717  70.374  1.00  0.00    -0.353 A  
HETATM   28  F   UNL     1     -12.707  11.593  70.335  1.00  0.00    -0.303 F  
HETATM   29  C   UNL     1     -11.788   9.618  71.237  1.00  0.00    -0.460 A  
HETATM   30  C   UNL     1     -10.717   8.730  71.341  1.00  0.00    -0.286 A  
HETATM   31  C   UNL     1      -9.564   8.927  70.584  1.00  0.00    -0.262 A  
HETATM   32  I   UNL     1     -10.818   7.113  72.643  1.00  0.00    -0.401 I  
HETATM   33  C   UNL     1      -9.485  10.024  69.720  1.00  0.00    -0.239 A  
ENDBRANCH  24  26
ENDBRANCH  17  24
ENDBRANCH   8  16
TORSDOF 4
ENDMDL
MODEL       10
REMARK 921   NORMALIZED FREE ENERGY PREDICTED BY IDOCK:   -6.84 KCAL/MOL
REMARK 922        TOTAL FREE ENERGY PREDICTED BY IDOCK:  -10.18 KCAL/MOL
REMARK 923 INTER-LIGAND FREE ENERGY PREDICTED BY IDOCK:   -8.91 KCAL/MOL
REMARK 924 INTRA-LIGAND FREE ENERGY PREDICTED BY IDOCK:   -1.27 KCAL/MOL
REMARK 927      BINDING AFFINITY PREDICTED BY RF-SCORE:    0.00 PKD
ROOT
HETATM    1  O   UNL     1     -11.990  15.499  63.966  1.00  0.00    -0.918 OA 
HETATM    2  H   UNL     1     -11.287  16.047  63.636  1.00  0.00     0.000 HD 
HETATM    3  C   UNL     1     -11.599  14.442  64.886  1.00  0.00    -0.395 C  
HETATM    4  C   UNL     1     -12.762  13.535  65.433  1.00  0.00    -0.442 C  
HETATM    5  O   UNL     1     -12.111  11.776  67.554  1.00  0.00    -0.599 OA 
HETATM    6  C   UNL     1     -11.150  13.076  64.233  1.00  0.00    -0.385 C  
HETATM    7  N   UNL     1     -11.733  12.454  65.429  1.00  0.00    -0.389 N  
HETATM    8  C   UNL     1     -11.299  11.855  66.627  1.00  0.00    -0.337 C  
ENDROOT
BRANCH   3   9
HETATM    9  C   UNL     1     -10.534  14.966  65.905  1.00  0.00    -0.315 C  
HETATM   10  C   UNL     1      -9.942  15.712  68.225  1.00  0.00    -0.213 C  
HETATM   11  C   UNL     1      -9.208  16.902  67.612  1.00  0.00    -0.228 C  
HETATM   12  H   UNL     1     -10.453  16.912  65.176  1.00  0.00     0.000 HD 
HETATM   13  C   UNL     1     -11.090  15.266  67.305  1.00  0.00    -0.325 C  
HETATM   14  C   UNL     1      -8.709  16.556  66.217  1.00  0.00    -0.333 C  
HETATM   15  N   UNL     1      -9.814  16.138  65.358  1.00  0.00    -0.472 NA 
ENDBRANCH   3   9
BRANCH   8  16
HETATM   16  C   UNL     1      -9.868  11.421  66.924  1.00  0.00    -0.218 A  
HETATM   17  C   UNL     1      -9.580  10.126  67.473  1.00  0.00    -0.156 A  
HETATM   18  C   UNL     1      -8.793  12.323  66.813  1.00  0.00    -0.195 A  
HETATM   19  C   UNL     1      -7.229  10.778  67.760  1.00  0.00    -0.088 A  
HETATM   20  F   UNL     1      -7.942   8.694  68.496  1.00  0.00    -0.107 F  
HETATM   21  F   UNL     1      -5.990  10.489  68.180  1.00  0.00    -0.044 F  
HETATM   22  C   UNL     1      -7.491  12.016  67.223  1.00  0.00    -0.158 A  
HETATM   23  C   UNL     1      -8.249   9.854  67.894  1.00  0.00    -0.113 A  
BRANCH  17  24
HETATM   24  N   UNL     1     -10.585   9.127  67.666  1.00  0.00    -0.358 NA 
HETATM   25  H   UNL     1     -11.224   8.959  66.888  1.00  0.00     0.000 HD 
BRANCH  24  26
HETATM   26  C   UNL     1     -10.781   8.344  68.839  1.00  0.00    -0.068 A  
HETATM   27  C   UNL     1     -10.863   8.923  70.106  1.00  0.00    -0.231 A  
HETATM   28  F   UNL     1     -10.820  10.259  70.239  1.00  0.00    -0.295 F  
HETATM   29  C   UNL     1     -10.918   8.139  71.266  1.00  0.00    -0.281 A  
HETATM   30  C   UNL     1     -10.900   6.749  71.155  1.00  0.00    -0.238 A  
HETATM   31  C   UNL     1     -10.839   6.145  69.901  1.00  0.00    -0.420 A  
HETATM   32  I   UNL     1     -10.941   5.559  72.859  1.00  0.00    -0.347 I  
HETATM   33  C   UNL     1     -10.794   6.942  68.752  1.00  0.00    -0.238 A  
ENDBRANCH  24  26
ENDBRANCH  17  24
ENDBRANCH   8  16
TORSDOF 4
ENDMDL
MODEL       11
REMARK 921   NORMALIZED FREE ENERGY PREDICTED BY IDOCK:   -6.83 KCAL/MOL
REMARK 922        TOTAL FREE ENERGY PREDICTED BY IDOCK:  -10.18 KCAL/MOL
REMARK 923 INTER-LIGAND FREE ENERGY PREDICTED BY IDOCK:   -9.01 KCAL/MOL
REMARK 924 INTRA-LIGAND FREE ENERGY PREDICTED BY IDOCK:   -1.16 KCAL/MOL
REMARK 927      BINDING AFFINITY PREDICTED BY RF-SCORE:    0.00 PKD
ROOT
HETATM    1  O   UNL     1      -8.420  11.337  63.907  1.00  0.00    -0.356 OA 
HETATM    2  H   UNL     1      -8.365  12.249  63.648  1.00  0.00     0.000 HD 
HETATM    3  C   UNL     1      -9.197  11.058  65.105  1.00  0.00    -0.205 C  
HETATM    4  C   UNL     1      -9.288   9.548  65.535  1.00  0.00    -0.255 C  
HETATM    5  O   UNL     1     -11.145   8.917  67.578  1.00  0.00    -0.020 OA 
HETATM    6  C   UNL     1      -8.427  11.163  66.479  1.00  0.00    -0.165 C  
HETATM    7  N   UNL     1      -9.323  10.088  66.925  1.00  0.00    -0.156 N  
HETATM    8  C   UNL     1     -10.459   9.931  67.742  1.00  0.00    -0.242 C  
ENDROOT
BRANCH   3   9
HETATM    9  C   UNL     1     -10.510  11.907  65.119  1.00  0.00    -0.287 C  
HETATM   10  C   UNL     1     -12.699  12.526  64.063  1.00  0.00    -0.416 C  
HETATM   11  C   UNL     1     -12.341  13.995  64.277  1.00  0.00    -0.393 C  
HETATM   12  H   UNL     1      -9.634  13.701  64.536  1.00  0.00     0.000 HD 
HETATM   13  C   UNL     1     -11.420  11.687  63.902  1.00  0.00    -0.433 C  
HETATM   14  C   UNL     1     -11.414  14.146  65.475  1.00  0.00    -0.324 C  
HETATM   15  N   UNL     1     -10.206  13.345  65.301  1.00  0.00    -0.310 NA 
ENDBRANCH   3   9
BRANCH   8  16
HETATM   16  C   UNL     1     -10.991  10.974  68.718  1.00  0.00    -0.270 A  
HETATM   17  C   UNL     1     -11.786  10.598  69.852  1.00  0.00    -0.315 A  
HETATM   18  C   UNL     1     -10.851  12.351  68.463  1.00  0.00    -0.270 A  
HETATM   19  C   UNL     1     -12.227  12.968  70.322  1.00  0.00    -0.296 A  
HETATM   20  F   UNL     1     -13.226  11.331  71.633  1.00  0.00    -0.487 F  
HETATM   21  F   UNL     1     -12.832  13.910  71.059  1.00  0.00    -0.368 F  
HETATM   22  C   UNL     1     -11.457  13.340  69.246  1.00  0.00    -0.345 A  
HETATM   23  C   UNL     1     -12.400  11.628  70.616  1.00  0.00    -0.344 A  
BRANCH  17  24
HETATM   24  N   UNL     1     -12.031   9.234  70.206  1.00  0.00    -0.467 NA 
HETATM   25  H   UNL     1     -12.911   8.825  69.888  1.00  0.00     0.000 HD 
BRANCH  24  26
HETATM   26  C   UNL     1     -11.165   8.390  70.959  1.00  0.00    -0.266 A  
HETATM   27  C   UNL     1     -11.301   7.000  70.952  1.00  0.00    -0.295 A  
HETATM   28  F   UNL     1     -12.229   6.419  70.175  1.00  0.00    -0.444 F  
HETATM   29  C   UNL     1     -10.536   6.187  71.799  1.00  0.00    -0.268 A  
HETATM   30  C   UNL     1      -9.611   6.775  72.661  1.00  0.00    -0.145 A  
HETATM   31  C   UNL     1      -9.440   8.158  72.673  1.00  0.00    -0.346 A  
HETATM   32  I   UNL     1      -8.490   5.599  73.957  1.00  0.00    -0.112 I  
HETATM   33  C   UNL     1     -10.205   8.955  71.815  1.00  0.00    -0.414 A  
ENDBRANCH  24  26
ENDBRANCH  17  24
ENDBRANCH   8  16
TORSDOF 4
ENDMDL
MODEL       12
REMARK 921   NORMALIZED FREE ENERGY PREDICTED BY IDOCK:   -6.70 KCAL/MOL
REMARK 922        TOTAL FREE ENERGY PREDICTED BY IDOCK:  -10.01 KCAL/MOL
REMARK 923 INTER-LIGAND FREE ENERGY PREDICTED BY IDOCK:   -8.99 KCAL/MOL
REMARK 924 INTRA-LIGAND FREE ENERGY PREDICTED BY IDOCK:   -1.02 KCAL/MOL
REMARK 927      BINDING AFFINITY PREDICTED BY RF-SCORE:    0.00 PKD
ROOT
HETATM    1  O   UNL     1     -11.975  16.037  63.933  1.00  0.00    -1.267 OA 
HETATM    2  H   UNL     1     -11.248  16.584  63.657  1.00  0.00     0.000 HD 
HETATM    3  C   UNL     1     -11.633  14.883  64.750  1.00  0.00    -0.410 C  
HETATM    4  C   UNL     1     -12.835  13.978  65.208  1.00  0.00    -0.384 C  
HETATM    5  O   UNL     1     -12.269  12.002  67.155  1.00  0.00    -0.505 OA 
HETATM    6  C   UNL     1     -11.238  13.567  63.972  1.00  0.00    -0.232 C  
HETATM    7  N   UNL     1     -11.853  12.860  65.104  1.00  0.00    -0.357 N  
HETATM    8  C   UNL     1     -11.450  12.134  66.240  1.00  0.00    -0.374 C  
ENDROOT
BRANCH   3   9
HETATM    9  C   UNL     1     -10.552  15.264  65.815  1.00  0.00    -0.347 C  
HETATM   10  C   UNL     1      -9.954  15.847  68.180  1.00  0.00    -0.222 C  
HETATM   11  C   UNL     1      -9.106  16.995  67.640  1.00  0.00    -0.229 C  
HETATM   12  H   UNL     1     -10.285  17.227  65.182  1.00  0.00     0.000 HD 
HETATM   13  C   UNL     1     -11.114  15.546  67.215  1.00  0.00    -0.271 C  
HETATM   14  C   UNL     1      -8.604  16.671  66.240  1.00  0.00    -0.324 C  
HETATM   15  N   UNL     1      -9.720  16.392  65.340  1.00  0.00    -0.447 NA 
ENDBRANCH   3   9
BRANCH   8  16
HETATM   16  C   UNL     1     -10.040  11.614  66.496  1.00  0.00    -0.239 A  
HETATM   17  C   UNL     1      -9.476  11.605  67.817  1.00  0.00    -0.178 A  
HETATM   18  C   UNL     1      -9.186  11.265  65.433  1.00  0.00    -0.202 A  
HETATM   19  C   UNL     1      -7.305  10.941  66.879  1.00  0.00    -0.128 A  
HETATM   20  F   UNL     1      -7.498  11.343  69.158  1.00  0.00    -0.109 F  
HETATM   21  F   UNL     1      -6.008  10.652  67.052  1.00  0.00    -0.050 F  
HETATM   22  C   UNL     1      -7.838  10.933  65.612  1.00  0.00    -0.011 A  
HETATM   23  C   UNL     1      -8.099  11.280  67.959  1.00  0.00    -0.128 A  
BRANCH  17  24
HETATM   24  N   UNL     1     -10.226  11.967  68.980  1.00  0.00    -0.417 NA 
HETATM   25  H   UNL     1     -10.111  12.920  69.325  1.00  0.00     0.000 HD 
BRANCH  24  26
HETATM   26  C   UNL     1     -11.119  11.124  69.702  1.00  0.00    -0.232 A  
HETATM   27  C   UNL     1     -12.229  11.634  70.378  1.00  0.00    -0.347 A  
HETATM   28  F   UNL     1     -12.515  12.944  70.308  1.00  0.00    -0.354 F  
HETATM   29  C   UNL     1     -13.023  10.820  71.197  1.00  0.00    -0.467 A  
HETATM   30  C   UNL     1     -12.706   9.469  71.334  1.00  0.00    -0.358 A  
HETATM   31  C   UNL     1     -11.616   8.930  70.654  1.00  0.00    -0.251 A  
HETATM   32  I   UNL     1     -13.841   8.245  72.572  1.00  0.00     0.152 I  
HETATM   33  C   UNL     1     -10.838   9.754  69.833  1.00  0.00    -0.306 A  
ENDBRANCH  24  26
ENDBRANCH  17  24
ENDBRANCH   8  16
TORSDOF 4
ENDMDL
MODEL       13
REMARK 921   NORMALIZED FREE ENERGY PREDICTED BY IDOCK:   -6.68 KCAL/MOL
REMARK 922        TOTAL FREE ENERGY PREDICTED BY IDOCK:   -9.98 KCAL/MOL
REMARK 923 INTER-LIGAND FREE ENERGY PREDICTED BY IDOCK:   -9.19 KCAL/MOL
REMARK 924 INTRA-LIGAND FREE ENERGY PREDICTED BY IDOCK:   -0.80 KCAL/MOL
REMARK 927      BINDING AFFINITY PREDICTED BY RF-SCORE:    0.00 PKD
ROOT
HETATM    1  O   UNL     1      -8.945  20.809  67.265  1.00  0.00    -0.506 OA 
HETATM    2  H   UNL     1      -8.560  21.032  66.426  1.00  0.00     0.000 HD 
HETATM    3  C   UNL     1      -9.331  19.418  67.443  1.00  0.00    -0.315 C  
HETATM    4  C   UNL     1      -9.969  19.048  68.833  1.00  0.00    -0.398 C  
HETATM    5  O   UNL     1     -10.312  16.292  69.382  1.00  0.00    -0.245 OA 
HETATM    6  C   UNL     1     -10.772  19.021  66.935  1.00  0.00    -0.399 C  
HETATM    7  N   UNL     1     -10.767  18.061  68.048  1.00  0.00    -0.344 N  
HETATM    8  C   UNL     1     -10.616  16.676  68.248  1.00  0.00    -0.338 C  
ENDROOT
BRANCH   3   9
HETATM    9  C   UNL     1      -8.237  18.464  66.860  1.00  0.00    -0.247 C  
HETATM   10  C   UNL     1      -6.324  16.884  67.227  1.00  0.00    -0.203 C  
HETATM   11  C   UNL     1      -5.561  17.616  66.126  1.00  0.00    -0.241 C  
HETATM   12  H   UNL     1      -6.967  19.961  66.172  1.00  0.00     0.000 HD 
HETATM   13  C   UNL     1      -7.311  17.842  67.915  1.00  0.00    -0.222 C  
HETATM   14  C   UNL     1      -6.530  18.237  65.131  1.00  0.00     0.042 C  
HETATM   15  N   UNL     1      -7.455  19.145  65.803  1.00  0.00    -0.447 NA 
ENDBRANCH   3   9
BRANCH   8  16
HETATM   16  C   UNL     1     -10.660  15.620  67.150  1.00  0.00    -0.308 A  
HETATM   17  C   UNL     1     -10.434  14.232  67.439  1.00  0.00    -0.264 A  
HETATM   18  C   UNL     1     -10.775  15.981  65.794  1.00  0.00    -0.310 A  
HETATM   19  C   UNL     1     -10.433  13.736  65.034  1.00  0.00    -0.402 A  
HETATM   20  F   UNL     1     -10.009  12.036  66.558  1.00  0.00    -0.201 F  
HETATM   21  F   UNL     1     -10.298  12.856  64.033  1.00  0.00    -0.388 F  
HETATM   22  C   UNL     1     -10.663  15.061  64.745  1.00  0.00    -0.354 A  
HETATM   23  C   UNL     1     -10.309  13.328  66.349  1.00  0.00    -0.286 A  
BRANCH  17  24
HETATM   24  N   UNL     1     -10.271  13.738  68.772  1.00  0.00    -0.350 NA 
HETATM   25  H   UNL     1      -9.517  14.144  69.326  1.00  0.00     0.000 HD 
BRANCH  24  26
HETATM   26  C   UNL     1     -11.061  12.732  69.399  1.00  0.00    -0.065 A  
HETATM   27  C   UNL     1     -12.168  13.050  70.188  1.00  0.00    -0.272 A  
HETATM   28  F   UNL     1     -12.552  14.329  70.323  1.00  0.00    -0.367 F  
HETATM   29  C   UNL     1     -12.856  12.066  70.911  1.00  0.00    -0.205 A  
HETATM   30  C   UNL     1     -12.434  10.739  70.836  1.00  0.00    -0.402 A  
HETATM   31  C   UNL     1     -11.345  10.392  70.040  1.00  0.00    -0.384 A  
HETATM   32  I   UNL     1     -13.410   9.264  71.928  1.00  0.00    -0.570 I  
HETATM   33  C   UNL     1     -10.674  11.383  69.317  1.00  0.00    -0.195 A  
ENDBRANCH  24  26
ENDBRANCH  17  24
ENDBRANCH   8  16
TORSDOF 4
ENDMDL
MODEL       14
REMARK 921   NORMALIZED FREE ENERGY PREDICTED BY IDOCK:   -6.65 KCAL/MOL
REMARK 922        TOTAL FREE ENERGY PREDICTED BY IDOCK:   -9.96 KCAL/MOL
REMARK 923 INTER-LIGAND FREE ENERGY PREDICTED BY IDOCK:   -8.28 KCAL/MOL
REMARK 924 INTRA-LIGAND FREE ENERGY PREDICTED BY IDOCK:   -1.67 KCAL/MOL
REMARK 927      BINDING AFFINITY PREDICTED BY RF-SCORE:    0.00 PKD
ROOT
HETATM    1  O   UNL     1     -10.656  17.365  69.789  1.00  0.00    -0.296 OA 
HETATM    2  H   UNL     1     -10.443  17.579  70.690  1.00  0.00     0.000 HD 
HETATM    3  C   UNL     1     -10.980  15.973  69.521  1.00  0.00    -0.326 C  
HETATM    4  C   UNL     1     -11.334  15.619  68.030  1.00  0.00    -0.324 C  
HETATM    5  O   UNL     1     -12.400  13.039  67.554  1.00  0.00    -0.220 OA 
HETATM    6  C   UNL     1      -9.760  15.017  69.216  1.00  0.00    -0.190 C  
HETATM    7  N   UNL     1     -10.696  14.305  68.335  1.00  0.00    -0.244 N  
HETATM    8  C   UNL     1     -11.443  13.112  68.331  1.00  0.00    -0.315 C  
ENDROOT
BRANCH   3   9
HETATM    9  C   UNL     1     -11.892  15.392  70.651  1.00  0.00    -0.351 C  
HETATM   10  C   UNL     1     -14.182  14.858  71.523  1.00  0.00    -0.617 C  
HETATM   11  C   UNL     1     -13.773  15.472  72.859  1.00  0.00    -0.599 C  
HETATM   12  H   UNL     1     -11.682  16.992  71.963  1.00  0.00     0.000 HD 
HETATM   13  C   UNL     1     -13.398  15.515  70.375  1.00  0.00     0.067 C  
HETATM   14  C   UNL     1     -12.269  15.349  73.061  1.00  0.00    -0.432 C  
HETATM   15  N   UNL     1     -11.544  15.982  71.963  1.00  0.00    -0.447 NA 
ENDBRANCH   3   9
BRANCH   8  16
HETATM   16  C   UNL     1     -11.253  11.954  69.304  1.00  0.00    -0.304 A  
HETATM   17  C   UNL     1     -10.131  11.065  69.196  1.00  0.00    -0.146 A  
HETATM   18  C   UNL     1     -12.245  11.622  70.246  1.00  0.00    -0.401 A  
HETATM   19  C   UNL     1     -11.112   9.626  70.929  1.00  0.00    -0.352 A  
HETATM   20  F   UNL     1      -9.132   8.992  69.894  1.00  0.00    -0.140 F  
HETATM   21  F   UNL     1     -11.063   8.515  71.676  1.00  0.00    -0.279 F  
HETATM   22  C   UNL     1     -12.185  10.478  71.050  1.00  0.00    -0.505 A  
HETATM   23  C   UNL     1     -10.111   9.903  70.016  1.00  0.00    -0.260 A  
BRANCH  17  24
HETATM   24  N   UNL     1      -9.070  11.270  68.260  1.00  0.00    -0.166 NA 
HETATM   25  H   UNL     1      -8.333  11.921  68.533  1.00  0.00     0.000 HD 
BRANCH  24  26
HETATM   26  C   UNL     1      -8.942  10.653  66.982  1.00  0.00    -0.137 A  
HETATM   27  C   UNL     1      -7.888   9.787  66.684  1.00  0.00    -0.109 A  
HETATM   28  F   UNL     1      -6.993   9.466  67.633  1.00  0.00    -0.076 F  
HETATM   29  C   UNL     1      -7.693   9.293  65.388  1.00  0.00    -0.099 A  
HETATM   30  C   UNL     1      -8.574   9.665  64.373  1.00  0.00    -0.191 A  
HETATM   31  C   UNL     1      -9.646  10.511  64.647  1.00  0.00    -0.349 A  
HETATM   32  I   UNL     1      -8.288   8.980  62.431  1.00  0.00    -0.197 I  
HETATM   33  C   UNL     1      -9.833  10.989  65.949  1.00  0.00    -0.278 A  
ENDBRANCH  24  26
ENDBRANCH  17  24
ENDBRANCH   8  16
TORSDOF 4
ENDMDL
MODEL       15
REMARK 921   NORMALIZED FREE ENERGY PREDICTED BY IDOCK:   -6.64 KCAL/MOL
REMARK 922        TOTAL FREE ENERGY PREDICTED BY IDOCK:   -9.94 KCAL/MOL
REMARK 923 INTER-LIGAND FREE ENERGY PREDICTED BY IDOCK:   -8.50 KCAL/MOL
REMARK 924 INTRA-LIGAND FREE ENERGY PREDICTED BY IDOCK:   -1.44 KCAL/MOL
REMARK 927      BINDING AFFINITY PREDICTED BY RF-SCORE:    0.00 PKD
ROOT
HETATM    1  O   UNL     1     -13.401  12.315  64.666  1.00  0.00    -0.717 OA 
HETATM    2  H   UNL     1     -13.524  11.464  65.069  1.00  0.00     0.000 HD 
HETATM    3  C   UNL     1     -12.249  13.078  65.122  1.00  0.00    -0.459 C  
HETATM    4  C   UNL     1     -12.045  14.488  64.456  1.00  0.00    -0.484 C  
HETATM    5  O   UNL     1      -9.590  15.798  64.978  1.00  0.00    -0.195 OA 
HETATM    6  C   UNL     1     -12.465  13.972  66.406  1.00  0.00    -0.355 C  
HETATM    7  N   UNL     1     -11.495  14.884  65.785  1.00  0.00    -0.320 N  
HETATM    8  C   UNL     1     -10.144  15.251  65.936  1.00  0.00    -0.334 C  
ENDROOT
BRANCH   3   9
HETATM    9  C   UNL     1     -11.000  12.150  65.275  1.00  0.00    -0.304 C  
HETATM   10  C   UNL     1      -9.243  10.696  64.232  1.00  0.00    -0.265 C  
HETATM   11  C   UNL     1      -9.528   9.650  65.306  1.00  0.00    -0.342 C  
HETATM   12  H   UNL     1     -12.025  10.504  66.026  1.00  0.00     0.000 HD 
HETATM   13  C   UNL     1     -10.503  11.534  63.960  1.00  0.00    -0.424 C  
HETATM   14  C   UNL     1     -10.045  10.316  66.572  1.00  0.00    -0.231 C  
HETATM   15  N   UNL     1     -11.244  11.103  66.293  1.00  0.00    -0.168 NA 
ENDBRANCH   3   9
BRANCH   8  16
HETATM   16  C   UNL     1      -9.269  14.905  67.135  1.00  0.00    -0.231 A  
HETATM   17  C   UNL     1      -8.620  15.929  67.905  1.00  0.00    -0.163 A  
HETATM   18  C   UNL     1      -8.942  13.571  67.440  1.00  0.00    -0.219 A  
HETATM   19  C   UNL     1      -7.395  14.205  69.154  1.00  0.00    -0.067 A  
HETATM   20  F   UNL     1      -6.976  16.449  69.581  1.00  0.00    -0.223 F  
HETATM   21  F   UNL     1      -6.490  13.872  70.085  1.00  0.00    -0.139 F  
HETATM   22  C   UNL     1      -8.020  13.216  68.431  1.00  0.00    -0.130 A  
HETATM   23  C   UNL     1      -7.677  15.533  68.893  1.00  0.00    -0.175 A  
BRANCH  17  24
HETATM   24  N   UNL     1      -8.842  17.324  67.679  1.00  0.00    -0.218 NA 
HETATM   25  H   UNL     1      -9.659  17.740  68.126  1.00  0.00     0.000 HD 
BRANCH  24  26
HETATM   26  C   UNL     1      -8.031  18.188  66.888  1.00  0.00    -0.232 A  
HETATM   27  C   UNL     1      -8.386  19.517  66.649  1.00  0.00    -0.318 A  
HETATM   28  F   UNL     1      -9.488  20.031  67.219  1.00  0.00    -0.391 F  
HETATM   29  C   UNL     1      -7.657  20.319  65.761  1.00  0.00    -0.173 A  
HETATM   30  C   UNL     1      -6.547  19.785  65.108  1.00  0.00    -0.280 A  
HETATM   31  C   UNL     1      -6.158  18.468  65.345  1.00  0.00    -0.301 A  
HETATM   32  I   UNL     1      -5.469  20.938  63.756  1.00  0.00    -0.314 I  
HETATM   33  C   UNL     1      -6.891  17.682  66.241  1.00  0.00    -0.322 A  
ENDBRANCH  24  26
ENDBRANCH  17  24
ENDBRANCH   8  16
TORSDOF 4
ENDMDL
MODEL       16
REMARK 921   NORMALIZED FREE ENERGY PREDICTED BY IDOCK:   -6.56 KCAL/MOL
REMARK 922        TOTAL FREE ENERGY PREDICTED BY IDOCK:   -9.84 KCAL/MOL
REMARK 923 INTER-LIGAND FREE ENERGY PREDICTED BY IDOCK:   -8.23 KCAL/MOL
REMARK 924 INTRA-LIGAND FREE ENERGY PREDICTED BY IDOCK:   -1.61 KCAL/MOL
REMARK 927      BINDING AFFINITY PREDICTED BY RF-SCORE:    0.00 PKD
ROOT
HETATM    1  O   UNL     1      -7.492   4.717  69.523  1.00  0.00    -0.055 OA 
HETATM    2  H   UNL     1      -7.968   3.915  69.705  1.00  0.00     0.000 HD 
HETATM    3  C   UNL     1      -8.141   5.953  69.934  1.00  0.00    -0.116 C  
HETATM    4  C   UNL     1      -7.353   7.281  69.634  1.00  0.00    -0.088 C  
HETATM    5  O   UNL     1      -8.361   9.650  70.813  1.00  0.00    -0.264 OA 
HETATM    6  C   UNL     1      -9.150   6.590  68.900  1.00  0.00    -0.131 C  
HETATM    7  N   UNL     1      -8.707   7.879  69.448  1.00  0.00    -0.137 N  
HETATM    8  C   UNL     1      -9.188   8.881  70.312  1.00  0.00    -0.185 C  
ENDROOT
BRANCH   3   9
HETATM    9  C   UNL     1      -8.795   5.788  71.345  1.00  0.00    -0.140 C  
HETATM   10  C   UNL     1      -8.559   5.656  73.838  1.00  0.00    -0.118 C  
HETATM   11  C   UNL     1      -9.482   4.440  73.821  1.00  0.00    -0.128 C  
HETATM   12  H   UNL     1      -9.161   3.746  71.195  1.00  0.00     0.000 HD 
HETATM   13  C   UNL     1      -7.794   5.759  72.508  1.00  0.00    -0.102 C  
HETATM   14  C   UNL     1     -10.428   4.509  72.631  1.00  0.00    -0.195 C  
HETATM   15  N   UNL     1      -9.682   4.603  71.379  1.00  0.00    -0.169 NA 
ENDBRANCH   3   9
BRANCH   8  16
HETATM   16  C   UNL     1     -10.630   9.010  70.792  1.00  0.00    -0.300 A  
HETATM   17  C   UNL     1     -11.341  10.253  70.693  1.00  0.00    -0.347 A  
HETATM   18  C   UNL     1     -11.265   7.962  71.485  1.00  0.00    -0.286 A  
HETATM   19  C   UNL     1     -13.192   9.291  71.988  1.00  0.00    -0.447 A  
HETATM   20  F   UNL     1     -13.281  11.518  71.337  1.00  0.00    -0.460 F  
HETATM   21  F   UNL     1     -14.387   9.429  72.578  1.00  0.00    -0.429 F  
HETATM   22  C   UNL     1     -12.526   8.092  72.078  1.00  0.00    -0.357 A  
HETATM   23  C   UNL     1     -12.613  10.354  71.322  1.00  0.00    -0.419 A  
BRANCH  17  24
HETATM   24  N   UNL     1     -10.797  11.404  70.041  1.00  0.00    -0.403 NA 
HETATM   25  H   UNL     1     -10.235  12.036  70.612  1.00  0.00     0.000 HD 
BRANCH  24  26
HETATM   26  C   UNL     1     -10.965  11.754  68.670  1.00  0.00    -0.224 A  
HETATM   27  C   UNL     1     -11.751  12.839  68.278  1.00  0.00    -0.344 A  
HETATM   28  F   UNL     1     -12.326  13.623  69.204  1.00  0.00    -0.365 F  
HETATM   29  C   UNL     1     -12.022  13.094  66.927  1.00  0.00    -0.421 A  
HETATM   30  C   UNL     1     -11.487  12.254  65.951  1.00  0.00    -0.376 A  
HETATM   31  C   UNL     1     -10.682  11.177  66.314  1.00  0.00    -0.298 A  
HETATM   32  I   UNL     1     -11.903  12.583  63.941  1.00  0.00    -0.682 I  
HETATM   33  C   UNL     1     -10.414  10.941  67.666  1.00  0.00    -0.244 A  
ENDBRANCH  24  26
ENDBRANCH  17  24
ENDBRANCH   8  16
TORSDOF 4
ENDMDL
MODEL       17
REMARK 921   NORMALIZED FREE ENERGY PREDICTED BY IDOCK:   -6.56 KCAL/MOL
REMARK 922        TOTAL FREE ENERGY PREDICTED BY IDOCK:   -9.84 KCAL/MOL
REMARK 923 INTER-LIGAND FREE ENERGY PREDICTED BY IDOCK:   -8.35 KCAL/MOL
REMARK 924 INTRA-LIGAND FREE ENERGY PREDICTED BY IDOCK:   -1.49 KCAL/MOL
REMARK 927      BINDING AFFINITY PREDICTED BY RF-SCORE:    0.00 PKD
ROOT
HETATM    1  O   UNL     1      -8.863   6.936  65.318  1.00  0.00    -0.361 OA 
HETATM    2  H   UNL     1      -9.337   6.116  65.241  1.00  0.00     0.000 HD 
HETATM    3  C   UNL     1      -9.066   7.679  66.552  1.00  0.00    -0.167 C  
HETATM    4  C   UNL     1      -8.281   9.037  66.679  1.00  0.00    -0.118 C  
HETATM    5  O   UNL     1      -8.292  10.277  69.225  1.00  0.00    -0.141 OA 
HETATM    6  C   UNL     1     -10.304   8.658  66.585  1.00  0.00    -0.232 C  
HETATM    7  N   UNL     1      -9.469   9.491  67.461  1.00  0.00    -0.130 N  
HETATM    8  C   UNL     1      -9.365   9.812  68.827  1.00  0.00    -0.150 C  
ENDROOT
BRANCH   3   9
HETATM    9  C   UNL     1      -9.068   6.713  67.782  1.00  0.00    -0.113 C  
HETATM   10  C   UNL     1      -8.149   4.691  68.947  1.00  0.00    -0.081 C  
HETATM   11  C   UNL     1      -9.583   4.257  69.237  1.00  0.00    -0.261 C  
HETATM   12  H   UNL     1     -10.834   5.727  67.300  1.00  0.00     0.000 HD 
HETATM   13  C   UNL     1      -8.099   5.528  67.658  1.00  0.00    -0.101 C  
HETATM   14  C   UNL     1     -10.499   5.469  69.317  1.00  0.00    -0.266 C  
HETATM   15  N   UNL     1     -10.440   6.248  68.083  1.00  0.00    -0.199 NA 
ENDBRANCH   3   9
BRANCH   8  16
HETATM   16  C   UNL     1     -10.419   9.506  69.885  1.00  0.00    -0.269 A  
HETATM   17  C   UNL     1     -11.719  10.113  69.839  1.00  0.00    -0.179 A  
HETATM   18  C   UNL     1     -10.109   8.739  71.024  1.00  0.00    -0.301 A  
HETATM   19  C   UNL     1     -12.234   9.160  72.044  1.00  0.00    -0.373 A  
HETATM   20  F   UNL     1     -13.780  10.544  71.001  1.00  0.00    -0.257 F  
HETATM   21  F   UNL     1     -13.076   9.019  73.077  1.00  0.00    -0.449 F  
HETATM   22  C   UNL     1     -10.996   8.564  72.092  1.00  0.00    -0.427 A  
HETATM   23  C   UNL     1     -12.588   9.927  70.950  1.00  0.00    -0.302 A  
BRANCH  17  24
HETATM   24  N   UNL     1     -12.149  10.939  68.754  1.00  0.00    -0.763 NA 
HETATM   25  H   UNL     1     -12.713  10.493  68.029  1.00  0.00     0.000 HD 
BRANCH  24  26
HETATM   26  C   UNL     1     -11.867  12.325  68.587  1.00  0.00    -0.305 A  
HETATM   27  C   UNL     1     -11.719  12.900  67.323  1.00  0.00    -0.373 A  
HETATM   28  F   UNL     1     -11.904  12.156  66.220  1.00  0.00    -0.421 F  
HETATM   29  C   UNL     1     -11.308  14.230  67.169  1.00  0.00    -0.352 A  
HETATM   30  C   UNL     1     -11.049  15.002  68.301  1.00  0.00    -0.286 A  
HETATM   31  C   UNL     1     -11.208  14.460  69.574  1.00  0.00    -0.294 A  
HETATM   32  I   UNL     1     -10.399  16.967  68.105  1.00  0.00    -0.389 I  
HETATM   33  C   UNL     1     -11.629  13.133  69.711  1.00  0.00    -0.291 A  
ENDBRANCH  24  26
ENDBRANCH  17  24
ENDBRANCH   8  16
TORSDOF 4
ENDMDL
MODEL       18
REMARK 921   NORMALIZED FREE ENERGY PREDICTED BY IDOCK:   -6.56 KCAL/MOL
REMARK 922        TOTAL FREE ENERGY PREDICTED BY IDOCK:   -9.83 KCAL/MOL
REMARK 923 INTER-LIGAND FREE ENERGY PREDICTED BY IDOCK:   -8.20 KCAL/MOL
REMARK 924 INTRA-LIGAND FREE ENERGY PREDICTED BY IDOCK:   -1.64 KCAL/MOL
REMARK 927      BINDING AFFINITY PREDICTED BY RF-SCORE:    0.00 PKD
ROOT
HETATM    1  O   UNL     1      -8.511   6.014  73.941  1.00  0.00    -0.117 OA 
HETATM    2  H   UNL     1      -7.621   5.757  73.728  1.00  0.00     0.000 HD 
HETATM    3  C   UNL     1      -9.255   6.680  72.883  1.00  0.00    -0.135 C  
HETATM    4  C   UNL     1     -10.728   7.105  73.235  1.00  0.00    -0.361 C  
HETATM    5  O   UNL     1     -12.344   7.987  71.084  1.00  0.00    -0.294 OA 
HETATM    6  C   UNL     1      -9.074   8.246  72.780  1.00  0.00    -0.262 C  
HETATM    7  N   UNL     1     -10.469   8.254  72.319  1.00  0.00    -0.295 N  
HETATM    8  C   UNL     1     -11.183   8.405  71.116  1.00  0.00    -0.263 C  
ENDROOT
BRANCH   3   9
HETATM    9  C   UNL     1      -8.999   5.983  71.507  1.00  0.00    -0.143 C  
HETATM   10  C   UNL     1      -9.688   4.317  69.764  1.00  0.00    -0.290 C  
HETATM   11  C   UNL     1      -8.241   3.834  69.711  1.00  0.00    -0.069 C  
HETATM   12  H   UNL     1      -7.426   4.781  72.144  1.00  0.00     0.000 HD 
HETATM   13  C   UNL     1     -10.008   4.879  71.159  1.00  0.00    -0.278 C  
HETATM   14  C   UNL     1      -7.292   4.960  70.095  1.00  0.00    -0.054 C  
HETATM   15  N   UNL     1      -7.610   5.478  71.423  1.00  0.00    -0.100 NA 
ENDBRANCH   3   9
BRANCH   8  16
HETATM   16  C   UNL     1     -10.596   8.916  69.804  1.00  0.00    -0.230 A  
HETATM   17  C   UNL     1     -11.267   9.920  69.028  1.00  0.00    -0.087 A  
HETATM   18  C   UNL     1      -9.458   8.318  69.231  1.00  0.00    -0.155 A  
HETATM   19  C   UNL     1      -9.637   9.602  67.219  1.00  0.00    -0.164 A  
HETATM   20  F   UNL     1     -11.402  11.084  66.928  1.00  0.00    -0.347 F  
HETATM   21  F   UNL     1      -9.199   9.902  65.988  1.00  0.00    -0.162 F  
HETATM   22  C   UNL     1      -8.979   8.648  67.959  1.00  0.00    -0.141 A  
HETATM   23  C   UNL     1     -10.762  10.219  67.732  1.00  0.00    -0.275 A  
BRANCH  17  24
HETATM   24  N   UNL     1     -12.450  10.584  69.481  1.00  0.00    -0.655 NA 
HETATM   25  H   UNL     1     -13.342  10.222  69.141  1.00  0.00     0.000 HD 
BRANCH  24  26
HETATM   26  C   UNL     1     -12.504  11.703  70.361  1.00  0.00    -0.221 A  
HETATM   27  C   UNL     1     -13.123  11.629  71.610  1.00  0.00    -0.351 A  
HETATM   28  F   UNL     1     -13.636  10.464  72.038  1.00  0.00    -0.456 F  
HETATM   29  C   UNL     1     -13.292  12.767  72.410  1.00  0.00    -0.479 A  
HETATM   30  C   UNL     1     -12.823  13.999  71.956  1.00  0.00    -0.326 A  
HETATM   31  C   UNL     1     -12.183  14.097  70.723  1.00  0.00    -0.435 A  
HETATM   32  I   UNL     1     -13.093  15.712  73.103  1.00  0.00    -0.675 I  
HETATM   33  C   UNL     1     -12.014  12.951  69.940  1.00  0.00    -0.377 A  
ENDBRANCH  24  26
ENDBRANCH  17  24
ENDBRANCH   8  16
TORSDOF 4
ENDMDL
MODEL       19
REMARK 921   NORMALIZED FREE ENERGY PREDICTED BY IDOCK:   -6.54 KCAL/MOL
REMARK 922        TOTAL FREE ENERGY PREDICTED BY IDOCK:   -9.82 KCAL/MOL
REMARK 923 INTER-LIGAND FREE ENERGY PREDICTED BY IDOCK:   -8.47 KCAL/MOL
REMARK 924 INTRA-LIGAND FREE ENERGY PREDICTED BY IDOCK:   -1.35 KCAL/MOL
REMARK 927      BINDING AFFINITY PREDICTED BY RF-SCORE:    0.00 PKD
ROOT
HETATM    1  O   UNL     1     -12.042  14.998  63.582  1.00  0.00    -0.903 OA 
HETATM    2  H   UNL     1     -11.429  15.683  63.340  1.00  0.00     0.000 HD 
HETATM    3  C   UNL     1     -11.632  14.128  64.673  1.00  0.00    -0.406 C  
HETATM    4  C   UNL     1     -12.646  12.995  65.073  1.00  0.00    -0.454 C  
HETATM    5  O   UNL     1     -12.095  11.581  67.463  1.00  0.00    -0.614 OA 
HETATM    6  C   UNL     1     -10.749  12.880  64.279  1.00  0.00    -0.406 C  
HETATM    7  N   UNL     1     -11.423  12.204  65.395  1.00  0.00    -0.344 N  
HETATM    8  C   UNL     1     -11.138  11.804  66.714  1.00  0.00    -0.306 C  
ENDROOT
BRANCH   3   9
HETATM    9  C   UNL     1     -10.968  14.959  65.820  1.00  0.00    -0.345 C  
HETATM   10  C   UNL     1     -11.043  15.870  68.155  1.00  0.00    -0.338 C  
HETATM   11  C   UNL     1     -10.599  17.220  67.600  1.00  0.00    -0.350 C  
HETATM   12  H   UNL     1     -11.341  16.832  64.996  1.00  0.00     0.000 HD 
HETATM   13  C   UNL     1     -11.825  15.088  67.087  1.00  0.00    -0.141 C  
HETATM   14  C   UNL     1      -9.782  17.030  66.330  1.00  0.00    -0.293 C  
HETATM   15  N   UNL     1     -10.543  16.289  65.328  1.00  0.00    -0.581 NA 
ENDBRANCH   3   9
BRANCH   8  16
HETATM   16  C   UNL     1      -9.748  11.756  67.338  1.00  0.00    -0.186 A  
HETATM   17  C   UNL     1      -9.418  10.799  68.355  1.00  0.00    -0.174 A  
HETATM   18  C   UNL     1      -8.784  12.741  67.050  1.00  0.00    -0.197 A  
HETATM   19  C   UNL     1      -7.256  11.913  68.695  1.00  0.00    -0.109 A  
HETATM   20  F   UNL     1      -7.846  10.113  70.040  1.00  0.00    -0.149 F  
HETATM   21  F   UNL     1      -6.092  12.007  69.354  1.00  0.00    -0.066 F  
HETATM   22  C   UNL     1      -7.556  12.827  67.713  1.00  0.00    -0.141 A  
HETATM   23  C   UNL     1      -8.167  10.926  69.021  1.00  0.00    -0.124 A  
BRANCH  17  24
HETATM   24  N   UNL     1     -10.318   9.765  68.764  1.00  0.00    -0.200 NA 
HETATM   25  H   UNL     1     -11.108  10.044  69.346  1.00  0.00     0.000 HD 
BRANCH  24  26
HETATM   26  C   UNL     1     -10.218   8.382  68.435  1.00  0.00    -0.206 A  
HETATM   27  C   UNL     1      -9.830   7.427  69.376  1.00  0.00    -0.168 A  
HETATM   28  F   UNL     1      -9.598   7.792  70.647  1.00  0.00    -0.164 F  
HETATM   29  C   UNL     1      -9.602   6.094  69.012  1.00  0.00    -0.144 A  
HETATM   30  C   UNL     1      -9.775   5.707  67.684  1.00  0.00    -0.124 A  
HETATM   31  C   UNL     1     -10.183   6.635  66.728  1.00  0.00    -0.263 A  
HETATM   32  I   UNL     1      -9.407   3.744  67.106  1.00  0.00    -0.160 I  
HETATM   33  C   UNL     1     -10.415   7.961  67.109  1.00  0.00    -0.414 A  
ENDBRANCH  24  26
ENDBRANCH  17  24
ENDBRANCH   8  16
TORSDOF 4
ENDMDL
MODEL       20
REMARK 921   NORMALIZED FREE ENERGY PREDICTED BY IDOCK:   -6.46 KCAL/MOL
REMARK 922        TOTAL FREE ENERGY PREDICTED BY IDOCK:   -9.72 KCAL/MOL
REMARK 923 INTER-LIGAND FREE ENERGY PREDICTED BY IDOCK:   -8.58 KCAL/MOL
REMARK 924 INTRA-LIGAND FREE ENERGY PREDICTED BY IDOCK:   -1.14 KCAL/MOL
REMARK 927      BINDING AFFINITY PREDICTED BY RF-SCORE:    0.00 PKD
ROOT
HETATM    1  O   UNL     1     -11.674  12.729  62.758  1.00  0.00    -0.656 OA 
HETATM    2  H   UNL     1     -11.847  11.890  62.347  1.00  0.00     0.000 HD 
HETATM    3  C   UNL     1     -11.029  12.682  64.061  1.00  0.00    -0.406 C  
HETATM    4  C   UNL     1     -10.741  14.071  64.741  1.00  0.00    -0.427 C  
HETATM    5  O   UNL     1      -9.095  14.041  67.045  1.00  0.00    -0.227 OA 
HETATM    6  C   UNL     1     -11.983  12.529  65.309  1.00  0.00    -0.438 C  
HETATM    7  N   UNL     1     -10.985  13.340  66.019  1.00  0.00    -0.278 N  
HETATM    8  C   UNL     1      -9.959  13.162  66.966  1.00  0.00    -0.244 C  
ENDROOT
BRANCH   3   9
HETATM    9  C   UNL     1      -9.893  11.607  64.074  1.00  0.00    -0.257 C  
HETATM   10  C   UNL     1      -8.135  10.301  62.852  1.00  0.00    -0.156 C  
HETATM   11  C   UNL     1      -8.649   9.041  63.542  1.00  0.00    -0.146 C  
HETATM   12  H   UNL     1     -11.142   9.950  64.204  1.00  0.00     0.000 HD 
HETATM   13  C   UNL     1      -9.273  11.323  62.698  1.00  0.00    -0.330 C  
HETATM   14  C   UNL     1      -9.278   9.389  64.883  1.00  0.00    -0.183 C  
HETATM   15  N   UNL     1     -10.358  10.357  64.715  1.00  0.00    -0.256 NA 
ENDBRANCH   3   9
BRANCH   8  16
HETATM   16  C   UNL     1      -9.748  11.909  67.807  1.00  0.00    -0.189 A  
HETATM   17  C   UNL     1     -10.675  11.538  68.839  1.00  0.00    -0.207 A  
HETATM   18  C   UNL     1      -8.564  11.153  67.708  1.00  0.00    -0.131 A  
HETATM   19  C   UNL     1      -9.148   9.753  69.559  1.00  0.00    -0.216 A  
HETATM   20  F   UNL     1     -11.112  10.132  70.740  1.00  0.00    -0.343 F  
HETATM   21  F   UNL     1      -8.849   8.754  70.401  1.00  0.00    -0.129 F  
HETATM   22  C   UNL     1      -8.260  10.091  68.566  1.00  0.00    -0.108 A  
HETATM   23  C   UNL     1     -10.325  10.464  69.704  1.00  0.00    -0.226 A  
BRANCH  17  24
HETATM   24  N   UNL     1     -11.900  12.240  69.066  1.00  0.00    -0.315 NA 
HETATM   25  H   UNL     1     -12.661  12.064  68.409  1.00  0.00     0.000 HD 
BRANCH  24  26
HETATM   26  C   UNL     1     -12.160  13.160  70.122  1.00  0.00    -0.321 A  
HETATM   27  C   UNL     1     -11.721  14.484  70.070  1.00  0.00    -0.301 A  
HETATM   28  F   UNL     1     -11.086  14.939  68.978  1.00  0.00    -0.215 F  
HETATM   29  C   UNL     1     -11.861  15.343  71.168  1.00  0.00    -0.422 A  
HETATM   30  C   UNL     1     -12.461  14.872  72.335  1.00  0.00    -0.343 A  
HETATM   31  C   UNL     1     -12.927  13.561  72.406  1.00  0.00    -0.399 A  
HETATM   32  I   UNL     1     -12.648  16.111  73.994  1.00  0.00    -0.355 I  
HETATM   33  C   UNL     1     -12.788  12.718  71.299  1.00  0.00    -0.355 A  
ENDBRANCH  24  26
ENDBRANCH  17  24
ENDBRANCH   8  16
TORSDOF 4
ENDMDL
MODEL       21
REMARK 921   NORMALIZED FREE ENERGY PREDICTED BY IDOCK:   -6.42 KCAL/MOL
REMARK 922        TOTAL FREE ENERGY PREDICTED BY IDOCK:   -9.67 KCAL/MOL
REMARK 923 INTER-LIGAND FREE ENERGY PREDICTED BY IDOCK:   -8.05 KCAL/MOL
REMARK 924 INTRA-LIGAND FREE ENERGY PREDICTED BY IDOCK:   -1.61 KCAL/MOL
REMARK 927      BINDING AFFINITY PREDICTED BY RF-SCORE:    0.00 PKD
ROOT
HETATM    1  O   UNL     1     -10.712  17.906  70.402  1.00  0.00     0.319 OA 
HETATM    2  H   UNL     1     -11.117  18.693  70.057  1.00  0.00     0.000 HD 
HETATM    3  C   UNL     1     -10.592  16.790  69.477  1.00  0.00    -0.283 C  
HETATM    4  C   UNL     1      -9.921  15.487  70.047  1.00  0.00    -0.165 C  
HETATM    5  O   UNL     1      -9.264  13.470  68.172  1.00  0.00    -0.198 OA 
HETATM    6  C   UNL     1     -11.840  15.827  69.377  1.00  0.00    -0.349 C  
HETATM    7  N   UNL     1     -10.850  14.770  69.125  1.00  0.00    -0.252 N  
HETATM    8  C   UNL     1     -10.365  14.015  68.041  1.00  0.00    -0.240 C  
ENDROOT
BRANCH   3   9
HETATM    9  C   UNL     1     -10.142  17.291  68.065  1.00  0.00    -0.324 C  
HETATM   10  C   UNL     1      -8.311  17.755  66.416  1.00  0.00    -0.281 C  
HETATM   11  C   UNL     1      -8.960  19.108  66.137  1.00  0.00    -0.232 C  
HETATM   12  H   UNL     1     -10.425  19.318  68.437  1.00  0.00     0.000 HD 
HETATM   13  C   UNL     1      -8.622  17.304  67.853  1.00  0.00    -0.223 C  
HETATM   14  C   UNL     1     -10.458  19.042  66.395  1.00  0.00    -0.446 C  
HETATM   15  N   UNL     1     -10.731  18.615  67.764  1.00  0.00    -0.388 NA 
ENDBRANCH   3   9
BRANCH   8  16
HETATM   16  C   UNL     1     -11.020  13.926  66.668  1.00  0.00    -0.302 A  
HETATM   17  C   UNL     1     -11.806  12.786  66.289  1.00  0.00    -0.423 A  
HETATM   18  C   UNL     1     -10.758  14.883  65.670  1.00  0.00    -0.352 A  
HETATM   19  C   UNL     1     -11.951  13.656  63.996  1.00  0.00    -0.431 A  
HETATM   20  F   UNL     1     -12.896  11.596  64.506  1.00  0.00    -0.167 F  
HETATM   21  F   UNL     1     -12.364  13.518  62.729  1.00  0.00    -0.476 F  
HETATM   22  C   UNL     1     -11.211  14.759  64.352  1.00  0.00    -0.184 A  
HETATM   23  C   UNL     1     -12.236  12.683  64.936  1.00  0.00    -0.471 A  
BRANCH  17  24
HETATM   24  N   UNL     1     -12.121  11.727  67.197  1.00  0.00    -0.465 NA 
HETATM   25  H   UNL     1     -13.067  11.713  67.580  1.00  0.00     0.000 HD 
BRANCH  24  26
HETATM   26  C   UNL     1     -11.241  10.690  67.621  1.00  0.00    -0.290 A  
HETATM   27  C   UNL     1     -10.866  10.542  68.957  1.00  0.00    -0.232 A  
HETATM   28  F   UNL     1     -11.385  11.350  69.895  1.00  0.00    -0.306 F  
HETATM   29  C   UNL     1      -9.896   9.607  69.345  1.00  0.00    -0.203 A  
HETATM   30  C   UNL     1      -9.297   8.801  68.377  1.00  0.00    -0.137 A  
HETATM   31  C   UNL     1      -9.667   8.914  67.039  1.00  0.00    -0.249 A  
HETATM   32  I   UNL     1      -7.827   7.434  68.916  1.00  0.00    -0.121 I  
HETATM   33  C   UNL     1     -10.644   9.845  66.670  1.00  0.00    -0.186 A  
ENDBRANCH  24  26
ENDBRANCH  17  24
ENDBRANCH   8  16
TORSDOF 4
ENDMDL
MODEL       22
REMARK 921   NORMALIZED FREE ENERGY PREDICTED BY IDOCK:   -6.40 KCAL/MOL
REMARK 922        TOTAL FREE ENERGY PREDICTED BY IDOCK:   -9.64 KCAL/MOL
REMARK 923 INTER-LIGAND FREE ENERGY PREDICTED BY IDOCK:   -8.05 KCAL/MOL
REMARK 924 INTRA-LIGAND FREE ENERGY PREDICTED BY IDOCK:   -1.59 KCAL/MOL
REMARK 927      BINDING AFFINITY PREDICTED BY RF-SCORE:    0.00 PKD
ROOT
HETATM    1  O   UNL     1      -7.163  11.866  66.331  1.00  0.00    -0.373 OA 
HETATM    2  H   UNL     1      -7.016  12.794  66.476  1.00  0.00     0.000 HD 
HETATM    3  C   UNL     1      -8.290  11.279  67.040  1.00  0.00    -0.153 C  
HETATM    4  C   UNL     1      -8.534   9.743  66.802  1.00  0.00    -0.124 C  
HETATM    5  O   UNL     1     -10.960   8.672  67.793  1.00  0.00    -0.079 OA 
HETATM    6  C   UNL     1      -8.005  10.771  68.508  1.00  0.00    -0.130 C  
HETATM    7  N   UNL     1      -9.011   9.740  68.215  1.00  0.00    -0.119 N  
HETATM    8  C   UNL     1     -10.352   9.453  68.533  1.00  0.00    -0.209 C  
ENDROOT
BRANCH   3   9
HETATM    9  C   UNL     1      -9.527  12.235  66.996  1.00  0.00    -0.204 C  
HETATM   10  C   UNL     1     -11.716  12.896  65.966  1.00  0.00    -0.456 C  
HETATM   11  C   UNL     1     -11.228  14.342  65.954  1.00  0.00    -0.324 C  
HETATM   12  H   UNL     1      -8.543  13.847  66.124  1.00  0.00     0.000 HD 
HETATM   13  C   UNL     1     -10.522  11.932  65.866  1.00  0.00    -0.296 C  
HETATM   14  C   UNL     1     -10.223  14.573  67.073  1.00  0.00    -0.262 C  
HETATM   15  N   UNL     1      -9.096  13.651  66.958  1.00  0.00    -0.241 NA 
ENDBRANCH   3   9
BRANCH   8  16
HETATM   16  C   UNL     1     -11.159  10.131  69.634  1.00  0.00    -0.308 A  
HETATM   17  C   UNL     1     -11.903   9.366  70.594  1.00  0.00    -0.207 A  
HETATM   18  C   UNL     1     -11.328  11.529  69.660  1.00  0.00    -0.329 A  
HETATM   19  C   UNL     1     -12.902  11.435  71.461  1.00  0.00    -0.403 A  
HETATM   20  F   UNL     1     -13.562   9.386  72.334  1.00  0.00    -0.434 F  
HETATM   21  F   UNL     1     -13.744  12.050  72.303  1.00  0.00    -0.519 F  
HETATM   22  C   UNL     1     -12.184  12.179  70.555  1.00  0.00    -0.392 A  
HETATM   23  C   UNL     1     -12.776  10.058  71.477  1.00  0.00    -0.429 A  
BRANCH  17  24
HETATM   24  N   UNL     1     -11.844   7.938  70.656  1.00  0.00    -0.462 NA 
HETATM   25  H   UNL     1     -12.601   7.425  70.202  1.00  0.00     0.000 HD 
BRANCH  24  26
HETATM   26  C   UNL     1     -10.831   7.163  71.290  1.00  0.00    -0.233 A  
HETATM   27  C   UNL     1     -10.640   7.190  72.672  1.00  0.00    -0.256 A  
HETATM   28  F   UNL     1     -11.460   7.914  73.451  1.00  0.00    -0.394 F  
HETATM   29  C   UNL     1      -9.558   6.533  73.273  1.00  0.00    -0.168 A  
HETATM   30  C   UNL     1      -8.656   5.829  72.476  1.00  0.00    -0.120 A  
HETATM   31  C   UNL     1      -8.836   5.768  71.096  1.00  0.00    -0.139 A  
HETATM   32  I   UNL     1      -7.019   4.877  73.334  1.00  0.00    -0.075 I  
HETATM   33  C   UNL     1      -9.926   6.421  70.512  1.00  0.00    -0.214 A  
ENDBRANCH  24  26
ENDBRANCH  17  24
ENDBRANCH   8  16
TORSDOF 4
ENDMDL
MODEL       23
REMARK 921   NORMALIZED FREE ENERGY PREDICTED BY IDOCK:   -6.29 KCAL/MOL
REMARK 922        TOTAL FREE ENERGY PREDICTED BY IDOCK:   -9.51 KCAL/MOL
REMARK 923 INTER-LIGAND FREE ENERGY PREDICTED BY IDOCK:   -8.33 KCAL/MOL
REMARK 924 INTRA-LIGAND FREE ENERGY PREDICTED BY IDOCK:   -1.17 KCAL/MOL
REMARK 927      BINDING AFFINITY PREDICTED BY RF-SCORE:    0.00 PKD
ROOT
HETATM    1  O   UNL     1      -6.460  17.780  65.782  1.00  0.00    -0.237 OA 
HETATM    2  H   UNL     1      -5.758  17.162  65.952  1.00  0.00     0.000 HD 
HETATM    3  C   UNL     1      -7.678  17.594  66.555  1.00  0.00    -0.270 C  
HETATM    4  C   UNL     1      -8.839  18.617  66.272  1.00  0.00    -0.216 C  
HETATM    5  O   UNL     1     -11.035  18.572  68.059  1.00  0.00    -0.224 OA 
HETATM    6  C   UNL     1      -8.736  16.583  65.962  1.00  0.00    -0.220 C  
HETATM    7  N   UNL     1      -9.740  17.466  66.571  1.00  0.00    -0.281 N  
HETATM    8  C   UNL     1     -10.596  17.479  67.688  1.00  0.00    -0.355 C  
ENDROOT
BRANCH   3   9
HETATM    9  C   UNL     1      -7.339  17.260  68.044  1.00  0.00    -0.192 C  
HETATM   10  C   UNL     1      -5.866  17.569  70.051  1.00  0.00    -0.234 C  
HETATM   11  C   UNL     1      -5.866  16.054  70.234  1.00  0.00    -0.119 C  
HETATM   12  H   UNL     1      -6.585  15.355  67.689  1.00  0.00     0.000 HD 
HETATM   13  C   UNL     1      -6.056  17.923  68.566  1.00  0.00    -0.186 C  
HETATM   14  C   UNL     1      -7.145  15.451  69.671  1.00  0.00    -0.180 C  
HETATM   15  N   UNL     1      -7.305  15.796  68.261  1.00  0.00    -0.117 NA 
ENDBRANCH   3   9
BRANCH   8  16
HETATM   16  C   UNL     1     -10.917  16.273  68.564  1.00  0.00    -0.345 A  
HETATM   17  C   UNL     1     -11.466  15.070  68.005  1.00  0.00    -0.342 A  
HETATM   18  C   UNL     1     -10.830  16.346  69.967  1.00  0.00    -0.306 A  
HETATM   19  C   UNL     1     -11.799  14.177  70.269  1.00  0.00    -0.303 A  
HETATM   20  F   UNL     1     -12.514  12.948  68.432  1.00  0.00    -0.191 F  
HETATM   21  F   UNL     1     -12.240  13.203  71.077  1.00  0.00    -0.419 F  
HETATM   22  C   UNL     1     -11.262  15.320  70.814  1.00  0.00    -0.353 A  
HETATM   23  C   UNL     1     -11.911  14.055  68.896  1.00  0.00    -0.355 A  
BRANCH  17  24
HETATM   24  N   UNL     1     -11.637  14.879  66.598  1.00  0.00    -0.310 NA 
HETATM   25  H   UNL     1     -12.285  15.508  66.122  1.00  0.00     0.000 HD 
BRANCH  24  26
HETATM   26  C   UNL     1     -10.989  13.897  65.796  1.00  0.00    -0.285 A  
HETATM   27  C   UNL     1     -11.394  13.629  64.487  1.00  0.00    -0.375 A  
HETATM   28  F   UNL     1     -12.381  14.348  63.929  1.00  0.00    -0.507 F  
HETATM   29  C   UNL     1     -10.843  12.570  63.754  1.00  0.00    -0.489 A  
HETATM   30  C   UNL     1      -9.861  11.770  64.338  1.00  0.00    -0.202 A  
HETATM   31  C   UNL     1      -9.423  12.028  65.635  1.00  0.00    -0.150 A  
HETATM   32  I   UNL     1      -9.053  10.167  63.290  1.00  0.00    -0.290 I  
HETATM   33  C   UNL     1      -9.977  13.095  66.351  1.00  0.00    -0.282 A  
ENDBRANCH  24  26
ENDBRANCH  17  24
ENDBRANCH   8  16
TORSDOF 4
ENDMDL
MODEL       24
REMARK 921   NORMALIZED FREE ENERGY PREDICTED BY IDOCK:   -6.27 KCAL/MOL
REMARK 922        TOTAL FREE ENERGY PREDICTED BY IDOCK:   -9.48 KCAL/MOL
REMARK 923 INTER-LIGAND FREE ENERGY PREDICTED BY IDOCK:   -7.93 KCAL/MOL
REMARK 924 INTRA-LIGAND FREE ENERGY PREDICTED BY IDOCK:   -1.54 KCAL/MOL
REMARK 927      BINDING AFFINITY PREDICTED BY RF-SCORE:    0.00 PKD
ROOT
HETATM    1  O   UNL     1      -5.139  10.310  67.184  1.00  0.00    -0.040 OA 
HETATM    2  H   UNL     1      -4.561  10.553  66.471  1.00  0.00     0.000 HD 
HETATM    3  C   UNL     1      -6.561  10.511  66.952  1.00  0.00    -0.081 C  
HETATM    4  C   UNL     1      -7.519  10.108  68.133  1.00  0.00    -0.083 C  
HETATM    5  O   UNL     1     -10.291  10.057  67.560  1.00  0.00    -0.200 OA 
HETATM    6  C   UNL     1      -7.129  11.945  67.286  1.00  0.00    -0.143 C  
HETATM    7  N   UNL     1      -8.365  11.238  67.649  1.00  0.00    -0.121 N  
HETATM    8  C   UNL     1      -9.649  11.014  67.118  1.00  0.00    -0.169 C  
ENDROOT
BRANCH   3   9
HETATM    9  C   UNL     1      -6.951  10.064  65.505  1.00  0.00    -0.124 C  
HETATM   10  C   UNL     1      -7.771   8.289  63.934  1.00  0.00    -0.141 C  
HETATM   11  C   UNL     1      -6.650   8.677  62.974  1.00  0.00    -0.090 C  
HETATM   12  H   UNL     1      -5.008   9.920  64.776  1.00  0.00     0.000 HD 
HETATM   13  C   UNL     1      -7.354   8.588  65.384  1.00  0.00    -0.084 C  
HETATM   14  C   UNL     1      -6.272  10.140  63.162  1.00  0.00    -0.140 C  
HETATM   15  N   UNL     1      -5.877  10.401  64.543  1.00  0.00    -0.135 NA 
ENDBRANCH   3   9
BRANCH   8  16
HETATM   16  C   UNL     1     -10.258  11.772  65.944  1.00  0.00    -0.272 A  
HETATM   17  C   UNL     1     -10.574  13.169  66.041  1.00  0.00    -0.281 A  
HETATM   18  C   UNL     1     -10.673  11.101  64.778  1.00  0.00    -0.334 A  
HETATM   19  C   UNL     1     -11.685  13.064  63.853  1.00  0.00    -0.468 A  
HETATM   20  F   UNL     1     -11.704  15.050  65.057  1.00  0.00    -0.356 F  
HETATM   21  F   UNL     1     -12.383  13.662  62.878  1.00  0.00    -0.516 F  
HETATM   22  C   UNL     1     -11.376  11.728  63.744  1.00  0.00    -0.524 A  
HETATM   23  C   UNL     1     -11.304  13.770  64.979  1.00  0.00    -0.328 A  
BRANCH  17  24
HETATM   24  N   UNL     1     -10.235  13.961  67.183  1.00  0.00    -0.256 NA 
HETATM   25  H   UNL     1      -9.301  14.371  67.200  1.00  0.00     0.000 HD 
BRANCH  24  26
HETATM   26  C   UNL     1     -11.077  14.231  68.300  1.00  0.00    -0.258 A  
HETATM   27  C   UNL     1     -11.384  15.535  68.693  1.00  0.00    -0.344 A  
HETATM   28  F   UNL     1     -10.933  16.577  67.976  1.00  0.00    -0.327 F  
HETATM   29  C   UNL     1     -12.098  15.794  69.870  1.00  0.00    -0.315 A  
HETATM   30  C   UNL     1     -12.521  14.729  70.664  1.00  0.00    -0.345 A  
HETATM   31  C   UNL     1     -12.247  13.417  70.284  1.00  0.00    -0.405 A  
HETATM   32  I   UNL     1     -13.549  15.083  72.436  1.00  0.00    -0.687 I  
HETATM   33  C   UNL     1     -11.540  13.174  69.102  1.00  0.00    -0.368 A  
ENDBRANCH  24  26
ENDBRANCH  17  24
ENDBRANCH   8  16
TORSDOF 4
ENDMDL
MODEL       25
REMARK 921   NORMALIZED FREE ENERGY PREDICTED BY IDOCK:   -6.23 KCAL/MOL
REMARK 922        TOTAL FREE ENERGY PREDICTED BY IDOCK:   -9.43 KCAL/MOL
REMARK 923 INTER-LIGAND FREE ENERGY PREDICTED BY IDOCK:   -7.73 KCAL/MOL
REMARK 924 INTRA-LIGAND FREE ENERGY PREDICTED BY IDOCK:   -1.70 KCAL/MOL
REMARK 927      BINDING AFFINITY PREDICTED BY RF-SCORE:    0.00 PKD
ROOT
HETATM    1  O   UNL     1      -6.488  10.660  68.611  1.00  0.00    -0.050 OA 
HETATM    2  H   UNL     1      -5.768  10.822  68.012  1.00  0.00     0.000 HD 
HETATM    3  C   UNL     1      -7.825  10.823  68.063  1.00  0.00    -0.106 C  
HETATM    4  C   UNL     1      -9.017  10.556  69.055  1.00  0.00    -0.176 C  
HETATM    5  O   UNL     1     -11.608  10.419  67.922  1.00  0.00    -0.406 OA 
HETATM    6  C   UNL     1      -8.424  12.283  68.101  1.00  0.00    -0.176 C  
HETATM    7  N   UNL     1      -9.721  11.616  68.276  1.00  0.00    -0.192 N  
HETATM    8  C   UNL     1     -10.869  11.322  67.517  1.00  0.00    -0.245 C  
ENDROOT
BRANCH   3   9
HETATM    9  C   UNL     1      -7.911  10.207  66.628  1.00  0.00    -0.110 C  
HETATM   10  C   UNL     1      -8.470   8.272  65.133  1.00  0.00    -0.164 C  
HETATM   11  C   UNL     1      -7.142   8.496  64.415  1.00  0.00    -0.082 C  
HETATM   12  H   UNL     1      -5.868   9.906  66.383  1.00  0.00     0.000 HD 
HETATM   13  C   UNL     1      -8.367   8.741  66.594  1.00  0.00    -0.108 C  
HETATM   14  C   UNL     1      -6.727   9.957  64.509  1.00  0.00    -0.124 C  
HETATM   15  N   UNL     1      -6.632  10.381  65.903  1.00  0.00    -0.116 NA 
ENDBRANCH   3   9
BRANCH   8  16
HETATM   16  C   UNL     1     -11.205  11.933  66.160  1.00  0.00    -0.387 A  
HETATM   17  C   UNL     1     -11.735  13.263  66.051  1.00  0.00    -0.368 A  
HETATM   18  C   UNL     1     -11.151  11.166  64.981  1.00  0.00    -0.100 A  
HETATM   19  C   UNL     1     -12.116  12.907  63.651  1.00  0.00    -0.535 A  
HETATM   20  F   UNL     1     -12.782  14.902  64.637  1.00  0.00    -0.404 F  
HETATM   21  F   UNL     1     -12.572  13.353  62.472  1.00  0.00    -0.086 F  
HETATM   22  C   UNL     1     -11.598  11.637  63.742  1.00  0.00    -0.430 A  
HETATM   23  C   UNL     1     -12.195  13.702  64.779  1.00  0.00    -0.403 A  
BRANCH  17  24
HETATM   24  N   UNL     1     -11.871  14.135  67.176  1.00  0.00    -0.405 NA 
HETATM   25  H   UNL     1     -12.676  13.982  67.784  1.00  0.00     0.000 HD 
BRANCH  24  26
HETATM   26  C   UNL     1     -10.991  15.197  67.530  1.00  0.00    -0.310 A  
HETATM   27  C   UNL     1     -11.211  15.993  68.656  1.00  0.00    -0.366 A  
HETATM   28  F   UNL     1     -12.242  15.728  69.475  1.00  0.00    -0.359 F  
HETATM   29  C   UNL     1     -10.421  17.119  68.921  1.00  0.00    -0.346 A  
HETATM   30  C   UNL     1      -9.385  17.449  68.049  1.00  0.00    -0.276 A  
HETATM   31  C   UNL     1      -9.130  16.661  66.929  1.00  0.00    -0.248 A  
HETATM   32  I   UNL     1      -8.219  19.136  68.394  1.00  0.00    -0.383 I  
HETATM   33  C   UNL     1      -9.922  15.535  66.683  1.00  0.00    -0.272 A  
ENDBRANCH  24  26
ENDBRANCH  17  24
ENDBRANCH   8  16
TORSDOF 4
ENDMDL
MODEL       26
REMARK 921   NORMALIZED FREE ENERGY PREDICTED BY IDOCK:   -6.21 KCAL/MOL
REMARK 922        TOTAL FREE ENERGY PREDICTED BY IDOCK:   -9.41 KCAL/MOL
REMARK 923 INTER-LIGAND FREE ENERGY PREDICTED BY IDOCK:   -7.99 KCAL/MOL
REMARK 924 INTRA-LIGAND FREE ENERGY PREDICTED BY IDOCK:   -1.42 KCAL/MOL
REMARK 927      BINDING AFFINITY PREDICTED BY RF-SCORE:    0.00 PKD
ROOT
HETATM    1  O   UNL     1     -10.857  17.558  70.389  1.00  0.00     0.025 OA 
HETATM    2  H   UNL     1     -11.247  18.346  70.028  1.00  0.00     0.000 HD 
HETATM    3  C   UNL     1     -10.728  16.431  69.478  1.00  0.00    -0.325 C  
HETATM    4  C   UNL     1     -10.082  15.128  70.077  1.00  0.00    -0.081 C  
HETATM    5  O   UNL     1      -9.404  13.086  68.237  1.00  0.00    -0.212 OA 
HETATM    6  C   UNL     1     -11.982  15.479  69.361  1.00  0.00    -0.336 C  
HETATM    7  N   UNL     1     -10.998  14.411  69.142  1.00  0.00    -0.260 N  
HETATM    8  C   UNL     1     -10.496  13.640  68.077  1.00  0.00    -0.248 C  
ENDROOT
BRANCH   3   9
HETATM    9  C   UNL     1     -10.243  16.914  68.072  1.00  0.00    -0.310 C  
HETATM   10  C   UNL     1      -8.399  17.182  66.393  1.00  0.00    -0.315 C  
HETATM   11  C   UNL     1      -8.866  18.618  66.170  1.00  0.00    -0.132 C  
HETATM   12  H   UNL     1     -10.244  18.947  68.510  1.00  0.00     0.000 HD 
HETATM   13  C   UNL     1      -8.739  16.731  67.823  1.00  0.00    -0.210 C  
HETATM   14  C   UNL     1     -10.354  18.744  66.462  1.00  0.00    -0.424 C  
HETATM   15  N   UNL     1     -10.655  18.314  67.824  1.00  0.00    -0.412 NA 
ENDBRANCH   3   9
BRANCH   8  16
HETATM   16  C   UNL     1     -11.124  13.542  66.691  1.00  0.00    -0.309 A  
HETATM   17  C   UNL     1     -11.252  12.281  66.016  1.00  0.00    -0.332 A  
HETATM   18  C   UNL     1     -11.462  14.697  65.959  1.00  0.00    -0.332 A  
HETATM   19  C   UNL     1     -11.998  13.449  63.988  1.00  0.00    -0.464 A  
HETATM   20  F   UNL     1     -11.727  11.142  63.953  1.00  0.00    -0.318 F  
HETATM   21  F   UNL     1     -12.383  13.410  62.705  1.00  0.00    -0.498 F  
HETATM   22  C   UNL     1     -11.892  14.661  64.629  1.00  0.00    -0.459 A  
HETATM   23  C   UNL     1     -11.676  12.283  64.659  1.00  0.00    -0.356 A  
BRANCH  17  24
HETATM   24  N   UNL     1     -10.914  11.036  66.635  1.00  0.00    -0.233 NA 
HETATM   25  H   UNL     1     -11.472  10.756  67.442  1.00  0.00     0.000 HD 
BRANCH  24  26
HETATM   26  C   UNL     1      -9.875  10.150  66.232  1.00  0.00    -0.229 A  
HETATM   27  C   UNL     1      -9.961   8.772  66.437  1.00  0.00    -0.275 A  
HETATM   28  F   UNL     1     -11.072   8.240  66.972  1.00  0.00    -0.293 F  
HETATM   29  C   UNL     1      -8.880   7.924  66.164  1.00  0.00    -0.197 A  
HETATM   30  C   UNL     1      -7.693   8.464  65.668  1.00  0.00    -0.099 A  
HETATM   31  C   UNL     1      -7.588   9.833  65.435  1.00  0.00    -0.121 A  
HETATM   32  I   UNL     1      -6.059   7.236  65.290  1.00  0.00    -0.038 I  
HETATM   33  C   UNL     1      -8.679  10.666  65.704  1.00  0.00    -0.198 A  
ENDBRANCH  24  26
ENDBRANCH  17  24
ENDBRANCH   8  16
TORSDOF 4
ENDMDL
MODEL       27
REMARK 921   NORMALIZED FREE ENERGY PREDICTED BY IDOCK:   -6.21 KCAL/MOL
REMARK 922        TOTAL FREE ENERGY PREDICTED BY IDOCK:   -9.41 KCAL/MOL
REMARK 923 INTER-LIGAND FREE ENERGY PREDICTED BY IDOCK:   -8.13 KCAL/MOL
REMARK 924 INTRA-LIGAND FREE ENERGY PREDICTED BY IDOCK:   -1.27 KCAL/MOL
REMARK 927      BINDING AFFINITY PREDICTED BY RF-SCORE:    0.00 PKD
ROOT
HETATM    1  O   UNL     1      -8.179  11.223  63.276  1.00  0.00    -0.370 OA 
HETATM    2  H   UNL     1      -8.192  12.170  63.211  1.00  0.00     0.000 HD 
HETATM    3  C   UNL     1      -8.868  10.650  64.422  1.00  0.00    -0.173 C  
HETATM    4  C   UNL     1      -8.847   9.081  64.529  1.00  0.00    -0.081 C  
HETATM    5  O   UNL     1     -10.544   7.916  66.474  1.00  0.00    -0.184 OA 
HETATM    6  C   UNL     1      -8.027  10.522  65.752  1.00  0.00    -0.158 C  
HETATM    7  N   UNL     1      -8.834   9.319  66.002  1.00  0.00    -0.151 N  
HETATM    8  C   UNL     1      -9.909   8.919  66.816  1.00  0.00    -0.241 C  
ENDROOT
BRANCH   3   9
HETATM    9  C   UNL     1     -10.226  11.386  64.672  1.00  0.00    -0.294 C  
HETATM   10  C   UNL     1     -12.456  12.159  63.825  1.00  0.00    -0.620 C  
HETATM   11  C   UNL     1     -12.176  13.522  64.451  1.00  0.00    -0.440 C  
HETATM   12  H   UNL     1      -9.454  13.317  64.628  1.00  0.00     0.000 HD 
HETATM   13  C   UNL     1     -11.136  11.472  63.438  1.00  0.00    -0.370 C  
HETATM   14  C   UNL     1     -11.246  13.377  65.646  1.00  0.00    -0.292 C  
HETATM   15  N   UNL     1      -9.998  12.726  65.257  1.00  0.00    -0.231 NA 
ENDBRANCH   3   9
BRANCH   8  16
HETATM   16  C   UNL     1     -10.444   9.699  68.012  1.00  0.00    -0.276 A  
HETATM   17  C   UNL     1     -10.131   9.310  69.358  1.00  0.00    -0.197 A  
HETATM   18  C   UNL     1     -11.382  10.736  67.847  1.00  0.00    -0.372 A  
HETATM   19  C   UNL     1     -11.719  10.982  70.204  1.00  0.00    -0.356 A  
HETATM   20  F   UNL     1     -10.619   9.582  71.696  1.00  0.00    -0.402 F  
HETATM   21  F   UNL     1     -12.343  11.569  71.235  1.00  0.00    -0.430 F  
HETATM   22  C   UNL     1     -12.016  11.372  68.920  1.00  0.00    -0.371 A  
HETATM   23  C   UNL     1     -10.806   9.966  70.424  1.00  0.00    -0.319 A  
BRANCH  17  24
HETATM   24  N   UNL     1      -9.217   8.253  69.664  1.00  0.00    -0.157 NA 
HETATM   25  H   UNL     1      -8.290   8.308  69.241  1.00  0.00     0.000 HD 
BRANCH  24  26
HETATM   26  C   UNL     1      -9.476   7.131  70.502  1.00  0.00    -0.162 A  
HETATM   27  C   UNL     1     -10.568   6.288  70.288  1.00  0.00    -0.248 A  
HETATM   28  F   UNL     1     -11.375   6.487  69.233  1.00  0.00    -0.341 F  
HETATM   29  C   UNL     1     -10.894   5.270  71.194  1.00  0.00    -0.131 A  
HETATM   30  C   UNL     1     -10.106   5.087  72.331  1.00  0.00    -0.187 A  
HETATM   31  C   UNL     1      -8.999   5.901  72.557  1.00  0.00    -0.132 A  
HETATM   32  I   UNL     1     -10.587   3.611  73.713  1.00  0.00    -0.322 I  
HETATM   33  C   UNL     1      -8.681   6.906  71.639  1.00  0.00    -0.124 A  
ENDBRANCH  24  26
ENDBRANCH  17  24
ENDBRANCH   8  16
TORSDOF 4
ENDMDL
MODEL       28
REMARK 921   NORMALIZED FREE ENERGY PREDICTED BY IDOCK:   -6.18 KCAL/MOL
REMARK 922        TOTAL FREE ENERGY PREDICTED BY IDOCK:   -9.37 KCAL/MOL
REMARK 923 INTER-LIGAND FREE ENERGY PREDICTED BY IDOCK:   -7.93 KCAL/MOL
REMARK 924 INTRA-LIGAND FREE ENERGY PREDICTED BY IDOCK:   -1.43 KCAL/MOL
REMARK 927      BINDING AFFINITY PREDICTED BY RF-SCORE:    0.00 PKD
ROOT
HETATM    1  O   UNL     1     -10.352  16.764  69.393  1.00  0.00    -0.302 OA 
HETATM    2  H   UNL     1     -10.150  17.092  70.261  1.00  0.00     0.000 HD 
HETATM    3  C   UNL     1     -10.775  15.375  69.314  1.00  0.00    -0.251 C  
HETATM    4  C   UNL     1     -11.109  14.833  67.876  1.00  0.00    -0.293 C  
HETATM    5  O   UNL     1     -12.360  12.297  67.732  1.00  0.00    -0.292 OA 
HETATM    6  C   UNL     1      -9.626  14.298  69.203  1.00  0.00     0.084 C  
HETATM    7  N   UNL     1     -10.587  13.535  68.395  1.00  0.00    -0.242 N  
HETATM    8  C   UNL     1     -11.425  12.412  68.531  1.00  0.00    -0.306 C  
ENDROOT
BRANCH   3   9
HETATM    9  C   UNL     1     -11.766  15.036  70.476  1.00  0.00    -0.297 C  
HETATM   10  C   UNL     1     -14.113  14.920  71.355  1.00  0.00    -0.552 C  
HETATM   11  C   UNL     1     -13.622  15.584  72.639  1.00  0.00    -0.657 C  
HETATM   12  H   UNL     1     -11.329  16.698  71.647  1.00  0.00     0.000 HD 
HETATM   13  C   UNL     1     -13.237  15.351  70.167  1.00  0.00     0.128 C  
HETATM   14  C   UNL     1     -12.153  15.262  72.875  1.00  0.00    -0.414 C  
HETATM   15  N   UNL     1     -11.339  15.682  71.738  1.00  0.00    -0.392 NA 
ENDBRANCH   3   9
BRANCH   8  16
HETATM   16  C   UNL     1     -11.359  11.399  69.668  1.00  0.00    -0.347 A  
HETATM   17  C   UNL     1     -10.329  10.399  69.718  1.00  0.00    -0.208 A  
HETATM   18  C   UNL     1     -12.386  11.309  70.626  1.00  0.00    -0.477 A  
HETATM   19  C   UNL     1     -11.461   9.337  71.621  1.00  0.00    -0.398 A  
HETATM   20  F   UNL     1      -9.545   8.367  70.736  1.00  0.00    -0.161 F  
HETATM   21  F   UNL     1     -11.528   8.350  72.525  1.00  0.00    -0.395 F  
HETATM   22  C   UNL     1     -12.445  10.297  71.591  1.00  0.00    -0.491 A  
HETATM   23  C   UNL     1     -10.430   9.376  70.701  1.00  0.00    -0.290 A  
BRANCH  17  24
HETATM   24  N   UNL     1      -9.245  10.359  68.785  1.00  0.00    -0.163 NA 
HETATM   25  H   UNL     1      -8.724  11.226  68.646  1.00  0.00     0.000 HD 
BRANCH  24  26
HETATM   26  C   UNL     1      -8.822   9.227  68.033  1.00  0.00    -0.128 A  
HETATM   27  C   UNL     1      -9.688   8.548  67.173  1.00  0.00    -0.192 A  
HETATM   28  F   UNL     1     -10.940   8.996  66.989  1.00  0.00    -0.303 F  
HETATM   29  C   UNL     1      -9.306   7.357  66.542  1.00  0.00    -0.222 A  
HETATM   30  C   UNL     1      -8.031   6.840  66.769  1.00  0.00    -0.108 A  
HETATM   31  C   UNL     1      -7.140   7.508  67.606  1.00  0.00    -0.085 A  
HETATM   32  I   UNL     1      -7.449   5.054  65.878  1.00  0.00    -0.083 I  
HETATM   33  C   UNL     1      -7.533   8.701  68.221  1.00  0.00    -0.095 A  
ENDBRANCH  24  26
ENDBRANCH  17  24
ENDBRANCH   8  16
TORSDOF 4
ENDMDL
MODEL       29
REMARK 921   NORMALIZED FREE ENERGY PREDICTED BY IDOCK:   -6.17 KCAL/MOL
REMARK 922        TOTAL FREE ENERGY PREDICTED BY IDOCK:   -9.36 KCAL/MOL
REMARK 923 INTER-LIGAND FREE ENERGY PREDICTED BY IDOCK:   -7.73 KCAL/MOL
REMARK 924 INTRA-LIGAND FREE ENERGY PREDICTED BY IDOCK:   -1.63 KCAL/MOL
REMARK 927      BINDING AFFINITY PREDICTED BY RF-SCORE:    0.00 PKD
ROOT
HETATM    1  O   UNL     1     -10.784   6.991  74.176  1.00  0.00    -0.496 OA 
HETATM    2  H   UNL     1     -10.022   7.264  74.673  1.00  0.00     0.000 HD 
HETATM    3  C   UNL     1     -10.680   7.107  72.730  1.00  0.00    -0.288 C  
HETATM    4  C   UNL     1     -11.941   6.655  71.906  1.00  0.00    -0.341 C  
HETATM    5  O   UNL     1     -11.618   6.440  69.101  1.00  0.00    -0.318 OA 
HETATM    6  C   UNL     1     -11.063   8.508  72.111  1.00  0.00    -0.366 C  
HETATM    7  N   UNL     1     -11.535   7.732  70.956  1.00  0.00    -0.279 N  
HETATM    8  C   UNL     1     -11.121   7.431  69.645  1.00  0.00    -0.111 C  
ENDROOT
BRANCH   3   9
HETATM    9  C   UNL     1      -9.273   6.632  72.240  1.00  0.00    -0.136 C  
HETATM   10  C   UNL     1      -7.796   4.820  71.330  1.00  0.00    -0.096 C  
HETATM   11  C   UNL     1      -6.748   5.207  72.371  1.00  0.00    -0.057 C  
HETATM   12  H   UNL     1      -8.402   6.501  74.124  1.00  0.00     0.000 HD 
HETATM   13  C   UNL     1      -9.206   5.148  71.850  1.00  0.00    -0.160 C  
HETATM   14  C   UNL     1      -6.885   6.677  72.740  1.00  0.00    -0.068 C  
HETATM   15  N   UNL     1      -8.228   6.967  73.234  1.00  0.00    -0.112 NA 
ENDBRANCH   3   9
BRANCH   8  16
HETATM   16  C   UNL     1     -10.006   8.146  68.890  1.00  0.00    -0.198 A  
HETATM   17  C   UNL     1     -10.264   9.334  68.127  1.00  0.00    -0.205 A  
HETATM   18  C   UNL     1      -8.717   7.588  68.790  1.00  0.00    -0.128 A  
HETATM   19  C   UNL     1      -7.973   9.258  67.244  1.00  0.00    -0.106 A  
HETATM   20  F   UNL     1      -9.437  10.900  66.500  1.00  0.00    -0.185 F  
HETATM   21  F   UNL     1      -7.022   9.762  66.446  1.00  0.00    -0.085 F  
HETATM   22  C   UNL     1      -7.711   8.127  67.981  1.00  0.00    -0.114 A  
HETATM   23  C   UNL     1      -9.223   9.845  67.303  1.00  0.00    -0.138 A  
BRANCH  17  24
HETATM   24  N   UNL     1     -11.538   9.985  68.117  1.00  0.00    -0.636 NA 
HETATM   25  H   UNL     1     -12.285   9.528  67.594  1.00  0.00     0.000 HD 
BRANCH  24  26
HETATM   26  C   UNL     1     -11.863  11.209  68.768  1.00  0.00    -0.320 A  
HETATM   27  C   UNL     1     -11.827  12.433  68.096  1.00  0.00    -0.315 A  
HETATM   28  F   UNL     1     -11.540  12.472  66.785  1.00  0.00    -0.341 F  
HETATM   29  C   UNL     1     -12.015  13.644  68.775  1.00  0.00    -0.394 A  
HETATM   30  C   UNL     1     -12.252  13.630  70.149  1.00  0.00    -0.342 A  
HETATM   31  C   UNL     1     -12.314  12.422  70.840  1.00  0.00    -0.358 A  
HETATM   32  I   UNL     1     -12.496  15.413  71.190  1.00  0.00    -0.586 I  
HETATM   33  C   UNL     1     -12.133  11.221  70.147  1.00  0.00    -0.448 A  
ENDBRANCH  24  26
ENDBRANCH  17  24
ENDBRANCH   8  16
TORSDOF 4
ENDMDL
MODEL       30
REMARK 921   NORMALIZED FREE ENERGY PREDICTED BY IDOCK:   -6.15 KCAL/MOL
REMARK 922        TOTAL FREE ENERGY PREDICTED BY IDOCK:   -9.33 KCAL/MOL
REMARK 923 INTER-LIGAND FREE ENERGY PREDICTED BY IDOCK:   -8.16 KCAL/MOL
REMARK 924 INTRA-LIGAND FREE ENERGY PREDICTED BY IDOCK:   -1.17 KCAL/MOL
REMARK 927      BINDING AFFINITY PREDICTED BY RF-SCORE:    0.00 PKD
ROOT
HETATM    1  O   UNL     1      -7.521  10.638  64.100  1.00  0.00    -0.347 OA 
HETATM    2  H   UNL     1      -6.580  10.637  64.237  1.00  0.00     0.000 HD 
HETATM    3  C   UNL     1      -8.336  10.320  65.263  1.00  0.00    -0.163 C  
HETATM    4  C   UNL     1      -9.893  10.322  65.037  1.00  0.00    -0.329 C  
HETATM    5  O   UNL     1     -11.512  10.157  67.354  1.00  0.00    -0.212 OA 
HETATM    6  C   UNL     1      -8.607   8.788  65.529  1.00  0.00    -0.174 C  
HETATM    7  N   UNL     1      -9.902   9.235  66.060  1.00  0.00    -0.294 N  
HETATM    8  C   UNL     1     -10.528   9.413  67.308  1.00  0.00    -0.264 C  
ENDROOT
BRANCH   3   9
HETATM    9  C   UNL     1      -7.777  11.033  66.538  1.00  0.00    -0.154 C  
HETATM   10  C   UNL     1      -7.897  12.910  68.196  1.00  0.00    -0.147 C  
HETATM   11  C   UNL     1      -6.388  13.083  68.050  1.00  0.00    -0.115 C  
HETATM   12  H   UNL     1      -6.087  11.839  65.632  1.00  0.00     0.000 HD 
HETATM   13  C   UNL     1      -8.494  12.342  66.898  1.00  0.00    -0.159 C  
HETATM   14  C   UNL     1      -5.738  11.762  67.663  1.00  0.00    -0.067 C  
HETATM   15  N   UNL     1      -6.316  11.241  66.427  1.00  0.00    -0.123 NA 
ENDBRANCH   3   9
BRANCH   8  16
HETATM   16  C   UNL     1     -10.009   8.872  68.636  1.00  0.00    -0.192 A  
HETATM   17  C   UNL     1     -10.710   9.115  69.865  1.00  0.00    -0.231 A  
HETATM   18  C   UNL     1      -8.751   8.247  68.728  1.00  0.00    -0.137 A  
HETATM   19  C   UNL     1      -8.842   8.127  71.118  1.00  0.00    -0.146 A  
HETATM   20  F   UNL     1     -10.649   9.025  72.267  1.00  0.00    -0.399 F  
HETATM   21  F   UNL     1      -8.276   7.800  72.288  1.00  0.00    -0.106 F  
HETATM   22  C   UNL     1      -8.168   7.878  69.946  1.00  0.00    -0.120 A  
HETATM   23  C   UNL     1     -10.080   8.741  71.085  1.00  0.00    -0.247 A  
BRANCH  17  24
HETATM   24  N   UNL     1     -11.982   9.767  69.914  1.00  0.00    -0.459 NA 
HETATM   25  H   UNL     1     -12.769   9.274  69.493  1.00  0.00     0.000 HD 
BRANCH  24  26
HETATM   26  C   UNL     1     -12.255  11.039  70.494  1.00  0.00    -0.381 A  
HETATM   27  C   UNL     1     -13.039  11.172  71.641  1.00  0.00    -0.424 A  
HETATM   28  F   UNL     1     -13.509  10.080  72.265  1.00  0.00    -0.482 F  
HETATM   29  C   UNL     1     -13.416  12.432  72.126  1.00  0.00    -0.481 A  
HETATM   30  C   UNL     1     -12.992  13.579  71.456  1.00  0.00    -0.355 A  
HETATM   31  C   UNL     1     -12.191  13.475  70.322  1.00  0.00    -0.417 A  
HETATM   32  I   UNL     1     -13.567  15.460  72.129  1.00  0.00    -0.647 I  
HETATM   33  C   UNL     1     -11.816  12.211  69.855  1.00  0.00    -0.392 A  
ENDBRANCH  24  26
ENDBRANCH  17  24
ENDBRANCH   8  16
TORSDOF 4
ENDMDL
MODEL       31
REMARK 921   NORMALIZED FREE ENERGY PREDICTED BY IDOCK:   -6.13 KCAL/MOL
REMARK 922        TOTAL FREE ENERGY PREDICTED BY IDOCK:   -9.31 KCAL/MOL
REMARK 923 INTER-LIGAND FREE ENERGY PREDICTED BY IDOCK:   -7.76 KCAL/MOL
REMARK 924 INTRA-LIGAND FREE ENERGY PREDICTED BY IDOCK:   -1.54 KCAL/MOL
REMARK 927      BINDING AFFINITY PREDICTED BY RF-SCORE:    0.00 PKD
ROOT
HETATM    1  O   UNL     1      -9.475   6.838  65.954  1.00  0.00    -0.388 OA 
HETATM    2  H   UNL     1     -10.129   6.159  66.078  1.00  0.00     0.000 HD 
HETATM    3  C   UNL     1      -9.561   7.980  66.851  1.00  0.00    -0.204 C  
HETATM    4  C   UNL     1      -8.479   9.103  66.647  1.00  0.00    -0.123 C  
HETATM    5  O   UNL     1      -8.331  11.104  68.645  1.00  0.00    -0.146 OA 
HETATM    6  C   UNL     1     -10.525   9.148  66.407  1.00  0.00    -0.071 C  
HETATM    7  N   UNL     1      -9.563  10.033  67.079  1.00  0.00    -0.166 N  
HETATM    8  C   UNL     1      -9.461  10.769  68.274  1.00  0.00    -0.164 C  
ENDROOT
BRANCH   3   9
HETATM    9  C   UNL     1      -9.866   7.510  68.312  1.00  0.00    -0.163 C  
HETATM   10  C   UNL     1      -9.065   6.572  70.495  1.00  0.00    -0.152 C  
HETATM   11  C   UNL     1     -10.252   5.613  70.473  1.00  0.00    -0.297 C  
HETATM   12  H   UNL     1     -10.785   5.718  67.792  1.00  0.00     0.000 HD 
HETATM   13  C   UNL     1      -8.653   6.939  69.060  1.00  0.00    -0.128 C  
HETATM   14  C   UNL     1     -11.409   6.219  69.692  1.00  0.00    -0.422 C  
HETATM   15  N   UNL     1     -10.998   6.557  68.332  1.00  0.00    -0.288 NA 
ENDBRANCH   3   9
BRANCH   8  16
HETATM   16  C   UNL     1     -10.616  11.067  69.224  1.00  0.00    -0.236 A  
HETATM   17  C   UNL     1     -11.288  12.336  69.206  1.00  0.00    -0.256 A  
HETATM   18  C   UNL     1     -10.967  10.171  70.251  1.00  0.00    -0.380 A  
HETATM   19  C   UNL     1     -12.540  11.694  71.220  1.00  0.00    -0.320 A  
HETATM   20  F   UNL     1     -12.822  13.816  70.318  1.00  0.00    -0.342 F  
HETATM   21  F   UNL     1     -13.425  11.998  72.179  1.00  0.00    -0.572 F  
HETATM   22  C   UNL     1     -11.912  10.471  71.239  1.00  0.00    -0.386 A  
HETATM   23  C   UNL     1     -12.231  12.614  70.234  1.00  0.00    -0.271 A  
BRANCH  17  24
HETATM   24  N   UNL     1     -11.005  13.346  68.234  1.00  0.00    -0.249 NA 
HETATM   25  H   UNL     1     -11.393  13.210  67.300  1.00  0.00     0.000 HD 
BRANCH  24  26
HETATM   26  C   UNL     1     -10.233  14.525  68.445  1.00  0.00    -0.239 A  
HETATM   27  C   UNL     1     -10.824  15.786  68.535  1.00  0.00    -0.290 A  
HETATM   28  F   UNL     1     -12.160  15.908  68.485  1.00  0.00    -0.362 F  
HETATM   29  C   UNL     1     -10.050  16.952  68.605  1.00  0.00    -0.291 A  
HETATM   30  C   UNL     1      -8.659  16.853  68.593  1.00  0.00    -0.267 A  
HETATM   31  C   UNL     1      -8.044  15.605  68.525  1.00  0.00    -0.147 A  
HETATM   32  I   UNL     1      -7.484  18.567  68.656  1.00  0.00    -0.262 I  
HETATM   33  C   UNL     1      -8.830  14.450  68.465  1.00  0.00    -0.182 A  
ENDBRANCH  24  26
ENDBRANCH  17  24
ENDBRANCH   8  16
TORSDOF 4
ENDMDL
MODEL       32
REMARK 921   NORMALIZED FREE ENERGY PREDICTED BY IDOCK:   -6.10 KCAL/MOL
REMARK 922        TOTAL FREE ENERGY PREDICTED BY IDOCK:   -9.27 KCAL/MOL
REMARK 923 INTER-LIGAND FREE ENERGY PREDICTED BY IDOCK:   -7.73 KCAL/MOL
REMARK 924 INTRA-LIGAND FREE ENERGY PREDICTED BY IDOCK:   -1.54 KCAL/MOL
REMARK 927      BINDING AFFINITY PREDICTED BY RF-SCORE:    0.00 PKD
ROOT
HETATM    1  O   UNL     1      -6.438  18.106  69.825  1.00  0.00    -0.186 OA 
HETATM    2  H   UNL     1      -6.817  18.976  69.771  1.00  0.00     0.000 HD 
HETATM    3  C   UNL     1      -6.991  17.110  68.920  1.00  0.00    -0.232 C  
HETATM    4  C   UNL     1      -6.363  15.671  69.009  1.00  0.00    -0.123 C  
HETATM    5  O   UNL     1      -7.088  13.840  66.974  1.00  0.00     0.006 OA 
HETATM    6  C   UNL     1      -8.268  16.334  69.430  1.00  0.00    -0.035 C  
HETATM    7  N   UNL     1      -7.736  15.200  68.661  1.00  0.00    -0.119 N  
HETATM    8  C   UNL     1      -7.994  14.532  67.450  1.00  0.00    -0.200 C  
ENDROOT
BRANCH   3   9
HETATM    9  C   UNL     1      -7.224  17.724  67.501  1.00  0.00    -0.190 C  
HETATM   10  C   UNL     1      -6.303  18.510  65.305  1.00  0.00    -0.263 C  
HETATM   11  C   UNL     1      -7.161  19.765  65.439  1.00  0.00    -0.262 C  
HETATM   12  H   UNL     1      -7.561  19.673  68.144  1.00  0.00     0.000 HD 
HETATM   13  C   UNL     1      -5.939  17.965  66.696  1.00  0.00    -0.195 C  
HETATM   14  C   UNL     1      -8.401  19.473  66.272  1.00  0.00    -0.345 C  
HETATM   15  N   UNL     1      -8.034  18.960  67.589  1.00  0.00    -0.249 NA 
ENDBRANCH   3   9
BRANCH   8  16
HETATM   16  C   UNL     1      -9.250  14.701  66.603  1.00  0.00    -0.291 A  
HETATM   17  C   UNL     1     -10.026  13.568  66.184  1.00  0.00    -0.304 A  
HETATM   18  C   UNL     1      -9.612  15.955  66.076  1.00  0.00    -0.385 A  
HETATM   19  C   UNL     1     -11.391  15.036  64.765  1.00  0.00    -0.406 A  
HETATM   20  F   UNL     1     -11.776  12.745  64.755  1.00  0.00    -0.336 F  
HETATM   21  F   UNL     1     -12.382  15.193  63.876  1.00  0.00    -0.444 F  
HETATM   22  C   UNL     1     -10.664  16.130  65.170  1.00  0.00    -0.391 A  
HETATM   23  C   UNL     1     -11.077  13.780  65.249  1.00  0.00    -0.313 A  
BRANCH  17  24
HETATM   24  N   UNL     1      -9.746  12.236  66.622  1.00  0.00    -0.217 NA 
HETATM   25  H   UNL     1      -9.153  11.666  66.017  1.00  0.00     0.000 HD 
BRANCH  24  26
HETATM   26  C   UNL     1     -10.216  11.627  67.821  1.00  0.00    -0.186 A  
HETATM   27  C   UNL     1      -9.407  10.783  68.585  1.00  0.00    -0.184 A  
HETATM   28  F   UNL     1      -8.129  10.575  68.230  1.00  0.00    -0.103 F  
HETATM   29  C   UNL     1      -9.917  10.082  69.685  1.00  0.00    -0.263 A  
HETATM   30  C   UNL     1     -11.258  10.235  70.033  1.00  0.00    -0.311 A  
HETATM   31  C   UNL     1     -12.082  11.086  69.301  1.00  0.00    -0.363 A  
HETATM   32  I   UNL     1     -12.054   9.177  71.636  1.00  0.00    -0.471 I  
HETATM   33  C   UNL     1     -11.556  11.787  68.210  1.00  0.00    -0.373 A  
ENDBRANCH  24  26
ENDBRANCH  17  24
ENDBRANCH   8  16
TORSDOF 4
ENDMDL
MODEL       33
REMARK 921   NORMALIZED FREE ENERGY PREDICTED BY IDOCK:   -6.08 KCAL/MOL
REMARK 922        TOTAL FREE ENERGY PREDICTED BY IDOCK:   -9.25 KCAL/MOL
REMARK 923 INTER-LIGAND FREE ENERGY PREDICTED BY IDOCK:   -7.89 KCAL/MOL
REMARK 924 INTRA-LIGAND FREE ENERGY PREDICTED BY IDOCK:   -1.36 KCAL/MOL
REMARK 927      BINDING AFFINITY PREDICTED BY RF-SCORE:    0.00 PKD
ROOT
HETATM    1  O   UNL     1      -6.016   8.849  68.124  1.00  0.00    -0.045 OA 
HETATM    2  H   UNL     1      -5.761   8.240  67.441  1.00  0.00     0.000 HD 
HETATM    3  C   UNL     1      -7.201   9.650  67.860  1.00  0.00    -0.081 C  
HETATM    4  C   UNL     1      -7.623  10.657  68.992  1.00  0.00    -0.122 C  
HETATM    5  O   UNL     1     -10.154  11.895  68.714  1.00  0.00    -0.198 OA 
HETATM    6  C   UNL     1      -6.973  10.996  67.066  1.00  0.00    -0.117 C  
HETATM    7  N   UNL     1      -8.093  11.513  67.864  1.00  0.00    -0.125 N  
HETATM    8  C   UNL     1      -9.457  11.817  67.697  1.00  0.00    -0.180 C  
ENDROOT
BRANCH   3   9
HETATM    9  C   UNL     1      -8.318   8.778  67.198  1.00  0.00    -0.103 C  
HETATM   10  C   UNL     1     -10.465   7.496  67.396  1.00  0.00    -0.367 C  
HETATM   11  C   UNL     1      -9.812   6.360  66.612  1.00  0.00    -0.203 C  
HETATM   12  H   UNL     1      -7.198   7.030  67.062  1.00  0.00     0.000 HD 
HETATM   13  C   UNL     1      -9.398   8.286  68.173  1.00  0.00    -0.140 C  
HETATM   14  C   UNL     1      -8.731   6.905  65.689  1.00  0.00    -0.072 C  
HETATM   15  N   UNL     1      -7.727   7.648  66.446  1.00  0.00    -0.088 NA 
ENDBRANCH   3   9
BRANCH   8  16
HETATM   16  C   UNL     1     -10.176  11.922  66.357  1.00  0.00    -0.240 A  
HETATM   17  C   UNL     1     -11.267  12.836  66.165  1.00  0.00    -0.298 A  
HETATM   18  C   UNL     1      -9.900  11.026  65.308  1.00  0.00    -0.309 A  
HETATM   19  C   UNL     1     -11.692  11.855  63.954  1.00  0.00    -0.415 A  
HETATM   20  F   UNL     1     -13.093  13.523  64.760  1.00  0.00    -0.273 F  
HETATM   21  F   UNL     1     -12.423  11.801  62.832  1.00  0.00    -0.543 F  
HETATM   22  C   UNL     1     -10.641  10.984  64.122  1.00  0.00    -0.412 A  
HETATM   23  C   UNL     1     -12.009  12.755  64.955  1.00  0.00    -0.402 A  
BRANCH  17  24
HETATM   24  N   UNL     1     -11.670  13.778  67.163  1.00  0.00    -0.362 NA 
HETATM   25  H   UNL     1     -12.380  13.470  67.829  1.00  0.00     0.000 HD 
BRANCH  24  26
HETATM   26  C   UNL     1     -11.176  15.105  67.317  1.00  0.00    -0.324 A  
HETATM   27  C   UNL     1     -11.350  15.823  68.502  1.00  0.00    -0.374 A  
HETATM   28  F   UNL     1     -11.944  15.244  69.558  1.00  0.00    -0.300 F  
HETATM   29  C   UNL     1     -10.984  17.172  68.599  1.00  0.00    -0.171 A  
HETATM   30  C   UNL     1     -10.424  17.811  67.493  1.00  0.00    -0.372 A  
HETATM   31  C   UNL     1     -10.220  17.112  66.306  1.00  0.00    -0.340 A  
HETATM   32  I   UNL     1      -9.906  19.822  67.594  1.00  0.00    -0.602 I  
HETATM   33  C   UNL     1     -10.582  15.764  66.227  1.00  0.00    -0.313 A  
ENDBRANCH  24  26
ENDBRANCH  17  24
ENDBRANCH   8  16
TORSDOF 4
ENDMDL
MODEL       34
REMARK 921   NORMALIZED FREE ENERGY PREDICTED BY IDOCK:   -6.08 KCAL/MOL
REMARK 922        TOTAL FREE ENERGY PREDICTED BY IDOCK:   -9.24 KCAL/MOL
REMARK 923 INTER-LIGAND FREE ENERGY PREDICTED BY IDOCK:   -7.88 KCAL/MOL
REMARK 924 INTRA-LIGAND FREE ENERGY PREDICTED BY IDOCK:   -1.36 KCAL/MOL
REMARK 927      BINDING AFFINITY PREDICTED BY RF-SCORE:    0.00 PKD
ROOT
HETATM    1  O   UNL     1      -8.648   8.374  73.315  1.00  0.00    -0.303 OA 
HETATM    2  H   UNL     1      -7.962   8.998  73.522  1.00  0.00     0.000 HD 
HETATM    3  C   UNL     1      -9.102   8.358  71.932  1.00  0.00    -0.221 C  
HETATM    4  C   UNL     1     -10.237   7.326  71.588  1.00  0.00    -0.192 C  
HETATM    5  O   UNL     1     -10.824   6.949  68.844  1.00  0.00    -0.229 OA 
HETATM    6  C   UNL     1     -10.240   9.386  71.557  1.00  0.00    -0.152 C  
HETATM    7  N   UNL     1     -10.688   8.357  70.609  1.00  0.00    -0.215 N  
HETATM    8  C   UNL     1     -10.655   8.112  69.223  1.00  0.00    -0.182 C  
ENDROOT
BRANCH   3   9
HETATM    9  C   UNL     1      -7.887   8.468  70.954  1.00  0.00    -0.107 C  
HETATM   10  C   UNL     1      -5.519   7.886  70.369  1.00  0.00    -0.023 C  
HETATM   11  C   UNL     1      -5.283   9.355  70.030  1.00  0.00    -0.032 C  
HETATM   12  H   UNL     1      -7.365  10.420  71.450  1.00  0.00     0.000 HD 
HETATM   13  C   UNL     1      -6.615   7.758  71.440  1.00  0.00    -0.041 C  
HETATM   14  C   UNL     1      -6.582  10.012  69.587  1.00  0.00    -0.062 C  
HETATM   15  N   UNL     1      -7.608   9.883  70.617  1.00  0.00    -0.285 NA 
ENDBRANCH   3   9
BRANCH   8  16
HETATM   16  C   UNL     1     -10.291   9.140  68.158  1.00  0.00    -0.263 A  
HETATM   17  C   UNL     1     -11.124  10.282  67.907  1.00  0.00    -0.276 A  
HETATM   18  C   UNL     1      -9.210   8.930  67.280  1.00  0.00    -0.164 A  
HETATM   19  C   UNL     1      -9.747  10.849  65.953  1.00  0.00    -0.224 A  
HETATM   20  F   UNL     1     -11.622  12.128  66.448  1.00  0.00    -0.373 F  
HETATM   21  F   UNL     1      -9.505  11.636  64.896  1.00  0.00    -0.234 F  
HETATM   22  C   UNL     1      -8.935   9.765  66.192  1.00  0.00    -0.181 A  
HETATM   23  C   UNL     1     -10.825  11.100  66.782  1.00  0.00    -0.268 A  
BRANCH  17  24
HETATM   24  N   UNL     1     -12.270  10.593  68.704  1.00  0.00    -0.814 NA 
HETATM   25  H   UNL     1     -13.110  10.038  68.541  1.00  0.00     0.000 HD 
BRANCH  24  26
HETATM   26  C   UNL     1     -12.351  11.603  69.705  1.00  0.00    -0.133 A  
HETATM   27  C   UNL     1     -13.007  11.388  70.918  1.00  0.00    -0.121 A  
HETATM   28  F   UNL     1     -13.531  10.183  71.194  1.00  0.00    -0.422 F  
HETATM   29  C   UNL     1     -13.200  12.426  71.839  1.00  0.00    -0.486 A  
HETATM   30  C   UNL     1     -12.719  13.701  71.544  1.00  0.00    -0.332 A  
HETATM   31  C   UNL     1     -12.043  13.939  70.350  1.00  0.00    -0.421 A  
HETATM   32  I   UNL     1     -13.025  15.271  72.872  1.00  0.00    -0.757 I  
HETATM   33  C   UNL     1     -11.850  12.890  69.445  1.00  0.00    -0.371 A  
ENDBRANCH  24  26
ENDBRANCH  17  24
ENDBRANCH   8  16
TORSDOF 4
ENDMDL
MODEL       35
REMARK 921   NORMALIZED FREE ENERGY PREDICTED BY IDOCK:   -6.07 KCAL/MOL
REMARK 922        TOTAL FREE ENERGY PREDICTED BY IDOCK:   -9.24 KCAL/MOL
REMARK 923 INTER-LIGAND FREE ENERGY PREDICTED BY IDOCK:   -7.30 KCAL/MOL
REMARK 924 INTRA-LIGAND FREE ENERGY PREDICTED BY IDOCK:   -1.94 KCAL/MOL
REMARK 927      BINDING AFFINITY PREDICTED BY RF-SCORE:    0.00 PKD
ROOT
HETATM    1  O   UNL     1     -10.039   7.353  74.403  1.00  0.00    -0.349 OA 
HETATM    2  H   UNL     1     -10.820   6.842  74.582  1.00  0.00     0.000 HD 
HETATM    3  C   UNL     1      -9.655   7.464  73.004  1.00  0.00    -0.194 C  
HETATM    4  C   UNL     1      -8.362   8.309  72.706  1.00  0.00    -0.171 C  
HETATM    5  O   UNL     1      -7.842   8.923  69.991  1.00  0.00    -0.082 OA 
HETATM    6  C   UNL     1      -8.749   6.304  72.433  1.00  0.00    -0.121 C  
HETATM    7  N   UNL     1      -8.159   7.348  71.583  1.00  0.00    -0.098 N  
HETATM    8  C   UNL     1      -8.209   7.770  70.242  1.00  0.00    -0.125 C  
ENDROOT
BRANCH   3   9
HETATM    9  C   UNL     1     -10.912   7.702  72.105  1.00  0.00    -0.257 C  
HETATM   10  C   UNL     1     -13.088   8.881  71.695  1.00  0.00    -0.405 C  
HETATM   11  C   UNL     1     -13.704   7.533  71.333  1.00  0.00    -0.414 C  
HETATM   12  H   UNL     1     -11.879   5.923  72.581  1.00  0.00     0.000 HD 
HETATM   13  C   UNL     1     -11.934   8.686  72.693  1.00  0.00    -0.253 C  
HETATM   14  C   UNL     1     -12.640   6.592  70.786  1.00  0.00     0.050 C  
HETATM   15  N   UNL     1     -11.556   6.417  71.749  1.00  0.00    -0.304 NA 
ENDBRANCH   3   9
BRANCH   8  16
HETATM   16  C   UNL     1      -8.809   6.971  69.090  1.00  0.00    -0.135 A  
HETATM   17  C   UNL     1     -10.004   7.405  68.424  1.00  0.00    -0.164 A  
HETATM   18  C   UNL     1      -8.302   5.706  68.737  1.00  0.00    -0.103 A  
HETATM   19  C   UNL     1     -10.067   5.292  67.173  1.00  0.00    -0.203 A  
HETATM   20  F   UNL     1     -11.776   6.841  66.899  1.00  0.00    -0.293 F  
HETATM   21  F   UNL     1     -10.673   4.486  66.291  1.00  0.00    -0.296 F  
HETATM   22  C   UNL     1      -8.915   4.872  67.796  1.00  0.00    -0.118 A  
HETATM   23  C   UNL     1     -10.609   6.525  67.484  1.00  0.00    -0.280 A  
BRANCH  17  24
HETATM   24  N   UNL     1     -10.638   8.655  68.710  1.00  0.00    -0.361 NA 
HETATM   25  H   UNL     1     -11.119   8.734  69.606  1.00  0.00     0.000 HD 
BRANCH  24  26
HETATM   26  C   UNL     1     -10.663   9.800  67.863  1.00  0.00    -0.258 A  
HETATM   27  C   UNL     1     -11.525  10.873  68.099  1.00  0.00    -0.295 A  
HETATM   28  F   UNL     1     -12.318  10.872  69.183  1.00  0.00    -0.393 F  
HETATM   29  C   UNL     1     -11.640  11.931  67.189  1.00  0.00    -0.363 A  
HETATM   30  C   UNL     1     -10.872  11.921  66.025  1.00  0.00    -0.299 A  
HETATM   31  C   UNL     1      -9.989  10.873  65.775  1.00  0.00    -0.299 A  
HETATM   32  I   UNL     1     -11.051  13.457  64.636  1.00  0.00    -0.439 I  
HETATM   33  C   UNL     1      -9.878   9.828  66.698  1.00  0.00    -0.275 A  
ENDBRANCH  24  26
ENDBRANCH  17  24
ENDBRANCH   8  16
TORSDOF 4
ENDMDL
MODEL       36
REMARK 921   NORMALIZED FREE ENERGY PREDICTED BY IDOCK:   -6.07 KCAL/MOL
REMARK 922        TOTAL FREE ENERGY PREDICTED BY IDOCK:   -9.23 KCAL/MOL
REMARK 923 INTER-LIGAND FREE ENERGY PREDICTED BY IDOCK:   -8.24 KCAL/MOL
REMARK 924 INTRA-LIGAND FREE ENERGY PREDICTED BY IDOCK:   -1.00 KCAL/MOL
REMARK 927      BINDING AFFINITY PREDICTED BY RF-SCORE:    0.00 PKD
ROOT
HETATM    1  O   UNL     1      -6.104   8.901  67.842  1.00  0.00    -0.049 OA 
HETATM    2  H   UNL     1      -6.317   8.055  67.465  1.00  0.00     0.000 HD 
HETATM    3  C   UNL     1      -7.055   9.973  67.587  1.00  0.00    -0.087 C  
HETATM    4  C   UNL     1      -6.703  11.373  68.211  1.00  0.00    -0.059 C  
HETATM    5  O   UNL     1      -8.729  13.349  68.124  1.00  0.00    -0.168 OA 
HETATM    6  C   UNL     1      -6.857  10.779  66.244  1.00  0.00    -0.135 C  
HETATM    7  N   UNL     1      -7.375  11.927  67.000  1.00  0.00    -0.139 N  
HETATM    8  C   UNL     1      -8.564  12.675  67.102  1.00  0.00    -0.199 C  
ENDROOT
BRANCH   3   9
HETATM    9  C   UNL     1      -8.522   9.452  67.730  1.00  0.00    -0.116 C  
HETATM   10  C   UNL     1     -10.386   8.603  69.178  1.00  0.00    -0.227 C  
HETATM   11  C   UNL     1     -10.625   7.497  68.153  1.00  0.00    -0.201 C  
HETATM   12  H   UNL     1      -8.176   7.561  66.936  1.00  0.00     0.000 HD 
HETATM   13  C   UNL     1      -8.911   9.036  69.156  1.00  0.00    -0.142 C  
HETATM   14  C   UNL     1     -10.192   7.955  66.768  1.00  0.00    -0.287 C  
HETATM   15  N   UNL     1      -8.789   8.358  66.768  1.00  0.00    -0.133 NA 
ENDBRANCH   3   9
BRANCH   8  16
HETATM   16  C   UNL     1      -9.727  12.614  66.119  1.00  0.00    -0.253 A  
HETATM   17  C   UNL     1     -10.778  13.592  66.145  1.00  0.00    -0.289 A  
HETATM   18  C   UNL     1      -9.894  11.518  65.251  1.00  0.00    -0.286 A  
HETATM   19  C   UNL     1     -12.032  12.280  64.490  1.00  0.00    -0.383 A  
HETATM   20  F   UNL     1     -12.972  14.210  65.378  1.00  0.00    -0.511 F  
HETATM   21  F   UNL     1     -13.130  12.105  63.741  1.00  0.00    -0.530 F  
HETATM   22  C   UNL     1     -11.025  11.345  64.447  1.00  0.00    -0.371 A  
HETATM   23  C   UNL     1     -11.921  13.375  65.326  1.00  0.00    -0.380 A  
BRANCH  17  24
HETATM   24  N   UNL     1     -10.747  14.737  67.002  1.00  0.00    -0.294 NA 
HETATM   25  H   UNL     1     -10.238  15.554  66.661  1.00  0.00     0.000 HD 
BRANCH  24  26
HETATM   26  C   UNL     1     -11.357  14.848  68.284  1.00  0.00    -0.310 A  
HETATM   27  C   UNL     1     -11.260  16.012  69.048  1.00  0.00    -0.347 A  
HETATM   28  F   UNL     1     -10.631  17.090  68.554  1.00  0.00    -0.297 F  
HETATM   29  C   UNL     1     -11.745  16.066  70.361  1.00  0.00    -0.326 A  
HETATM   30  C   UNL     1     -12.346  14.936  70.917  1.00  0.00    -0.328 A  
HETATM   31  C   UNL     1     -12.474  13.768  70.169  1.00  0.00    -0.332 A  
HETATM   32  I   UNL     1     -13.039  14.973  72.876  1.00  0.00    -0.661 I  
HETATM   33  C   UNL     1     -11.993  13.733  68.856  1.00  0.00    -0.394 A  
ENDBRANCH  24  26
ENDBRANCH  17  24
ENDBRANCH   8  16
TORSDOF 4
ENDMDL
MODEL       37
REMARK 921   NORMALIZED FREE ENERGY PREDICTED BY IDOCK:   -6.06 KCAL/MOL
REMARK 922        TOTAL FREE ENERGY PREDICTED BY IDOCK:   -9.22 KCAL/MOL
REMARK 923 INTER-LIGAND FREE ENERGY PREDICTED BY IDOCK:   -7.89 KCAL/MOL
REMARK 924 INTRA-LIGAND FREE ENERGY PREDICTED BY IDOCK:   -1.33 KCAL/MOL
REMARK 927      BINDING AFFINITY PREDICTED BY RF-SCORE:    0.00 PKD
ROOT
HETATM    1  O   UNL     1      -7.942   9.027  65.000  1.00  0.00    -0.111 OA 
HETATM    2  H   UNL     1      -7.630   8.572  65.773  1.00  0.00     0.000 HD 
HETATM    3  C   UNL     1      -8.726  10.229  65.238  1.00  0.00    -0.172 C  
HETATM    4  C   UNL     1      -9.243  10.984  63.959  1.00  0.00    -0.162 C  
HETATM    5  O   UNL     1     -10.372  13.548  64.364  1.00  0.00    -0.433 OA 
HETATM    6  C   UNL     1     -10.275  10.023  65.461  1.00  0.00    -0.178 C  
HETATM    7  N   UNL     1     -10.420  11.331  64.808  1.00  0.00    -0.308 N  
HETATM    8  C   UNL     1     -10.696  12.664  65.164  1.00  0.00    -0.292 C  
ENDROOT
BRANCH   3   9
HETATM    9  C   UNL     1      -8.092  11.080  66.387  1.00  0.00    -0.166 C  
HETATM   10  C   UNL     1      -6.089  12.202  67.398  1.00  0.00    -0.143 C  
HETATM   11  C   UNL     1      -6.475  11.591  68.742  1.00  0.00    -0.058 C  
HETATM   12  H   UNL     1      -8.053   9.561  67.807  1.00  0.00     0.000 HD 
HETATM   13  C   UNL     1      -6.580  11.307  66.248  1.00  0.00    -0.018 C  
HETATM   14  C   UNL     1      -7.978  11.362  68.809  1.00  0.00    -0.122 C  
HETATM   15  N   UNL     1      -8.423  10.507  67.711  1.00  0.00    -0.114 NA 
ENDBRANCH   3   9
BRANCH   8  16
HETATM   16  C   UNL     1     -11.234  13.119  66.515  1.00  0.00    -0.339 A  
HETATM   17  C   UNL     1     -11.335  14.512  66.847  1.00  0.00    -0.348 A  
HETATM   18  C   UNL     1     -11.511  12.195  67.540  1.00  0.00    -0.410 A  
HETATM   19  C   UNL     1     -11.937  13.913  69.152  1.00  0.00    -0.363 A  
HETATM   20  F   UNL     1     -11.693  16.149  68.573  1.00  0.00    -0.372 F  
HETATM   21  F   UNL     1     -12.240  14.283  70.404  1.00  0.00    -0.316 F  
HETATM   22  C   UNL     1     -11.857  12.576  68.841  1.00  0.00    -0.346 A  
HETATM   23  C   UNL     1     -11.672  14.864  68.184  1.00  0.00    -0.318 A  
BRANCH  17  24
HETATM   24  N   UNL     1     -11.053  15.553  65.908  1.00  0.00    -0.261 NA 
HETATM   25  H   UNL     1     -11.582  15.543  65.035  1.00  0.00     0.000 HD 
BRANCH  24  26
HETATM   26  C   UNL     1     -10.105  16.603  66.073  1.00  0.00    -0.340 A  
HETATM   27  C   UNL     1      -8.759  16.346  66.337  1.00  0.00    -0.319 A  
HETATM   28  F   UNL     1      -8.312  15.080  66.380  1.00  0.00    -0.253 F  
HETATM   29  C   UNL     1      -7.861  17.381  66.633  1.00  0.00    -0.292 A  
HETATM   30  C   UNL     1      -8.318  18.698  66.656  1.00  0.00    -0.287 A  
HETATM   31  C   UNL     1      -9.652  18.985  66.377  1.00  0.00    -0.386 A  
HETATM   32  I   UNL     1      -7.020  20.250  67.131  1.00  0.00    -0.368 I  
HETATM   33  C   UNL     1     -10.534  17.942  66.074  1.00  0.00    -0.293 A  
ENDBRANCH  24  26
ENDBRANCH  17  24
ENDBRANCH   8  16
TORSDOF 4
ENDMDL
MODEL       38
REMARK 921   NORMALIZED FREE ENERGY PREDICTED BY IDOCK:   -6.06 KCAL/MOL
REMARK 922        TOTAL FREE ENERGY PREDICTED BY IDOCK:   -9.22 KCAL/MOL
REMARK 923 INTER-LIGAND FREE ENERGY PREDICTED BY IDOCK:   -7.68 KCAL/MOL
REMARK 924 INTRA-LIGAND FREE ENERGY PREDICTED BY IDOCK:   -1.54 KCAL/MOL
REMARK 927      BINDING AFFINITY PREDICTED BY RF-SCORE:    0.00 PKD
ROOT
HETATM    1  O   UNL     1      -9.709   4.665  67.113  1.00  0.00    -0.166 OA 
HETATM    2  H   UNL     1     -10.090   4.037  67.716  1.00  0.00     0.000 HD 
HETATM    3  C   UNL     1      -9.819   6.065  67.493  1.00  0.00    -0.125 C  
HETATM    4  C   UNL     1      -9.188   7.104  66.495  1.00  0.00    -0.162 C  
HETATM    5  O   UNL     1      -8.979   9.777  67.406  1.00  0.00    -0.134 OA 
HETATM    6  C   UNL     1     -11.146   6.805  67.063  1.00  0.00    -0.299 C  
HETATM    7  N   UNL     1     -10.297   7.998  66.941  1.00  0.00    -0.333 N  
HETATM    8  C   UNL     1     -10.037   9.186  67.649  1.00  0.00    -0.220 C  
ENDROOT
BRANCH   3   9
HETATM    9  C   UNL     1      -9.532   6.245  69.020  1.00  0.00    -0.128 C  
HETATM   10  C   UNL     1      -7.903   6.283  70.926  1.00  0.00    -0.107 C  
HETATM   11  C   UNL     1      -8.875   5.415  71.721  1.00  0.00    -0.142 C  
HETATM   12  H   UNL     1     -10.307   4.410  69.619  1.00  0.00     0.000 HD 
HETATM   13  C   UNL     1      -8.067   6.019  69.420  1.00  0.00    -0.111 C  
HETATM   14  C   UNL     1     -10.304   5.658  71.259  1.00  0.00    -0.228 C  
HETATM   15  N   UNL     1     -10.439   5.399  69.829  1.00  0.00    -0.307 NA 
ENDBRANCH   3   9
BRANCH   8  16
HETATM   16  C   UNL     1     -10.886   9.732  68.791  1.00  0.00    -0.219 A  
HETATM   17  C   UNL     1     -11.505  11.025  68.709  1.00  0.00    -0.305 A  
HETATM   18  C   UNL     1     -10.972   9.059  70.025  1.00  0.00    -0.230 A  
HETATM   19  C   UNL     1     -12.187  10.842  71.061  1.00  0.00    -0.358 A  
HETATM   20  F   UNL     1     -12.646  12.788  69.880  1.00  0.00    -0.201 F  
HETATM   21  F   UNL     1     -12.774  11.375  72.142  1.00  0.00    -0.419 F  
HETATM   22  C   UNL     1     -11.609   9.598  71.148  1.00  0.00    -0.456 A  
HETATM   23  C   UNL     1     -12.130  11.549  69.874  1.00  0.00    -0.316 A  
BRANCH  17  24
HETATM   24  N   UNL     1     -11.467  11.825  67.524  1.00  0.00    -0.404 NA 
HETATM   25  H   UNL     1     -11.942  11.454  66.701  1.00  0.00     0.000 HD 
BRANCH  24  26
HETATM   26  C   UNL     1     -10.831  13.092  67.383  1.00  0.00    -0.251 A  
HETATM   27  C   UNL     1     -11.467  14.173  66.770  1.00  0.00    -0.369 A  
HETATM   28  F   UNL     1     -12.737  14.054  66.350  1.00  0.00    -0.470 F  
HETATM   29  C   UNL     1     -10.788  15.371  66.514  1.00  0.00    -0.298 A  
HETATM   30  C   UNL     1      -9.450  15.493  66.885  1.00  0.00    -0.228 A  
HETATM   31  C   UNL     1      -8.796  14.437  67.517  1.00  0.00    -0.197 A  
HETATM   32  I   UNL     1      -8.404  17.244  66.482  1.00  0.00    -0.289 I  
HETATM   33  C   UNL     1      -9.491  13.251  67.775  1.00  0.00    -0.208 A  
ENDBRANCH  24  26
ENDBRANCH  17  24
ENDBRANCH   8  16
TORSDOF 4
ENDMDL
MODEL       39
REMARK 921   NORMALIZED FREE ENERGY PREDICTED BY IDOCK:   -6.03 KCAL/MOL
REMARK 922        TOTAL FREE ENERGY PREDICTED BY IDOCK:   -9.19 KCAL/MOL
REMARK 923 INTER-LIGAND FREE ENERGY PREDICTED BY IDOCK:   -7.78 KCAL/MOL
REMARK 924 INTRA-LIGAND FREE ENERGY PREDICTED BY IDOCK:   -1.41 KCAL/MOL
REMARK 927      BINDING AFFINITY PREDICTED BY RF-SCORE:    0.00 PKD
ROOT
HETATM    1  O   UNL     1      -9.996   9.806  63.514  1.00  0.00    -0.406 OA 
HETATM    2  H   UNL     1     -10.263   8.930  63.767  1.00  0.00     0.000 HD 
HETATM    3  C   UNL     1     -10.120  10.834  64.535  1.00  0.00    -0.350 C  
HETATM    4  C   UNL     1      -9.677  12.284  64.116  1.00  0.00    -0.030 C  
HETATM    5  O   UNL     1      -9.477  14.202  66.189  1.00  0.00    -0.272 OA 
HETATM    6  C   UNL     1     -11.526  11.544  64.646  1.00  0.00    -0.098 C  
HETATM    7  N   UNL     1     -10.758  12.733  65.042  1.00  0.00    -0.287 N  
HETATM    8  C   UNL     1     -10.463  13.458  66.211  1.00  0.00    -0.289 C  
ENDROOT
BRANCH   3   9
HETATM    9  C   UNL     1      -9.643  10.292  65.922  1.00  0.00    -0.209 C  
HETATM   10  C   UNL     1      -7.777   9.617  67.457  1.00  0.00    -0.095 C  
HETATM   11  C   UNL     1      -8.568   8.357  67.799  1.00  0.00    -0.130 C  
HETATM   12  H   UNL     1     -10.197   8.313  65.602  1.00  0.00     0.000 HD 
HETATM   13  C   UNL     1      -8.125  10.092  66.036  1.00  0.00    -0.129 C  
HETATM   14  C   UNL     1     -10.060   8.607  67.638  1.00  0.00    -0.213 C  
HETATM   15  N   UNL     1     -10.369   9.053  66.282  1.00  0.00    -0.181 NA 
ENDBRANCH   3   9
BRANCH   8  16
HETATM   16  C   UNL     1     -11.179  13.300  67.547  1.00  0.00    -0.309 A  
HETATM   17  C   UNL     1     -11.796  14.419  68.201  1.00  0.00    -0.327 A  
HETATM   18  C   UNL     1     -11.132  12.088  68.261  1.00  0.00    -0.290 A  
HETATM   19  C   UNL     1     -12.216  13.026  70.179  1.00  0.00    -0.272 A  
HETATM   20  F   UNL     1     -12.790  15.276  70.216  1.00  0.00    -0.391 F  
HETATM   21  F   UNL     1     -12.677  12.900  71.431  1.00  0.00    -0.430 F  
HETATM   22  C   UNL     1     -11.639  11.943  69.558  1.00  0.00    -0.394 A  
HETATM   23  C   UNL     1     -12.285  14.241  69.525  1.00  0.00    -0.297 A  
BRANCH  17  24
HETATM   24  N   UNL     1     -11.883  15.714  67.599  1.00  0.00    -0.138 NA 
HETATM   25  H   UNL     1     -12.744  15.931  67.094  1.00  0.00     0.000 HD 
BRANCH  24  26
HETATM   26  C   UNL     1     -10.885  16.729  67.635  1.00  0.00    -0.252 A  
HETATM   27  C   UNL     1     -10.411  17.339  66.472  1.00  0.00    -0.260 A  
HETATM   28  F   UNL     1     -10.940  17.016  65.281  1.00  0.00    -0.355 F  
HETATM   29  C   UNL     1      -9.336  18.236  66.503  1.00  0.00    -0.306 A  
HETATM   30  C   UNL     1      -8.730  18.537  67.723  1.00  0.00    -0.275 A  
HETATM   31  C   UNL     1      -9.196  17.959  68.901  1.00  0.00    -0.147 A  
HETATM   32  I   UNL     1      -7.107  19.834  67.797  1.00  0.00    -0.327 I  
HETATM   33  C   UNL     1     -10.277  17.072  68.854  1.00  0.00    -0.322 A  
ENDBRANCH  24  26
ENDBRANCH  17  24
ENDBRANCH   8  16
TORSDOF 4
ENDMDL
MODEL       40
REMARK 921   NORMALIZED FREE ENERGY PREDICTED BY IDOCK:   -6.02 KCAL/MOL
REMARK 922        TOTAL FREE ENERGY PREDICTED BY IDOCK:   -9.17 KCAL/MOL
REMARK 923 INTER-LIGAND FREE ENERGY PREDICTED BY IDOCK:   -7.50 KCAL/MOL
REMARK 924 INTRA-LIGAND FREE ENERGY PREDICTED BY IDOCK:   -1.67 KCAL/MOL
REMARK 927      BINDING AFFINITY PREDICTED BY RF-SCORE:    0.00 PKD
ROOT
HETATM    1  O   UNL     1      -7.244  13.387  66.838  1.00  0.00    -0.339 OA 
HETATM    2  H   UNL     1      -7.416  14.270  67.143  1.00  0.00     0.000 HD 
HETATM    3  C   UNL     1      -8.111  12.346  67.368  1.00  0.00    -0.177 C  
HETATM    4  C   UNL     1      -7.826  10.884  66.863  1.00  0.00    -0.135 C  
HETATM    5  O   UNL     1      -9.757   8.917  67.511  1.00  0.00    -0.156 OA 
HETATM    6  C   UNL     1      -7.677  11.708  68.746  1.00  0.00    -0.111 C  
HETATM    7  N   UNL     1      -8.279  10.474  68.225  1.00  0.00    -0.113 N  
HETATM    8  C   UNL     1      -9.447   9.710  68.406  1.00  0.00    -0.137 C  
ENDROOT
BRANCH   3   9
HETATM    9  C   UNL     1      -9.596  12.835  67.407  1.00  0.00    -0.199 C  
HETATM   10  C   UNL     1     -11.883  12.893  66.379  1.00  0.00    -0.478 C  
HETATM   11  C   UNL     1     -11.906  14.401  66.612  1.00  0.00    -0.417 C  
HETATM   12  H   UNL     1      -9.209  14.799  66.843  1.00  0.00     0.000 HD 
HETATM   13  C   UNL     1     -10.436  12.407  66.195  1.00  0.00    -0.274 C  
HETATM   14  C   UNL     1     -11.033  14.767  67.804  1.00  0.00    -0.291 C  
HETATM   15  N   UNL     1      -9.663  14.300  67.608  1.00  0.00    -0.217 NA 
ENDBRANCH   3   9
BRANCH   8  16
HETATM   16  C   UNL     1     -10.439   9.879  69.552  1.00  0.00    -0.261 A  
HETATM   17  C   UNL     1     -10.347   9.080  70.742  1.00  0.00    -0.243 A  
HETATM   18  C   UNL     1     -11.565  10.714  69.426  1.00  0.00    -0.352 A  
HETATM   19  C   UNL     1     -12.489  10.000  71.517  1.00  0.00    -0.419 A  
HETATM   20  F   UNL     1     -11.415   8.370  72.776  1.00  0.00    -0.434 F  
HETATM   21  F   UNL     1     -13.471  10.038  72.427  1.00  0.00    -0.483 F  
HETATM   22  C   UNL     1     -12.580  10.779  70.388  1.00  0.00    -0.395 A  
HETATM   23  C   UNL     1     -11.404   9.160  71.690  1.00  0.00    -0.376 A  
BRANCH  17  24
HETATM   24  N   UNL     1      -9.269   8.171  70.980  1.00  0.00    -0.148 NA 
HETATM   25  H   UNL     1      -8.515   8.497  71.585  1.00  0.00     0.000 HD 
BRANCH  24  26
HETATM   26  C   UNL     1      -9.148   6.852  70.455  1.00  0.00    -0.156 A  
HETATM   27  C   UNL     1      -8.116   6.498  69.585  1.00  0.00    -0.125 A  
HETATM   28  F   UNL     1      -7.166   7.393  69.269  1.00  0.00    -0.071 F  
HETATM   29  C   UNL     1      -8.080   5.241  68.967  1.00  0.00    -0.086 A  
HETATM   30  C   UNL     1      -9.092   4.318  69.232  1.00  0.00    -0.122 A  
HETATM   31  C   UNL     1     -10.123   4.639  70.112  1.00  0.00    -0.283 A  
HETATM   32  I   UNL     1      -9.088   2.460  68.300  1.00  0.00    -0.245 I  
HETATM   33  C   UNL     1     -10.139   5.894  70.729  1.00  0.00    -0.253 A  
ENDBRANCH  24  26
ENDBRANCH  17  24
ENDBRANCH   8  16
TORSDOF 4
ENDMDL
MODEL       41
REMARK 921   NORMALIZED FREE ENERGY PREDICTED BY IDOCK:   -6.01 KCAL/MOL
REMARK 922        TOTAL FREE ENERGY PREDICTED BY IDOCK:   -9.16 KCAL/MOL
REMARK 923 INTER-LIGAND FREE ENERGY PREDICTED BY IDOCK:   -7.98 KCAL/MOL
REMARK 924 INTRA-LIGAND FREE ENERGY PREDICTED BY IDOCK:   -1.18 KCAL/MOL
REMARK 927      BINDING AFFINITY PREDICTED BY RF-SCORE:    0.00 PKD
ROOT
HETATM    1  O   UNL     1     -12.645  14.093  67.604  1.00  0.00    -0.468 OA 
HETATM    2  H   UNL     1     -13.418  13.997  67.059  1.00  0.00     0.000 HD 
HETATM    3  C   UNL     1     -11.710  12.979  67.591  1.00  0.00    -0.366 C  
HETATM    4  C   UNL     1     -10.431  13.138  68.492  1.00  0.00    -0.251 C  
HETATM    5  O   UNL     1      -8.387  11.209  68.149  1.00  0.00    -0.124 OA 
HETATM    6  C   UNL     1     -12.001  11.810  68.612  1.00  0.00    -0.239 C  
HETATM    7  N   UNL     1     -10.541  11.660  68.670  1.00  0.00    -0.203 N  
HETATM    8  C   UNL     1      -9.548  10.790  68.182  1.00  0.00    -0.160 C  
ENDROOT
BRANCH   3   9
HETATM    9  C   UNL     1     -11.522  12.435  66.137  1.00  0.00    -0.379 C  
HETATM   10  C   UNL     1     -10.165  12.308  64.032  1.00  0.00    -0.399 C  
HETATM   11  C   UNL     1     -11.446  12.553  63.239  1.00  0.00    -0.409 C  
HETATM   12  H   UNL     1     -12.935  13.671  65.242  1.00  0.00     0.000 HD 
HETATM   13  C   UNL     1     -10.269  12.959  65.421  1.00  0.00    -0.301 C  
HETATM   14  C   UNL     1     -12.654  12.042  64.011  1.00  0.00    -0.359 C  
HETATM   15  N   UNL     1     -12.737  12.674  65.324  1.00  0.00    -0.656 NA 
ENDBRANCH   3   9
BRANCH   8  16
HETATM   16  C   UNL     1      -9.807   9.422  67.561  1.00  0.00    -0.220 A  
HETATM   17  C   UNL     1     -10.467   8.381  68.297  1.00  0.00    -0.163 A  
HETATM   18  C   UNL     1      -9.276   9.079  66.303  1.00  0.00    -0.258 A  
HETATM   19  C   UNL     1      -9.978   6.797  66.485  1.00  0.00    -0.079 A  
HETATM   20  F   UNL     1     -11.040   6.049  68.410  1.00  0.00    -0.329 F  
HETATM   21  F   UNL     1     -10.032   5.554  65.987  1.00  0.00    -0.179 F  
HETATM   22  C   UNL     1      -9.355   7.790  65.766  1.00  0.00     0.068 A  
HETATM   23  C   UNL     1     -10.514   7.079  67.728  1.00  0.00    -0.223 A  
BRANCH  17  24
HETATM   24  N   UNL     1     -11.024   8.589  69.598  1.00  0.00    -0.405 NA 
HETATM   25  H   UNL     1     -11.596   9.425  69.727  1.00  0.00     0.000 HD 
BRANCH  24  26
HETATM   26  C   UNL     1     -10.859   7.741  70.731  1.00  0.00    -0.239 A  
HETATM   27  C   UNL     1      -9.601   7.475  71.274  1.00  0.00    -0.156 A  
HETATM   28  F   UNL     1      -8.510   8.072  70.767  1.00  0.00    -0.113 F  
HETATM   29  C   UNL     1      -9.432   6.536  72.300  1.00  0.00    -0.144 A  
HETATM   30  C   UNL     1     -10.544   5.857  72.797  1.00  0.00    -0.225 A  
HETATM   31  C   UNL     1     -11.814   6.119  72.287  1.00  0.00    -0.326 A  
HETATM   32  I   UNL     1     -10.321   4.429  74.291  1.00  0.00    -0.286 I  
HETATM   33  C   UNL     1     -11.967   7.066  71.270  1.00  0.00    -0.388 A  
ENDBRANCH  24  26
ENDBRANCH  17  24
ENDBRANCH   8  16
TORSDOF 4
ENDMDL
MODEL       42
REMARK 921   NORMALIZED FREE ENERGY PREDICTED BY IDOCK:   -6.00 KCAL/MOL
REMARK 922        TOTAL FREE ENERGY PREDICTED BY IDOCK:   -9.15 KCAL/MOL
REMARK 923 INTER-LIGAND FREE ENERGY PREDICTED BY IDOCK:   -7.84 KCAL/MOL
REMARK 924 INTRA-LIGAND FREE ENERGY PREDICTED BY IDOCK:   -1.31 KCAL/MOL
REMARK 927      BINDING AFFINITY PREDICTED BY RF-SCORE:    0.00 PKD
ROOT
HETATM    1  O   UNL     1      -9.134   8.687  64.923  1.00  0.00    -0.426 OA 
HETATM    2  H   UNL     1      -9.411   7.905  64.459  1.00  0.00     0.000 HD 
HETATM    3  C   UNL     1      -9.248   8.645  66.372  1.00  0.00    -0.193 C  
HETATM    4  C   UNL     1      -8.789   9.939  67.140  1.00  0.00    -0.138 C  
HETATM    5  O   UNL     1      -8.569   9.736  69.956  1.00  0.00    -0.193 OA 
HETATM    6  C   UNL     1     -10.646   9.061  66.977  1.00  0.00    -0.200 C  
HETATM    7  N   UNL     1      -9.866   9.579  68.109  1.00  0.00    -0.151 N  
HETATM    8  C   UNL     1      -9.564   9.220  69.435  1.00  0.00    -0.168 C  
ENDROOT
BRANCH   3   9
HETATM    9  C   UNL     1      -8.777   7.259  66.922  1.00  0.00    -0.126 C  
HETATM   10  C   UNL     1      -7.046   5.867  68.087  1.00  0.00    -0.078 C  
HETATM   11  C   UNL     1      -7.216   4.814  66.994  1.00  0.00    -0.077 C  
HETATM   12  H   UNL     1      -8.317   6.421  65.074  1.00  0.00     0.000 HD 
HETATM   13  C   UNL     1      -7.367   7.264  67.531  1.00  0.00    -0.092 C  
HETATM   14  C   UNL     1      -8.619   4.878  66.408  1.00  0.00    -0.110 C  
HETATM   15  N   UNL     1      -8.902   6.211  65.883  1.00  0.00    -0.154 NA 
ENDBRANCH   3   9
BRANCH   8  16
HETATM   16  C   UNL     1     -10.281   8.141  70.239  1.00  0.00    -0.200 A  
HETATM   17  C   UNL     1     -11.666   8.274  70.596  1.00  0.00    -0.147 A  
HETATM   18  C   UNL     1      -9.580   7.051  70.788  1.00  0.00    -0.164 A  
HETATM   19  C   UNL     1     -11.488   6.269  72.005  1.00  0.00    -0.310 A  
HETATM   20  F   UNL     1     -13.487   7.451  71.934  1.00  0.00    -0.350 F  
HETATM   21  F   UNL     1     -12.046   5.402  72.860  1.00  0.00    -0.342 F  
HETATM   22  C   UNL     1     -10.165   6.125  71.659  1.00  0.00    -0.235 A  
HETATM   23  C   UNL     1     -12.223   7.324  71.496  1.00  0.00    -0.352 A  
BRANCH  17  24
HETATM   24  N   UNL     1     -12.484   9.350  70.130  1.00  0.00    -0.214 NA 
HETATM   25  H   UNL     1     -13.140   9.139  69.377  1.00  0.00     0.000 HD 
BRANCH  24  26
HETATM   26  C   UNL     1     -12.472  10.689  70.616  1.00  0.00    -0.371 A  
HETATM   27  C   UNL     1     -13.129  11.051  71.794  1.00  0.00    -0.449 A  
HETATM   28  F   UNL     1     -13.744  10.116  72.536  1.00  0.00    -0.419 F  
HETATM   29  C   UNL     1     -13.227  12.391  72.193  1.00  0.00    -0.491 A  
HETATM   30  C   UNL     1     -12.651  13.385  71.404  1.00  0.00    -0.283 A  
HETATM   31  C   UNL     1     -11.972  13.049  70.235  1.00  0.00    -0.360 A  
HETATM   32  I   UNL     1     -12.814  15.384  71.948  1.00  0.00    -0.618 I  
HETATM   33  C   UNL     1     -11.874  11.707  69.854  1.00  0.00    -0.434 A  
ENDBRANCH  24  26
ENDBRANCH  17  24
ENDBRANCH   8  16
TORSDOF 4
ENDMDL
MODEL       43
REMARK 921   NORMALIZED FREE ENERGY PREDICTED BY IDOCK:   -6.00 KCAL/MOL
REMARK 922        TOTAL FREE ENERGY PREDICTED BY IDOCK:   -9.15 KCAL/MOL
REMARK 923 INTER-LIGAND FREE ENERGY PREDICTED BY IDOCK:   -7.54 KCAL/MOL
REMARK 924 INTRA-LIGAND FREE ENERGY PREDICTED BY IDOCK:   -1.60 KCAL/MOL
REMARK 927      BINDING AFFINITY PREDICTED BY RF-SCORE:    0.00 PKD
ROOT
HETATM    1  O   UNL     1      -5.892  10.387  68.216  1.00  0.00    -0.041 OA 
HETATM    2  H   UNL     1      -5.663   9.757  67.542  1.00  0.00     0.000 HD 
HETATM    3  C   UNL     1      -7.051  11.222  67.944  1.00  0.00    -0.078 C  
HETATM    4  C   UNL     1      -7.429  12.265  69.059  1.00  0.00     0.058 C  
HETATM    5  O   UNL     1      -9.919  13.583  68.775  1.00  0.00    -0.182 OA 
HETATM    6  C   UNL     1      -6.784  12.544  67.122  1.00  0.00    -0.054 C  
HETATM    7  N   UNL     1      -7.879  13.115  67.917  1.00  0.00    -0.135 N  
HETATM    8  C   UNL     1      -9.233  13.462  67.755  1.00  0.00    -0.211 C  
ENDROOT
BRANCH   3   9
HETATM    9  C   UNL     1      -8.202  10.376  67.308  1.00  0.00    -0.121 C  
HETATM   10  C   UNL     1     -10.334   9.081  67.568  1.00  0.00    -0.328 C  
HETATM   11  C   UNL     1      -9.725   7.982  66.702  1.00  0.00    -0.313 C  
HETATM   12  H   UNL     1      -7.091   8.639  67.036  1.00  0.00     0.000 HD 
HETATM   13  C   UNL     1      -9.227   9.840  68.318  1.00  0.00    -0.130 C  
HETATM   14  C   UNL     1      -8.697   8.568  65.745  1.00  0.00    -0.179 C  
HETATM   15  N   UNL     1      -7.653   9.281  66.477  1.00  0.00    -0.093 NA 
ENDBRANCH   3   9
BRANCH   8  16
HETATM   16  C   UNL     1      -9.960  13.565  66.418  1.00  0.00    -0.296 A  
HETATM   17  C   UNL     1     -10.588  14.787  66.003  1.00  0.00    -0.312 A  
HETATM   18  C   UNL     1     -10.171  12.430  65.613  1.00  0.00    -0.285 A  
HETATM   19  C   UNL     1     -11.572  13.621  64.078  1.00  0.00    -0.317 A  
HETATM   20  F   UNL     1     -12.082  15.856  64.451  1.00  0.00    -0.336 F  
HETATM   21  F   UNL     1     -12.354  13.636  62.991  1.00  0.00    -0.565 F  
HETATM   22  C   UNL     1     -10.964  12.448  64.460  1.00  0.00    -0.355 A  
HETATM   23  C   UNL     1     -11.400  14.765  64.835  1.00  0.00    -0.410 A  
BRANCH  17  24
HETATM   24  N   UNL     1     -10.477  16.005  66.746  1.00  0.00    -0.307 NA 
HETATM   25  H   UNL     1     -11.173  16.165  67.475  1.00  0.00     0.000 HD 
BRANCH  24  26
HETATM   26  C   UNL     1      -9.488  17.014  66.566  1.00  0.00    -0.276 A  
HETATM   27  C   UNL     1      -9.818  18.370  66.526  1.00  0.00    -0.359 A  
HETATM   28  F   UNL     1     -11.089  18.758  66.720  1.00  0.00    -0.372 F  
HETATM   29  C   UNL     1      -8.863  19.346  66.214  1.00  0.00    -0.372 A  
HETATM   30  C   UNL     1      -7.550  18.958  65.945  1.00  0.00    -0.178 A  
HETATM   31  C   UNL     1      -7.189  17.614  65.999  1.00  0.00    -0.316 A  
HETATM   32  I   UNL     1      -6.119  20.379  65.440  1.00  0.00    -0.319 I  
HETATM   33  C   UNL     1      -8.153  16.653  66.322  1.00  0.00    -0.361 A  
ENDBRANCH  24  26
ENDBRANCH  17  24
ENDBRANCH   8  16
TORSDOF 4
ENDMDL
MODEL       44
REMARK 921   NORMALIZED FREE ENERGY PREDICTED BY IDOCK:   -5.98 KCAL/MOL
REMARK 922        TOTAL FREE ENERGY PREDICTED BY IDOCK:   -9.13 KCAL/MOL
REMARK 923 INTER-LIGAND FREE ENERGY PREDICTED BY IDOCK:   -7.52 KCAL/MOL
REMARK 924 INTRA-LIGAND FREE ENERGY PREDICTED BY IDOCK:   -1.61 KCAL/MOL
REMARK 927      BINDING AFFINITY PREDICTED BY RF-SCORE:    0.00 PKD
ROOT
HETATM    1  O   UNL     1     -13.842   8.972  72.986  1.00  0.00    -0.969 OA 
HETATM    2  H   UNL     1     -13.380   8.605  73.731  1.00  0.00     0.000 HD 
HETATM    3  C   UNL     1     -13.019   9.380  71.859  1.00  0.00    -0.417 C  
HETATM    4  C   UNL     1     -13.784   9.986  70.626  1.00  0.00     0.350 C  
HETATM    5  O   UNL     1     -12.280  10.369  68.258  1.00  0.00    -0.034 OA 
HETATM    6  C   UNL     1     -12.427  10.843  71.918  1.00  0.00     0.017 C  
HETATM    7  N   UNL     1     -12.563  10.826  70.455  1.00  0.00    -0.340 N  
HETATM    8  C   UNL     1     -11.741  10.698  69.320  1.00  0.00    -0.264 C  
ENDROOT
BRANCH   3   9
HETATM    9  C   UNL     1     -11.900   8.323  71.582  1.00  0.00    -0.299 C  
HETATM   10  C   UNL     1     -11.188   6.139  70.574  1.00  0.00    -0.403 C  
HETATM   11  C   UNL     1     -10.475   5.813  71.884  1.00  0.00    -0.272 C  
HETATM   12  H   UNL     1     -11.839   7.541  73.509  1.00  0.00     0.000 HD 
HETATM   13  C   UNL     1     -12.384   7.069  70.839  1.00  0.00    -0.361 C  
HETATM   14  C   UNL     1     -10.049   7.092  72.589  1.00  0.00    -0.186 C  
HETATM   15  N   UNL     1     -11.198   7.959  72.834  1.00  0.00    -0.409 NA 
ENDBRANCH   3   9
BRANCH   8  16
HETATM   16  C   UNL     1     -10.220  10.794  69.321  1.00  0.00    -0.217 A  
HETATM   17  C   UNL     1      -9.529  11.699  68.446  1.00  0.00    -0.193 A  
HETATM   18  C   UNL     1      -9.431   9.899  70.068  1.00  0.00    -0.246 A  
HETATM   19  C   UNL     1      -7.385  10.711  69.127  1.00  0.00    -0.111 A  
HETATM   20  F   UNL     1      -7.422  12.369  67.500  1.00  0.00    -0.108 F  
HETATM   21  F   UNL     1      -6.051  10.649  69.016  1.00  0.00    -0.041 F  
HETATM   22  C   UNL     1      -8.036   9.849  69.978  1.00  0.00    -0.194 A  
HETATM   23  C   UNL     1      -8.111  11.610  68.367  1.00  0.00    -0.153 A  
BRANCH  17  24
HETATM   24  N   UNL     1     -10.211  12.639  67.611  1.00  0.00    -0.214 NA 
HETATM   25  H   UNL     1     -10.819  12.257  66.887  1.00  0.00     0.000 HD 
BRANCH  24  26
HETATM   26  C   UNL     1     -10.123  14.058  67.695  1.00  0.00    -0.241 A  
HETATM   27  C   UNL     1     -10.781  14.780  68.692  1.00  0.00    -0.253 A  
HETATM   28  F   UNL     1     -11.472  14.134  69.645  1.00  0.00    -0.272 F  
HETATM   29  C   UNL     1     -10.802  16.181  68.687  1.00  0.00    -0.311 A  
HETATM   30  C   UNL     1     -10.144  16.872  67.671  1.00  0.00    -0.278 A  
HETATM   31  C   UNL     1      -9.462  16.177  66.675  1.00  0.00    -0.269 A  
HETATM   32  I   UNL     1     -10.190  18.950  67.614  1.00  0.00    -0.535 I  
HETATM   33  C   UNL     1      -9.443  14.779  66.699  1.00  0.00    -0.293 A  
ENDBRANCH  24  26
ENDBRANCH  17  24
ENDBRANCH   8  16
TORSDOF 4
ENDMDL
MODEL       45
REMARK 921   NORMALIZED FREE ENERGY PREDICTED BY IDOCK:   -5.95 KCAL/MOL
REMARK 922        TOTAL FREE ENERGY PREDICTED BY IDOCK:   -9.09 KCAL/MOL
REMARK 923 INTER-LIGAND FREE ENERGY PREDICTED BY IDOCK:   -8.05 KCAL/MOL
REMARK 924 INTRA-LIGAND FREE ENERGY PREDICTED BY IDOCK:   -1.04 KCAL/MOL
REMARK 927      BINDING AFFINITY PREDICTED BY RF-SCORE:    0.00 PKD
ROOT
HETATM    1  O   UNL     1      -6.137  18.903  68.148  1.00  0.00    -0.204 OA 
HETATM    2  H   UNL     1      -6.492  19.637  68.636  1.00  0.00     0.000 HD 
HETATM    3  C   UNL     1      -6.973  17.714  68.082  1.00  0.00    -0.210 C  
HETATM    4  C   UNL     1      -6.386  16.499  67.274  1.00  0.00    -0.178 C  
HETATM    5  O   UNL     1      -8.154  14.353  66.742  1.00  0.00    -0.048 OA 
HETATM    6  C   UNL     1      -6.832  16.691  69.276  1.00  0.00    -0.232 C  
HETATM    7  N   UNL     1      -7.119  15.662  68.268  1.00  0.00    -0.110 N  
HETATM    8  C   UNL     1      -8.188  14.834  67.879  1.00  0.00    -0.150 C  
ENDROOT
BRANCH   3   9
HETATM    9  C   UNL     1      -8.468  18.106  67.838  1.00  0.00    -0.254 C  
HETATM   10  C   UNL     1     -10.375  18.486  66.254  1.00  0.00    -0.459 C  
HETATM   11  C   UNL     1     -10.676  19.787  66.993  1.00  0.00    -0.542 C  
HETATM   12  H   UNL     1      -8.229  20.146  68.161  1.00  0.00     0.000 HD 
HETATM   13  C   UNL     1      -8.877  18.152  66.359  1.00  0.00    -0.255 C  
HETATM   14  C   UNL     1     -10.220  19.693  68.442  1.00  0.00    -0.441 C  
HETATM   15  N   UNL     1      -8.796  19.378  68.520  1.00  0.00    -0.362 NA 
ENDBRANCH   3   9
BRANCH   8  16
HETATM   16  C   UNL     1      -9.454  14.592  68.693  1.00  0.00    -0.211 A  
HETATM   17  C   UNL     1     -10.236  13.401  68.521  1.00  0.00    -0.223 A  
HETATM   18  C   UNL     1      -9.984  15.591  69.532  1.00  0.00    -0.280 A  
HETATM   19  C   UNL     1     -11.968  14.332  69.992  1.00  0.00    -0.334 A  
HETATM   20  F   UNL     1     -12.308  12.270  68.979  1.00  0.00    -0.262 F  
HETATM   21  F   UNL     1     -13.167  14.225  70.583  1.00  0.00    -0.401 F  
HETATM   22  C   UNL     1     -11.222  15.472  70.175  1.00  0.00    -0.331 A  
HETATM   23  C   UNL     1     -11.496  13.321  69.176  1.00  0.00    -0.305 A  
BRANCH  17  24
HETATM   24  N   UNL     1      -9.826  12.323  67.674  1.00  0.00    -0.193 NA 
HETATM   25  H   UNL     1      -9.473  12.572  66.750  1.00  0.00     0.000 HD 
BRANCH  24  26
HETATM   26  C   UNL     1      -9.864  10.937  67.998  1.00  0.00    -0.171 A  
HETATM   27  C   UNL     1     -10.292   9.977  67.079  1.00  0.00    -0.243 A  
HETATM   28  F   UNL     1     -10.624  10.343  65.830  1.00  0.00    -0.290 F  
HETATM   29  C   UNL     1     -10.455   8.635  67.446  1.00  0.00    -0.351 A  
HETATM   30  C   UNL     1     -10.176   8.245  68.756  1.00  0.00    -0.210 A  
HETATM   31  C   UNL     1      -9.728   9.178  69.687  1.00  0.00    -0.183 A  
HETATM   32  I   UNL     1     -10.447   6.269  69.342  1.00  0.00    -0.414 I  
HETATM   33  C   UNL     1      -9.561  10.512  69.303  1.00  0.00    -0.199 A  
ENDBRANCH  24  26
ENDBRANCH  17  24
ENDBRANCH   8  16
TORSDOF 4
ENDMDL
MODEL       46
REMARK 921   NORMALIZED FREE ENERGY PREDICTED BY IDOCK:   -5.95 KCAL/MOL
REMARK 922        TOTAL FREE ENERGY PREDICTED BY IDOCK:   -9.09 KCAL/MOL
REMARK 923 INTER-LIGAND FREE ENERGY PREDICTED BY IDOCK:   -7.93 KCAL/MOL
REMARK 924 INTRA-LIGAND FREE ENERGY PREDICTED BY IDOCK:   -1.16 KCAL/MOL
REMARK 927      BINDING AFFINITY PREDICTED BY RF-SCORE:    0.00 PKD
ROOT
HETATM    1  O   UNL     1      -7.029   5.176  69.505  1.00  0.00    -0.051 OA 
HETATM    2  H   UNL     1      -6.424   4.989  68.797  1.00  0.00     0.000 HD 
HETATM    3  C   UNL     1      -7.994   6.236  69.260  1.00  0.00    -0.109 C  
HETATM    4  C   UNL     1      -8.996   6.545  70.432  1.00  0.00    -0.152 C  
HETATM    5  O   UNL     1     -11.160   8.271  69.834  1.00  0.00    -0.210 OA 
HETATM    6  C   UNL     1      -7.518   7.706  69.586  1.00  0.00    -0.091 C  
HETATM    7  N   UNL     1      -8.923   7.952  69.939  1.00  0.00    -0.145 N  
HETATM    8  C   UNL     1     -10.051   8.595  69.396  1.00  0.00    -0.204 C  
ENDROOT
BRANCH   3   9
HETATM    9  C   UNL     1      -8.570   6.130  67.809  1.00  0.00    -0.114 C  
HETATM   10  C   UNL     1     -10.168   5.080  66.186  1.00  0.00    -0.288 C  
HETATM   11  C   UNL     1      -9.012   4.941  65.200  1.00  0.00    -0.152 C  
HETATM   12  H   UNL     1      -6.951   5.114  66.990  1.00  0.00     0.000 HD 
HETATM   13  C   UNL     1      -9.640   5.044  67.630  1.00  0.00    -0.173 C  
HETATM   14  C   UNL     1      -7.971   6.023  65.446  1.00  0.00    -0.118 C  
HETATM   15  N   UNL     1      -7.480   5.969  66.820  1.00  0.00    -0.086 NA 
ENDBRANCH   3   9
BRANCH   8  16
HETATM   16  C   UNL     1     -10.030   9.558  68.215  1.00  0.00    -0.184 A  
HETATM   17  C   UNL     1     -11.102  10.486  67.990  1.00  0.00    -0.300 A  
HETATM   18  C   UNL     1      -9.038   9.473  67.220  1.00  0.00    -0.146 A  
HETATM   19  C   UNL     1     -10.105  11.105  65.832  1.00  0.00    -0.247 A  
HETATM   20  F   UNL     1     -12.132  12.042  66.472  1.00  0.00    -0.381 F  
HETATM   21  F   UNL     1     -10.153  11.812  64.694  1.00  0.00    -0.261 F  
HETATM   22  C   UNL     1      -9.067  10.229  66.043  1.00  0.00    -0.189 A  
HETATM   23  C   UNL     1     -11.108  11.227  66.775  1.00  0.00    -0.250 A  
BRANCH  17  24
HETATM   24  N   UNL     1     -12.187  10.651  68.907  1.00  0.00    -0.793 NA 
HETATM   25  H   UNL     1     -12.934   9.956  68.867  1.00  0.00     0.000 HD 
BRANCH  24  26
HETATM   26  C   UNL     1     -12.326  11.690  69.870  1.00  0.00    -0.159 A  
HETATM   27  C   UNL     1     -12.909  11.465  71.119  1.00  0.00    -0.341 A  
HETATM   28  F   UNL     1     -13.302  10.228  71.464  1.00  0.00    -0.414 F  
HETATM   29  C   UNL     1     -13.166  12.518  72.006  1.00  0.00    -0.524 A  
HETATM   30  C   UNL     1     -12.825  13.820  71.641  1.00  0.00    -0.352 A  
HETATM   31  C   UNL     1     -12.223  14.070  70.410  1.00  0.00    -0.433 A  
HETATM   32  I   UNL     1     -13.229  15.408  72.920  1.00  0.00    -0.710 I  
HETATM   33  C   UNL     1     -11.964  13.007  69.539  1.00  0.00    -0.350 A  
ENDBRANCH  24  26
ENDBRANCH  17  24
ENDBRANCH   8  16
TORSDOF 4
ENDMDL
MODEL       47
REMARK 921   NORMALIZED FREE ENERGY PREDICTED BY IDOCK:   -5.85 KCAL/MOL
REMARK 922        TOTAL FREE ENERGY PREDICTED BY IDOCK:   -8.97 KCAL/MOL
REMARK 923 INTER-LIGAND FREE ENERGY PREDICTED BY IDOCK:   -7.56 KCAL/MOL
REMARK 924 INTRA-LIGAND FREE ENERGY PREDICTED BY IDOCK:   -1.41 KCAL/MOL
REMARK 927      BINDING AFFINITY PREDICTED BY RF-SCORE:    0.00 PKD
ROOT
HETATM    1  O   UNL     1     -10.737   6.329  72.482  1.00  0.00    -0.208 OA 
HETATM    2  H   UNL     1      -9.935   5.832  72.371  1.00  0.00     0.000 HD 
HETATM    3  C   UNL     1     -10.899   7.485  71.613  1.00  0.00    -0.219 C  
HETATM    4  C   UNL     1     -12.227   8.308  71.796  1.00  0.00    -0.326 C  
HETATM    5  O   UNL     1     -12.783  10.275  69.837  1.00  0.00    -0.086 OA 
HETATM    6  C   UNL     1     -10.262   8.837  72.122  1.00  0.00    -0.301 C  
HETATM    7  N   UNL     1     -11.385   9.484  71.430  1.00  0.00    -0.376 N  
HETATM    8  C   UNL     1     -11.620  10.210  70.247  1.00  0.00    -0.302 C  
ENDROOT
BRANCH   3   9
HETATM    9  C   UNL     1     -10.437   7.147  70.158  1.00  0.00    -0.216 C  
HETATM   10  C   UNL     1     -10.896   6.082  67.934  1.00  0.00    -0.378 C  
HETATM   11  C   UNL     1      -9.497   5.473  67.983  1.00  0.00    -0.129 C  
HETATM   12  H   UNL     1      -9.088   5.654  70.682  1.00  0.00     0.000 HD 
HETATM   13  C   UNL     1     -11.432   6.292  69.360  1.00  0.00    -0.348 C  
HETATM   14  C   UNL     1      -8.566   6.346  68.811  1.00  0.00    -0.123 C  
HETATM   15  N   UNL     1      -9.091   6.531  70.161  1.00  0.00    -0.154 NA 
ENDBRANCH   3   9
BRANCH   8  16
HETATM   16  C   UNL     1     -10.538  10.807  69.353  1.00  0.00    -0.254 A  
HETATM   17  C   UNL     1     -10.721  12.076  68.707  1.00  0.00    -0.220 A  
HETATM   18  C   UNL     1      -9.388  10.072  69.008  1.00  0.00    -0.183 A  
HETATM   19  C   UNL     1      -8.641  11.727  67.448  1.00  0.00    -0.160 A  
HETATM   20  F   UNL     1      -9.923  13.622  67.048  1.00  0.00    -0.231 F  
HETATM   21  F   UNL     1      -7.760  12.145  66.529  1.00  0.00    -0.084 F  
HETATM   22  C   UNL     1      -8.449  10.517  68.071  1.00  0.00    -0.120 A  
HETATM   23  C   UNL     1      -9.756  12.488  67.747  1.00  0.00    -0.202 A  
BRANCH  17  24
HETATM   24  N   UNL     1     -11.860  12.908  68.946  1.00  0.00    -0.314 NA 
HETATM   25  H   UNL     1     -12.594  12.900  68.237  1.00  0.00     0.000 HD 
BRANCH  24  26
HETATM   26  C   UNL     1     -12.068  13.747  70.078  1.00  0.00    -0.349 A  
HETATM   27  C   UNL     1     -11.324  14.910  70.279  1.00  0.00    -0.254 A  
HETATM   28  F   UNL     1     -10.424  15.300  69.362  1.00  0.00    -0.205 F  
HETATM   29  C   UNL     1     -11.438  15.656  71.460  1.00  0.00    -0.494 A  
HETATM   30  C   UNL     1     -12.320  15.233  72.454  1.00  0.00    -0.373 A  
HETATM   31  C   UNL     1     -13.090  14.087  72.270  1.00  0.00    -0.516 A  
HETATM   32  I   UNL     1     -12.483  16.295  74.234  1.00  0.00    -0.121 I  
HETATM   33  C   UNL     1     -12.971  13.359  71.082  1.00  0.00    -0.314 A  
ENDBRANCH  24  26
ENDBRANCH  17  24
ENDBRANCH   8  16
TORSDOF 4
ENDMDL
MODEL       48
REMARK 921   NORMALIZED FREE ENERGY PREDICTED BY IDOCK:   -5.85 KCAL/MOL
REMARK 922        TOTAL FREE ENERGY PREDICTED BY IDOCK:   -8.96 KCAL/MOL
REMARK 923 INTER-LIGAND FREE ENERGY PREDICTED BY IDOCK:   -7.53 KCAL/MOL
REMARK 924 INTRA-LIGAND FREE ENERGY PREDICTED BY IDOCK:   -1.44 KCAL/MOL
REMARK 927      BINDING AFFINITY PREDICTED BY RF-SCORE:    0.00 PKD
ROOT
HETATM    1  O   UNL     1     -12.626  14.747  68.861  1.00  0.00    -0.546 OA 
HETATM    2  H   UNL     1     -13.368  14.960  68.307  1.00  0.00     0.000 HD 
HETATM    3  C   UNL     1     -11.602  13.906  68.262  1.00  0.00    -0.337 C  
HETATM    4  C   UNL     1     -10.373  13.554  69.178  1.00  0.00     0.092 C  
HETATM    5  O   UNL     1      -8.163  12.309  67.919  1.00  0.00    -0.140 OA 
HETATM    6  C   UNL     1     -11.830  12.347  68.362  1.00  0.00    -0.309 C  
HETATM    7  N   UNL     1     -10.365  12.260  68.435  1.00  0.00    -0.221 N  
HETATM    8  C   UNL     1      -9.286  11.901  67.606  1.00  0.00    -0.183 C  
ENDROOT
BRANCH   3   9
HETATM    9  C   UNL     1     -11.318  14.348  66.789  1.00  0.00    -0.352 C  
HETATM   10  C   UNL     1     -10.415  16.041  65.174  1.00  0.00    -0.331 C  
HETATM   11  C   UNL     1     -11.688  15.873  64.348  1.00  0.00    -0.179 C  
HETATM   12  H   UNL     1     -13.284  14.822  66.306  1.00  0.00     0.000 HD 
HETATM   13  C   UNL     1     -10.702  15.749  66.656  1.00  0.00    -0.287 C  
HETATM   14  C   UNL     1     -12.268  14.479  64.545  1.00  0.00    -0.465 C  
HETATM   15  N   UNL     1     -12.536  14.223  65.957  1.00  0.00    -0.423 NA 
ENDBRANCH   3   9
BRANCH   8  16
HETATM   16  C   UNL     1      -9.407  11.165  66.276  1.00  0.00    -0.216 A  
HETATM   17  C   UNL     1      -8.817   9.871  66.083  1.00  0.00    -0.144 A  
HETATM   18  C   UNL     1      -9.969  11.787  65.145  1.00  0.00    -0.285 A  
HETATM   19  C   UNL     1      -9.379   9.977  63.694  1.00  0.00    -0.253 A  
HETATM   20  F   UNL     1      -8.193   8.157  64.516  1.00  0.00    -0.144 F  
HETATM   21  F   UNL     1      -9.342   9.432  62.470  1.00  0.00    -0.279 F  
HETATM   22  C   UNL     1      -9.958  11.211  63.870  1.00  0.00    -0.381 A  
HETATM   23  C   UNL     1      -8.809   9.322  64.770  1.00  0.00    -0.185 A  
BRANCH  17  24
HETATM   24  N   UNL     1      -8.188   9.142  67.141  1.00  0.00    -0.113 NA 
HETATM   25  H   UNL     1      -7.200   8.916  67.022  1.00  0.00     0.000 HD 
BRANCH  24  26
HETATM   26  C   UNL     1      -8.807   8.703  68.346  1.00  0.00    -0.142 A  
HETATM   27  C   UNL     1      -9.952   7.904  68.338  1.00  0.00    -0.180 A  
HETATM   28  F   UNL     1     -10.464   7.477  67.172  1.00  0.00    -0.285 F  
HETATM   29  C   UNL     1     -10.633   7.591  69.521  1.00  0.00    -0.239 A  
HETATM   30  C   UNL     1     -10.154   8.078  70.737  1.00  0.00    -0.192 A  
HETATM   31  C   UNL     1      -9.002   8.860  70.776  1.00  0.00    -0.254 A  
HETATM   32  I   UNL     1     -11.164   7.662  72.505  1.00  0.00    -0.426 I  
HETATM   33  C   UNL     1      -8.328   9.157  69.587  1.00  0.00    -0.130 A  
ENDBRANCH  24  26
ENDBRANCH  17  24
ENDBRANCH   8  16
TORSDOF 4
ENDMDL
MODEL       49
REMARK 921   NORMALIZED FREE ENERGY PREDICTED BY IDOCK:   -5.84 KCAL/MOL
REMARK 922        TOTAL FREE ENERGY PREDICTED BY IDOCK:   -8.95 KCAL/MOL
REMARK 923 INTER-LIGAND FREE ENERGY PREDICTED BY IDOCK:   -7.77 KCAL/MOL
REMARK 924 INTRA-LIGAND FREE ENERGY PREDICTED BY IDOCK:   -1.18 KCAL/MOL
REMARK 927      BINDING AFFINITY PREDICTED BY RF-SCORE:    0.00 PKD
ROOT
HETATM    1  O   UNL     1     -10.988  17.016  70.247  1.00  0.00    -0.340 OA 
HETATM    2  H   UNL     1     -10.718  17.751  69.709  1.00  0.00     0.000 HD 
HETATM    3  C   UNL     1     -11.053  15.725  69.580  1.00  0.00    -0.306 C  
HETATM    4  C   UNL     1     -11.500  14.507  70.470  1.00  0.00    -0.185 C  
HETATM    5  O   UNL     1     -11.206  11.929  69.337  1.00  0.00    -0.245 OA 
HETATM    6  C   UNL     1     -12.408  15.386  68.842  1.00  0.00     0.040 C  
HETATM    7  N   UNL     1     -12.120  13.994  69.213  1.00  0.00    -0.347 N  
HETATM    8  C   UNL     1     -11.663  12.812  68.603  1.00  0.00    -0.324 C  
ENDROOT
BRANCH   3   9
HETATM    9  C   UNL     1      -9.824  15.532  68.633  1.00  0.00    -0.207 C  
HETATM   10  C   UNL     1      -7.385  15.874  68.155  1.00  0.00    -0.133 C  
HETATM   11  C   UNL     1      -7.766  16.322  66.746  1.00  0.00    -0.295 C  
HETATM   12  H   UNL     1     -10.378  16.970  67.236  1.00  0.00     0.000 HD 
HETATM   13  C   UNL     1      -8.528  16.185  69.136  1.00  0.00    -0.239 C  
HETATM   14  C   UNL     1      -9.071  15.668  66.316  1.00  0.00    -0.341 C  
HETATM   15  N   UNL     1     -10.143  15.977  67.258  1.00  0.00    -0.260 NA 
ENDBRANCH   3   9
BRANCH   8  16
HETATM   16  C   UNL     1     -11.556  12.583  67.099  1.00  0.00    -0.437 A  
HETATM   17  C   UNL     1     -10.509  11.776  66.540  1.00  0.00    -0.230 A  
HETATM   18  C   UNL     1     -12.385  13.273  66.195  1.00  0.00    -0.423 A  
HETATM   19  C   UNL     1     -11.205  12.449  64.282  1.00  0.00    -0.353 A  
HETATM   20  F   UNL     1      -9.343  11.086  64.553  1.00  0.00    -0.208 F  
HETATM   21  F   UNL     1     -11.024  12.411  62.955  1.00  0.00    -0.387 F  
HETATM   22  C   UNL     1     -12.219  13.214  64.807  1.00  0.00    -0.477 A  
HETATM   23  C   UNL     1     -10.359  11.752  65.125  1.00  0.00    -0.279 A  
BRANCH  17  24
HETATM   24  N   UNL     1      -9.580  11.046  67.347  1.00  0.00    -0.163 NA 
HETATM   25  H   UNL     1      -8.750  11.548  67.662  1.00  0.00     0.000 HD 
BRANCH  24  26
HETATM   26  C   UNL     1      -9.703   9.687  67.753  1.00  0.00    -0.146 A  
HETATM   27  C   UNL     1      -9.182   9.230  68.965  1.00  0.00    -0.144 A  
HETATM   28  F   UNL     1      -8.598  10.091  69.813  1.00  0.00    -0.159 F  
HETATM   29  C   UNL     1      -9.187   7.868  69.295  1.00  0.00    -0.148 A  
HETATM   30  C   UNL     1      -9.731   6.948  68.399  1.00  0.00    -0.137 A  
HETATM   31  C   UNL     1     -10.277   7.379  67.193  1.00  0.00    -0.347 A  
HETATM   32  I   UNL     1      -9.717   4.917  68.843  1.00  0.00    -0.190 I  
HETATM   33  C   UNL     1     -10.273   8.743  66.882  1.00  0.00    -0.357 A  
ENDBRANCH  24  26
ENDBRANCH  17  24
ENDBRANCH   8  16
TORSDOF 4
ENDMDL
MODEL       50
REMARK 921   NORMALIZED FREE ENERGY PREDICTED BY IDOCK:   -5.82 KCAL/MOL
REMARK 922        TOTAL FREE ENERGY PREDICTED BY IDOCK:   -8.93 KCAL/MOL
REMARK 923 INTER-LIGAND FREE ENERGY PREDICTED BY IDOCK:   -8.51 KCAL/MOL
REMARK 924 INTRA-LIGAND FREE ENERGY PREDICTED BY IDOCK:   -0.42 KCAL/MOL
REMARK 927      BINDING AFFINITY PREDICTED BY RF-SCORE:    0.00 PKD
ROOT
HETATM    1  O   UNL     1     -13.060  11.946  63.897  1.00  0.00    -0.628 OA 
HETATM    2  H   UNL     1     -12.845  11.047  64.117  1.00  0.00     0.000 HD 
HETATM    3  C   UNL     1     -12.178  12.966  64.444  1.00  0.00    -0.417 C  
HETATM    4  C   UNL     1     -12.533  14.455  64.081  1.00  0.00    -0.199 C  
HETATM    5  O   UNL     1     -10.604  16.419  64.742  1.00  0.00    -0.676 OA 
HETATM    6  C   UNL     1     -12.521  13.481  65.897  1.00  0.00    -0.429 C  
HETATM    7  N   UNL     1     -11.988  14.769  65.434  1.00  0.00    -0.265 N  
HETATM    8  C   UNL     1     -10.827  15.549  65.590  1.00  0.00    -0.346 C  
ENDROOT
BRANCH   3   9
HETATM    9  C   UNL     1     -10.684  12.519  64.334  1.00  0.00    -0.350 C  
HETATM   10  C   UNL     1      -8.882  11.273  63.112  1.00  0.00    -0.067 C  
HETATM   11  C   UNL     1      -8.437  10.686  64.449  1.00  0.00    -0.070 C  
HETATM   12  H   UNL     1     -10.758  11.087  65.841  1.00  0.00     0.000 HD 
HETATM   13  C   UNL     1     -10.386  11.591  63.147  1.00  0.00    -0.376 C  
HETATM   14  C   UNL     1      -8.786  11.634  65.588  1.00  0.00     0.050 C  
HETATM   15  N   UNL     1     -10.218  11.920  65.605  1.00  0.00    -0.236 NA 
ENDBRANCH   3   9
BRANCH   8  16
HETATM   16  C   UNL     1      -9.748  15.319  66.643  1.00  0.00    -0.268 A  
HETATM   17  C   UNL     1     -10.087  15.039  68.009  1.00  0.00    -0.223 A  
HETATM   18  C   UNL     1      -8.386  15.520  66.349  1.00  0.00    -0.153 A  
HETATM   19  C   UNL     1      -7.716  15.218  68.627  1.00  0.00    -0.135 A  
HETATM   20  F   UNL     1      -9.309  14.847  70.277  1.00  0.00     0.072 F  
HETATM   21  F   UNL     1      -6.759  15.199  69.565  1.00  0.00    -0.122 F  
HETATM   22  C   UNL     1      -7.379  15.473  67.319  1.00  0.00    -0.249 A  
HETATM   23  C   UNL     1      -9.040  15.015  68.972  1.00  0.00    -0.205 A  
BRANCH  17  24
HETATM   24  N   UNL     1     -11.434  14.843  68.447  1.00  0.00    -0.304 NA 
HETATM   25  H   UNL     1     -12.109  15.569  68.203  1.00  0.00     0.000 HD 
BRANCH  24  26
HETATM   26  C   UNL     1     -11.925  13.732  69.190  1.00  0.00    -0.361 A  
HETATM   27  C   UNL     1     -12.511  13.887  70.448  1.00  0.00    -0.334 A  
HETATM   28  F   UNL     1     -12.680  15.115  70.963  1.00  0.00    -0.322 F  
HETATM   29  C   UNL     1     -12.867  12.780  71.230  1.00  0.00    -0.355 A  
HETATM   30  C   UNL     1     -12.641  11.494  70.740  1.00  0.00    -0.298 A  
HETATM   31  C   UNL     1     -12.077  11.311  69.480  1.00  0.00    -0.386 A  
HETATM   32  I   UNL     1     -13.121   9.833  71.894  1.00  0.00    -0.474 I  
HETATM   33  C   UNL     1     -11.736  12.426  68.707  1.00  0.00    -0.379 A  
ENDBRANCH  24  26
ENDBRANCH  17  24
ENDBRANCH   8  16
TORSDOF 4
ENDMDL
MODEL       51
REMARK 921   NORMALIZED FREE ENERGY PREDICTED BY IDOCK:   -5.80 KCAL/MOL
REMARK 922        TOTAL FREE ENERGY PREDICTED BY IDOCK:   -8.90 KCAL/MOL
REMARK 923 INTER-LIGAND FREE ENERGY PREDICTED BY IDOCK:   -7.74 KCAL/MOL
REMARK 924 INTRA-LIGAND FREE ENERGY PREDICTED BY IDOCK:   -1.16 KCAL/MOL
REMARK 927      BINDING AFFINITY PREDICTED BY RF-SCORE:    0.00 PKD
ROOT
HETATM    1  O   UNL     1     -12.752  11.333  62.887  1.00  0.00    -0.876 OA 
HETATM    2  H   UNL     1     -12.653  10.400  63.041  1.00  0.00     0.000 HD 
HETATM    3  C   UNL     1     -11.923  12.208  63.702  1.00  0.00    -0.534 C  
HETATM    4  C   UNL     1     -12.087  13.751  63.448  1.00  0.00    -0.069 C  
HETATM    5  O   UNL     1     -10.186  15.451  64.678  1.00  0.00    -0.234 OA 
HETATM    6  C   UNL     1     -12.508  12.612  65.112  1.00  0.00    -0.463 C  
HETATM    7  N   UNL     1     -11.799  13.882  64.906  1.00  0.00    -0.368 N  
HETATM    8  C   UNL     1     -10.638  14.530  65.365  1.00  0.00    -0.370 C  
ENDROOT
BRANCH   3   9
HETATM    9  C   UNL     1     -10.474  11.633  63.828  1.00  0.00    -0.402 C  
HETATM   10  C   UNL     1      -8.326  10.925  62.745  1.00  0.00    -0.144 C  
HETATM   11  C   UNL     1      -8.364   9.655  63.592  1.00  0.00    -0.172 C  
HETATM   12  H   UNL     1     -11.036   9.661  64.179  1.00  0.00     0.000 HD 
HETATM   13  C   UNL     1      -9.754  11.433  62.487  1.00  0.00     0.045 C  
HETATM   14  C   UNL     1      -9.117   9.906  64.891  1.00  0.00    -0.224 C  
HETATM   15  N   UNL     1     -10.470  10.384  64.623  1.00  0.00    -0.149 NA 
ENDBRANCH   3   9
BRANCH   8  16
HETATM   16  C   UNL     1      -9.810  14.099  66.571  1.00  0.00    -0.298 A  
HETATM   17  C   UNL     1      -9.397  15.045  67.569  1.00  0.00    -0.195 A  
HETATM   18  C   UNL     1      -9.293  12.794  66.673  1.00  0.00    -0.242 A  
HETATM   19  C   UNL     1      -8.003  13.317  68.621  1.00  0.00    -0.042 A  
HETATM   20  F   UNL     1      -7.990  15.479  69.470  1.00  0.00    -0.197 F  
HETATM   21  F   UNL     1      -7.129  12.952  69.569  1.00  0.00    -0.037 F  
HETATM   22  C   UNL     1      -8.402  12.400  67.678  1.00  0.00    -0.169 A  
HETATM   23  C   UNL     1      -8.478  14.614  68.566  1.00  0.00    -0.161 A  
BRANCH  17  24
HETATM   24  N   UNL     1      -9.825  16.409  67.565  1.00  0.00    -0.236 NA 
HETATM   25  H   UNL     1     -10.824  16.580  67.692  1.00  0.00     0.000 HD 
BRANCH  24  26
HETATM   26  C   UNL     1      -8.993  17.553  67.402  1.00  0.00    -0.230 A  
HETATM   27  C   UNL     1      -7.908  17.556  66.522  1.00  0.00    -0.276 A  
HETATM   28  F   UNL     1      -7.662  16.481  65.756  1.00  0.00    -0.188 F  
HETATM   29  C   UNL     1      -7.015  18.634  66.467  1.00  0.00    -0.240 A  
HETATM   30  C   UNL     1      -7.216  19.733  67.301  1.00  0.00    -0.230 A  
HETATM   31  C   UNL     1      -8.302  19.766  68.173  1.00  0.00    -0.326 A  
HETATM   32  I   UNL     1      -5.886  21.330  67.271  1.00  0.00    -0.363 I  
HETATM   33  C   UNL     1      -9.190  18.686  68.210  1.00  0.00    -0.350 A  
ENDBRANCH  24  26
ENDBRANCH  17  24
ENDBRANCH   8  16
TORSDOF 4
ENDMDL
MODEL       52
REMARK 921   NORMALIZED FREE ENERGY PREDICTED BY IDOCK:   -5.77 KCAL/MOL
REMARK 922        TOTAL FREE ENERGY PREDICTED BY IDOCK:   -8.86 KCAL/MOL
REMARK 923 INTER-LIGAND FREE ENERGY PREDICTED BY IDOCK:   -7.57 KCAL/MOL
REMARK 924 INTRA-LIGAND FREE ENERGY PREDICTED BY IDOCK:   -1.30 KCAL/MOL
REMARK 927      BINDING AFFINITY PREDICTED BY RF-SCORE:    0.00 PKD
ROOT
HETATM    1  O   UNL     1     -11.118  17.090  70.454  1.00  0.00    -0.343 OA 
HETATM    2  H   UNL     1     -11.180  17.923  70.001  1.00  0.00     0.000 HD 
HETATM    3  C   UNL     1     -11.140  15.902  69.614  1.00  0.00    -0.320 C  
HETATM    4  C   UNL     1     -11.037  14.523  70.364  1.00  0.00     0.007 C  
HETATM    5  O   UNL     1     -10.622  12.230  68.755  1.00  0.00    -0.230 OA 
HETATM    6  C   UNL     1     -12.565  15.333  69.243  1.00  0.00     0.150 C  
HETATM    7  N   UNL     1     -11.911  14.017  69.264  1.00  0.00    -0.322 N  
HETATM    8  C   UNL     1     -11.449  13.053  68.350  1.00  0.00    -0.310 C  
ENDROOT
BRANCH   3   9
HETATM    9  C   UNL     1     -10.259  16.113  68.339  1.00  0.00    -0.240 C  
HETATM   10  C   UNL     1      -8.071  15.822  67.147  1.00  0.00    -0.244 C  
HETATM   11  C   UNL     1      -8.155  17.285  66.720  1.00  0.00    -0.280 C  
HETATM   12  H   UNL     1      -9.920  18.145  68.625  1.00  0.00     0.000 HD 
HETATM   13  C   UNL     1      -8.813  15.615  68.479  1.00  0.00    -0.187 C  
HETATM   14  C   UNL     1      -9.608  17.729  66.630  1.00  0.00    -0.307 C  
HETATM   15  N   UNL     1     -10.293  17.528  67.904  1.00  0.00    -0.354 NA 
ENDBRANCH   3   9
BRANCH   8  16
HETATM   16  C   UNL     1     -11.780  13.023  66.862  1.00  0.00    -0.441 A  
HETATM   17  C   UNL     1     -11.347  11.942  66.022  1.00  0.00    -0.316 A  
HETATM   18  C   UNL     1     -12.390  14.121  66.227  1.00  0.00    -0.451 A  
HETATM   19  C   UNL     1     -12.140  13.167  64.046  1.00  0.00    -0.446 A  
HETATM   20  F   UNL     1     -11.065  11.125  63.778  1.00  0.00    -0.442 F  
HETATM   21  F   UNL     1     -12.284  13.251  62.717  1.00  0.00    -0.509 F  
HETATM   22  C   UNL     1     -12.570  14.202  64.842  1.00  0.00    -0.362 A  
HETATM   23  C   UNL     1     -11.531  12.064  64.617  1.00  0.00    -0.308 A  
BRANCH  17  24
HETATM   24  N   UNL     1     -10.689  10.781  66.536  1.00  0.00    -0.218 NA 
HETATM   25  H   UNL     1     -11.158  10.281  67.292  1.00  0.00     0.000 HD 
BRANCH  24  26
HETATM   26  C   UNL     1      -9.441  10.255  66.094  1.00  0.00    -0.181 A  
HETATM   27  C   UNL     1      -8.280  11.029  66.076  1.00  0.00    -0.129 A  
HETATM   28  F   UNL     1      -8.304  12.289  66.541  1.00  0.00    -0.164 F  
HETATM   29  C   UNL     1      -7.090  10.548  65.513  1.00  0.00    -0.099 A  
HETATM   30  C   UNL     1      -7.060   9.266  64.967  1.00  0.00    -0.097 A  
HETATM   31  C   UNL     1      -8.198   8.464  64.991  1.00  0.00    -0.155 A  
HETATM   32  I   UNL     1      -5.320   8.540  64.090  1.00  0.00    -0.057 I  
HETATM   33  C   UNL     1      -9.376   8.955  65.564  1.00  0.00    -0.214 A  
ENDBRANCH  24  26
ENDBRANCH  17  24
ENDBRANCH   8  16
TORSDOF 4
ENDMDL
MODEL       53
REMARK 921   NORMALIZED FREE ENERGY PREDICTED BY IDOCK:   -5.73 KCAL/MOL
REMARK 922        TOTAL FREE ENERGY PREDICTED BY IDOCK:   -8.81 KCAL/MOL
REMARK 923 INTER-LIGAND FREE ENERGY PREDICTED BY IDOCK:   -7.33 KCAL/MOL
REMARK 924 INTRA-LIGAND FREE ENERGY PREDICTED BY IDOCK:   -1.48 KCAL/MOL
REMARK 927      BINDING AFFINITY PREDICTED BY RF-SCORE:    0.00 PKD
ROOT
HETATM    1  O   UNL     1      -9.814  11.059  62.667  1.00  0.00    -0.544 OA 
HETATM    2  H   UNL     1      -9.876  10.244  62.182  1.00  0.00     0.000 HD 
HETATM    3  C   UNL     1      -9.602  10.937  64.101  1.00  0.00    -0.277 C  
HETATM    4  C   UNL     1      -9.498  12.286  64.902  1.00  0.00     0.185 C  
HETATM    5  O   UNL     1      -8.641  12.102  67.595  1.00  0.00    -0.149 OA 
HETATM    6  C   UNL     1     -10.897  10.776  64.989  1.00  0.00     0.015 C  
HETATM    7  N   UNL     1     -10.143  11.519  66.008  1.00  0.00    -0.223 N  
HETATM    8  C   UNL     1      -9.463  11.263  67.213  1.00  0.00    -0.173 C  
ENDROOT
BRANCH   3   9
HETATM    9  C   UNL     1      -8.555   9.816  64.408  1.00  0.00    -0.188 C  
HETATM   10  C   UNL     1      -6.224   9.149  65.050  1.00  0.00    -0.065 C  
HETATM   11  C   UNL     1      -6.253   8.117  63.925  1.00  0.00    -0.067 C  
HETATM   12  H   UNL     1      -8.264   9.222  62.436  1.00  0.00     0.000 HD 
HETATM   13  C   UNL     1      -7.141  10.334  64.705  1.00  0.00    -0.092 C  
HETATM   14  C   UNL     1      -7.681   7.665  63.656  1.00  0.00    -0.123 C  
HETATM   15  N   UNL     1      -8.533   8.805  63.327  1.00  0.00    -0.160 NA 
ENDBRANCH   3   9
BRANCH   8  16
HETATM   16  C   UNL     1      -9.555   9.971  68.017  1.00  0.00    -0.154 A  
HETATM   17  C   UNL     1     -10.696   9.684  68.840  1.00  0.00    -0.206 A  
HETATM   18  C   UNL     1      -8.465   9.084  68.102  1.00  0.00    -0.129 A  
HETATM   19  C   UNL     1      -9.542   7.713  69.743  1.00  0.00    -0.163 A  
HETATM   20  F   UNL     1     -11.640   8.289  70.557  1.00  0.00    -0.279 F  
HETATM   21  F   UNL     1      -9.521   6.664  70.576  1.00  0.00    -0.162 F  
HETATM   22  C   UNL     1      -8.449   7.971  68.949  1.00  0.00    -0.131 A  
HETATM   23  C   UNL     1     -10.639   8.553  69.701  1.00  0.00    -0.220 A  
BRANCH  17  24
HETATM   24  N   UNL     1     -11.857  10.519  68.870  1.00  0.00    -0.619 NA 
HETATM   25  H   UNL     1     -12.581  10.328  68.177  1.00  0.00     0.000 HD 
BRANCH  24  26
HETATM   26  C   UNL     1     -12.100  11.592  69.775  1.00  0.00    -0.306 A  
HETATM   27  C   UNL     1     -12.784  11.401  70.977  1.00  0.00    -0.349 A  
HETATM   28  F   UNL     1     -13.179  10.170  71.338  1.00  0.00    -0.399 F  
HETATM   29  C   UNL     1     -13.138  12.482  71.796  1.00  0.00    -0.450 A  
HETATM   30  C   UNL     1     -12.793  13.776  71.408  1.00  0.00    -0.369 A  
HETATM   31  C   UNL     1     -12.092  13.993  70.224  1.00  0.00    -0.425 A  
HETATM   32  I   UNL     1     -13.339  15.403  72.582  1.00  0.00    -0.730 I  
HETATM   33  C   UNL     1     -11.738  12.903  69.422  1.00  0.00    -0.382 A  
ENDBRANCH  24  26
ENDBRANCH  17  24
ENDBRANCH   8  16
TORSDOF 4
ENDMDL
MODEL       54
REMARK 921   NORMALIZED FREE ENERGY PREDICTED BY IDOCK:   -5.68 KCAL/MOL
REMARK 922        TOTAL FREE ENERGY PREDICTED BY IDOCK:   -8.76 KCAL/MOL
REMARK 923 INTER-LIGAND FREE ENERGY PREDICTED BY IDOCK:   -7.20 KCAL/MOL
REMARK 924 INTRA-LIGAND FREE ENERGY PREDICTED BY IDOCK:   -1.55 KCAL/MOL
REMARK 927      BINDING AFFINITY PREDICTED BY RF-SCORE:    0.00 PKD
ROOT
HETATM    1  O   UNL     1      -6.396  17.483  69.916  1.00  0.00    -0.193 OA 
HETATM    2  H   UNL     1      -6.679  18.389  69.865  1.00  0.00     0.000 HD 
HETATM    3  C   UNL     1      -7.056  16.556  69.010  1.00  0.00    -0.213 C  
HETATM    4  C   UNL     1      -6.588  15.056  69.093  1.00  0.00    -0.120 C  
HETATM    5  O   UNL     1      -7.513  13.321  67.056  1.00  0.00    -0.020 OA 
HETATM    6  C   UNL     1      -8.408  15.921  69.522  1.00  0.00    -0.077 C  
HETATM    7  N   UNL     1      -8.005  14.739  68.748  1.00  0.00    -0.146 N  
HETATM    8  C   UNL     1      -8.337  14.106  67.536  1.00  0.00    -0.185 C  
ENDROOT
BRANCH   3   9
HETATM    9  C   UNL     1      -7.225  17.196  67.593  1.00  0.00    -0.157 C  
HETATM   10  C   UNL     1      -6.217  17.944  65.422  1.00  0.00    -0.066 C  
HETATM   11  C   UNL     1      -6.999  19.247  65.554  1.00  0.00    -0.264 C  
HETATM   12  H   UNL     1      -7.455  19.156  68.250  1.00  0.00     0.000 HD 
HETATM   13  C   UNL     1      -5.913  17.365  66.814  1.00  0.00    -0.221 C  
HETATM   14  C   UNL     1      -8.270  19.025  66.361  1.00  0.00    -0.305 C  
HETATM   15  N   UNL     1      -7.960  18.478  67.679  1.00  0.00    -0.244 NA 
ENDBRANCH   3   9
BRANCH   8  16
HETATM   16  C   UNL     1      -9.570  14.414  66.694  1.00  0.00    -0.295 A  
HETATM   17  C   UNL     1     -10.658  13.483  66.597  1.00  0.00    -0.280 A  
HETATM   18  C   UNL     1      -9.622  15.549  65.863  1.00  0.00    -0.383 A  
HETATM   19  C   UNL     1     -11.694  14.882  64.864  1.00  0.00    -0.371 A  
HETATM   20  F   UNL     1     -12.686  12.868  65.459  1.00  0.00    -0.522 F  
HETATM   21  F   UNL     1     -12.679  15.092  63.980  1.00  0.00    -0.431 F  
HETATM   22  C   UNL     1     -10.663  15.787  64.958  1.00  0.00    -0.443 A  
HETATM   23  C   UNL     1     -11.691  13.749  65.655  1.00  0.00    -0.347 A  
BRANCH  17  24
HETATM   24  N   UNL     1     -10.714  12.276  67.363  1.00  0.00    -0.225 NA 
HETATM   25  H   UNL     1     -11.041  12.357  68.327  1.00  0.00     0.000 HD 
BRANCH  24  26
HETATM   26  C   UNL     1     -10.357  10.974  66.911  1.00  0.00    -0.235 A  
HETATM   27  C   UNL     1     -10.634   9.831  67.665  1.00  0.00    -0.276 A  
HETATM   28  F   UNL     1     -11.307   9.935  68.821  1.00  0.00    -0.234 F  
HETATM   29  C   UNL     1     -10.160   8.570  67.279  1.00  0.00    -0.317 A  
HETATM   30  C   UNL     1      -9.404   8.449  66.114  1.00  0.00    -0.201 A  
HETATM   31  C   UNL     1      -9.131   9.569  65.333  1.00  0.00    -0.273 A  
HETATM   32  I   UNL     1      -8.654   6.598  65.538  1.00  0.00     0.093 I  
HETATM   33  C   UNL     1      -9.619  10.820  65.726  1.00  0.00    -0.254 A  
ENDBRANCH  24  26
ENDBRANCH  17  24
ENDBRANCH   8  16
TORSDOF 4
ENDMDL
MODEL       55
REMARK 921   NORMALIZED FREE ENERGY PREDICTED BY IDOCK:   -5.61 KCAL/MOL
REMARK 922        TOTAL FREE ENERGY PREDICTED BY IDOCK:   -8.66 KCAL/MOL
REMARK 923 INTER-LIGAND FREE ENERGY PREDICTED BY IDOCK:   -7.05 KCAL/MOL
REMARK 924 INTRA-LIGAND FREE ENERGY PREDICTED BY IDOCK:   -1.61 KCAL/MOL
REMARK 927      BINDING AFFINITY PREDICTED BY RF-SCORE:    0.00 PKD
ROOT
HETATM    1  O   UNL     1      -8.229   8.036  69.846  1.00  0.00    -0.115 OA 
HETATM    2  H   UNL     1      -9.040   7.574  70.024  1.00  0.00     0.000 HD 
HETATM    3  C   UNL     1      -8.313   9.133  68.893  1.00  0.00    -0.124 C  
HETATM    4  C   UNL     1      -6.972   9.899  68.598  1.00  0.00    -0.062 C  
HETATM    5  O   UNL     1      -7.179  12.301  67.114  1.00  0.00    -0.144 OA 
HETATM    6  C   UNL     1      -8.161   8.749  67.369  1.00  0.00    -0.109 C  
HETATM    7  N   UNL     1      -7.532  10.069  67.226  1.00  0.00    -0.091 N  
HETATM    8  C   UNL     1      -7.854  11.343  66.722  1.00  0.00    -0.157 C  
ENDROOT
BRANCH   3   9
HETATM    9  C   UNL     1      -9.604   9.981  69.143  1.00  0.00    -0.210 C  
HETATM   10  C   UNL     1     -11.392  10.791  70.704  1.00  0.00    -0.202 C  
HETATM   11  C   UNL     1     -12.424  10.457  69.630  1.00  0.00     0.022 C  
HETATM   12  H   UNL     1     -10.920   8.688  68.183  1.00  0.00     0.000 HD 
HETATM   13  C   UNL     1     -10.168   9.870  70.567  1.00  0.00    -0.257 C  
HETATM   14  C   UNL     1     -11.800  10.552  68.245  1.00  0.00     0.201 C  
HETATM   15  N   UNL     1     -10.642   9.668  68.135  1.00  0.00    -0.223 NA 
ENDBRANCH   3   9
BRANCH   8  16
HETATM   16  C   UNL     1      -9.055  11.662  65.838  1.00  0.00    -0.155 A  
HETATM   17  C   UNL     1      -9.996  12.684  66.198  1.00  0.00    -0.261 A  
HETATM   18  C   UNL     1      -9.369  10.867  64.720  1.00  0.00    -0.259 A  
HETATM   19  C   UNL     1     -11.444  12.000  64.336  1.00  0.00    -0.343 A  
HETATM   20  F   UNL     1     -12.141  13.685  65.774  1.00  0.00    -0.350 F  
HETATM   21  F   UNL     1     -12.582  12.137  63.643  1.00  0.00    -0.550 F  
HETATM   22  C   UNL     1     -10.543  11.026  63.975  1.00  0.00    -0.395 A  
HETATM   23  C   UNL     1     -11.186  12.806  65.429  1.00  0.00    -0.292 A  
BRANCH  17  24
HETATM   24  N   UNL     1      -9.811  13.541  67.329  1.00  0.00    -0.233 NA 
HETATM   25  H   UNL     1      -9.701  13.089  68.237  1.00  0.00     0.000 HD 
BRANCH  24  26
HETATM   26  C   UNL     1      -9.766  14.965  67.309  1.00  0.00    -0.228 A  
HETATM   27  C   UNL     1     -10.605  15.740  68.111  1.00  0.00    -0.275 A  
HETATM   28  F   UNL     1     -11.443  15.148  68.977  1.00  0.00    -0.250 F  
HETATM   29  C   UNL     1     -10.650  17.135  67.987  1.00  0.00    -0.374 A  
HETATM   30  C   UNL     1      -9.833  17.766  67.049  1.00  0.00    -0.309 A  
HETATM   31  C   UNL     1      -8.972  17.018  66.250  1.00  0.00    -0.282 A  
HETATM   32  I   UNL     1      -9.907  19.830  66.814  1.00  0.00    -0.661 I  
HETATM   33  C   UNL     1      -8.931  15.627  66.392  1.00  0.00    -0.362 A  
ENDBRANCH  24  26
ENDBRANCH  17  24
ENDBRANCH   8  16
TORSDOF 4
ENDMDL
MODEL       56
REMARK 921   NORMALIZED FREE ENERGY PREDICTED BY IDOCK:   -5.55 KCAL/MOL
REMARK 922        TOTAL FREE ENERGY PREDICTED BY IDOCK:   -8.59 KCAL/MOL
REMARK 923 INTER-LIGAND FREE ENERGY PREDICTED BY IDOCK:   -7.04 KCAL/MOL
REMARK 924 INTRA-LIGAND FREE ENERGY PREDICTED BY IDOCK:   -1.56 KCAL/MOL
REMARK 927      BINDING AFFINITY PREDICTED BY RF-SCORE:    0.00 PKD
ROOT
HETATM    1  O   UNL     1      -5.698   8.897  65.386  1.00  0.00    -0.046 OA 
HETATM    2  H   UNL     1      -5.063   8.873  66.092  1.00  0.00     0.000 HD 
HETATM    3  C   UNL     1      -7.061   9.239  65.763  1.00  0.00    -0.086 C  
HETATM    4  C   UNL     1      -8.113   9.280  64.594  1.00  0.00    -0.136 C  
HETATM    5  O   UNL     1     -10.653  10.371  65.208  1.00  0.00    -0.191 OA 
HETATM    6  C   UNL     1      -7.977   8.042  66.236  1.00  0.00    -0.105 C  
HETATM    7  N   UNL     1      -9.077   8.805  65.630  1.00  0.00    -0.206 N  
HETATM    8  C   UNL     1     -10.160   9.603  66.040  1.00  0.00    -0.248 C  
ENDROOT
BRANCH   3   9
HETATM    9  C   UNL     1      -7.069  10.409  66.801  1.00  0.00    -0.105 C  
HETATM   10  C   UNL     1      -6.098  12.564  67.639  1.00  0.00    -0.140 C  
HETATM   11  C   UNL     1      -6.122  11.980  69.049  1.00  0.00    -0.073 C  
HETATM   12  H   UNL     1      -6.231   9.333  68.371  1.00  0.00     0.000 HD 
HETATM   13  C   UNL     1      -5.948  11.439  66.601  1.00  0.00    -0.147 C  
HETATM   14  C   UNL     1      -7.231  10.945  69.176  1.00  0.00    -0.118 C  
HETATM   15  N   UNL     1      -7.068   9.885  68.185  1.00  0.00    -0.077 NA 
ENDBRANCH   3   9
BRANCH   8  16
HETATM   16  C   UNL     1     -10.689   9.701  67.467  1.00  0.00    -0.321 A  
HETATM   17  C   UNL     1     -11.374  10.875  67.930  1.00  0.00    -0.308 A  
HETATM   18  C   UNL     1     -10.394   8.712  68.425  1.00  0.00    -0.239 A  
HETATM   19  C   UNL     1     -11.368   9.970  70.213  1.00  0.00    -0.308 A  
HETATM   20  F   UNL     1     -12.238  12.087  69.818  1.00  0.00    -0.330 F  
HETATM   21  F   UNL     1     -11.661  10.106  71.514  1.00  0.00    -0.428 F  
HETATM   22  C   UNL     1     -10.723   8.836  69.779  1.00  0.00    -0.220 A  
HETATM   23  C   UNL     1     -11.679  10.975  69.316  1.00  0.00    -0.326 A  
BRANCH  17  24
HETATM   24  N   UNL     1     -11.708  11.966  67.067  1.00  0.00    -0.589 NA 
HETATM   25  H   UNL     1     -12.360  11.770  66.307  1.00  0.00     0.000 HD 
BRANCH  24  26
HETATM   26  C   UNL     1     -11.218  13.299  67.167  1.00  0.00    -0.299 A  
HETATM   27  C   UNL     1      -9.939  13.649  66.728  1.00  0.00    -0.270 A  
HETATM   28  F   UNL     1      -9.157  12.732  66.137  1.00  0.00    -0.193 F  
HETATM   29  C   UNL     1      -9.415  14.929  66.953  1.00  0.00    -0.251 A  
HETATM   30  C   UNL     1     -10.186  15.878  67.622  1.00  0.00    -0.263 A  
HETATM   31  C   UNL     1     -11.473  15.561  68.053  1.00  0.00    -0.313 A  
HETATM   32  I   UNL     1      -9.420  17.772  68.006  1.00  0.00    -0.318 I  
HETATM   33  C   UNL     1     -11.986  14.283  67.812  1.00  0.00    -0.384 A  
ENDBRANCH  24  26
ENDBRANCH  17  24
ENDBRANCH   8  16
TORSDOF 4
ENDMDL
MODEL       57
REMARK 921   NORMALIZED FREE ENERGY PREDICTED BY IDOCK:   -5.53 KCAL/MOL
REMARK 922        TOTAL FREE ENERGY PREDICTED BY IDOCK:   -8.57 KCAL/MOL
REMARK 923 INTER-LIGAND FREE ENERGY PREDICTED BY IDOCK:   -7.36 KCAL/MOL
REMARK 924 INTRA-LIGAND FREE ENERGY PREDICTED BY IDOCK:   -1.21 KCAL/MOL
REMARK 927      BINDING AFFINITY PREDICTED BY RF-SCORE:    0.00 PKD
ROOT
HETATM    1  O   UNL     1     -10.362   9.040  66.017  1.00  0.00    -0.318 OA 
HETATM    2  H   UNL     1     -11.111   8.590  66.391  1.00  0.00     0.000 HD 
HETATM    3  C   UNL     1     -10.120  10.390  66.501  1.00  0.00    -0.228 C  
HETATM    4  C   UNL     1      -8.881  11.136  65.881  1.00  0.00    -0.186 C  
HETATM    5  O   UNL     1      -8.115  13.568  67.112  1.00  0.00    -0.163 OA 
HETATM    6  C   UNL     1     -10.896  11.549  65.759  1.00  0.00    -0.262 C  
HETATM    7  N   UNL     1      -9.710  12.365  66.051  1.00  0.00    -0.253 N  
HETATM    8  C   UNL     1      -9.324  13.389  66.937  1.00  0.00    -0.252 C  
ENDROOT
BRANCH   3   9
HETATM    9  C   UNL     1     -10.324  10.465  68.049  1.00  0.00    -0.179 C  
HETATM   10  C   UNL     1      -9.771   9.630  70.348  1.00  0.00    -0.304 C  
HETATM   11  C   UNL     1     -11.266   9.605  70.656  1.00  0.00    -0.385 C  
HETATM   12  H   UNL     1     -12.190   9.547  68.082  1.00  0.00     0.000 HD 
HETATM   13  C   UNL     1      -9.535   9.415  68.844  1.00  0.00    -0.154 C  
HETATM   14  C   UNL     1     -11.997  10.643  69.817  1.00  0.00    -0.291 C  
HETATM   15  N   UNL     1     -11.764  10.420  68.393  1.00  0.00    -0.287 NA 
ENDBRANCH   3   9
BRANCH   8  16
HETATM   16  C   UNL     1     -10.276  14.205  67.804  1.00  0.00    -0.242 A  
HETATM   17  C   UNL     1      -9.798  15.275  68.633  1.00  0.00    -0.211 A  
HETATM   18  C   UNL     1     -11.630  13.846  67.940  1.00  0.00    -0.377 A  
HETATM   19  C   UNL     1     -12.028  15.483  69.640  1.00  0.00    -0.359 A  
HETATM   20  F   UNL     1     -10.290  16.817  70.411  1.00  0.00     0.013 F  
HETATM   21  F   UNL     1     -12.850  16.064  70.526  1.00  0.00    -0.419 F  
HETATM   22  C   UNL     1     -12.500  14.468  68.842  1.00  0.00     0.067 A  
HETATM   23  C   UNL     1     -10.705  15.875  69.550  1.00  0.00    -0.288 A  
BRANCH  17  24
HETATM   24  N   UNL     1      -8.438  15.720  68.614  1.00  0.00    -0.180 NA 
HETATM   25  H   UNL     1      -7.743  15.095  69.024  1.00  0.00     0.000 HD 
BRANCH  24  26
HETATM   26  C   UNL     1      -7.961  16.950  68.077  1.00  0.00    -0.185 A  
HETATM   27  C   UNL     1      -8.015  17.227  66.710  1.00  0.00    -0.241 A  
HETATM   28  F   UNL     1      -8.583  16.349  65.867  1.00  0.00    -0.347 F  
HETATM   29  C   UNL     1      -7.421  18.377  66.174  1.00  0.00    -0.280 A  
HETATM   30  C   UNL     1      -6.770  19.271  67.023  1.00  0.00    -0.196 A  
HETATM   31  C   UNL     1      -6.720  19.029  68.394  1.00  0.00    -0.277 A  
HETATM   32  I   UNL     1      -5.846  20.967  66.253  1.00  0.00    -0.324 I  
HETATM   33  C   UNL     1      -7.326  17.881  68.915  1.00  0.00    -0.251 A  
ENDBRANCH  24  26
ENDBRANCH  17  24
ENDBRANCH   8  16
TORSDOF 4
ENDMDL
MODEL       58
REMARK 921   NORMALIZED FREE ENERGY PREDICTED BY IDOCK:   -5.53 KCAL/MOL
REMARK 922        TOTAL FREE ENERGY PREDICTED BY IDOCK:   -8.56 KCAL/MOL
REMARK 923 INTER-LIGAND FREE ENERGY PREDICTED BY IDOCK:   -6.95 KCAL/MOL
REMARK 924 INTRA-LIGAND FREE ENERGY PREDICTED BY IDOCK:   -1.61 KCAL/MOL
REMARK 927      BINDING AFFINITY PREDICTED BY RF-SCORE:    0.00 PKD
ROOT
HETATM    1  O   UNL     1     -10.023   5.717  67.761  1.00  0.00    -0.123 OA 
HETATM    2  H   UNL     1     -10.745   5.229  68.138  1.00  0.00     0.000 HD 
HETATM    3  C   UNL     1      -9.978   7.137  68.072  1.00  0.00    -0.158 C  
HETATM    4  C   UNL     1      -8.782   7.946  67.448  1.00  0.00    -0.128 C  
HETATM    5  O   UNL     1      -8.406  10.590  68.390  1.00  0.00    -0.116 OA 
HETATM    6  C   UNL     1     -10.812   8.088  67.127  1.00  0.00    -0.080 C  
HETATM    7  N   UNL     1      -9.756   9.075  67.390  1.00  0.00    -0.159 N  
HETATM    8  C   UNL     1      -9.568  10.242  68.153  1.00  0.00    -0.140 C  
ENDROOT
BRANCH   3   9
HETATM    9  C   UNL     1     -10.325   7.381  69.578  1.00  0.00    -0.217 C  
HETATM   10  C   UNL     1      -9.581   7.587  71.964  1.00  0.00    -0.189 C  
HETATM   11  C   UNL     1     -10.741   6.679  72.362  1.00  0.00    -0.252 C  
HETATM   12  H   UNL     1     -11.178   5.517  69.925  1.00  0.00     0.000 HD 
HETATM   13  C   UNL     1      -9.126   7.268  70.530  1.00  0.00    -0.158 C  
HETATM   14  C   UNL     1     -11.884   6.811  71.366  1.00  0.00    -0.338 C  
HETATM   15  N   UNL     1     -11.432   6.500  70.012  1.00  0.00    -0.407 NA 
ENDBRANCH   3   9
BRANCH   8  16
HETATM   16  C   UNL     1     -10.678  11.037  68.831  1.00  0.00    -0.249 A  
HETATM   17  C   UNL     1     -11.113  12.303  68.312  1.00  0.00    -0.240 A  
HETATM   18  C   UNL     1     -11.212  10.636  70.070  1.00  0.00    -0.382 A  
HETATM   19  C   UNL     1     -12.516  12.630  70.301  1.00  0.00    -0.090 A  
HETATM   20  F   UNL     1     -12.390  14.304  68.695  1.00  0.00    -0.344 F  
HETATM   21  F   UNL     1     -13.361  13.392  71.010  1.00  0.00    -0.292 F  
HETATM   22  C   UNL     1     -12.117  11.414  70.801  1.00  0.00    -0.433 A  
HETATM   23  C   UNL     1     -12.020  13.075  69.089  1.00  0.00    -0.271 A  
BRANCH  17  24
HETATM   24  N   UNL     1     -10.626  12.841  67.079  1.00  0.00    -0.240 NA 
HETATM   25  H   UNL     1     -10.893  12.350  66.224  1.00  0.00     0.000 HD 
BRANCH  24  26
HETATM   26  C   UNL     1      -9.805  13.995  66.928  1.00  0.00    -0.267 A  
HETATM   27  C   UNL     1     -10.208  15.091  66.163  1.00  0.00    -0.297 A  
HETATM   28  F   UNL     1     -11.424  15.104  65.595  1.00  0.00    -0.344 F  
HETATM   29  C   UNL     1      -9.341  16.162  65.909  1.00  0.00    -0.316 A  
HETATM   30  C   UNL     1      -8.051  16.140  66.437  1.00  0.00    -0.270 A  
HETATM   31  C   UNL     1      -7.631  15.068  67.221  1.00  0.00    -0.227 A  
HETATM   32  I   UNL     1      -6.729  17.695  66.044  1.00  0.00    -0.023 I  
HETATM   33  C   UNL     1      -8.511  14.010  67.474  1.00  0.00    -0.201 A  
ENDBRANCH  24  26
ENDBRANCH  17  24
ENDBRANCH   8  16
TORSDOF 4
ENDMDL
MODEL       59
REMARK 921   NORMALIZED FREE ENERGY PREDICTED BY IDOCK:   -5.50 KCAL/MOL
REMARK 922        TOTAL FREE ENERGY PREDICTED BY IDOCK:   -8.53 KCAL/MOL
REMARK 923 INTER-LIGAND FREE ENERGY PREDICTED BY IDOCK:   -6.59 KCAL/MOL
REMARK 924 INTRA-LIGAND FREE ENERGY PREDICTED BY IDOCK:   -1.94 KCAL/MOL
REMARK 927      BINDING AFFINITY PREDICTED BY RF-SCORE:    0.00 PKD
ROOT
HETATM    1  O   UNL     1      -7.090   3.752  66.652  1.00  0.00    -0.058 OA 
HETATM    2  H   UNL     1      -6.292   3.744  67.168  1.00  0.00     0.000 HD 
HETATM    3  C   UNL     1      -8.153   4.621  67.131  1.00  0.00    -0.102 C  
HETATM    4  C   UNL     1      -9.474   4.635  66.278  1.00  0.00    -0.167 C  
HETATM    5  O   UNL     1     -11.377   6.633  66.912  1.00  0.00    -0.333 OA 
HETATM    6  C   UNL     1      -9.129   4.005  68.209  1.00  0.00    -0.137 C  
HETATM    7  N   UNL     1     -10.154   4.854  67.587  1.00  0.00    -0.145 N  
HETATM    8  C   UNL     1     -10.843   6.050  67.861  1.00  0.00    -0.290 C  
ENDROOT
BRANCH   3   9
HETATM    9  C   UNL     1      -7.570   5.993  67.606  1.00  0.00    -0.090 C  
HETATM   10  C   UNL     1      -6.167   8.022  67.151  1.00  0.00    -0.055 C  
HETATM   11  C   UNL     1      -5.537   7.846  68.530  1.00  0.00    -0.028 C  
HETATM   12  H   UNL     1      -6.146   5.205  68.901  1.00  0.00     0.000 HD 
HETATM   13  C   UNL     1      -6.622   6.661  66.599  1.00  0.00    -0.044 C  
HETATM   14  C   UNL     1      -6.509   7.152  69.473  1.00  0.00    -0.040 C  
HETATM   15  N   UNL     1      -6.926   5.861  68.933  1.00  0.00    -0.066 NA 
ENDBRANCH   3   9
BRANCH   8  16
HETATM   16  C   UNL     1     -10.869   6.761  69.210  1.00  0.00    -0.303 A  
HETATM   17  C   UNL     1     -10.230   8.032  69.396  1.00  0.00    -0.210 A  
HETATM   18  C   UNL     1     -11.388   6.131  70.357  1.00  0.00    -0.399 A  
HETATM   19  C   UNL     1     -10.665   7.892  71.809  1.00  0.00    -0.232 A  
HETATM   20  F   UNL     1      -9.469   9.693  70.960  1.00  0.00    -0.302 F  
HETATM   21  F   UNL     1     -10.545   8.408  73.040  1.00  0.00    -0.382 F  
HETATM   22  C   UNL     1     -11.291   6.679  71.641  1.00  0.00    -0.319 A  
HETATM   23  C   UNL     1     -10.135   8.552  70.717  1.00  0.00    -0.198 A  
BRANCH  17  24
HETATM   24  N   UNL     1      -9.636   8.764  68.319  1.00  0.00    -0.145 NA 
HETATM   25  H   UNL     1      -8.682   8.512  68.061  1.00  0.00     0.000 HD 
BRANCH  24  26
HETATM   26  C   UNL     1     -10.250   9.810  67.573  1.00  0.00    -0.220 A  
HETATM   27  C   UNL     1     -10.021   9.972  66.205  1.00  0.00    -0.245 A  
HETATM   28  F   UNL     1      -9.252   9.091  65.544  1.00  0.00    -0.225 F  
HETATM   29  C   UNL     1     -10.518  11.080  65.507  1.00  0.00    -0.302 A  
HETATM   30  C   UNL     1     -11.265  12.040  66.188  1.00  0.00    -0.343 A  
HETATM   31  C   UNL     1     -11.526  11.893  67.549  1.00  0.00    -0.396 A  
HETATM   32  I   UNL     1     -11.982  13.716  65.189  1.00  0.00    -0.509 I  
HETATM   33  C   UNL     1     -11.031  10.776  68.230  1.00  0.00    -0.307 A  
ENDBRANCH  24  26
ENDBRANCH  17  24
ENDBRANCH   8  16
TORSDOF 4
ENDMDL
MODEL       60
REMARK 921   NORMALIZED FREE ENERGY PREDICTED BY IDOCK:   -5.48 KCAL/MOL
REMARK 922        TOTAL FREE ENERGY PREDICTED BY IDOCK:   -8.51 KCAL/MOL
REMARK 923 INTER-LIGAND FREE ENERGY PREDICTED BY IDOCK:   -6.67 KCAL/MOL
REMARK 924 INTRA-LIGAND FREE ENERGY PREDICTED BY IDOCK:   -1.84 KCAL/MOL
REMARK 927      BINDING AFFINITY PREDICTED BY RF-SCORE:    0.00 PKD
ROOT
HETATM    1  O   UNL     1      -9.985   6.854  74.405  1.00  0.00    -0.411 OA 
HETATM    2  H   UNL     1     -10.662   6.188  74.366  1.00  0.00     0.000 HD 
HETATM    3  C   UNL     1      -9.509   7.358  73.126  1.00  0.00    -0.201 C  
HETATM    4  C   UNL     1      -8.389   8.460  73.190  1.00  0.00    -0.121 C  
HETATM    5  O   UNL     1      -7.765   9.781  70.764  1.00  0.00    -0.308 OA 
HETATM    6  C   UNL     1      -8.346   6.541  72.440  1.00  0.00    -0.108 C  
HETATM    7  N   UNL     1      -7.903   7.842  71.921  1.00  0.00    -0.097 N  
HETATM    8  C   UNL     1      -7.918   8.557  70.709  1.00  0.00    -0.107 C  
ENDROOT
BRANCH   3   9
HETATM    9  C   UNL     1     -10.706   7.583  72.144  1.00  0.00    -0.234 C  
HETATM   10  C   UNL     1     -12.973   8.552  71.681  1.00  0.00    -0.369 C  
HETATM   11  C   UNL     1     -13.377   7.212  71.072  1.00  0.00    -0.130 C  
HETATM   12  H   UNL     1     -11.472   5.653  72.266  1.00  0.00     0.000 HD 
HETATM   13  C   UNL     1     -11.893   8.342  72.755  1.00  0.00    -0.234 C  
HETATM   14  C   UNL     1     -12.157   6.493  70.513  1.00  0.00    -0.160 C  
HETATM   15  N   UNL     1     -11.147   6.301  71.549  1.00  0.00    -0.270 NA 
ENDBRANCH   3   9
BRANCH   8  16
HETATM   16  C   UNL     1      -8.245   7.963  69.343  1.00  0.00    -0.130 A  
HETATM   17  C   UNL     1      -9.357   8.439  68.570  1.00  0.00    -0.139 A  
HETATM   18  C   UNL     1      -7.566   6.830  68.857  1.00  0.00    -0.105 A  
HETATM   19  C   UNL     1      -9.010   6.616  66.960  1.00  0.00    -0.118 A  
HETATM   20  F   UNL     1     -10.800   8.070  66.681  1.00  0.00    -0.379 F  
HETATM   21  F   UNL     1      -9.386   5.961  65.853  1.00  0.00    -0.168 F  
HETATM   22  C   UNL     1      -7.936   6.159  67.686  1.00  0.00    -0.106 A  
HETATM   23  C   UNL     1      -9.715   7.723  67.393  1.00  0.00    -0.163 A  
BRANCH  17  24
HETATM   24  N   UNL     1     -10.149   9.562  68.965  1.00  0.00    -0.186 NA 
HETATM   25  H   UNL     1     -10.647   9.486  69.853  1.00  0.00     0.000 HD 
BRANCH  24  26
HETATM   26  C   UNL     1     -10.311  10.777  68.239  1.00  0.00    -0.173 A  
HETATM   27  C   UNL     1     -11.504  11.501  68.270  1.00  0.00    -0.299 A  
HETATM   28  F   UNL     1     -12.520  11.090  69.047  1.00  0.00    -0.383 F  
HETATM   29  C   UNL     1     -11.703  12.618  67.449  1.00  0.00    -0.432 A  
HETATM   30  C   UNL     1     -10.684  13.024  66.587  1.00  0.00    -0.274 A  
HETATM   31  C   UNL     1      -9.476  12.332  66.551  1.00  0.00    -0.238 A  
HETATM   32  I   UNL     1     -10.963  14.654  65.327  1.00  0.00    -0.459 I  
HETATM   33  C   UNL     1      -9.290  11.224  67.384  1.00  0.00    -0.168 A  
ENDBRANCH  24  26
ENDBRANCH  17  24
ENDBRANCH   8  16
TORSDOF 4
ENDMDL
MODEL       61
REMARK 921   NORMALIZED FREE ENERGY PREDICTED BY IDOCK:   -5.47 KCAL/MOL
REMARK 922        TOTAL FREE ENERGY PREDICTED BY IDOCK:   -8.50 KCAL/MOL
REMARK 923 INTER-LIGAND FREE ENERGY PREDICTED BY IDOCK:   -7.32 KCAL/MOL
REMARK 924 INTRA-LIGAND FREE ENERGY PREDICTED BY IDOCK:   -1.18 KCAL/MOL
REMARK 927      BINDING AFFINITY PREDICTED BY RF-SCORE:    0.00 PKD
ROOT
HETATM    1  O   UNL     1      -8.335   6.666  67.111  1.00  0.00    -0.112 OA 
HETATM    2  H   UNL     1      -8.240   6.110  67.875  1.00  0.00     0.000 HD 
HETATM    3  C   UNL     1      -8.994   7.945  67.328  1.00  0.00    -0.127 C  
HETATM    4  C   UNL     1      -9.151   8.866  66.062  1.00  0.00    -0.214 C  
HETATM    5  O   UNL     1     -10.008  11.525  66.524  1.00  0.00    -0.202 OA 
HETATM    6  C   UNL     1     -10.570   7.945  67.238  1.00  0.00    -0.295 C  
HETATM    7  N   UNL     1     -10.419   9.309  66.713  1.00  0.00    -0.226 N  
HETATM    8  C   UNL     1     -10.590  10.635  67.152  1.00  0.00    -0.260 C  
ENDROOT
BRANCH   3   9
HETATM    9  C   UNL     1      -8.497   8.601  68.658  1.00  0.00    -0.130 C  
HETATM   10  C   UNL     1      -6.902  10.120  69.858  1.00  0.00    -0.124 C  
HETATM   11  C   UNL     1      -6.725   9.032  70.914  1.00  0.00    -0.080 C  
HETATM   12  H   UNL     1      -7.576   6.902  69.425  1.00  0.00     0.000 HD 
HETATM   13  C   UNL     1      -7.253   9.488  68.501  1.00  0.00    -0.071 C  
HETATM   14  C   UNL     1      -7.975   8.169  71.002  1.00  0.00    -0.095 C  
HETATM   15  N   UNL     1      -8.289   7.576  69.705  1.00  0.00    -0.129 NA 
ENDBRANCH   3   9
BRANCH   8  16
HETATM   16  C   UNL     1     -11.323  11.052  68.422  1.00  0.00    -0.363 A  
HETATM   17  C   UNL     1     -11.883  12.366  68.563  1.00  0.00    -0.304 A  
HETATM   18  C   UNL     1     -11.347  10.220  69.558  1.00  0.00    -0.299 A  
HETATM   19  C   UNL     1     -12.392  11.890  70.918  1.00  0.00    -0.300 A  
HETATM   20  F   UNL     1     -12.844  13.996  70.048  1.00  0.00    -0.358 F  
HETATM   21  F   UNL     1     -12.869  12.292  72.105  1.00  0.00    -0.416 F  
HETATM   22  C   UNL     1     -11.870  10.625  70.791  1.00  0.00    -0.459 A  
HETATM   23  C   UNL     1     -12.391  12.750  69.835  1.00  0.00    -0.070 A  
BRANCH  17  24
HETATM   24  N   UNL     1     -11.896  13.319  67.497  1.00  0.00    -0.361 NA 
HETATM   25  H   UNL     1     -12.669  13.259  66.833  1.00  0.00     0.000 HD 
BRANCH  24  26
HETATM   26  C   UNL     1     -10.933  14.344  67.271  1.00  0.00    -0.297 A  
HETATM   27  C   UNL     1     -10.859  15.031  66.058  1.00  0.00    -0.334 A  
HETATM   28  F   UNL     1     -11.748  14.776  65.085  1.00  0.00    -0.344 F  
HETATM   29  C   UNL     1      -9.825  15.940  65.795  1.00  0.00    -0.380 A  
HETATM   30  C   UNL     1      -8.854  16.173  66.768  1.00  0.00    -0.244 A  
HETATM   31  C   UNL     1      -8.916  15.517  67.995  1.00  0.00    -0.174 A  
HETATM   32  I   UNL     1      -7.287  17.486  66.393  1.00  0.00    -0.328 I  
HETATM   33  C   UNL     1      -9.959  14.619  68.246  1.00  0.00    -0.222 A  
ENDBRANCH  24  26
ENDBRANCH  17  24
ENDBRANCH   8  16
TORSDOF 4
ENDMDL
MODEL       62
REMARK 921   NORMALIZED FREE ENERGY PREDICTED BY IDOCK:   -5.47 KCAL/MOL
REMARK 922        TOTAL FREE ENERGY PREDICTED BY IDOCK:   -8.49 KCAL/MOL
REMARK 923 INTER-LIGAND FREE ENERGY PREDICTED BY IDOCK:   -7.27 KCAL/MOL
REMARK 924 INTRA-LIGAND FREE ENERGY PREDICTED BY IDOCK:   -1.22 KCAL/MOL
REMARK 927      BINDING AFFINITY PREDICTED BY RF-SCORE:    0.00 PKD
ROOT
HETATM    1  O   UNL     1     -11.805   6.587  72.587  1.00  0.00    -0.483 OA 
HETATM    2  H   UNL     1     -11.098   5.969  72.731  1.00  0.00     0.000 HD 
HETATM    3  C   UNL     1     -11.530   7.665  71.649  1.00  0.00    -0.260 C  
HETATM    4  C   UNL     1     -12.700   8.689  71.410  1.00  0.00    -0.276 C  
HETATM    5  O   UNL     1     -12.371  10.519  69.274  1.00  0.00    -0.234 OA 
HETATM    6  C   UNL     1     -10.836   8.952  72.246  1.00  0.00    -0.165 C  
HETATM    7  N   UNL     1     -11.606   9.688  71.234  1.00  0.00    -0.365 N  
HETATM    8  C   UNL     1     -11.389  10.323  69.997  1.00  0.00    -0.301 C  
ENDROOT
BRANCH   3   9
HETATM    9  C   UNL     1     -10.758   7.125  70.400  1.00  0.00    -0.235 C  
HETATM   10  C   UNL     1     -10.789   6.038  68.141  1.00  0.00    -0.365 C  
HETATM   11  C   UNL     1      -9.659   5.125  68.609  1.00  0.00    -0.194 C  
HETATM   12  H   UNL     1     -10.031   5.400  71.305  1.00  0.00     0.000 HD 
HETATM   13  C   UNL     1     -11.652   6.470  69.338  1.00  0.00    -0.249 C  
HETATM   14  C   UNL     1      -8.829   5.815  69.682  1.00  0.00    -0.122 C  
HETATM   15  N   UNL     1      -9.666   6.214  70.810  1.00  0.00    -0.176 NA 
ENDBRANCH   3   9
BRANCH   8  16
HETATM   16  C   UNL     1     -10.023  10.665  69.413  1.00  0.00    -0.183 A  
HETATM   17  C   UNL     1      -9.863  11.732  68.465  1.00  0.00    -0.189 A  
HETATM   18  C   UNL     1      -8.898   9.857  69.664  1.00  0.00    -0.224 A  
HETATM   19  C   UNL     1      -7.527  11.058  68.111  1.00  0.00    -0.092 A  
HETATM   20  F   UNL     1      -8.422  12.803  66.865  1.00  0.00    -0.189 F  
HETATM   21  F   UNL     1      -6.358  11.223  67.478  1.00  0.00    -0.056 F  
HETATM   22  C   UNL     1      -7.666  10.042  69.027  1.00  0.00    -0.094 A  
HETATM   23  C   UNL     1      -8.601  11.880  67.824  1.00  0.00    -0.154 A  
BRANCH  17  24
HETATM   24  N   UNL     1     -10.933  12.607  68.099  1.00  0.00    -0.225 NA 
HETATM   25  H   UNL     1     -11.822  12.171  67.851  1.00  0.00     0.000 HD 
BRANCH  24  26
HETATM   26  C   UNL     1     -10.877  14.030  68.047  1.00  0.00    -0.246 A  
HETATM   27  C   UNL     1     -10.923  14.725  66.837  1.00  0.00    -0.328 A  
HETATM   28  F   UNL     1     -11.083  14.057  65.683  1.00  0.00    -0.294 F  
HETATM   29  C   UNL     1     -10.731  16.112  66.784  1.00  0.00    -0.235 A  
HETATM   30  C   UNL     1     -10.499  16.817  67.965  1.00  0.00    -0.333 A  
HETATM   31  C   UNL     1     -10.469  16.151  69.188  1.00  0.00    -0.265 A  
HETATM   32  I   UNL     1     -10.171  18.869  67.915  1.00  0.00    -0.479 I  
HETATM   33  C   UNL     1     -10.672  14.767  69.225  1.00  0.00    -0.263 A  
ENDBRANCH  24  26
ENDBRANCH  17  24
ENDBRANCH   8  16
TORSDOF 4
ENDMDL
MODEL       63
REMARK 921   NORMALIZED FREE ENERGY PREDICTED BY IDOCK:   -5.45 KCAL/MOL
REMARK 922        TOTAL FREE ENERGY PREDICTED BY IDOCK:   -8.47 KCAL/MOL
REMARK 923 INTER-LIGAND FREE ENERGY PREDICTED BY IDOCK:   -6.97 KCAL/MOL
REMARK 924 INTRA-LIGAND FREE ENERGY PREDICTED BY IDOCK:   -1.50 KCAL/MOL
REMARK 927      BINDING AFFINITY PREDICTED BY RF-SCORE:    0.00 PKD
ROOT
HETATM    1  O   UNL     1      -9.953   7.951  67.391  1.00  0.00    -0.164 OA 
HETATM    2  H   UNL     1     -10.433   7.245  67.808  1.00  0.00     0.000 HD 
HETATM    3  C   UNL     1     -10.182   9.284  67.927  1.00  0.00    -0.214 C  
HETATM    4  C   UNL     1      -9.387  10.453  67.238  1.00  0.00    -0.146 C  
HETATM    5  O   UNL     1      -9.457  12.972  68.529  1.00  0.00    -0.190 OA 
HETATM    6  C   UNL     1     -11.411  10.076  67.329  1.00  0.00     0.388 C  
HETATM    7  N   UNL     1     -10.592  11.275  67.555  1.00  0.00    -0.207 N  
HETATM    8  C   UNL     1     -10.523  12.352  68.458  1.00  0.00    -0.228 C  
ENDROOT
BRANCH   3   9
HETATM    9  C   UNL     1     -10.231   9.249  69.490  1.00  0.00    -0.207 C  
HETATM   10  C   UNL     1      -9.043   9.025  71.687  1.00  0.00    -0.178 C  
HETATM   11  C   UNL     1     -10.131   8.050  72.130  1.00  0.00    -0.298 C  
HETATM   12  H   UNL     1     -11.053   7.345  69.653  1.00  0.00     0.000 HD 
HETATM   13  C   UNL     1      -8.876   8.974  70.159  1.00  0.00    -0.196 C  
HETATM   14  C   UNL     1     -11.438   8.351  71.411  1.00  0.00    -0.277 C  
HETATM   15  N   UNL     1     -11.260   8.295  69.963  1.00  0.00    -0.150 NA 
ENDBRANCH   3   9
BRANCH   8  16
HETATM   16  C   UNL     1     -11.611  12.733  69.456  1.00  0.00    -0.342 A  
HETATM   17  C   UNL     1     -12.253  14.016  69.407  1.00  0.00    -0.292 A  
HETATM   18  C   UNL     1     -11.921  11.904  70.551  1.00  0.00    -0.360 A  
HETATM   19  C   UNL     1     -13.395  13.519  71.524  1.00  0.00    -0.285 A  
HETATM   20  F   UNL     1     -13.681  15.596  70.524  1.00  0.00    -0.362 F  
HETATM   21  F   UNL     1     -14.213  13.898  72.515  1.00  0.00    -0.563 F  
HETATM   22  C   UNL     1     -12.796  12.283  71.574  1.00  0.00    -0.384 A  
HETATM   23  C   UNL     1     -13.125  14.375  70.472  1.00  0.00    -0.145 A  
BRANCH  17  24
HETATM   24  N   UNL     1     -12.005  14.965  68.365  1.00  0.00    -0.538 NA 
HETATM   25  H   UNL     1     -12.641  14.950  67.567  1.00  0.00     0.000 HD 
BRANCH  24  26
HETATM   26  C   UNL     1     -10.957  15.929  68.335  1.00  0.00    -0.331 A  
HETATM   27  C   UNL     1     -10.184  16.141  67.193  1.00  0.00    -0.281 A  
HETATM   28  F   UNL     1     -10.458  15.471  66.061  1.00  0.00    -0.271 F  
HETATM   29  C   UNL     1      -9.070  16.990  67.212  1.00  0.00    -0.229 A  
HETATM   30  C   UNL     1      -8.729  17.646  68.394  1.00  0.00    -0.284 A  
HETATM   31  C   UNL     1      -9.496  17.469  69.543  1.00  0.00     0.412 A  
HETATM   32  I   UNL     1      -7.059  18.882  68.464  1.00  0.00    -0.340 I  
HETATM   33  C   UNL     1     -10.611  16.625  69.506  1.00  0.00    -0.308 A  
ENDBRANCH  24  26
ENDBRANCH  17  24
ENDBRANCH   8  16
TORSDOF 4
ENDMDL
MODEL       64
REMARK 921   NORMALIZED FREE ENERGY PREDICTED BY IDOCK:   -5.43 KCAL/MOL
REMARK 922        TOTAL FREE ENERGY PREDICTED BY IDOCK:   -8.44 KCAL/MOL
REMARK 923 INTER-LIGAND FREE ENERGY PREDICTED BY IDOCK:   -7.40 KCAL/MOL
REMARK 924 INTRA-LIGAND FREE ENERGY PREDICTED BY IDOCK:   -1.05 KCAL/MOL
REMARK 927      BINDING AFFINITY PREDICTED BY RF-SCORE:    0.00 PKD
ROOT
HETATM    1  O   UNL     1      -6.322   6.278  68.306  1.00  0.00    -0.042 OA 
HETATM    2  H   UNL     1      -6.778   5.733  67.676  1.00  0.00     0.000 HD 
HETATM    3  C   UNL     1      -7.154   6.944  69.296  1.00  0.00    -0.084 C  
HETATM    4  C   UNL     1      -6.400   7.846  70.341  1.00  0.00    -0.037 C  
HETATM    5  O   UNL     1      -7.918   8.788  72.538  1.00  0.00    -0.373 OA 
HETATM    6  C   UNL     1      -7.761   8.340  68.875  1.00  0.00    -0.102 C  
HETATM    7  N   UNL     1      -7.631   8.688  70.296  1.00  0.00    -0.069 N  
HETATM    8  C   UNL     1      -8.456   8.836  71.427  1.00  0.00    -0.188 C  
ENDROOT
BRANCH   3   9
HETATM    9  C   UNL     1      -8.262   5.976  69.826  1.00  0.00    -0.118 C  
HETATM   10  C   UNL     1      -9.012   4.239  71.472  1.00  0.00    -0.161 C  
HETATM   11  C   UNL     1      -9.565   3.427  70.304  1.00  0.00    -0.215 C  
HETATM   12  H   UNL     1      -8.085   4.568  68.305  1.00  0.00     0.000 HD 
HETATM   13  C   UNL     1      -7.824   5.098  71.007  1.00  0.00    -0.097 C  
HETATM   14  C   UNL     1      -9.951   4.347  69.154  1.00  0.00    -0.047 C  
HETATM   15  N   UNL     1      -8.810   5.150  68.725  1.00  0.00    -0.093 NA 
ENDBRANCH   3   9
BRANCH   8  16
HETATM   16  C   UNL     1      -9.978   8.912  71.400  1.00  0.00    -0.378 A  
HETATM   17  C   UNL     1     -10.662   9.921  70.642  1.00  0.00    -0.303 A  
HETATM   18  C   UNL     1     -10.765   8.095  72.234  1.00  0.00    -0.381 A  
HETATM   19  C   UNL     1     -12.794   9.216  71.636  1.00  0.00    -0.363 A  
HETATM   20  F   UNL     1     -12.746  11.032  70.189  1.00  0.00    -0.342 F  
HETATM   21  F   UNL     1     -14.118   9.375  71.772  1.00  0.00    -0.364 F  
HETATM   22  C   UNL     1     -12.152   8.238  72.357  1.00  0.00    -0.430 A  
HETATM   23  C   UNL     1     -12.069  10.049  70.804  1.00  0.00    -0.327 A  
BRANCH  17  24
HETATM   24  N   UNL     1      -9.979  10.835  69.780  1.00  0.00    -0.423 NA 
HETATM   25  H   UNL     1      -8.989  10.997  69.970  1.00  0.00     0.000 HD 
BRANCH  24  26
HETATM   26  C   UNL     1     -10.547  11.542  68.681  1.00  0.00    -0.208 A  
HETATM   27  C   UNL     1     -10.890  10.900  67.490  1.00  0.00    -0.272 A  
HETATM   28  F   UNL     1     -10.744   9.570  67.377  1.00  0.00    -0.305 F  
HETATM   29  C   UNL     1     -11.319  11.621  66.368  1.00  0.00    -0.312 A  
HETATM   30  C   UNL     1     -11.416  13.011  66.443  1.00  0.00    -0.341 A  
HETATM   31  C   UNL     1     -11.100  13.675  67.626  1.00  0.00    -0.293 A  
HETATM   32  I   UNL     1     -12.012  14.112  64.784  1.00  0.00    -0.481 I  
HETATM   33  C   UNL     1     -10.682  12.939  68.740  1.00  0.00    -0.249 A  
ENDBRANCH  24  26
ENDBRANCH  17  24
ENDBRANCH   8  16
TORSDOF 4
ENDMDL
MODEL       65
REMARK 921   NORMALIZED FREE ENERGY PREDICTED BY IDOCK:   -5.42 KCAL/MOL
REMARK 922        TOTAL FREE ENERGY PREDICTED BY IDOCK:   -8.43 KCAL/MOL
REMARK 923 INTER-LIGAND FREE ENERGY PREDICTED BY IDOCK:   -7.57 KCAL/MOL
REMARK 924 INTRA-LIGAND FREE ENERGY PREDICTED BY IDOCK:   -0.86 KCAL/MOL
REMARK 927      BINDING AFFINITY PREDICTED BY RF-SCORE:    0.00 PKD
ROOT
HETATM    1  O   UNL     1     -12.143  10.651  70.405  1.00  0.00    -0.285 OA 
HETATM    2  H   UNL     1     -13.002  11.016  70.583  1.00  0.00     0.000 HD 
HETATM    3  C   UNL     1     -11.329  11.370  69.438  1.00  0.00    -0.297 C  
HETATM    4  C   UNL     1      -9.907  10.765  69.143  1.00  0.00    -0.175 C  
HETATM    5  O   UNL     1      -8.133  12.367  67.626  1.00  0.00    -0.145 OA 
HETATM    6  C   UNL     1     -11.550  10.994  67.920  1.00  0.00    -0.226 C  
HETATM    7  N   UNL     1     -10.120  11.294  67.764  1.00  0.00    -0.177 N  
HETATM    8  C   UNL     1      -9.306  12.316  67.241  1.00  0.00    -0.185 C  
ENDROOT
BRANCH   3   9
HETATM    9  C   UNL     1     -11.438  12.914  69.666  1.00  0.00    -0.181 C  
HETATM   10  C   UNL     1     -11.932  14.847  71.186  1.00  0.00    -0.389 C  
HETATM   11  C   UNL     1     -12.774  15.458  70.068  1.00  0.00    -0.189 C  
HETATM   12  H   UNL     1     -13.220  13.177  68.626  1.00  0.00     0.000 HD 
HETATM   13  C   UNL     1     -11.926  13.314  71.066  1.00  0.00     0.030 C  
HETATM   14  C   UNL     1     -12.263  15.001  68.709  1.00  0.00    -0.082 C  
HETATM   15  N   UNL     1     -12.269  13.544  68.615  1.00  0.00    -0.254 NA 
ENDBRANCH   3   9
BRANCH   8  16
HETATM   16  C   UNL     1      -9.788  13.451  66.344  1.00  0.00    -0.299 A  
HETATM   17  C   UNL     1      -9.542  14.825  66.681  1.00  0.00    -0.272 A  
HETATM   18  C   UNL     1     -10.619  13.203  65.235  1.00  0.00    -0.325 A  
HETATM   19  C   UNL     1     -10.979  15.533  64.820  1.00  0.00    -0.399 A  
HETATM   20  F   UNL     1     -10.050  17.131  66.226  1.00  0.00    -0.272 F  
HETATM   21  F   UNL     1     -11.565  16.512  64.116  1.00  0.00    -0.518 F  
HETATM   22  C   UNL     1     -11.211  14.221  64.480  1.00  0.00    -0.331 A  
HETATM   23  C   UNL     1     -10.173  15.834  65.901  1.00  0.00    -0.355 A  
BRANCH  17  24
HETATM   24  N   UNL     1      -8.739  15.214  67.799  1.00  0.00    -0.162 NA 
HETATM   25  H   UNL     1      -8.662  14.546  68.567  1.00  0.00     0.000 HD 
BRANCH  24  26
HETATM   26  C   UNL     1      -8.038  16.445  67.945  1.00  0.00    -0.158 A  
HETATM   27  C   UNL     1      -8.632  17.568  68.525  1.00  0.00    -0.276 A  
HETATM   28  F   UNL     1      -9.877  17.489  69.021  1.00  0.00    -0.280 F  
HETATM   29  C   UNL     1      -7.984  18.810  68.541  1.00  0.00    -0.377 A  
HETATM   30  C   UNL     1      -6.716  18.929  67.974  1.00  0.00    -0.228 A  
HETATM   31  C   UNL     1      -6.092  17.821  67.407  1.00  0.00    -0.164 A  
HETATM   32  I   UNL     1      -5.747  20.768  67.948  1.00  0.00    -0.410 I  
HETATM   33  C   UNL     1      -6.747  16.585  67.407  1.00  0.00    -0.195 A  
ENDBRANCH  24  26
ENDBRANCH  17  24
ENDBRANCH   8  16
TORSDOF 4
ENDMDL
MODEL       66
REMARK 921   NORMALIZED FREE ENERGY PREDICTED BY IDOCK:   -5.41 KCAL/MOL
REMARK 922        TOTAL FREE ENERGY PREDICTED BY IDOCK:   -8.42 KCAL/MOL
REMARK 923 INTER-LIGAND FREE ENERGY PREDICTED BY IDOCK:   -6.81 KCAL/MOL
REMARK 924 INTRA-LIGAND FREE ENERGY PREDICTED BY IDOCK:   -1.61 KCAL/MOL
REMARK 927      BINDING AFFINITY PREDICTED BY RF-SCORE:    0.00 PKD
ROOT
HETATM    1  O   UNL     1     -12.574   8.619  73.305  1.00  0.00    -0.403 OA 
HETATM    2  H   UNL     1     -12.095   9.170  73.912  1.00  0.00     0.000 HD 
HETATM    3  C   UNL     1     -11.798   8.032  72.224  1.00  0.00    -0.369 C  
HETATM    4  C   UNL     1     -12.591   7.119  71.218  1.00  0.00    -0.380 C  
HETATM    5  O   UNL     1     -11.050   5.608  69.385  1.00  0.00    -0.294 OA 
HETATM    6  C   UNL     1     -11.624   8.915  70.926  1.00  0.00    -0.283 C  
HETATM    7  N   UNL     1     -11.627   7.636  70.203  1.00  0.00    -0.072 N  
HETATM    8  C   UNL     1     -10.709   6.781  69.566  1.00  0.00    -0.257 C  
ENDROOT
BRANCH   3   9
HETATM    9  C   UNL     1     -10.419   7.517  72.753  1.00  0.00    -0.295 C  
HETATM   10  C   UNL     1      -9.098   6.218  74.444  1.00  0.00    -0.168 C  
HETATM   11  C   UNL     1      -8.126   7.392  74.527  1.00  0.00    -0.224 C  
HETATM   12  H   UNL     1      -9.777   9.334  73.535  1.00  0.00     0.000 HD 
HETATM   13  C   UNL     1     -10.502   6.718  74.062  1.00  0.00    -0.302 C  
HETATM   14  C   UNL     1      -8.111   8.162  73.215  1.00  0.00    -0.188 C  
HETATM   15  N   UNL     1      -9.451   8.631  72.872  1.00  0.00    -0.200 NA 
ENDBRANCH   3   9
BRANCH   8  16
HETATM   16  C   UNL     1      -9.273   7.146  69.204  1.00  0.00    -0.139 A  
HETATM   17  C   UNL     1      -8.948   7.717  67.928  1.00  0.00    -0.125 A  
HETATM   18  C   UNL     1      -8.198   6.800  70.043  1.00  0.00    -0.134 A  
HETATM   19  C   UNL     1      -6.557   7.509  68.451  1.00  0.00    -0.050 A  
HETATM   20  F   UNL     1      -7.213   8.309  66.371  1.00  0.00    -0.070 F  
HETATM   21  F   UNL     1      -5.275   7.653  68.088  1.00  0.00    -0.022 F  
HETATM   22  C   UNL     1      -6.858   6.974  69.681  1.00  0.00    -0.050 A  
HETATM   23  C   UNL     1      -7.575   7.864  67.585  1.00  0.00    -0.109 A  
BRANCH  17  24
HETATM   24  N   UNL     1      -9.944   8.086  66.970  1.00  0.00    -0.227 NA 
HETATM   25  H   UNL     1     -10.441   7.326  66.505  1.00  0.00     0.000 HD 
BRANCH  24  26
HETATM   26  C   UNL     1     -10.309   9.413  66.602  1.00  0.00    -0.214 A  
HETATM   27  C   UNL     1      -9.888   9.987  65.401  1.00  0.00    -0.314 A  
HETATM   28  F   UNL     1      -9.169   9.265  64.526  1.00  0.00    -0.263 F  
HETATM   29  C   UNL     1     -10.136  11.335  65.109  1.00  0.00    -0.326 A  
HETATM   30  C   UNL     1     -10.825  12.120  66.033  1.00  0.00    -0.282 A  
HETATM   31  C   UNL     1     -11.274  11.568  67.230  1.00  0.00    -0.365 A  
HETATM   32  I   UNL     1     -11.173  14.133  65.646  1.00  0.00    -0.348 I  
HETATM   33  C   UNL     1     -11.027  10.218  67.502  1.00  0.00    -0.344 A  
ENDBRANCH  24  26
ENDBRANCH  17  24
ENDBRANCH   8  16
TORSDOF 4
ENDMDL
MODEL       67
REMARK 921   NORMALIZED FREE ENERGY PREDICTED BY IDOCK:   -5.41 KCAL/MOL
REMARK 922        TOTAL FREE ENERGY PREDICTED BY IDOCK:   -8.41 KCAL/MOL
REMARK 923 INTER-LIGAND FREE ENERGY PREDICTED BY IDOCK:   -7.95 KCAL/MOL
REMARK 924 INTRA-LIGAND FREE ENERGY PREDICTED BY IDOCK:   -0.46 KCAL/MOL
REMARK 927      BINDING AFFINITY PREDICTED BY RF-SCORE:    0.00 PKD
ROOT
HETATM    1  O   UNL     1     -11.628  14.221  71.362  1.00  0.00    -0.464 OA 
HETATM    2  H   UNL     1     -11.121  13.675  71.951  1.00  0.00     0.000 HD 
HETATM    3  C   UNL     1     -11.697  13.777  69.978  1.00  0.00    -0.257 C  
HETATM    4  C   UNL     1     -12.536  14.681  69.002  1.00  0.00     0.064 C  
HETATM    5  O   UNL     1     -13.068  13.623  66.430  1.00  0.00     0.055 OA 
HETATM    6  C   UNL     1     -10.522  14.246  69.033  1.00  0.00    -0.204 C  
HETATM    7  N   UNL     1     -11.541  14.256  67.975  1.00  0.00    -0.313 N  
HETATM    8  C   UNL     1     -11.922  13.474  66.868  1.00  0.00    -0.399 C  
ENDROOT
BRANCH   3   9
HETATM    9  C   UNL     1     -11.904  12.229  69.907  1.00  0.00    -0.311 C  
HETATM   10  C   UNL     1     -13.036  10.156  70.752  1.00  0.00    -0.380 C  
HETATM   11  C   UNL     1     -11.673   9.468  70.771  1.00  0.00    -0.370 C  
HETATM   12  H   UNL     1     -10.108  11.711  70.817  1.00  0.00     0.000 HD 
HETATM   13  C   UNL     1     -12.869  11.670  70.963  1.00  0.00    -0.339 C  
HETATM   14  C   UNL     1     -10.753  10.085  69.727  1.00  0.00    -0.271 C  
HETATM   15  N   UNL     1     -10.605  11.521  69.948  1.00  0.00     0.326 NA 
ENDBRANCH   3   9
BRANCH   8  16
HETATM   16  C   UNL     1     -11.087  12.358  66.251  1.00  0.00    -0.344 A  
HETATM   17  C   UNL     1     -10.360  12.558  65.030  1.00  0.00    -0.299 A  
HETATM   18  C   UNL     1     -11.117  11.050  66.772  1.00  0.00    -0.240 A  
HETATM   19  C   UNL     1      -9.811  10.165  64.971  1.00  0.00    -0.322 A  
HETATM   20  F   UNL     1      -9.137  11.541  63.226  1.00  0.00    -0.215 F  
HETATM   21  F   UNL     1      -9.235   9.123  64.356  1.00  0.00    -0.236 F  
HETATM   22  C   UNL     1     -10.493   9.964  66.148  1.00  0.00    -0.144 A  
HETATM   23  C   UNL     1      -9.752  11.429  64.415  1.00  0.00    -0.232 A  
BRANCH  17  24
HETATM   24  N   UNL     1     -10.275  13.830  64.381  1.00  0.00    -0.729 NA 
HETATM   25  H   UNL     1     -10.290  13.829  63.360  1.00  0.00     0.000 HD 
BRANCH  24  26
HETATM   26  C   UNL     1     -10.171  15.098  65.022  1.00  0.00    -0.297 A  
HETATM   27  C   UNL     1     -11.094  16.118  64.790  1.00  0.00    -0.333 A  
HETATM   28  F   UNL     1     -12.152  15.900  63.992  1.00  0.00    -0.455 F  
HETATM   29  C   UNL     1     -10.910  17.404  65.317  1.00  0.00     0.052 A  
HETATM   30  C   UNL     1      -9.785  17.670  66.096  1.00  0.00    -0.213 A  
HETATM   31  C   UNL     1      -8.858  16.664  66.360  1.00  0.00    -0.337 A  
HETATM   32  I   UNL     1      -9.463  19.577  66.858  1.00  0.00    -0.555 I  
HETATM   33  C   UNL     1      -9.061  15.383  65.835  1.00  0.00    -0.188 A  
ENDBRANCH  24  26
ENDBRANCH  17  24
ENDBRANCH   8  16
TORSDOF 4
ENDMDL
MODEL       68
REMARK 921   NORMALIZED FREE ENERGY PREDICTED BY IDOCK:   -5.37 KCAL/MOL
REMARK 922        TOTAL FREE ENERGY PREDICTED BY IDOCK:   -8.37 KCAL/MOL
REMARK 923 INTER-LIGAND FREE ENERGY PREDICTED BY IDOCK:   -7.03 KCAL/MOL
REMARK 924 INTRA-LIGAND FREE ENERGY PREDICTED BY IDOCK:   -1.35 KCAL/MOL
REMARK 927      BINDING AFFINITY PREDICTED BY RF-SCORE:    0.00 PKD
ROOT
HETATM    1  O   UNL     1      -8.923   4.766  69.431  1.00  0.00    -0.089 OA 
HETATM    2  H   UNL     1      -9.626   4.175  69.674  1.00  0.00     0.000 HD 
HETATM    3  C   UNL     1      -9.141   6.174  69.722  1.00  0.00    -0.141 C  
HETATM    4  C   UNL     1      -7.977   7.153  69.319  1.00  0.00    -0.119 C  
HETATM    5  O   UNL     1      -8.166   9.813  70.269  1.00  0.00    -0.184 OA 
HETATM    6  C   UNL     1      -9.911   7.005  68.621  1.00  0.00    -0.148 C  
HETATM    7  N   UNL     1      -9.075   8.131  69.061  1.00  0.00    -0.148 N  
HETATM    8  C   UNL     1      -9.201   9.305  69.826  1.00  0.00    -0.181 C  
ENDROOT
BRANCH   3   9
HETATM    9  C   UNL     1      -9.794   6.350  71.132  1.00  0.00    -0.179 C  
HETATM   10  C   UNL     1      -9.563   6.869  73.575  1.00  0.00    -0.222 C  
HETATM   11  C   UNL     1     -10.437   5.654  73.874  1.00  0.00    -0.302 C  
HETATM   12  H   UNL     1     -10.078   4.325  71.510  1.00  0.00     0.000 HD 
HETATM   13  C   UNL     1      -8.797   6.659  72.258  1.00  0.00    -0.133 C  
HETATM   14  C   UNL     1     -11.380   5.379  72.712  1.00  0.00    -0.296 C  
HETATM   15  N   UNL     1     -10.634   5.179  71.473  1.00  0.00    -0.187 NA 
ENDBRANCH   3   9
BRANCH   8  16
HETATM   16  C   UNL     1     -10.521   9.925  70.272  1.00  0.00    -0.348 A  
HETATM   17  C   UNL     1     -10.918  11.232  69.829  1.00  0.00    -0.103 A  
HETATM   18  C   UNL     1     -11.325   9.308  71.248  1.00  0.00    -0.423 A  
HETATM   19  C   UNL     1     -12.823  11.171  71.377  1.00  0.00    -0.439 A  
HETATM   20  F   UNL     1     -12.431  13.079  70.111  1.00  0.00    -0.339 F  
HETATM   21  F   UNL     1     -13.893  11.767  71.921  1.00  0.00    -0.266 F  
HETATM   22  C   UNL     1     -12.460   9.914  71.799  1.00  0.00    -0.487 A  
HETATM   23  C   UNL     1     -12.067  11.824  70.422  1.00  0.00    -0.352 A  
BRANCH  17  24
HETATM   24  N   UNL     1     -10.173  11.980  68.863  1.00  0.00    -0.407 NA 
HETATM   25  H   UNL     1      -9.912  12.933  69.119  1.00  0.00     0.000 HD 
BRANCH  24  26
HETATM   26  C   UNL     1      -9.761  11.523  67.579  1.00  0.00    -0.179 A  
HETATM   27  C   UNL     1     -10.679  11.092  66.620  1.00  0.00    -0.249 A  
HETATM   28  F   UNL     1     -11.996  11.158  66.873  1.00  0.00    -0.063 F  
HETATM   29  C   UNL     1     -10.260  10.517  65.413  1.00  0.00    -0.340 A  
HETATM   30  C   UNL     1      -8.896  10.380  65.157  1.00  0.00    -0.189 A  
HETATM   31  C   UNL     1      -7.958  10.821  66.087  1.00  0.00    -0.157 A  
HETATM   32  I   UNL     1      -8.243   9.495  63.393  1.00  0.00    -0.210 I  
HETATM   33  C   UNL     1      -8.392  11.401  67.284  1.00  0.00    -0.149 A  
ENDBRANCH  24  26
ENDBRANCH  17  24
ENDBRANCH   8  16
TORSDOF 4
ENDMDL
MODEL       69
REMARK 921   NORMALIZED FREE ENERGY PREDICTED BY IDOCK:   -5.36 KCAL/MOL
REMARK 922        TOTAL FREE ENERGY PREDICTED BY IDOCK:   -8.36 KCAL/MOL
REMARK 923 INTER-LIGAND FREE ENERGY PREDICTED BY IDOCK:   -6.84 KCAL/MOL
REMARK 924 INTRA-LIGAND FREE ENERGY PREDICTED BY IDOCK:   -1.52 KCAL/MOL
REMARK 927      BINDING AFFINITY PREDICTED BY RF-SCORE:    0.00 PKD
ROOT
HETATM    1  O   UNL     1      -9.190   7.500  73.891  1.00  0.00    -0.244 OA 
HETATM    2  H   UNL     1      -9.906   6.944  74.177  1.00  0.00     0.000 HD 
HETATM    3  C   UNL     1      -8.994   7.601  72.453  1.00  0.00    -0.142 C  
HETATM    4  C   UNL     1      -7.810   8.521  71.979  1.00  0.00    -0.099 C  
HETATM    5  O   UNL     1      -7.679   9.098  69.210  1.00  0.00    -0.077 OA 
HETATM    6  C   UNL     1      -8.090   6.488  71.791  1.00  0.00    -0.104 C  
HETATM    7  N   UNL     1      -7.685   7.547  70.855  1.00  0.00    -0.088 N  
HETATM    8  C   UNL     1      -7.932   7.931  69.524  1.00  0.00    -0.116 C  
ENDROOT
BRANCH   3   9
HETATM    9  C   UNL     1     -10.368   7.733  71.718  1.00  0.00    -0.199 C  
HETATM   10  C   UNL     1     -12.516   8.975  71.351  1.00  0.00    -0.378 C  
HETATM   11  C   UNL     1     -13.254   7.641  71.430  1.00  0.00    -0.337 C  
HETATM   12  H   UNL     1     -11.335   6.214  72.758  1.00  0.00     0.000 HD 
HETATM   13  C   UNL     1     -11.226   8.917  72.186  1.00  0.00    -0.362 C  
HETATM   14  C   UNL     1     -12.345   6.505  70.985  1.00  0.00    -0.105 C  
HETATM   15  N   UNL     1     -11.129   6.465  71.792  1.00  0.00    -0.253 NA 
ENDBRANCH   3   9
BRANCH   8  16
HETATM   16  C   UNL     1      -8.616   7.065  68.472  1.00  0.00    -0.123 A  
HETATM   17  C   UNL     1      -9.935   7.372  67.996  1.00  0.00    -0.164 A  
HETATM   18  C   UNL     1      -8.045   5.853  68.040  1.00  0.00    -0.105 A  
HETATM   19  C   UNL     1      -9.975   5.251  66.758  1.00  0.00    -0.199 A  
HETATM   20  F   UNL     1     -11.851   6.621  66.753  1.00  0.00    -0.094 F  
HETATM   21  F   UNL     1     -10.625   4.380  65.973  1.00  0.00    -0.272 F  
HETATM   22  C   UNL     1      -8.707   4.953  67.198  1.00  0.00    -0.103 A  
HETATM   23  C   UNL     1     -10.585   6.427  67.154  1.00  0.00    -0.321 A  
BRANCH  17  24
HETATM   24  N   UNL     1     -10.640   8.556  68.381  1.00  0.00    -0.383 NA 
HETATM   25  H   UNL     1     -11.094   8.547  69.294  1.00  0.00     0.000 HD 
BRANCH  24  26
HETATM   26  C   UNL     1     -10.768   9.748  67.611  1.00  0.00    -0.274 A  
HETATM   27  C   UNL     1     -10.183   9.877  66.350  1.00  0.00    -0.222 A  
HETATM   28  F   UNL     1      -9.527   8.841  65.804  1.00  0.00    -0.268 F  
HETATM   29  C   UNL     1     -10.198  11.096  65.659  1.00  0.00    -0.310 A  
HETATM   30  C   UNL     1     -10.819  12.203  66.237  1.00  0.00    -0.282 A  
HETATM   31  C   UNL     1     -11.429  12.096  67.485  1.00  0.00    -0.410 A  
HETATM   32  I   UNL     1     -10.824  14.035  65.254  1.00  0.00    -0.437 I  
HETATM   33  C   UNL     1     -11.413  10.870  68.158  1.00  0.00    -0.368 A  
ENDBRANCH  24  26
ENDBRANCH  17  24
ENDBRANCH   8  16
TORSDOF 4
ENDMDL
MODEL       70
REMARK 921   NORMALIZED FREE ENERGY PREDICTED BY IDOCK:   -5.32 KCAL/MOL
REMARK 922        TOTAL FREE ENERGY PREDICTED BY IDOCK:   -8.31 KCAL/MOL
REMARK 923 INTER-LIGAND FREE ENERGY PREDICTED BY IDOCK:   -7.45 KCAL/MOL
REMARK 924 INTRA-LIGAND FREE ENERGY PREDICTED BY IDOCK:   -0.86 KCAL/MOL
REMARK 927      BINDING AFFINITY PREDICTED BY RF-SCORE:    0.00 PKD
ROOT
HETATM    1  O   UNL     1     -10.387  15.928  66.505  1.00  0.00    -0.284 OA 
HETATM    2  H   UNL     1      -9.572  16.274  66.162  1.00  0.00     0.000 HD 
HETATM    3  C   UNL     1     -10.492  14.478  66.564  1.00  0.00    -0.285 C  
HETATM    4  C   UNL     1     -11.842  13.905  67.133  1.00  0.00    -0.412 C  
HETATM    5  O   UNL     1     -11.912  11.128  67.682  1.00  0.00    -0.613 OA 
HETATM    6  C   UNL     1     -11.007  13.761  65.255  1.00  0.00    -0.322 C  
HETATM    7  N   UNL     1     -11.611  12.786  66.173  1.00  0.00    -0.358 N  
HETATM    8  C   UNL     1     -11.376  11.474  66.624  1.00  0.00    -0.214 C  
ENDROOT
BRANCH   3   9
HETATM    9  C   UNL     1      -9.154  13.850  67.073  1.00  0.00    -0.250 C  
HETATM   10  C   UNL     1      -7.922  12.435  68.738  1.00  0.00     0.048 C  
HETATM   11  C   UNL     1      -6.857  13.526  68.817  1.00  0.00    -0.108 C  
HETATM   12  H   UNL     1      -8.358  15.603  67.859  1.00  0.00     0.000 HD 
HETATM   13  C   UNL     1      -9.285  13.050  68.377  1.00  0.00    -0.136 C  
HETATM   14  C   UNL     1      -6.796  14.303  67.510  1.00  0.00    -0.135 C  
HETATM   15  N   UNL     1      -8.098  14.881  67.187  1.00  0.00    -0.210 NA 
ENDBRANCH   3   9
BRANCH   8  16
HETATM   16  C   UNL     1     -10.404  10.486  65.989  1.00  0.00    -0.279 A  
HETATM   17  C   UNL     1     -10.202   9.177  66.541  1.00  0.00    -0.252 A  
HETATM   18  C   UNL     1      -9.560  10.872  64.930  1.00  0.00    -0.297 A  
HETATM   19  C   UNL     1      -8.354   8.804  64.967  1.00  0.00    -0.170 A  
HETATM   20  F   UNL     1      -8.861   7.181  66.549  1.00  0.00    -0.118 F  
HETATM   21  F   UNL     1      -7.367   8.025  64.502  1.00  0.00    -0.073 F  
HETATM   22  C   UNL     1      -8.547  10.051  64.421  1.00  0.00    -0.199 A  
HETATM   23  C   UNL     1      -9.153   8.376  66.011  1.00  0.00    -0.183 A  
BRANCH  17  24
HETATM   24  N   UNL     1     -10.971   8.673  67.637  1.00  0.00    -0.475 NA 
HETATM   25  H   UNL     1     -11.973   8.558  67.482  1.00  0.00     0.000 HD 
BRANCH  24  26
HETATM   26  C   UNL     1     -10.474   8.318  68.923  1.00  0.00    -0.191 A  
HETATM   27  C   UNL     1     -10.809   7.108  69.534  1.00  0.00    -0.225 A  
HETATM   28  F   UNL     1     -11.571   6.215  68.883  1.00  0.00    -0.443 F  
HETATM   29  C   UNL     1     -10.427   6.825  70.852  1.00  0.00    -0.239 A  
HETATM   30  C   UNL     1      -9.689   7.767  71.569  1.00  0.00    -0.162 A  
HETATM   31  C   UNL     1      -9.324   8.973  70.976  1.00  0.00    -0.339 A  
HETATM   32  I   UNL     1      -9.142   7.393  73.539  1.00  0.00    -0.335 I  
HETATM   33  C   UNL     1      -9.704   9.237  69.656  1.00  0.00    -0.192 A  
ENDBRANCH  24  26
ENDBRANCH  17  24
ENDBRANCH   8  16
TORSDOF 4
ENDMDL
MODEL       71
REMARK 921   NORMALIZED FREE ENERGY PREDICTED BY IDOCK:   -5.32 KCAL/MOL
REMARK 922        TOTAL FREE ENERGY PREDICTED BY IDOCK:   -8.31 KCAL/MOL
REMARK 923 INTER-LIGAND FREE ENERGY PREDICTED BY IDOCK:   -6.45 KCAL/MOL
REMARK 924 INTRA-LIGAND FREE ENERGY PREDICTED BY IDOCK:   -1.86 KCAL/MOL
REMARK 927      BINDING AFFINITY PREDICTED BY RF-SCORE:    0.00 PKD
ROOT
HETATM    1  O   UNL     1      -7.251   7.010  66.212  1.00  0.00    -0.071 OA 
HETATM    2  H   UNL     1      -6.407   7.335  66.501  1.00  0.00     0.000 HD 
HETATM    3  C   UNL     1      -8.267   6.860  67.243  1.00  0.00    -0.118 C  
HETATM    4  C   UNL     1      -9.665   6.323  66.764  1.00  0.00    -0.156 C  
HETATM    5  O   UNL     1     -11.784   6.447  68.638  1.00  0.00     0.031 OA 
HETATM    6  C   UNL     1      -8.268   5.491  68.030  1.00  0.00    -0.100 C  
HETATM    7  N   UNL     1      -9.724   5.679  68.109  1.00  0.00    -0.121 N  
HETATM    8  C   UNL     1     -10.690   6.058  69.059  1.00  0.00    -0.324 C  
ENDROOT
BRANCH   3   9
HETATM    9  C   UNL     1      -8.243   8.082  68.219  1.00  0.00    -0.123 C  
HETATM   10  C   UNL     1      -7.732  10.499  68.651  1.00  0.00    -0.106 C  
HETATM   11  C   UNL     1      -7.056  10.082  69.954  1.00  0.00    -0.130 C  
HETATM   12  H   UNL     1      -6.602   7.456  69.334  1.00  0.00     0.000 HD 
HETATM   13  C   UNL     1      -7.642   9.361  67.620  1.00  0.00    -0.088 C  
HETATM   14  C   UNL     1      -7.671   8.794  70.482  1.00  0.00    -0.089 C  
HETATM   15  N   UNL     1      -7.573   7.726  69.491  1.00  0.00    -0.097 NA 
ENDBRANCH   3   9
BRANCH   8  16
HETATM   16  C   UNL     1     -10.451   6.161  70.561  1.00  0.00    -0.291 A  
HETATM   17  C   UNL     1     -11.115   7.156  71.356  1.00  0.00    -0.242 A  
HETATM   18  C   UNL     1      -9.463   5.387  71.199  1.00  0.00    -0.200 A  
HETATM   19  C   UNL     1      -9.736   6.524  73.288  1.00  0.00    -0.166 A  
HETATM   20  F   UNL     1     -11.236   8.288  73.473  1.00  0.00    -0.082 F  
HETATM   21  F   UNL     1      -9.376   6.712  74.565  1.00  0.00    -0.181 F  
HETATM   22  C   UNL     1      -9.104   5.560  72.540  1.00  0.00    -0.140 A  
HETATM   23  C   UNL     1     -10.713   7.315  72.711  1.00  0.00    -0.299 A  
BRANCH  17  24
HETATM   24  N   UNL     1     -12.117   8.027  70.824  1.00  0.00    -0.495 NA 
HETATM   25  H   UNL     1     -12.992   7.596  70.524  1.00  0.00     0.000 HD 
BRANCH  24  26
HETATM   26  C   UNL     1     -12.011   9.439  70.672  1.00  0.00    -0.170 A  
HETATM   27  C   UNL     1     -12.749  10.323  71.462  1.00  0.00    -0.452 A  
HETATM   28  F   UNL     1     -13.541   9.851  72.438  1.00  0.00    -0.473 F  
HETATM   29  C   UNL     1     -12.743  11.702  71.217  1.00  0.00    -0.444 A  
HETATM   30  C   UNL     1     -11.977  12.208  70.167  1.00  0.00    -0.314 A  
HETATM   31  C   UNL     1     -11.215  11.351  69.376  1.00  0.00    -0.333 A  
HETATM   32  I   UNL     1     -11.978  14.245  69.753  1.00  0.00    -0.395 I  
HETATM   33  C   UNL     1     -11.224   9.977  69.640  1.00  0.00    -0.285 A  
ENDBRANCH  24  26
ENDBRANCH  17  24
ENDBRANCH   8  16
TORSDOF 4
ENDMDL
MODEL       72
REMARK 921   NORMALIZED FREE ENERGY PREDICTED BY IDOCK:   -5.32 KCAL/MOL
REMARK 922        TOTAL FREE ENERGY PREDICTED BY IDOCK:   -8.31 KCAL/MOL
REMARK 923 INTER-LIGAND FREE ENERGY PREDICTED BY IDOCK:   -7.69 KCAL/MOL
REMARK 924 INTRA-LIGAND FREE ENERGY PREDICTED BY IDOCK:   -0.62 KCAL/MOL
REMARK 927      BINDING AFFINITY PREDICTED BY RF-SCORE:    0.00 PKD
ROOT
HETATM    1  O   UNL     1     -10.823  17.582  68.995  1.00  0.00    -0.309 OA 
HETATM    2  H   UNL     1     -10.300  18.003  68.322  1.00  0.00     0.000 HD 
HETATM    3  C   UNL     1     -10.936  16.135  68.906  1.00  0.00    -0.324 C  
HETATM    4  C   UNL     1     -11.802  15.438  70.019  1.00  0.00    -0.343 C  
HETATM    5  O   UNL     1     -11.675  12.613  70.147  1.00  0.00    -0.275 OA 
HETATM    6  C   UNL     1     -12.090  15.578  67.984  1.00  0.00     0.252 C  
HETATM    7  N   UNL     1     -12.154  14.467  68.943  1.00  0.00    -0.291 N  
HETATM    8  C   UNL     1     -11.766  13.116  69.023  1.00  0.00    -0.321 C  
ENDROOT
BRANCH   3   9
HETATM    9  C   UNL     1      -9.555  15.497  68.542  1.00  0.00    -0.203 C  
HETATM   10  C   UNL     1      -7.257  14.770  69.234  1.00  0.00    -0.167 C  
HETATM   11  C   UNL     1      -6.709  15.449  67.982  1.00  0.00    -0.156 C  
HETATM   12  H   UNL     1      -8.807  17.137  67.505  1.00  0.00     0.000 HD 
HETATM   13  C   UNL     1      -8.544  15.472  69.697  1.00  0.00    -0.119 C  
HETATM   14  C   UNL     1      -7.764  15.471  66.885  1.00  0.00    -0.165 C  
HETATM   15  N   UNL     1      -8.976  16.144  67.343  1.00  0.00    -0.189 NA 
ENDBRANCH   3   9
BRANCH   8  16
HETATM   16  C   UNL     1     -11.314  12.261  67.844  1.00  0.00    -0.356 A  
HETATM   17  C   UNL     1     -11.311  10.828  67.920  1.00  0.00    -0.299 A  
HETATM   18  C   UNL     1     -10.743  12.843  66.696  1.00  0.00    -0.280 A  
HETATM   19  C   UNL     1     -10.164  10.721  65.751  1.00  0.00    -0.257 A  
HETATM   20  F   UNL     1     -10.599   8.761  66.919  1.00  0.00    -0.346 F  
HETATM   21  F   UNL     1      -9.595   9.999  64.776  1.00  0.00    -0.287 F  
HETATM   22  C   UNL     1     -10.173  12.093  65.662  1.00  0.00    -0.285 A  
HETATM   23  C   UNL     1     -10.709  10.097  66.858  1.00  0.00    -0.161 A  
BRANCH  17  24
HETATM   24  N   UNL     1     -11.834  10.112  69.043  1.00  0.00    -0.511 NA 
HETATM   25  H   UNL     1     -12.835   9.914  69.039  1.00  0.00     0.000 HD 
BRANCH  24  26
HETATM   26  C   UNL     1     -11.092   9.649  70.167  1.00  0.00    -0.269 A  
HETATM   27  C   UNL     1      -9.699   9.731  70.215  1.00  0.00    -0.223 A  
HETATM   28  F   UNL     1      -9.025  10.314  69.210  1.00  0.00    -0.145 F  
HETATM   29  C   UNL     1      -8.969   9.152  71.261  1.00  0.00    -0.207 A  
HETATM   30  C   UNL     1      -9.646   8.486  72.282  1.00  0.00    -0.307 A  
HETATM   31  C   UNL     1     -11.036   8.408  72.270  1.00  0.00    -0.438 A  
HETATM   32  I   UNL     1      -8.588   7.582  73.827  1.00  0.00    -0.327 I  
HETATM   33  C   UNL     1     -11.752   8.999  71.224  1.00  0.00    -0.382 A  
ENDBRANCH  24  26
ENDBRANCH  17  24
ENDBRANCH   8  16
TORSDOF 4
ENDMDL
MODEL       73
REMARK 921   NORMALIZED FREE ENERGY PREDICTED BY IDOCK:   -5.26 KCAL/MOL
REMARK 922        TOTAL FREE ENERGY PREDICTED BY IDOCK:   -8.23 KCAL/MOL
REMARK 923 INTER-LIGAND FREE ENERGY PREDICTED BY IDOCK:   -6.58 KCAL/MOL
REMARK 924 INTRA-LIGAND FREE ENERGY PREDICTED BY IDOCK:   -1.65 KCAL/MOL
REMARK 927      BINDING AFFINITY PREDICTED BY RF-SCORE:    0.00 PKD
ROOT
HETATM    1  O   UNL     1      -8.051   7.035  64.121  1.00  0.00    -0.249 OA 
HETATM    2  H   UNL     1      -8.685   6.456  63.713  1.00  0.00     0.000 HD 
HETATM    3  C   UNL     1      -8.271   7.335  65.528  1.00  0.00    -0.139 C  
HETATM    4  C   UNL     1      -7.222   8.293  66.203  1.00  0.00    -0.070 C  
HETATM    5  O   UNL     1      -7.355   8.538  69.021  1.00  0.00    -0.077 OA 
HETATM    6  C   UNL     1      -9.235   8.547  65.842  1.00  0.00    -0.182 C  
HETATM    7  N   UNL     1      -8.381   8.762  67.018  1.00  0.00    -0.103 N  
HETATM    8  C   UNL     1      -8.428   8.555  68.409  1.00  0.00    -0.138 C  
ENDROOT
BRANCH   3   9
HETATM    9  C   UNL     1      -8.700   6.048  66.305  1.00  0.00    -0.138 C  
HETATM   10  C   UNL     1      -8.085   4.061  67.708  1.00  0.00    -0.090 C  
HETATM   11  C   UNL     1      -8.963   3.201  66.802  1.00  0.00    -0.172 C  
HETATM   12  H   UNL     1      -9.022   4.860  64.628  1.00  0.00     0.000 HD 
HETATM   13  C   UNL     1      -7.533   5.264  66.923  1.00  0.00    -0.088 C  
HETATM   14  C   UNL     1     -10.080   4.038  66.195  1.00  0.00    -0.046 C  
HETATM   15  N   UNL     1      -9.535   5.172  65.453  1.00  0.00    -0.095 NA 
ENDBRANCH   3   9
BRANCH   8  16
HETATM   16  C   UNL     1      -9.682   8.211  69.204  1.00  0.00    -0.163 A  
HETATM   17  C   UNL     1     -10.376   9.207  69.970  1.00  0.00    -0.207 A  
HETATM   18  C   UNL     1     -10.118   6.879  69.340  1.00  0.00    -0.176 A  
HETATM   19  C   UNL     1     -11.817   7.461  70.923  1.00  0.00    -0.290 A  
HETATM   20  F   UNL     1     -12.051   9.659  71.635  1.00  0.00    -0.390 F  
HETATM   21  F   UNL     1     -12.805   7.100  71.754  1.00  0.00    -0.344 F  
HETATM   22  C   UNL     1     -11.168   6.500  70.184  1.00  0.00    -0.437 A  
HETATM   23  C   UNL     1     -11.427   8.784  70.830  1.00  0.00    -0.284 A  
BRANCH  17  24
HETATM   24  N   UNL     1     -10.016  10.591  69.946  1.00  0.00    -0.424 NA 
HETATM   25  H   UNL     1      -9.535  10.957  70.768  1.00  0.00     0.000 HD 
BRANCH  24  26
HETATM   26  C   UNL     1     -10.263  11.507  68.884  1.00  0.00    -0.149 A  
HETATM   27  C   UNL     1     -11.556  11.789  68.440  1.00  0.00    -0.318 A  
HETATM   28  F   UNL     1     -12.614  11.237  69.056  1.00  0.00    -0.286 F  
HETATM   29  C   UNL     1     -11.783  12.584  67.309  1.00  0.00    -0.431 A  
HETATM   30  C   UNL     1     -10.695  13.115  66.615  1.00  0.00    -0.279 A  
HETATM   31  C   UNL     1      -9.395  12.867  67.049  1.00  0.00    -0.235 A  
HETATM   32  I   UNL     1     -10.998  14.266  64.911  1.00  0.00    -0.387 I  
HETATM   33  C   UNL     1      -9.186  12.078  68.186  1.00  0.00    -0.195 A  
ENDBRANCH  24  26
ENDBRANCH  17  24
ENDBRANCH   8  16
TORSDOF 4
ENDMDL
MODEL       74
REMARK 921   NORMALIZED FREE ENERGY PREDICTED BY IDOCK:   -5.22 KCAL/MOL
REMARK 922        TOTAL FREE ENERGY PREDICTED BY IDOCK:   -8.19 KCAL/MOL
REMARK 923 INTER-LIGAND FREE ENERGY PREDICTED BY IDOCK:   -7.00 KCAL/MOL
REMARK 924 INTRA-LIGAND FREE ENERGY PREDICTED BY IDOCK:   -1.19 KCAL/MOL
REMARK 927      BINDING AFFINITY PREDICTED BY RF-SCORE:    0.00 PKD
ROOT
HETATM    1  O   UNL     1      -7.006   8.491  65.308  1.00  0.00    -0.075 OA 
HETATM    2  H   UNL     1      -6.558   8.061  66.028  1.00  0.00     0.000 HD 
HETATM    3  C   UNL     1      -8.065   9.418  65.676  1.00  0.00    -0.112 C  
HETATM    4  C   UNL     1      -8.806  10.130  64.485  1.00  0.00    -0.204 C  
HETATM    5  O   UNL     1     -10.547  12.258  65.161  1.00  0.00    -0.268 OA 
HETATM    6  C   UNL     1      -9.499   8.792  65.891  1.00  0.00    -0.208 C  
HETATM    7  N   UNL     1     -10.001  10.074  65.376  1.00  0.00    -0.308 N  
HETATM    8  C   UNL     1     -10.600  11.248  65.869  1.00  0.00    -0.253 C  
ENDROOT
BRANCH   3   9
HETATM    9  C   UNL     1      -7.632  10.291  66.899  1.00  0.00    -0.105 C  
HETATM   10  C   UNL     1      -6.550  12.364  67.804  1.00  0.00    -0.113 C  
HETATM   11  C   UNL     1      -5.795  11.488  68.800  1.00  0.00    -0.046 C  
HETATM   12  H   UNL     1      -6.020   9.108  67.470  1.00  0.00     0.000 HD 
HETATM   13  C   UNL     1      -6.863  11.567  66.527  1.00  0.00    -0.016 C  
HETATM   14  C   UNL     1      -6.590  10.226  69.105  1.00  0.00    -0.055 C  
HETATM   15  N   UNL     1      -6.875   9.482  67.881  1.00  0.00    -0.074 NA 
ENDBRANCH   3   9
BRANCH   8  16
HETATM   16  C   UNL     1     -11.189  11.414  67.266  1.00  0.00    -0.370 A  
HETATM   17  C   UNL     1     -11.578  12.704  67.762  1.00  0.00    -0.348 A  
HETATM   18  C   UNL     1     -11.235  10.338  68.172  1.00  0.00    -0.294 A  
HETATM   19  C   UNL     1     -11.978  11.723  69.978  1.00  0.00    -0.344 A  
HETATM   20  F   UNL     1     -12.235  14.011  69.671  1.00  0.00    -0.336 F  
HETATM   21  F   UNL     1     -12.321  11.870  71.266  1.00  0.00    -0.411 F  
HETATM   22  C   UNL     1     -11.620  10.481  69.510  1.00  0.00    -0.332 A  
HETATM   23  C   UNL     1     -11.949  12.815  69.131  1.00  0.00    -0.246 A  
BRANCH  17  24
HETATM   24  N   UNL     1     -11.551  13.884  66.955  1.00  0.00    -0.357 NA 
HETATM   25  H   UNL     1     -12.253  13.955  66.218  1.00  0.00     0.000 HD 
BRANCH  24  26
HETATM   26  C   UNL     1     -10.638  14.970  67.079  1.00  0.00    -0.293 A  
HETATM   27  C   UNL     1     -11.005  16.177  67.676  1.00  0.00    -0.268 A  
HETATM   28  F   UNL     1     -12.230  16.319  68.207  1.00  0.00    -0.094 F  
HETATM   29  C   UNL     1     -10.147  17.284  67.673  1.00  0.00    -0.313 A  
HETATM   30  C   UNL     1      -8.894  17.179  67.070  1.00  0.00    -0.229 A  
HETATM   31  C   UNL     1      -8.494  15.979  66.486  1.00  0.00    -0.348 A  
HETATM   32  I   UNL     1      -7.615  18.816  67.015  1.00  0.00    -0.277 I  
HETATM   33  C   UNL     1      -9.358  14.880  66.505  1.00  0.00    -0.308 A  
ENDBRANCH  24  26
ENDBRANCH  17  24
ENDBRANCH   8  16
TORSDOF 4
ENDMDL
MODEL       75
REMARK 921   NORMALIZED FREE ENERGY PREDICTED BY IDOCK:   -5.20 KCAL/MOL
REMARK 922        TOTAL FREE ENERGY PREDICTED BY IDOCK:   -8.16 KCAL/MOL
REMARK 923 INTER-LIGAND FREE ENERGY PREDICTED BY IDOCK:   -6.59 KCAL/MOL
REMARK 924 INTRA-LIGAND FREE ENERGY PREDICTED BY IDOCK:   -1.57 KCAL/MOL
REMARK 927      BINDING AFFINITY PREDICTED BY RF-SCORE:    0.00 PKD
ROOT
HETATM    1  O   UNL     1     -11.172   5.103  72.927  1.00  0.00    -0.274 OA 
HETATM    2  H   UNL     1     -10.612   4.347  72.793  1.00  0.00     0.000 HD 
HETATM    3  C   UNL     1     -10.793   6.315  72.218  1.00  0.00    -0.240 C  
HETATM    4  C   UNL     1     -11.721   7.566  72.440  1.00  0.00    -0.290 C  
HETATM    5  O   UNL     1     -11.284   9.790  70.743  1.00  0.00    -0.293 OA 
HETATM    6  C   UNL     1      -9.747   7.251  72.942  1.00  0.00    -0.169 C  
HETATM    7  N   UNL     1     -10.463   8.353  72.286  1.00  0.00    -0.318 N  
HETATM    8  C   UNL     1     -10.282   9.234  71.203  1.00  0.00    -0.317 C  
ENDROOT
BRANCH   3   9
HETATM    9  C   UNL     1     -10.347   5.981  70.757  1.00  0.00    -0.224 C  
HETATM   10  C   UNL     1     -10.823   5.982  68.295  1.00  0.00    -0.366 C  
HETATM   11  C   UNL     1     -10.335   4.537  68.240  1.00  0.00     0.193 C  
HETATM   12  H   UNL     1     -10.636   3.926  70.890  1.00  0.00     0.000 HD 
HETATM   13  C   UNL     1     -11.401   6.295  69.685  1.00  0.00    -0.492 C  
HETATM   14  C   UNL     1      -9.319   4.278  69.343  1.00  0.00    -0.166 C  
HETATM   15  N   UNL     1      -9.887   4.578  70.654  1.00  0.00    -0.214 NA 
ENDBRANCH   3   9
BRANCH   8  16
HETATM   16  C   UNL     1      -8.969   9.454  70.459  1.00  0.00    -0.303 A  
HETATM   17  C   UNL     1      -8.917   9.468  69.025  1.00  0.00    -0.144 A  
HETATM   18  C   UNL     1      -7.740   9.501  71.145  1.00  0.00     0.189 A  
HETATM   19  C   UNL     1      -6.464   9.544  69.120  1.00  0.00    -0.045 A  
HETATM   20  F   UNL     1      -7.531   9.420  67.061  1.00  0.00    -0.088 F  
HETATM   21  F   UNL     1      -5.280   9.557  68.492  1.00  0.00    -0.034 F  
HETATM   22  C   UNL     1      -6.502   9.544  70.494  1.00  0.00    -0.086 A  
HETATM   23  C   UNL     1      -7.641   9.496  68.397  1.00  0.00    -0.081 A  
BRANCH  17  24
HETATM   24  N   UNL     1     -10.089   9.397  68.208  1.00  0.00    -0.175 NA 
HETATM   25  H   UNL     1     -10.598   8.512  68.208  1.00  0.00     0.000 HD 
BRANCH  24  26
HETATM   26  C   UNL     1     -10.616  10.441  67.396  1.00  0.00    -0.269 A  
HETATM   27  C   UNL     1     -10.462  10.444  66.008  1.00  0.00    -0.140 A  
HETATM   28  F   UNL     1      -9.858   9.413  65.397  1.00  0.00    -0.348 F  
HETATM   29  C   UNL     1     -10.862  11.539  65.231  1.00  0.00    -0.319 A  
HETATM   30  C   UNL     1     -11.434  12.649  65.854  1.00  0.00    -0.363 A  
HETATM   31  C   UNL     1     -11.617  12.663  67.234  1.00  0.00    -0.428 A  
HETATM   32  I   UNL     1     -12.000  14.305  64.732  1.00  0.00    -0.454 I  
HETATM   33  C   UNL     1     -11.222  11.558  67.995  1.00  0.00    -0.335 A  
ENDBRANCH  24  26
ENDBRANCH  17  24
ENDBRANCH   8  16
TORSDOF 4
ENDMDL
MODEL       76
REMARK 921   NORMALIZED FREE ENERGY PREDICTED BY IDOCK:   -5.18 KCAL/MOL
REMARK 922        TOTAL FREE ENERGY PREDICTED BY IDOCK:   -8.13 KCAL/MOL
REMARK 923 INTER-LIGAND FREE ENERGY PREDICTED BY IDOCK:   -6.76 KCAL/MOL
REMARK 924 INTRA-LIGAND FREE ENERGY PREDICTED BY IDOCK:   -1.37 KCAL/MOL
REMARK 927      BINDING AFFINITY PREDICTED BY RF-SCORE:    0.00 PKD
ROOT
HETATM    1  O   UNL     1     -12.865  14.062  65.664  1.00  0.00    -0.545 OA 
HETATM    2  H   UNL     1     -13.126  14.877  66.076  1.00  0.00     0.000 HD 
HETATM    3  C   UNL     1     -11.609  13.486  66.121  1.00  0.00    -0.343 C  
HETATM    4  C   UNL     1     -11.177  12.136  65.439  1.00  0.00    -0.333 C  
HETATM    5  O   UNL     1      -8.994  10.763  66.607  1.00  0.00    -0.148 OA 
HETATM    6  C   UNL     1     -10.301  14.001  65.402  1.00  0.00    -0.359 C  
HETATM    7  N   UNL     1      -9.787  12.644  65.632  1.00  0.00    -0.240 N  
HETATM    8  C   UNL     1      -8.883  11.988  66.488  1.00  0.00    -0.172 C  
ENDROOT
BRANCH   3   9
HETATM    9  C   UNL     1     -11.488  13.596  67.676  1.00  0.00    -0.325 C  
HETATM   10  C   UNL     1     -11.793  12.578  69.948  1.00  0.00    -0.373 C  
HETATM   11  C   UNL     1     -12.426  13.889  70.407  1.00  0.00    -0.404 C  
HETATM   12  H   UNL     1     -13.108  14.872  67.946  1.00  0.00     0.000 HD 
HETATM   13  C   UNL     1     -12.023  12.377  68.441  1.00  0.00    -0.269 C  
HETATM   14  C   UNL     1     -11.881  15.055  69.593  1.00  0.00    -0.324 C  
HETATM   15  N   UNL     1     -12.112  14.846  68.167  1.00  0.00    -0.181 NA 
ENDBRANCH   3   9
BRANCH   8  16
HETATM   16  C   UNL     1      -7.865  12.680  67.388  1.00  0.00    -0.175 A  
HETATM   17  C   UNL     1      -7.196  11.970  68.441  1.00  0.00    -0.092 A  
HETATM   18  C   UNL     1      -7.654  14.070  67.318  1.00  0.00    -0.094 A  
HETATM   19  C   UNL     1      -6.224  14.080  69.238  1.00  0.00    -0.105 A  
HETATM   20  F   UNL     1      -5.823  12.115  70.410  1.00  0.00    -0.128 F  
HETATM   21  F   UNL     1      -5.474  14.748  70.126  1.00  0.00    -0.097 F  
HETATM   22  C   UNL     1      -6.849  14.768  68.225  1.00  0.00    -0.115 A  
HETATM   23  C   UNL     1      -6.399  12.714  69.355  1.00  0.00    -0.112 A  
BRANCH  17  24
HETATM   24  N   UNL     1      -7.347  10.561  68.641  1.00  0.00    -0.086 NA 
HETATM   25  H   UNL     1      -6.905   9.948  67.955  1.00  0.00     0.000 HD 
BRANCH  24  26
HETATM   26  C   UNL     1      -8.053   9.932  69.706  1.00  0.00    -0.176 A  
HETATM   27  C   UNL     1      -7.392   9.245  70.725  1.00  0.00    -0.123 A  
HETATM   28  F   UNL     1      -6.050   9.216  70.754  1.00  0.00    -0.032 F  
HETATM   29  C   UNL     1      -8.096   8.515  71.691  1.00  0.00    -0.195 A  
HETATM   30  C   UNL     1      -9.490   8.480  71.642  1.00  0.00    -0.246 A  
HETATM   31  C   UNL     1     -10.176   9.174  70.648  1.00  0.00    -0.306 A  
HETATM   32  I   UNL     1     -10.561   7.374  73.038  1.00  0.00    -0.412 I  
HETATM   33  C   UNL     1      -9.458   9.906  69.696  1.00  0.00    -0.252 A  
ENDBRANCH  24  26
ENDBRANCH  17  24
ENDBRANCH   8  16
TORSDOF 4
ENDMDL
MODEL       77
REMARK 921   NORMALIZED FREE ENERGY PREDICTED BY IDOCK:   -5.15 KCAL/MOL
REMARK 922        TOTAL FREE ENERGY PREDICTED BY IDOCK:   -8.10 KCAL/MOL
REMARK 923 INTER-LIGAND FREE ENERGY PREDICTED BY IDOCK:   -6.75 KCAL/MOL
REMARK 924 INTRA-LIGAND FREE ENERGY PREDICTED BY IDOCK:   -1.35 KCAL/MOL
REMARK 927      BINDING AFFINITY PREDICTED BY RF-SCORE:    0.00 PKD
ROOT
HETATM    1  O   UNL     1     -12.456  14.387  66.669  1.00  0.00    -0.535 OA 
HETATM    2  H   UNL     1     -12.428  15.101  67.297  1.00  0.00     0.000 HD 
HETATM    3  C   UNL     1     -11.535  13.287  66.910  1.00  0.00    -0.338 C  
HETATM    4  C   UNL     1     -11.581  12.106  65.872  1.00  0.00    -0.364 C  
HETATM    5  O   UNL     1     -10.144   9.762  66.549  1.00  0.00    -0.222 OA 
HETATM    6  C   UNL     1     -10.081  13.448  66.315  1.00  0.00    -0.299 C  
HETATM    7  N   UNL     1     -10.120  11.989  66.149  1.00  0.00    -0.220 N  
HETATM    8  C   UNL     1      -9.583  10.842  66.763  1.00  0.00    -0.172 C  
ENDROOT
BRANCH   3   9
HETATM    9  C   UNL     1     -11.493  12.927  68.432  1.00  0.00    -0.312 C  
HETATM   10  C   UNL     1     -11.961  11.304  70.286  1.00  0.00    -0.466 C  
HETATM   11  C   UNL     1     -12.564  12.455  71.087  1.00  0.00    -0.349 C  
HETATM   12  H   UNL     1     -13.073  14.153  69.003  1.00  0.00     0.000 HD 
HETATM   13  C   UNL     1     -12.117  11.568  68.779  1.00  0.00    -0.234 C  
HETATM   14  C   UNL     1     -11.930  13.776  70.677  1.00  0.00    -0.266 C  
HETATM   15  N   UNL     1     -12.093  14.009  69.245  1.00  0.00    -0.347 NA 
ENDBRANCH   3   9
BRANCH   8  16
HETATM   16  C   UNL     1      -8.449  10.839  67.782  1.00  0.00    -0.120 A  
HETATM   17  C   UNL     1      -8.510  10.028  68.965  1.00  0.00    -0.147 A  
HETATM   18  C   UNL     1      -7.373  11.741  67.680  1.00  0.00    -0.119 A  
HETATM   19  C   UNL     1      -6.471  11.109  69.805  1.00  0.00    -0.137 A  
HETATM   20  F   UNL     1      -7.567   9.542  71.123  1.00  0.00    -0.131 F  
HETATM   21  F   UNL     1      -5.553  11.259  70.770  1.00  0.00    -0.105 F  
HETATM   22  C   UNL     1      -6.395  11.882  68.671  1.00  0.00    -0.058 A  
HETATM   23  C   UNL     1      -7.509  10.209  69.959  1.00  0.00    -0.162 A  
BRANCH  17  24
HETATM   24  N   UNL     1      -9.565   9.093  69.207  1.00  0.00    -0.157 NA 
HETATM   25  H   UNL     1     -10.473   9.479  69.468  1.00  0.00     0.000 HD 
BRANCH  24  26
HETATM   26  C   UNL     1      -9.471   7.675  69.119  1.00  0.00    -0.154 A  
HETATM   27  C   UNL     1     -10.353   6.833  69.800  1.00  0.00    -0.201 A  
HETATM   28  F   UNL     1     -11.362   7.355  70.515  1.00  0.00    -0.273 F  
HETATM   29  C   UNL     1     -10.171   5.444  69.818  1.00  0.00    -0.348 A  
HETATM   30  C   UNL     1      -9.091   4.886  69.134  1.00  0.00    -0.103 A  
HETATM   31  C   UNL     1      -8.208   5.701  68.429  1.00  0.00    -0.103 A  
HETATM   32  I   UNL     1      -8.772   2.833  69.175  1.00  0.00    -0.182 I  
HETATM   33  C   UNL     1      -8.409   7.085  68.413  1.00  0.00    -0.124 A  
ENDBRANCH  24  26
ENDBRANCH  17  24
ENDBRANCH   8  16
TORSDOF 4
ENDMDL
MODEL       78
REMARK 921   NORMALIZED FREE ENERGY PREDICTED BY IDOCK:   -5.13 KCAL/MOL
REMARK 922        TOTAL FREE ENERGY PREDICTED BY IDOCK:   -8.08 KCAL/MOL
REMARK 923 INTER-LIGAND FREE ENERGY PREDICTED BY IDOCK:   -6.53 KCAL/MOL
REMARK 924 INTRA-LIGAND FREE ENERGY PREDICTED BY IDOCK:   -1.55 KCAL/MOL
REMARK 927      BINDING AFFINITY PREDICTED BY RF-SCORE:    0.00 PKD
ROOT
HETATM    1  O   UNL     1      -8.159   7.262  72.701  1.00  0.00    -0.100 OA 
HETATM    2  H   UNL     1      -7.457   6.651  72.510  1.00  0.00     0.000 HD 
HETATM    3  C   UNL     1      -8.840   7.836  71.551  1.00  0.00    -0.129 C  
HETATM    4  C   UNL     1     -10.003   8.846  71.867  1.00  0.00    -0.314 C  
HETATM    5  O   UNL     1     -11.635   9.628  69.689  1.00  0.00    -0.088 OA 
HETATM    6  C   UNL     1      -8.191   9.134  70.929  1.00  0.00    -0.177 C  
HETATM    7  N   UNL     1      -9.571   9.523  70.609  1.00  0.00    -0.258 N  
HETATM    8  C   UNL     1     -10.417   9.586  69.486  1.00  0.00    -0.220 C  
ENDROOT
BRANCH   3   9
HETATM    9  C   UNL     1      -9.092   6.743  70.460  1.00  0.00    -0.156 C  
HETATM   10  C   UNL     1     -10.633   5.101  69.356  1.00  0.00    -0.104 C  
HETATM   11  C   UNL     1      -9.511   4.068  69.417  1.00  0.00    -0.259 C  
HETATM   12  H   UNL     1      -8.025   5.226  71.400  1.00  0.00     0.000 HD 
HETATM   13  C   UNL     1     -10.489   6.109  70.509  1.00  0.00    -0.291 C  
HETATM   14  C   UNL     1      -8.154   4.757  69.397  1.00  0.00    -0.070 C  
HETATM   15  N   UNL     1      -8.036   5.706  70.500  1.00  0.00    -0.103 NA 
ENDBRANCH   3   9
BRANCH   8  16
HETATM   16  C   UNL     1      -9.963   9.466  68.035  1.00  0.00    -0.209 A  
HETATM   17  C   UNL     1     -10.533  10.286  67.005  1.00  0.00    -0.244 A  
HETATM   18  C   UNL     1      -9.081   8.447  67.628  1.00  0.00    -0.144 A  
HETATM   19  C   UNL     1      -9.323   8.986  65.308  1.00  0.00    -0.088 A  
HETATM   20  F   UNL     1     -10.771  10.676  64.644  1.00  0.00    -0.403 F  
HETATM   21  F   UNL     1      -9.041   8.739  64.022  1.00  0.00    -0.086 F  
HETATM   22  C   UNL     1      -8.761   8.203  66.288  1.00  0.00    -0.172 A  
HETATM   23  C   UNL     1     -10.199   9.999  65.652  1.00  0.00    -0.188 A  
BRANCH  17  24
HETATM   24  N   UNL     1     -11.465  11.336  67.280  1.00  0.00    -0.510 NA 
HETATM   25  H   UNL     1     -12.449  11.074  67.347  1.00  0.00     0.000 HD 
BRANCH  24  26
HETATM   26  C   UNL     1     -11.151  12.713  67.469  1.00  0.00    -0.272 A  
HETATM   27  C   UNL     1     -11.239  13.323  68.721  1.00  0.00    -0.276 A  
HETATM   28  F   UNL     1     -11.566  12.596  69.802  1.00  0.00    -0.328 F  
HETATM   29  C   UNL     1     -11.061  14.704  68.875  1.00  0.00    -0.268 A  
HETATM   30  C   UNL     1     -10.783  15.488  67.755  1.00  0.00    -0.297 A  
HETATM   31  C   UNL     1     -10.670  14.901  66.497  1.00  0.00    -0.309 A  
HETATM   32  I   UNL     1     -10.554  17.545  67.945  1.00  0.00    -0.176 I  
HETATM   33  C   UNL     1     -10.840  13.520  66.361  1.00  0.00    -0.291 A  
ENDBRANCH  24  26
ENDBRANCH  17  24
ENDBRANCH   8  16
TORSDOF 4
ENDMDL
MODEL       79
REMARK 921   NORMALIZED FREE ENERGY PREDICTED BY IDOCK:   -5.11 KCAL/MOL
REMARK 922        TOTAL FREE ENERGY PREDICTED BY IDOCK:   -8.05 KCAL/MOL
REMARK 923 INTER-LIGAND FREE ENERGY PREDICTED BY IDOCK:   -6.41 KCAL/MOL
REMARK 924 INTRA-LIGAND FREE ENERGY PREDICTED BY IDOCK:   -1.65 KCAL/MOL
REMARK 927      BINDING AFFINITY PREDICTED BY RF-SCORE:    0.00 PKD
ROOT
HETATM    1  O   UNL     1     -10.520   6.922  74.520  1.00  0.00    -0.476 OA 
HETATM    2  H   UNL     1      -9.666   6.902  74.935  1.00  0.00     0.000 HD 
HETATM    3  C   UNL     1     -10.526   6.905  73.065  1.00  0.00    -0.264 C  
HETATM    4  C   UNL     1     -11.941   6.937  72.378  1.00  0.00    -0.130 C  
HETATM    5  O   UNL     1     -12.011   6.453  69.589  1.00  0.00    -0.197 OA 
HETATM    6  C   UNL     1     -10.402   8.307  72.349  1.00  0.00    -0.332 C  
HETATM    7  N   UNL     1     -11.250   7.713  71.307  1.00  0.00    -0.250 N  
HETATM    8  C   UNL     1     -11.118   7.200  70.003  1.00  0.00    -0.258 C  
ENDROOT
BRANCH   3   9
HETATM    9  C   UNL     1      -9.468   5.890  72.522  1.00  0.00    -0.147 C  
HETATM   10  C   UNL     1      -8.891   3.581  71.729  1.00  0.00    -0.135 C  
HETATM   11  C   UNL     1      -7.652   3.629  72.619  1.00  0.00    -0.060 C  
HETATM   12  H   UNL     1      -8.476   5.601  74.327  1.00  0.00     0.000 HD 
HETATM   13  C   UNL     1     -10.002   4.465  72.321  1.00  0.00    -0.239 C  
HETATM   14  C   UNL     1      -7.188   5.066  72.808  1.00  0.00    -0.085 C  
HETATM   15  N   UNL     1      -8.256   5.887  73.373  1.00  0.00    -0.115 NA 
ENDBRANCH   3   9
BRANCH   8  16
HETATM   16  C   UNL     1      -9.896   7.377  69.108  1.00  0.00    -0.168 A  
HETATM   17  C   UNL     1      -9.907   8.294  68.003  1.00  0.00    -0.169 A  
HETATM   18  C   UNL     1      -8.769   6.544  69.238  1.00  0.00    -0.130 A  
HETATM   19  C   UNL     1      -7.721   7.439  67.280  1.00  0.00    -0.116 A  
HETATM   20  F   UNL     1      -8.804   9.050  66.005  1.00  0.00    -0.145 F  
HETATM   21  F   UNL     1      -6.707   7.445  66.404  1.00  0.00    -0.053 F  
HETATM   22  C   UNL     1      -7.694   6.566  68.342  1.00  0.00    -0.105 A  
HETATM   23  C   UNL     1      -8.806   8.278  67.104  1.00  0.00    -0.137 A  
BRANCH  17  24
HETATM   24  N   UNL     1     -11.003   9.175  67.741  1.00  0.00    -0.492 NA 
HETATM   25  H   UNL     1     -11.889   8.743  67.475  1.00  0.00     0.000 HD 
BRANCH  24  26
HETATM   26  C   UNL     1     -10.977  10.597  67.816  1.00  0.00    -0.306 A  
HETATM   27  C   UNL     1     -10.878  11.269  69.036  1.00  0.00    -0.222 A  
HETATM   28  F   UNL     1     -10.742  10.575  70.177  1.00  0.00    -0.306 F  
HETATM   29  C   UNL     1     -10.991  12.664  69.113  1.00  0.00    -0.195 A  
HETATM   30  C   UNL     1     -11.197  13.400  67.946  1.00  0.00    -0.275 A  
HETATM   31  C   UNL     1     -11.278  12.756  66.714  1.00  0.00    -0.338 A  
HETATM   32  I   UNL     1     -11.407  15.466  68.033  1.00  0.00    -0.228 I  
HETATM   33  C   UNL     1     -11.155  11.364  66.652  1.00  0.00    -0.333 A  
ENDBRANCH  24  26
ENDBRANCH  17  24
ENDBRANCH   8  16
TORSDOF 4
ENDMDL
MODEL       80
REMARK 921   NORMALIZED FREE ENERGY PREDICTED BY IDOCK:   -5.11 KCAL/MOL
REMARK 922        TOTAL FREE ENERGY PREDICTED BY IDOCK:   -8.05 KCAL/MOL
REMARK 923 INTER-LIGAND FREE ENERGY PREDICTED BY IDOCK:   -6.68 KCAL/MOL
REMARK 924 INTRA-LIGAND FREE ENERGY PREDICTED BY IDOCK:   -1.37 KCAL/MOL
REMARK 927      BINDING AFFINITY PREDICTED BY RF-SCORE:    0.00 PKD
ROOT
HETATM    1  O   UNL     1     -12.504  14.933  68.375  1.00  0.00    -0.559 OA 
HETATM    2  H   UNL     1     -13.317  14.737  67.924  1.00  0.00     0.000 HD 
HETATM    3  C   UNL     1     -11.379  14.062  68.073  1.00  0.00    -0.293 C  
HETATM    4  C   UNL     1     -10.033  14.387  68.819  1.00  0.00    -0.223 C  
HETATM    5  O   UNL     1      -7.723  13.012  67.929  1.00  0.00    -0.117 OA 
HETATM    6  C   UNL     1     -11.268  12.741  68.931  1.00  0.00    -0.283 C  
HETATM    7  N   UNL     1      -9.816  12.911  68.781  1.00  0.00    -0.047 N  
HETATM    8  C   UNL     1      -8.758  12.347  68.044  1.00  0.00    -0.186 C  
ENDROOT
BRANCH   3   9
HETATM    9  C   UNL     1     -11.315  13.755  66.541  1.00  0.00    -0.325 C  
HETATM   10  C   UNL     1     -11.246  14.573  64.171  1.00  0.00     0.094 C  
HETATM   11  C   UNL     1     -12.313  13.539  63.825  1.00  0.00    -0.392 C  
HETATM   12  H   UNL     1     -13.289  13.128  66.347  1.00  0.00     0.000 HD 
HETATM   13  C   UNL     1     -11.378  14.999  65.643  1.00  0.00    -0.297 C  
HETATM   14  C   UNL     1     -12.222  12.346  64.766  1.00  0.00    -0.423 C  
HETATM   15  N   UNL     1     -12.353  12.771  66.157  1.00  0.00    -0.531 NA 
ENDBRANCH   3   9
BRANCH   8  16
HETATM   16  C   UNL     1      -8.831  11.042  67.259  1.00  0.00    -0.135 A  
HETATM   17  C   UNL     1      -8.341   9.811  67.811  1.00  0.00    -0.114 A  
HETATM   18  C   UNL     1      -9.240  11.023  65.912  1.00  0.00    -0.220 A  
HETATM   19  C   UNL     1      -8.691   8.708  65.644  1.00  0.00    -0.182 A  
HETATM   20  F   UNL     1      -7.740   7.519  67.398  1.00  0.00    -0.105 F  
HETATM   21  F   UNL     1      -8.599   7.617  64.871  1.00  0.00    -0.129 F  
HETATM   22  C   UNL     1      -9.173   9.879  65.109  1.00  0.00    -0.288 A  
HETATM   23  C   UNL     1      -8.272   8.672  66.961  1.00  0.00    -0.106 A  
BRANCH  17  24
HETATM   24  N   UNL     1      -7.868   9.701  69.156  1.00  0.00    -0.085 NA 
HETATM   25  H   UNL     1      -7.075  10.288  69.416  1.00  0.00     0.000 HD 
BRANCH  24  26
HETATM   26  C   UNL     1      -8.398   8.851  70.168  1.00  0.00    -0.139 A  
HETATM   27  C   UNL     1      -9.554   9.181  70.878  1.00  0.00    -0.279 A  
HETATM   28  F   UNL     1     -10.234  10.298  70.572  1.00  0.00    -0.299 F  
HETATM   29  C   UNL     1      -9.992   8.410  71.962  1.00  0.00    -0.354 A  
HETATM   30  C   UNL     1      -9.264   7.281  72.338  1.00  0.00    -0.134 A  
HETATM   31  C   UNL     1      -8.118   6.916  71.634  1.00  0.00    -0.105 A  
HETATM   32  I   UNL     1      -9.865   6.138  73.967  1.00  0.00    -0.340 I  
HETATM   33  C   UNL     1      -7.700   7.692  70.548  1.00  0.00    -0.089 A  
ENDBRANCH  24  26
ENDBRANCH  17  24
ENDBRANCH   8  16
TORSDOF 4
ENDMDL
MODEL       81
REMARK 921   NORMALIZED FREE ENERGY PREDICTED BY IDOCK:   -5.10 KCAL/MOL
REMARK 922        TOTAL FREE ENERGY PREDICTED BY IDOCK:   -8.04 KCAL/MOL
REMARK 923 INTER-LIGAND FREE ENERGY PREDICTED BY IDOCK:   -6.52 KCAL/MOL
REMARK 924 INTRA-LIGAND FREE ENERGY PREDICTED BY IDOCK:   -1.52 KCAL/MOL
REMARK 927      BINDING AFFINITY PREDICTED BY RF-SCORE:    0.00 PKD
ROOT
HETATM    1  O   UNL     1      -7.710   7.534  63.654  1.00  0.00    -0.115 OA 
HETATM    2  H   UNL     1      -8.369   6.849  63.625  1.00  0.00     0.000 HD 
HETATM    3  C   UNL     1      -7.907   8.569  64.658  1.00  0.00    -0.131 C  
HETATM    4  C   UNL     1      -6.817   9.701  64.707  1.00  0.00    -0.111 C  
HETATM    5  O   UNL     1      -6.916  11.466  66.918  1.00  0.00    -0.125 OA 
HETATM    6  C   UNL     1      -8.821   9.786  64.237  1.00  0.00    -0.228 C  
HETATM    7  N   UNL     1      -7.950  10.584  65.111  1.00  0.00    -0.131 N  
HETATM    8  C   UNL     1      -7.993  11.181  66.384  1.00  0.00    -0.147 C  
ENDROOT
BRANCH   3   9
HETATM    9  C   UNL     1      -8.377   7.941  66.011  1.00  0.00    -0.128 C  
HETATM   10  C   UNL     1      -7.873   7.261  68.372  1.00  0.00    -0.122 C  
HETATM   11  C   UNL     1      -8.558   5.926  68.091  1.00  0.00    -0.113 C  
HETATM   12  H   UNL     1      -8.380   5.965  65.362  1.00  0.00     0.000 HD 
HETATM   13  C   UNL     1      -7.276   7.833  67.075  1.00  0.00    -0.089 C  
HETATM   14  C   UNL     1      -9.615   6.089  67.008  1.00  0.00    -0.133 C  
HETATM   15  N   UNL     1      -9.027   6.630  65.786  1.00  0.00    -0.085 NA 
ENDBRANCH   3   9
BRANCH   8  16
HETATM   16  C   UNL     1      -9.252  11.379  67.220  1.00  0.00    -0.167 A  
HETATM   17  C   UNL     1     -10.144  12.477  66.977  1.00  0.00    -0.216 A  
HETATM   18  C   UNL     1      -9.509  10.584  68.354  1.00  0.00    -0.158 A  
HETATM   19  C   UNL     1     -11.406  11.893  69.002  1.00  0.00    -0.279 A  
HETATM   20  F   UNL     1     -12.007  13.771  67.776  1.00  0.00    -0.353 F  
HETATM   21  F   UNL     1     -12.403  12.149  69.860  1.00  0.00    -0.305 F  
HETATM   22  C   UNL     1     -10.565  10.830  69.237  1.00  0.00    -0.261 A  
HETATM   23  C   UNL     1     -11.198  12.707  67.905  1.00  0.00    -0.266 A  
BRANCH  17  24
HETATM   24  N   UNL     1      -9.980  13.377  65.878  1.00  0.00    -0.336 NA 
HETATM   25  H   UNL     1     -10.013  12.973  64.941  1.00  0.00     0.000 HD 
BRANCH  24  26
HETATM   26  C   UNL     1      -9.775  14.784  65.964  1.00  0.00    -0.321 A  
HETATM   27  C   UNL     1      -8.679  15.329  66.636  1.00  0.00    -0.291 A  
HETATM   28  F   UNL     1      -7.748  14.522  67.169  1.00  0.00    -0.199 F  
HETATM   29  C   UNL     1      -8.557  16.711  66.833  1.00  0.00    -0.240 A  
HETATM   30  C   UNL     1      -9.546  17.563  66.343  1.00  0.00    -0.269 A  
HETATM   31  C   UNL     1     -10.639  17.047  65.651  1.00  0.00    -0.206 A  
HETATM   32  I   UNL     1      -9.413  19.614  66.655  1.00  0.00    -0.574 I  
HETATM   33  C   UNL     1     -10.742  15.666  65.454  1.00  0.00    -0.424 A  
ENDBRANCH  24  26
ENDBRANCH  17  24
ENDBRANCH   8  16
TORSDOF 4
ENDMDL
MODEL       82
REMARK 921   NORMALIZED FREE ENERGY PREDICTED BY IDOCK:   -5.07 KCAL/MOL
REMARK 922        TOTAL FREE ENERGY PREDICTED BY IDOCK:   -8.00 KCAL/MOL
REMARK 923 INTER-LIGAND FREE ENERGY PREDICTED BY IDOCK:   -6.69 KCAL/MOL
REMARK 924 INTRA-LIGAND FREE ENERGY PREDICTED BY IDOCK:   -1.31 KCAL/MOL
REMARK 927      BINDING AFFINITY PREDICTED BY RF-SCORE:    0.00 PKD
ROOT
HETATM    1  O   UNL     1     -13.514  15.574  70.420  1.00  0.00    -0.791 OA 
HETATM    2  H   UNL     1     -13.643  15.161  71.266  1.00  0.00     0.000 HD 
HETATM    3  C   UNL     1     -12.282  15.236  69.723  1.00  0.00    -0.294 C  
HETATM    4  C   UNL     1     -12.069  15.919  68.323  1.00  0.00     0.304 C  
HETATM    5  O   UNL     1      -9.925  14.947  66.748  1.00  0.00    -0.237 OA 
HETATM    6  C   UNL     1     -11.013  16.104  70.083  1.00  0.00    -0.358 C  
HETATM    7  N   UNL     1     -10.621  15.889  68.683  1.00  0.00    -0.239 N  
HETATM    8  C   UNL     1      -9.702  15.115  67.951  1.00  0.00    -0.208 C  
ENDROOT
BRANCH   3   9
HETATM    9  C   UNL     1     -11.983  13.706  69.848  1.00  0.00    -0.348 C  
HETATM   10  C   UNL     1     -11.766  11.448  68.778  1.00  0.00    -0.404 C  
HETATM   11  C   UNL     1     -12.593  10.870  69.923  1.00  0.00    -0.211 C  
HETATM   12  H   UNL     1     -13.784  13.189  70.751  1.00  0.00     0.000 HD 
HETATM   13  C   UNL     1     -12.145  12.919  68.540  1.00  0.00    -0.158 C  
HETATM   14  C   UNL     1     -12.416  11.708  71.181  1.00  0.00    -0.307 C  
HETATM   15  N   UNL     1     -12.784  13.099  70.935  1.00  0.00    -0.277 NA 
ENDBRANCH   3   9
BRANCH   8  16
HETATM   16  C   UNL     1      -8.526  14.349  68.548  1.00  0.00    -0.170 A  
HETATM   17  C   UNL     1      -7.401  15.034  69.118  1.00  0.00    -0.164 A  
HETATM   18  C   UNL     1      -8.430  12.949  68.428  1.00  0.00    -0.115 A  
HETATM   19  C   UNL     1      -6.223  12.892  69.352  1.00  0.00    -0.114 A  
HETATM   20  F   UNL     1      -5.150  14.865  69.945  1.00  0.00    -0.094 F  
HETATM   21  F   UNL     1      -5.127  12.205  69.704  1.00  0.00    -0.066 F  
HETATM   22  C   UNL     1      -7.300  12.224  68.820  1.00  0.00    -0.083 A  
HETATM   23  C   UNL     1      -6.263  14.267  69.491  1.00  0.00    -0.122 A  
BRANCH  17  24
HETATM   24  N   UNL     1      -7.359  16.456  69.271  1.00  0.00    -0.231 NA 
HETATM   25  H   UNL     1      -7.644  16.831  70.176  1.00  0.00     0.000 HD 
BRANCH  24  26
HETATM   26  C   UNL     1      -6.956  17.398  68.281  1.00  0.00    -0.193 A  
HETATM   27  C   UNL     1      -7.510  18.677  68.213  1.00  0.00    -0.281 A  
HETATM   28  F   UNL     1      -8.404  19.073  69.134  1.00  0.00    -0.337 F  
HETATM   29  C   UNL     1      -7.209  19.548  67.158  1.00  0.00    -0.231 A  
HETATM   30  C   UNL     1      -6.331  19.134  66.156  1.00  0.00    -0.187 A  
HETATM   31  C   UNL     1      -5.749  17.870  66.211  1.00  0.00    -0.224 A  
HETATM   32  I   UNL     1      -5.897  20.388  64.557  1.00  0.00    -0.364 I  
HETATM   33  C   UNL     1      -6.052  17.015  67.276  1.00  0.00    -0.184 A  
ENDBRANCH  24  26
ENDBRANCH  17  24
ENDBRANCH   8  16
TORSDOF 4
ENDMDL
MODEL       83
REMARK 921   NORMALIZED FREE ENERGY PREDICTED BY IDOCK:   -5.07 KCAL/MOL
REMARK 922        TOTAL FREE ENERGY PREDICTED BY IDOCK:   -8.00 KCAL/MOL
REMARK 923 INTER-LIGAND FREE ENERGY PREDICTED BY IDOCK:   -6.80 KCAL/MOL
REMARK 924 INTRA-LIGAND FREE ENERGY PREDICTED BY IDOCK:   -1.20 KCAL/MOL
REMARK 927      BINDING AFFINITY PREDICTED BY RF-SCORE:    0.00 PKD
ROOT
HETATM    1  O   UNL     1     -10.719  17.707  69.895  1.00  0.00    -0.169 OA 
HETATM    2  H   UNL     1     -10.362  18.349  69.292  1.00  0.00     0.000 HD 
HETATM    3  C   UNL     1     -10.952  16.379  69.350  1.00  0.00    -0.325 C  
HETATM    4  C   UNL     1     -11.543  15.316  70.348  1.00  0.00    -0.308 C  
HETATM    5  O   UNL     1     -11.586  12.627  69.461  1.00  0.00    -0.287 OA 
HETATM    6  C   UNL     1     -12.344  16.148  68.641  1.00  0.00     0.743 C  
HETATM    7  N   UNL     1     -12.233  14.771  69.142  1.00  0.00    -0.224 N  
HETATM    8  C   UNL     1     -11.933  13.488  68.647  1.00  0.00    -0.343 C  
ENDROOT
BRANCH   3   9
HETATM    9  C   UNL     1      -9.764  15.944  68.432  1.00  0.00    -0.214 C  
HETATM   10  C   UNL     1      -7.298  15.847  67.983  1.00  0.00    -0.140 C  
HETATM   11  C   UNL     1      -7.581  16.301  66.554  1.00  0.00    -0.218 C  
HETATM   12  H   UNL     1     -10.049  17.403  66.977  1.00  0.00     0.000 HD 
HETATM   13  C   UNL     1      -8.381  16.384  68.934  1.00  0.00    -0.234 C  
HETATM   14  C   UNL     1      -8.974  15.864  66.124  1.00  0.00    -0.341 C  
HETATM   15  N   UNL     1      -9.987  16.386  67.037  1.00  0.00    -0.255 NA 
ENDBRANCH   3   9
BRANCH   8  16
HETATM   16  C   UNL     1     -11.867  13.109  67.171  1.00  0.00    -0.424 A  
HETATM   17  C   UNL     1     -11.272  11.874  66.744  1.00  0.00    -0.327 A  
HETATM   18  C   UNL     1     -12.248  14.018  66.166  1.00  0.00    -0.494 A  
HETATM   19  C   UNL     1     -11.475  12.593  64.404  1.00  0.00    -0.349 A  
HETATM   20  F   UNL     1     -10.448  10.570  64.900  1.00  0.00    -0.389 F  
HETATM   21  F   UNL     1     -11.266  12.365  63.100  1.00  0.00    -0.477 F  
HETATM   22  C   UNL     1     -12.058  13.773  64.802  1.00  0.00    -0.438 A  
HETATM   23  C   UNL     1     -11.079  11.666  65.350  1.00  0.00    -0.239 A  
BRANCH  17  24
HETATM   24  N   UNL     1     -10.815  10.878  67.663  1.00  0.00    -0.245 NA 
HETATM   25  H   UNL     1     -11.496  10.177  67.960  1.00  0.00     0.000 HD 
BRANCH  24  26
HETATM   26  C   UNL     1      -9.502  10.769  68.205  1.00  0.00    -0.158 A  
HETATM   27  C   UNL     1      -9.127   9.700  69.019  1.00  0.00    -0.148 A  
HETATM   28  F   UNL     1      -9.994   8.703  69.262  1.00  0.00    -0.177 F  
HETATM   29  C   UNL     1      -7.880   9.670  69.657  1.00  0.00    -0.129 A  
HETATM   30  C   UNL     1      -6.989  10.725  69.469  1.00  0.00    -0.130 A  
HETATM   31  C   UNL     1      -7.330  11.795  68.645  1.00  0.00    -0.115 A  
HETATM   32  I   UNL     1      -5.148  10.728  70.434  1.00  0.00    -0.086 I  
HETATM   33  C   UNL     1      -8.575  11.806  68.008  1.00  0.00    -0.158 A  
ENDBRANCH  24  26
ENDBRANCH  17  24
ENDBRANCH   8  16
TORSDOF 4
ENDMDL
MODEL       84
REMARK 921   NORMALIZED FREE ENERGY PREDICTED BY IDOCK:   -5.03 KCAL/MOL
REMARK 922        TOTAL FREE ENERGY PREDICTED BY IDOCK:   -7.95 KCAL/MOL
REMARK 923 INTER-LIGAND FREE ENERGY PREDICTED BY IDOCK:   -6.26 KCAL/MOL
REMARK 924 INTRA-LIGAND FREE ENERGY PREDICTED BY IDOCK:   -1.69 KCAL/MOL
REMARK 927      BINDING AFFINITY PREDICTED BY RF-SCORE:    0.00 PKD
ROOT
HETATM    1  O   UNL     1     -10.340   5.815  69.186  1.00  0.00    -0.199 OA 
HETATM    2  H   UNL     1      -9.794   5.615  69.938  1.00  0.00     0.000 HD 
HETATM    3  C   UNL     1      -9.956   6.984  68.410  1.00  0.00    -0.154 C  
HETATM    4  C   UNL     1     -10.859   7.316  67.166  1.00  0.00    -0.308 C  
HETATM    5  O   UNL     1      -9.892   9.293  65.384  1.00  0.00    -0.222 OA 
HETATM    6  C   UNL     1     -10.525   8.371  68.904  1.00  0.00    -0.189 C  
HETATM    7  N   UNL     1     -10.531   8.738  67.482  1.00  0.00    -0.272 N  
HETATM    8  C   UNL     1      -9.781   9.529  66.592  1.00  0.00    -0.211 C  
ENDROOT
BRANCH   3   9
HETATM    9  C   UNL     1      -8.403   7.037  68.226  1.00  0.00    -0.123 C  
HETATM   10  C   UNL     1      -6.278   5.954  67.452  1.00  0.00    -0.033 C  
HETATM   11  C   UNL     1      -5.633   6.368  68.772  1.00  0.00    -0.016 C  
HETATM   12  H   UNL     1      -7.922   6.728  70.226  1.00  0.00     0.000 HD 
HETATM   13  C   UNL     1      -7.791   5.756  67.640  1.00  0.00    -0.098 C  
HETATM   14  C   UNL     1      -6.301   7.621  69.319  1.00  0.00    -0.035 C  
HETATM   15  N   UNL     1      -7.736   7.412  69.493  1.00  0.00    -0.106 NA 
ENDBRANCH   3   9
BRANCH   8  16
HETATM   16  C   UNL     1      -8.738  10.563  67.001  1.00  0.00    -0.132 A  
HETATM   17  C   UNL     1      -9.094  11.936  67.218  1.00  0.00    -0.178 A  
HETATM   18  C   UNL     1      -7.367  10.243  67.034  1.00  0.00    -0.092 A  
HETATM   19  C   UNL     1      -6.716  12.510  67.444  1.00  0.00    -0.147 A  
HETATM   20  F   UNL     1      -8.318  14.190  67.538  1.00  0.00    -0.140 F  
HETATM   21  F   UNL     1      -5.759  13.431  67.623  1.00  0.00    -0.118 F  
HETATM   22  C   UNL     1      -6.365  11.195  67.250  1.00  0.00    -0.074 A  
HETATM   23  C   UNL     1      -8.048  12.880  67.419  1.00  0.00    -0.181 A  
BRANCH  17  24
HETATM   24  N   UNL     1     -10.447  12.399  67.183  1.00  0.00    -0.219 NA 
HETATM   25  H   UNL     1     -10.911  12.400  66.274  1.00  0.00     0.000 HD 
BRANCH  24  26
HETATM   26  C   UNL     1     -11.209  12.860  68.295  1.00  0.00    -0.270 A  
HETATM   27  C   UNL     1     -11.560  14.203  68.442  1.00  0.00    -0.318 A  
HETATM   28  F   UNL     1     -11.232  15.092  67.490  1.00  0.00    -0.290 F  
HETATM   29  C   UNL     1     -12.191  14.671  69.602  1.00  0.00    -0.325 A  
HETATM   30  C   UNL     1     -12.483  13.776  70.631  1.00  0.00    -0.359 A  
HETATM   31  C   UNL     1     -12.162  12.426  70.502  1.00  0.00    -0.382 A  
HETATM   32  I   UNL     1     -13.382  14.446  72.381  1.00  0.00    -0.673 I  
HETATM   33  C   UNL     1     -11.541  11.973  69.333  1.00  0.00    -0.393 A  
ENDBRANCH  24  26
ENDBRANCH  17  24
ENDBRANCH   8  16
TORSDOF 4
ENDMDL
MODEL       85
REMARK 921   NORMALIZED FREE ENERGY PREDICTED BY IDOCK:   -5.00 KCAL/MOL
REMARK 922        TOTAL FREE ENERGY PREDICTED BY IDOCK:   -7.92 KCAL/MOL
REMARK 923 INTER-LIGAND FREE ENERGY PREDICTED BY IDOCK:   -6.55 KCAL/MOL
REMARK 924 INTRA-LIGAND FREE ENERGY PREDICTED BY IDOCK:   -1.37 KCAL/MOL
REMARK 927      BINDING AFFINITY PREDICTED BY RF-SCORE:    0.00 PKD
ROOT
HETATM    1  O   UNL     1      -7.319   6.749  70.113  1.00  0.00    -0.080 OA 
HETATM    2  H   UNL     1      -6.910   6.227  69.432  1.00  0.00     0.000 HD 
HETATM    3  C   UNL     1      -8.147   7.856  69.659  1.00  0.00    -0.117 C  
HETATM    4  C   UNL     1      -8.825   8.720  70.785  1.00  0.00    -0.191 C  
HETATM    5  O   UNL     1     -10.787  10.583  69.950  1.00  0.00    -0.269 OA 
HETATM    6  C   UNL     1      -7.401   9.220  69.382  1.00  0.00    -0.077 C  
HETATM    7  N   UNL     1      -8.649   9.853  69.830  1.00  0.00    -0.198 N  
HETATM    8  C   UNL     1      -9.758  10.514  69.270  1.00  0.00    -0.196 C  
ENDROOT
BRANCH   3   9
HETATM    9  C   UNL     1      -9.022   7.424  68.437  1.00  0.00    -0.134 C  
HETATM   10  C   UNL     1     -11.192   6.556  67.527  1.00  0.00    -0.288 C  
HETATM   11  C   UNL     1     -10.394   5.584  66.662  1.00  0.00    -0.322 C  
HETATM   12  H   UNL     1      -8.065   5.609  68.096  1.00  0.00     0.000 HD 
HETATM   13  C   UNL     1     -10.411   6.887  68.810  1.00  0.00    -0.223 C  
HETATM   14  C   UNL     1      -9.018   6.156  66.352  1.00  0.00    -0.150 C  
HETATM   15  N   UNL     1      -8.293   6.460  67.582  1.00  0.00    -0.117 NA 
ENDBRANCH   3   9
BRANCH   8  16
HETATM   16  C   UNL     1      -9.841  11.032  67.838  1.00  0.00    -0.186 A  
HETATM   17  C   UNL     1      -9.994  12.432  67.559  1.00  0.00    -0.196 A  
HETATM   18  C   UNL     1      -9.923  10.149  66.745  1.00  0.00    -0.266 A  
HETATM   19  C   UNL     1     -10.315  11.916  65.179  1.00  0.00    -0.277 A  
HETATM   20  F   UNL     1     -10.486  14.114  65.912  1.00  0.00    -0.276 F  
HETATM   21  F   UNL     1     -10.567  12.327  63.929  1.00  0.00    -0.315 F  
HETATM   22  C   UNL     1     -10.157  10.575  65.433  1.00  0.00    -0.358 A  
HETATM   23  C   UNL     1     -10.247  12.828  66.216  1.00  0.00    -0.253 A  
BRANCH  17  24
HETATM   24  N   UNL     1      -9.960  13.432  68.581  1.00  0.00    -0.380 NA 
HETATM   25  H   UNL     1     -10.431  13.211  69.459  1.00  0.00     0.000 HD 
BRANCH  24  26
HETATM   26  C   UNL     1      -9.333  14.708  68.492  1.00  0.00    -0.201 A  
HETATM   27  C   UNL     1      -7.947  14.842  68.389  1.00  0.00    -0.138 A  
HETATM   28  F   UNL     1      -7.170  13.750  68.310  1.00  0.00    -0.081 F  
HETATM   29  C   UNL     1      -7.329  16.098  68.439  1.00  0.00    -0.140 A  
HETATM   30  C   UNL     1      -8.113  17.242  68.585  1.00  0.00    -0.261 A  
HETATM   31  C   UNL     1      -9.499  17.138  68.669  1.00  0.00    -0.275 A  
HETATM   32  I   UNL     1      -7.222  19.117  68.702  1.00  0.00    -0.370 I  
HETATM   33  C   UNL     1     -10.102  15.878  68.608  1.00  0.00    -0.216 A  
ENDBRANCH  24  26
ENDBRANCH  17  24
ENDBRANCH   8  16
TORSDOF 4
ENDMDL
MODEL       86
REMARK 921   NORMALIZED FREE ENERGY PREDICTED BY IDOCK:   -4.99 KCAL/MOL
REMARK 922        TOTAL FREE ENERGY PREDICTED BY IDOCK:   -7.90 KCAL/MOL
REMARK 923 INTER-LIGAND FREE ENERGY PREDICTED BY IDOCK:   -6.01 KCAL/MOL
REMARK 924 INTRA-LIGAND FREE ENERGY PREDICTED BY IDOCK:   -1.89 KCAL/MOL
REMARK 927      BINDING AFFINITY PREDICTED BY RF-SCORE:    0.00 PKD
ROOT
HETATM    1  O   UNL     1      -6.961   6.427  73.789  1.00  0.00    -0.081 OA 
HETATM    2  H   UNL     1      -7.477   5.708  74.135  1.00  0.00     0.000 HD 
HETATM    3  C   UNL     1      -7.223   6.796  72.406  1.00  0.00    -0.086 C  
HETATM    4  C   UNL     1      -6.368   7.985  71.833  1.00  0.00    -0.045 C  
HETATM    5  O   UNL     1      -7.157   9.022  69.319  1.00  0.00    -0.056 OA 
HETATM    6  C   UNL     1      -6.424   5.995  71.305  1.00  0.00    -0.049 C  
HETATM    7  N   UNL     1      -6.463   7.248  70.539  1.00  0.00    -0.042 N  
HETATM    8  C   UNL     1      -7.149   7.792  69.438  1.00  0.00    -0.071 C  
ENDROOT
BRANCH   3   9
HETATM    9  C   UNL     1      -8.760   6.789  72.117  1.00  0.00    -0.132 C  
HETATM   10  C   UNL     1     -11.069   7.599  72.666  1.00  0.00    -0.412 C  
HETATM   11  C   UNL     1     -11.553   6.154  72.578  1.00  0.00    -0.294 C  
HETATM   12  H   UNL     1      -9.141   4.914  72.933  1.00  0.00     0.000 HD 
HETATM   13  C   UNL     1      -9.592   7.638  73.089  1.00  0.00    -0.314 C  
HETATM   14  C   UNL     1     -10.674   5.356  71.627  1.00  0.00    -0.198 C  
HETATM   15  N   UNL     1      -9.276   5.403  72.048  1.00  0.00    -0.137 NA 
ENDBRANCH   3   9
BRANCH   8  16
HETATM   16  C   UNL     1      -8.000   6.998  68.453  1.00  0.00    -0.123 A  
HETATM   17  C   UNL     1      -9.412   7.226  68.335  1.00  0.00    -0.142 A  
HETATM   18  C   UNL     1      -7.464   5.913  67.734  1.00  0.00    -0.078 A  
HETATM   19  C   UNL     1      -9.596   5.281  66.846  1.00  0.00    -0.145 A  
HETATM   20  F   UNL     1     -11.511   6.443  67.460  1.00  0.00    -0.399 F  
HETATM   21  F   UNL     1     -10.349   4.453  66.110  1.00  0.00    -0.233 F  
HETATM   22  C   UNL     1      -8.242   5.062  66.941  1.00  0.00    -0.107 A  
HETATM   23  C   UNL     1     -10.175   6.331  67.534  1.00  0.00    -0.173 A  
BRANCH  17  24
HETATM   24  N   UNL     1     -10.087   8.276  69.035  1.00  0.00    -0.197 NA 
HETATM   25  H   UNL     1     -10.417   8.064  69.977  1.00  0.00     0.000 HD 
BRANCH  24  26
HETATM   26  C   UNL     1     -10.343   9.587  68.542  1.00  0.00    -0.207 A  
HETATM   27  C   UNL     1     -10.749  10.624  69.384  1.00  0.00    -0.244 A  
HETATM   28  F   UNL     1     -10.849  10.416  70.707  1.00  0.00    -0.363 F  
HETATM   29  C   UNL     1     -11.130  11.873  68.875  1.00  0.00    -0.299 A  
HETATM   30  C   UNL     1     -11.095  12.090  67.498  1.00  0.00    -0.275 A  
HETATM   31  C   UNL     1     -10.674  11.080  66.637  1.00  0.00    -0.305 A  
HETATM   32  I   UNL     1     -11.691  13.919  66.709  1.00  0.00    -0.488 I  
HETATM   33  C   UNL     1     -10.288   9.842  67.161  1.00  0.00    -0.311 A  
ENDBRANCH  24  26
ENDBRANCH  17  24
ENDBRANCH   8  16
TORSDOF 4
ENDMDL
MODEL       87
REMARK 921   NORMALIZED FREE ENERGY PREDICTED BY IDOCK:   -4.98 KCAL/MOL
REMARK 922        TOTAL FREE ENERGY PREDICTED BY IDOCK:   -7.89 KCAL/MOL
REMARK 923 INTER-LIGAND FREE ENERGY PREDICTED BY IDOCK:   -6.32 KCAL/MOL
REMARK 924 INTRA-LIGAND FREE ENERGY PREDICTED BY IDOCK:   -1.57 KCAL/MOL
REMARK 927      BINDING AFFINITY PREDICTED BY RF-SCORE:    0.00 PKD
ROOT
HETATM    1  O   UNL     1      -5.525   6.863  66.799  1.00  0.00    -0.016 OA 
HETATM    2  H   UNL     1      -4.762   7.232  66.368  1.00  0.00     0.000 HD 
HETATM    3  C   UNL     1      -6.778   7.577  66.604  1.00  0.00    -0.058 C  
HETATM    4  C   UNL     1      -8.040   6.967  67.316  1.00  0.00    -0.118 C  
HETATM    5  O   UNL     1     -10.554   8.055  66.600  1.00  0.00    -0.277 OA 
HETATM    6  C   UNL     1      -7.071   8.762  67.605  1.00  0.00    -0.079 C  
HETATM    7  N   UNL     1      -8.482   8.386  67.445  1.00  0.00    -0.124 N  
HETATM    8  C   UNL     1      -9.631   8.856  66.782  1.00  0.00    -0.202 C  
ENDROOT
BRANCH   3   9
HETATM    9  C   UNL     1      -6.923   8.036  65.116  1.00  0.00    -0.062 C  
HETATM   10  C   UNL     1      -6.624   7.574  62.669  1.00  0.00    -0.070 C  
HETATM   11  C   UNL     1      -6.031   8.972  62.518  1.00  0.00    -0.094 C  
HETATM   12  H   UNL     1      -5.339   9.384  65.133  1.00  0.00     0.000 HD 
HETATM   13  C   UNL     1      -6.368   7.040  64.088  1.00  0.00    -0.039 C  
HETATM   14  C   UNL     1      -6.593   9.905  63.581  1.00  0.00    -0.125 C  
HETATM   15  N   UNL     1      -6.337   9.382  64.920  1.00  0.00    -0.074 NA 
ENDBRANCH   3   9
BRANCH   8  16
HETATM   16  C   UNL     1      -9.778  10.235  66.148  1.00  0.00    -0.266 A  
HETATM   17  C   UNL     1      -9.850  11.422  66.951  1.00  0.00    -0.193 A  
HETATM   18  C   UNL     1     -10.000  10.382  64.765  1.00  0.00    -0.409 A  
HETATM   19  C   UNL     1     -10.374  12.740  64.946  1.00  0.00    -0.309 A  
HETATM   20  F   UNL     1     -10.336  13.776  67.024  1.00  0.00    -0.251 F  
HETATM   21  F   UNL     1     -10.684  13.915  64.380  1.00  0.00    -0.393 F  
HETATM   22  C   UNL     1     -10.295  11.611  64.165  1.00  0.00    -0.386 A  
HETATM   23  C   UNL     1     -10.168  12.652  66.310  1.00  0.00    -0.251 A  
BRANCH  17  24
HETATM   24  N   UNL     1      -9.673  11.407  68.370  1.00  0.00    -0.198 NA 
HETATM   25  H   UNL     1      -8.811  11.815  68.732  1.00  0.00     0.000 HD 
BRANCH  24  26
HETATM   26  C   UNL     1     -10.585  10.877  69.327  1.00  0.00    -0.217 A  
HETATM   27  C   UNL     1     -10.191   9.928  70.273  1.00  0.00    -0.264 A  
HETATM   28  F   UNL     1      -8.909   9.536  70.338  1.00  0.00    -0.206 F  
HETATM   29  C   UNL     1     -11.121   9.311  71.120  1.00  0.00    -0.411 A  
HETATM   30  C   UNL     1     -12.469   9.657  71.025  1.00  0.00    -0.296 A  
HETATM   31  C   UNL     1     -12.886  10.616  70.105  1.00  0.00    -0.146 A  
HETATM   32  I   UNL     1     -13.878   8.732  72.241  1.00  0.00    -0.371 I  
HETATM   33  C   UNL     1     -11.944  11.230  69.272  1.00  0.00    -0.411 A  
ENDBRANCH  24  26
ENDBRANCH  17  24
ENDBRANCH   8  16
TORSDOF 4
ENDMDL
MODEL       88
REMARK 921   NORMALIZED FREE ENERGY PREDICTED BY IDOCK:   -4.93 KCAL/MOL
REMARK 922        TOTAL FREE ENERGY PREDICTED BY IDOCK:   -7.83 KCAL/MOL
REMARK 923 INTER-LIGAND FREE ENERGY PREDICTED BY IDOCK:   -7.90 KCAL/MOL
REMARK 924 INTRA-LIGAND FREE ENERGY PREDICTED BY IDOCK:    0.06 KCAL/MOL
REMARK 927      BINDING AFFINITY PREDICTED BY RF-SCORE:    0.00 PKD
ROOT
HETATM    1  O   UNL     1      -9.232   7.685  65.274  1.00  0.00    -0.351 OA 
HETATM    2  H   UNL     1      -9.525   6.793  65.127  1.00  0.00     0.000 HD 
HETATM    3  C   UNL     1      -9.107   8.097  66.663  1.00  0.00    -0.165 C  
HETATM    4  C   UNL     1      -8.622   9.574  66.906  1.00  0.00    -0.128 C  
HETATM    5  O   UNL     1      -7.937  10.265  69.565  1.00  0.00    -0.148 OA 
HETATM    6  C   UNL     1     -10.415   8.659  67.347  1.00  0.00    -0.281 C  
HETATM    7  N   UNL     1      -9.500   9.517  68.112  1.00  0.00    -0.133 N  
HETATM    8  C   UNL     1      -8.964   9.596  69.410  1.00  0.00    -0.181 C  
ENDROOT
BRANCH   3   9
HETATM    9  C   UNL     1      -8.458   6.960  67.518  1.00  0.00    -0.122 C  
HETATM   10  C   UNL     1      -8.673   5.180  69.272  1.00  0.00    -0.108 C  
HETATM   11  C   UNL     1      -7.386   5.703  69.904  1.00  0.00    -0.070 C  
HETATM   12  H   UNL     1      -7.406   8.209  68.806  1.00  0.00     0.000 HD 
HETATM   13  C   UNL     1      -9.406   6.317  68.541  1.00  0.00    -0.121 C  
HETATM   14  C   UNL     1      -6.504   6.355  68.849  1.00  0.00    -0.043 C  
HETATM   15  N   UNL     1      -7.217   7.434  68.170  1.00  0.00    -0.088 NA 
ENDBRANCH   3   9
BRANCH   8  16
HETATM   16  C   UNL     1      -9.466   8.812  70.617  1.00  0.00    -0.237 A  
HETATM   17  C   UNL     1     -10.828   8.912  71.059  1.00  0.00    -0.259 A  
HETATM   18  C   UNL     1      -8.581   8.080  71.432  1.00  0.00    -0.156 A  
HETATM   19  C   UNL     1     -10.274   7.590  73.053  1.00  0.00    -0.306 A  
HETATM   20  F   UNL     1     -12.421   8.438  72.797  1.00  0.00    -0.417 F  
HETATM   21  F   UNL     1     -10.644   7.037  74.216  1.00  0.00    -0.392 F  
HETATM   22  C   UNL     1      -8.969   7.476  72.633  1.00  0.00    -0.188 A  
HETATM   23  C   UNL     1     -11.184   8.300  72.292  1.00  0.00    -0.374 A  
BRANCH  17  24
HETATM   24  N   UNL     1     -11.821   9.649  70.340  1.00  0.00    -0.418 NA 
HETATM   25  H   UNL     1     -12.217   9.203  69.511  1.00  0.00     0.000 HD 
BRANCH  24  26
HETATM   26  C   UNL     1     -12.310  10.946  70.668  1.00  0.00    -0.376 A  
HETATM   27  C   UNL     1     -11.851  12.093  70.019  1.00  0.00    -0.306 A  
HETATM   28  F   UNL     1     -10.969  11.988  69.012  1.00  0.00    -0.232 F  
HETATM   29  C   UNL     1     -12.235  13.374  70.439  1.00  0.00    -0.415 A  
HETATM   30  C   UNL     1     -13.101  13.508  71.524  1.00  0.00    -0.344 A  
HETATM   31  C   UNL     1     -13.590  12.379  72.177  1.00  0.00    -0.405 A  
HETATM   32  I   UNL     1     -13.657  15.395  72.196  1.00  0.00    -0.647 I  
HETATM   33  C   UNL     1     -13.206  11.107  71.739  1.00  0.00    -0.486 A  
ENDBRANCH  24  26
ENDBRANCH  17  24
ENDBRANCH   8  16
TORSDOF 4
ENDMDL
MODEL       89
REMARK 921   NORMALIZED FREE ENERGY PREDICTED BY IDOCK:   -4.93 KCAL/MOL
REMARK 922        TOTAL FREE ENERGY PREDICTED BY IDOCK:   -7.82 KCAL/MOL
REMARK 923 INTER-LIGAND FREE ENERGY PREDICTED BY IDOCK:   -6.25 KCAL/MOL
REMARK 924 INTRA-LIGAND FREE ENERGY PREDICTED BY IDOCK:   -1.57 KCAL/MOL
REMARK 927      BINDING AFFINITY PREDICTED BY RF-SCORE:    0.00 PKD
ROOT
HETATM    1  O   UNL     1      -7.763   6.697  71.478  1.00  0.00    -0.095 OA 
HETATM    2  H   UNL     1      -8.385   6.002  71.300  1.00  0.00     0.000 HD 
HETATM    3  C   UNL     1      -7.867   7.880  70.637  1.00  0.00    -0.095 C  
HETATM    4  C   UNL     1      -6.837   9.031  70.930  1.00  0.00    -0.088 C  
HETATM    5  O   UNL     1      -7.294  11.506  69.633  1.00  0.00     0.033 OA 
HETATM    6  C   UNL     1      -7.080   7.837  69.269  1.00  0.00    -0.076 C  
HETATM    7  N   UNL     1      -6.911   9.284  69.461  1.00  0.00    -0.047 N  
HETATM    8  C   UNL     1      -7.438  10.486  68.953  1.00  0.00    -0.104 C  
ENDROOT
BRANCH   3   9
HETATM    9  C   UNL     1      -9.366   8.271  70.422  1.00  0.00    -0.159 C  
HETATM   10  C   UNL     1     -11.303   9.781  70.929  1.00  0.00    -0.439 C  
HETATM   11  C   UNL     1     -12.173   8.540  71.107  1.00  0.00    -0.260 C  
HETATM   12  H   UNL     1     -10.174   6.727  71.557  1.00  0.00     0.000 HD 
HETATM   13  C   UNL     1      -9.840   9.457  71.274  1.00  0.00    -0.245 C  
HETATM   14  C   UNL     1     -11.637   7.391  70.265  1.00  0.00    -0.128 C  
HETATM   15  N   UNL     1     -10.249   7.097  70.609  1.00  0.00    -0.195 NA 
ENDBRANCH   3   9
BRANCH   8  16
HETATM   16  C   UNL     1      -8.292  10.608  67.696  1.00  0.00    -0.114 A  
HETATM   17  C   UNL     1      -9.428  11.485  67.648  1.00  0.00    -0.168 A  
HETATM   18  C   UNL     1      -8.092   9.760  66.591  1.00  0.00    -0.116 A  
HETATM   19  C   UNL     1     -10.039  10.565  65.455  1.00  0.00    -0.291 A  
HETATM   20  F   UNL     1     -11.409  12.149  66.459  1.00  0.00    -0.316 F  
HETATM   21  F   UNL     1     -10.877  10.521  64.410  1.00  0.00    -0.339 F  
HETATM   22  C   UNL     1      -8.947   9.730  65.484  1.00  0.00    -0.214 A  
HETATM   23  C   UNL     1     -10.285  11.417  66.515  1.00  0.00    -0.221 A  
BRANCH  17  24
HETATM   24  N   UNL     1      -9.761  12.377  68.716  1.00  0.00    -0.416 NA 
HETATM   25  H   UNL     1      -9.996  11.953  69.614  1.00  0.00     0.000 HD 
BRANCH  24  26
HETATM   26  C   UNL     1      -9.796  13.799  68.647  1.00  0.00    -0.157 A  
HETATM   27  C   UNL     1     -10.999  14.506  68.632  1.00  0.00    -0.251 A  
HETATM   28  F   UNL     1     -12.166  13.851  68.747  1.00  0.00    -0.376 F  
HETATM   29  C   UNL     1     -11.030  15.892  68.427  1.00  0.00    -0.331 A  
HETATM   30  C   UNL     1      -9.833  16.583  68.241  1.00  0.00    -0.243 A  
HETATM   31  C   UNL     1      -8.617  15.905  68.272  1.00  0.00    -0.176 A  
HETATM   32  I   UNL     1      -9.848  18.633  67.895  1.00  0.00    -0.454 I  
HETATM   33  C   UNL     1      -8.602  14.523  68.487  1.00  0.00    -0.175 A  
ENDBRANCH  24  26
ENDBRANCH  17  24
ENDBRANCH   8  16
TORSDOF 4
ENDMDL
MODEL       90
REMARK 921   NORMALIZED FREE ENERGY PREDICTED BY IDOCK:   -4.92 KCAL/MOL
REMARK 922        TOTAL FREE ENERGY PREDICTED BY IDOCK:   -7.81 KCAL/MOL
REMARK 923 INTER-LIGAND FREE ENERGY PREDICTED BY IDOCK:   -6.32 KCAL/MOL
REMARK 924 INTRA-LIGAND FREE ENERGY PREDICTED BY IDOCK:   -1.49 KCAL/MOL
REMARK 927      BINDING AFFINITY PREDICTED BY RF-SCORE:    0.00 PKD
ROOT
HETATM    1  O   UNL     1      -9.390   5.290  71.641  1.00  0.00    -0.144 OA 
HETATM    2  H   UNL     1      -8.515   5.279  72.011  1.00  0.00     0.000 HD 
HETATM    3  C   UNL     1      -9.552   6.044  70.407  1.00  0.00    -0.164 C  
HETATM    4  C   UNL     1     -11.000   6.063  69.793  1.00  0.00    -0.401 C  
HETATM    5  O   UNL     1     -11.259   7.126  67.181  1.00  0.00    -0.276 OA 
HETATM    6  C   UNL     1      -9.846   7.587  70.563  1.00  0.00    -0.183 C  
HETATM    7  N   UNL     1     -10.638   7.436  69.334  1.00  0.00    -0.228 N  
HETATM    8  C   UNL     1     -10.531   7.744  67.965  1.00  0.00    -0.185 C  
ENDROOT
BRANCH   3   9
HETATM    9  C   UNL     1      -8.348   5.786  69.442  1.00  0.00    -0.112 C  
HETATM   10  C   UNL     1      -7.362   4.557  67.491  1.00  0.00    -0.073 C  
HETATM   11  C   UNL     1      -6.099   4.337  68.319  1.00  0.00    -0.031 C  
HETATM   12  H   UNL     1      -7.188   4.718  70.799  1.00  0.00     0.000 HD 
HETATM   13  C   UNL     1      -8.587   4.671  68.414  1.00  0.00    -0.106 C  
HETATM   14  C   UNL     1      -5.932   5.454  69.339  1.00  0.00    -0.020 C  
HETATM   15  N   UNL     1      -7.103   5.544  70.207  1.00  0.00    -0.060 NA 
ENDBRANCH   3   9
BRANCH   8  16
HETATM   16  C   UNL     1      -9.494   8.678  67.352  1.00  0.00    -0.187 A  
HETATM   17  C   UNL     1      -9.828  10.025  66.984  1.00  0.00    -0.189 A  
HETATM   18  C   UNL     1      -8.217   8.213  66.987  1.00  0.00    -0.115 A  
HETATM   19  C   UNL     1      -7.627  10.275  65.923  1.00  0.00    -0.134 A  
HETATM   20  F   UNL     1      -9.162  12.013  65.807  1.00  0.00    -0.227 F  
HETATM   21  F   UNL     1      -6.755  11.015  65.224  1.00  0.00    -0.021 F  
HETATM   22  C   UNL     1      -7.292   8.991  66.282  1.00  0.00    -0.091 A  
HETATM   23  C   UNL     1      -8.870  10.782  66.254  1.00  0.00    -0.173 A  
BRANCH  17  24
HETATM   24  N   UNL     1     -11.101  10.611  67.269  1.00  0.00    -0.295 NA 
HETATM   25  H   UNL     1     -11.901  10.256  66.745  1.00  0.00     0.000 HD 
BRANCH  24  26
HETATM   26  C   UNL     1     -11.360  11.644  68.216  1.00  0.00    -0.285 A  
HETATM   27  C   UNL     1     -11.866  11.368  69.487  1.00  0.00    -0.357 A  
HETATM   28  F   UNL     1     -12.064  10.096  69.871  1.00  0.00    -0.267 F  
HETATM   29  C   UNL     1     -12.246  12.395  70.361  1.00  0.00    -0.370 A  
HETATM   30  C   UNL     1     -12.108  13.723  69.958  1.00  0.00    -0.349 A  
HETATM   31  C   UNL     1     -11.587  14.027  68.703  1.00  0.00    -0.360 A  
HETATM   32  I   UNL     1     -12.700  15.268  71.217  1.00  0.00    -0.609 I  
HETATM   33  C   UNL     1     -11.204  12.990  67.846  1.00  0.00    -0.304 A  
ENDBRANCH  24  26
ENDBRANCH  17  24
ENDBRANCH   8  16
TORSDOF 4
ENDMDL
MODEL       91
REMARK 921   NORMALIZED FREE ENERGY PREDICTED BY IDOCK:   -4.88 KCAL/MOL
REMARK 922        TOTAL FREE ENERGY PREDICTED BY IDOCK:   -7.77 KCAL/MOL
REMARK 923 INTER-LIGAND FREE ENERGY PREDICTED BY IDOCK:   -6.40 KCAL/MOL
REMARK 924 INTRA-LIGAND FREE ENERGY PREDICTED BY IDOCK:   -1.37 KCAL/MOL
REMARK 927      BINDING AFFINITY PREDICTED BY RF-SCORE:    0.00 PKD
ROOT
HETATM    1  O   UNL     1     -12.879  11.139  71.584  1.00  0.00    -0.427 OA 
HETATM    2  H   UNL     1     -13.717  11.528  71.807  1.00  0.00     0.000 HD 
HETATM    3  C   UNL     1     -12.228  11.660  70.392  1.00  0.00    -0.347 C  
HETATM    4  C   UNL     1     -10.841  11.015  70.023  1.00  0.00     0.014 C  
HETATM    5  O   UNL     1      -9.342  12.301  67.994  1.00  0.00    -0.183 OA 
HETATM    6  C   UNL     1     -12.642  10.997  69.020  1.00  0.00     0.536 C  
HETATM    7  N   UNL     1     -11.256  11.267  68.612  1.00  0.00    -0.226 N  
HETATM    8  C   UNL     1     -10.554  12.172  67.794  1.00  0.00    -0.204 C  
ENDROOT
BRANCH   3   9
HETATM    9  C   UNL     1     -12.352  13.218  70.335  1.00  0.00    -0.295 C  
HETATM   10  C   UNL     1     -11.271  15.480  70.403  1.00  0.00    -0.356 C  
HETATM   11  C   UNL     1     -12.363  15.929  71.370  1.00  0.00    -0.485 C  
HETATM   12  H   UNL     1     -13.150  13.458  72.240  1.00  0.00     0.000 HD 
HETATM   13  C   UNL     1     -11.028  13.968  70.542  1.00  0.00     0.592 C  
HETATM   14  C   UNL     1     -13.638  15.131  71.138  1.00  0.00    -0.456 C  
HETATM   15  N   UNL     1     -13.387  13.699  71.278  1.00  0.00    -0.244 NA 
ENDBRANCH   3   9
BRANCH   8  16
HETATM   16  C   UNL     1     -11.189  13.109  66.774  1.00  0.00    -0.330 A  
HETATM   17  C   UNL     1     -11.577  12.643  65.472  1.00  0.00    -0.370 A  
HETATM   18  C   UNL     1     -11.280  14.494  67.011  1.00  0.00    -0.342 A  
HETATM   19  C   UNL     1     -12.066  14.954  64.797  1.00  0.00    -0.331 A  
HETATM   20  F   UNL     1     -12.281  13.234  63.250  1.00  0.00    -0.580 F  
HETATM   21  F   UNL     1     -12.452  15.829  63.859  1.00  0.00    -0.380 F  
HETATM   22  C   UNL     1     -11.709  15.409  66.044  1.00  0.00     0.215 A  
HETATM   23  C   UNL     1     -11.993  13.604  64.509  1.00  0.00    -0.418 A  
BRANCH  17  24
HETATM   24  N   UNL     1     -11.506  11.266  65.092  1.00  0.00     0.071 NA 
HETATM   25  H   UNL     1     -12.352  10.710  65.214  1.00  0.00     0.000 HD 
BRANCH  24  26
HETATM   26  C   UNL     1     -10.367  10.598  64.558  1.00  0.00    -0.282 A  
HETATM   27  C   UNL     1      -9.693   9.606  65.273  1.00  0.00    -0.260 A  
HETATM   28  F   UNL     1     -10.150   9.213  66.473  1.00  0.00    -0.289 F  
HETATM   29  C   UNL     1      -8.497   9.050  64.801  1.00  0.00    -0.197 A  
HETATM   30  C   UNL     1      -7.970   9.489  63.586  1.00  0.00    -0.141 A  
HETATM   31  C   UNL     1      -8.633  10.462  62.843  1.00  0.00    -0.197 A  
HETATM   32  I   UNL     1      -6.176   8.712  62.879  1.00  0.00    -0.086 I  
HETATM   33  C   UNL     1      -9.831  11.001  63.323  1.00  0.00    -0.406 A  
ENDBRANCH  24  26
ENDBRANCH  17  24
ENDBRANCH   8  16
TORSDOF 4
ENDMDL
MODEL       92
REMARK 921   NORMALIZED FREE ENERGY PREDICTED BY IDOCK:   -4.83 KCAL/MOL
REMARK 922        TOTAL FREE ENERGY PREDICTED BY IDOCK:   -7.71 KCAL/MOL
REMARK 923 INTER-LIGAND FREE ENERGY PREDICTED BY IDOCK:   -7.79 KCAL/MOL
REMARK 924 INTRA-LIGAND FREE ENERGY PREDICTED BY IDOCK:    0.08 KCAL/MOL
REMARK 927      BINDING AFFINITY PREDICTED BY RF-SCORE:    0.00 PKD
ROOT
HETATM    1  O   UNL     1     -12.461  16.088  68.898  1.00  0.00    -0.351 OA 
HETATM    2  H   UNL     1     -13.326  16.028  68.509  1.00  0.00     0.000 HD 
HETATM    3  C   UNL     1     -11.545  15.000  68.591  1.00  0.00    -0.325 C  
HETATM    4  C   UNL     1     -10.112  15.100  69.233  1.00  0.00    -0.246 C  
HETATM    5  O   UNL     1      -8.172  13.258  68.305  1.00  0.00    -0.148 OA 
HETATM    6  C   UNL     1     -11.625  13.732  69.528  1.00  0.00    -0.297 C  
HETATM    7  N   UNL     1     -10.182  13.610  69.282  1.00  0.00     0.124 N  
HETATM    8  C   UNL     1      -9.304  12.813  68.525  1.00  0.00    -0.077 C  
ENDROOT
BRANCH   3   9
HETATM    9  C   UNL     1     -11.648  14.604  67.082  1.00  0.00    -0.378 C  
HETATM   10  C   UNL     1     -12.367  12.974  65.317  1.00  0.00    -0.537 C  
HETATM   11  C   UNL     1     -10.997  13.138  64.663  1.00  0.00    -0.374 C  
HETATM   12  H   UNL     1      -9.644  14.102  66.836  1.00  0.00     0.000 HD 
HETATM   13  C   UNL     1     -12.265  13.220  66.831  1.00  0.00    -0.315 C  
HETATM   14  C   UNL     1     -10.424  14.513  64.972  1.00  0.00    -0.429 C  
HETATM   15  N   UNL     1     -10.332  14.726  66.414  1.00  0.00    -0.284 NA 
ENDBRANCH   3   9
BRANCH   8  16
HETATM   16  C   UNL     1      -9.677  11.506  67.835  1.00  0.00    -0.187 A  
HETATM   17  C   UNL     1     -10.315  10.439  68.553  1.00  0.00    -0.176 A  
HETATM   18  C   UNL     1      -9.276  11.238  66.512  1.00  0.00    -0.200 A  
HETATM   19  C   UNL     1     -10.060   8.977  66.595  1.00  0.00    -0.285 A  
HETATM   20  F   UNL     1     -10.979   8.127  68.552  1.00  0.00    -0.144 F  
HETATM   21  F   UNL     1     -10.213   7.778  66.017  1.00  0.00    -0.121 F  
HETATM   22  C   UNL     1      -9.460   9.996  65.894  1.00  0.00    -0.260 A  
HETATM   23  C   UNL     1     -10.470   9.185  67.899  1.00  0.00    -0.237 A  
BRANCH  17  24
HETATM   24  N   UNL     1     -10.745  10.569  69.911  1.00  0.00    -0.370 NA 
HETATM   25  H   UNL     1     -11.243  11.425  70.157  1.00  0.00     0.000 HD 
BRANCH  24  26
HETATM   26  C   UNL     1     -10.544   9.619  70.953  1.00  0.00    -0.316 A  
HETATM   27  C   UNL     1      -9.270   9.307  71.430  1.00  0.00    -0.021 A  
HETATM   28  F   UNL     1      -8.195   9.952  70.949  1.00  0.00    -0.116 F  
HETATM   29  C   UNL     1      -9.070   8.276  72.357  1.00  0.00    -0.307 A  
HETATM   30  C   UNL     1     -10.166   7.550  72.822  1.00  0.00    -0.255 A  
HETATM   31  C   UNL     1     -11.451   7.855  72.378  1.00  0.00    -0.433 A  
HETATM   32  I   UNL     1      -9.897   5.988  74.167  1.00  0.00    -0.339 I  
HETATM   33  C   UNL     1     -11.636   8.893  71.459  1.00  0.00    -0.388 A  
ENDBRANCH  24  26
ENDBRANCH  17  24
ENDBRANCH   8  16
TORSDOF 4
ENDMDL
MODEL       93
REMARK 921   NORMALIZED FREE ENERGY PREDICTED BY IDOCK:   -4.75 KCAL/MOL
REMARK 922        TOTAL FREE ENERGY PREDICTED BY IDOCK:   -7.61 KCAL/MOL
REMARK 923 INTER-LIGAND FREE ENERGY PREDICTED BY IDOCK:   -6.70 KCAL/MOL
REMARK 924 INTRA-LIGAND FREE ENERGY PREDICTED BY IDOCK:   -0.91 KCAL/MOL
REMARK 927      BINDING AFFINITY PREDICTED BY RF-SCORE:    0.00 PKD
ROOT
HETATM    1  O   UNL     1     -13.277  11.462  72.081  1.00  0.00    -0.576 OA 
HETATM    2  H   UNL     1     -13.942  12.136  72.157  1.00  0.00     0.000 HD 
HETATM    3  C   UNL     1     -12.391  11.564  70.932  1.00  0.00    -0.359 C  
HETATM    4  C   UNL     1     -11.289  10.448  70.806  1.00  0.00    -0.284 C  
HETATM    5  O   UNL     1      -9.278  10.862  68.856  1.00  0.00    -0.184 OA 
HETATM    6  C   UNL     1     -12.897  10.892  69.596  1.00  0.00     0.310 C  
HETATM    7  N   UNL     1     -11.476  10.624  69.336  1.00  0.00    -0.269 N  
HETATM    8  C   UNL     1     -10.440  11.119  68.522  1.00  0.00    -0.191 C  
ENDROOT
BRANCH   3   9
HETATM    9  C   UNL     1     -11.963  13.050  70.698  1.00  0.00    -0.138 C  
HETATM   10  C   UNL     1     -11.665  15.380  71.576  1.00  0.00    -0.467 C  
HETATM   11  C   UNL     1     -12.341  15.900  70.310  1.00  0.00    -0.224 C  
HETATM   12  H   UNL     1     -13.632  13.600  69.586  1.00  0.00     0.000 HD 
HETATM   13  C   UNL     1     -12.178  13.969  71.909  1.00  0.00    -0.115 C  
HETATM   14  C   UNL     1     -12.120  14.934  69.155  1.00  0.00    -0.231 C  
HETATM   15  N   UNL     1     -12.616  13.602  69.490  1.00  0.00    -0.034 NA 
ENDBRANCH   3   9
BRANCH   8  16
HETATM   16  C   UNL     1     -10.626  12.062  67.339  1.00  0.00    -0.253 A  
HETATM   17  C   UNL     1      -9.631  13.041  67.002  1.00  0.00    -0.236 A  
HETATM   18  C   UNL     1     -11.839  12.111  66.627  1.00  0.00    -0.314 A  
HETATM   19  C   UNL     1     -11.155  14.006  65.334  1.00  0.00    -0.318 A  
HETATM   20  F   UNL     1      -9.089  14.998  65.713  1.00  0.00    -0.315 F  
HETATM   21  F   UNL     1     -11.419  14.938  64.409  1.00  0.00    -0.367 F  
HETATM   22  C   UNL     1     -12.109  13.064  65.640  1.00  0.00    -0.507 A  
HETATM   23  C   UNL     1      -9.946  14.006  66.005  1.00  0.00    -0.315 A  
BRANCH  17  24
HETATM   24  N   UNL     1      -8.367  13.120  67.667  1.00  0.00    -0.160 NA 
HETATM   25  H   UNL     1      -7.912  12.237  67.898  1.00  0.00     0.000 HD 
BRANCH  24  26
HETATM   26  C   UNL     1      -7.684  14.313  68.038  1.00  0.00    -0.141 A  
HETATM   27  C   UNL     1      -6.325  14.496  67.774  1.00  0.00    -0.152 A  
HETATM   28  F   UNL     1      -5.640  13.560  67.098  1.00  0.00     0.017 F  
HETATM   29  C   UNL     1      -5.630  15.611  68.261  1.00  0.00    -0.115 A  
HETATM   30  C   UNL     1      -6.309  16.564  69.020  1.00  0.00    -0.169 A  
HETATM   31  C   UNL     1      -7.669  16.416  69.282  1.00  0.00    -0.171 A  
HETATM   32  I   UNL     1      -5.296  18.207  69.791  1.00  0.00    -0.247 I  
HETATM   33  C   UNL     1      -8.351  15.302  68.780  1.00  0.00    -0.179 A  
ENDBRANCH  24  26
ENDBRANCH  17  24
ENDBRANCH   8  16
TORSDOF 4
ENDMDL
MODEL       94
REMARK 921   NORMALIZED FREE ENERGY PREDICTED BY IDOCK:   -4.74 KCAL/MOL
REMARK 922        TOTAL FREE ENERGY PREDICTED BY IDOCK:   -7.59 KCAL/MOL
REMARK 923 INTER-LIGAND FREE ENERGY PREDICTED BY IDOCK:   -5.96 KCAL/MOL
REMARK 924 INTRA-LIGAND FREE ENERGY PREDICTED BY IDOCK:   -1.63 KCAL/MOL
REMARK 927      BINDING AFFINITY PREDICTED BY RF-SCORE:    0.00 PKD
ROOT
HETATM    1  O   UNL     1      -8.709  10.282  66.037  1.00  0.00    -0.143 OA 
HETATM    2  H   UNL     1      -9.315   9.943  65.389  1.00  0.00     0.000 HD 
HETATM    3  C   UNL     1      -8.947   9.874  67.413  1.00  0.00    -0.135 C  
HETATM    4  C   UNL     1      -7.943  10.435  68.485  1.00  0.00    -0.114 C  
HETATM    5  O   UNL     1      -8.098   9.314  71.081  1.00  0.00    -0.298 OA 
HETATM    6  C   UNL     1      -9.963  10.758  68.238  1.00  0.00    -0.168 C  
HETATM    7  N   UNL     1      -9.124  10.422  69.397  1.00  0.00    -0.184 N  
HETATM    8  C   UNL     1      -9.168   9.580  70.523  1.00  0.00    -0.225 C  
ENDROOT
BRANCH   3   9
HETATM    9  C   UNL     1      -9.324   8.358  67.479  1.00  0.00    -0.147 C  
HETATM   10  C   UNL     1      -9.189   6.049  66.508  1.00  0.00    -0.158 C  
HETATM   11  C   UNL     1     -10.696   5.918  66.714  1.00  0.00    -0.371 C  
HETATM   12  H   UNL     1     -11.300   8.582  66.871  1.00  0.00     0.000 HD 
HETATM   13  C   UNL     1      -8.810   7.525  66.296  1.00  0.00    -0.184 C  
HETATM   14  C   UNL     1     -11.150   6.789  67.877  1.00  0.00    -0.175 C  
HETATM   15  N   UNL     1     -10.783   8.185  67.656  1.00  0.00    -0.186 NA 
ENDBRANCH   3   9
BRANCH   8  16
HETATM   16  C   UNL     1     -10.409   8.856  71.032  1.00  0.00    -0.321 A  
HETATM   17  C   UNL     1     -10.351   7.489  71.465  1.00  0.00    -0.196 A  
HETATM   18  C   UNL     1     -11.683   9.450  70.955  1.00  0.00    -0.395 A  
HETATM   19  C   UNL     1     -12.799   7.454  71.664  1.00  0.00    -0.367 A  
HETATM   20  F   UNL     1     -11.585   5.517  72.077  1.00  0.00    -0.292 F  
HETATM   21  F   UNL     1     -13.930   6.787  71.934  1.00  0.00    -0.417 F  
HETATM   22  C   UNL     1     -12.865   8.767  71.263  1.00  0.00    -0.250 A  
HETATM   23  C   UNL     1     -11.573   6.821  71.754  1.00  0.00    -0.297 A  
BRANCH  17  24
HETATM   24  N   UNL     1      -9.124   6.759  71.560  1.00  0.00    -0.145 NA 
HETATM   25  H   UNL     1      -8.680   6.721  72.478  1.00  0.00     0.000 HD 
BRANCH  24  26
HETATM   26  C   UNL     1      -8.463   6.082  70.496  1.00  0.00    -0.132 A  
HETATM   27  C   UNL     1      -8.921   4.859  70.003  1.00  0.00    -0.103 A  
HETATM   28  F   UNL     1     -10.049   4.318  70.490  1.00  0.00    -0.274 F  
HETATM   29  C   UNL     1      -8.190   4.134  69.052  1.00  0.00    -0.078 A  
HETATM   30  C   UNL     1      -6.983   4.647  68.580  1.00  0.00    -0.052 A  
HETATM   31  C   UNL     1      -6.512   5.875  69.039  1.00  0.00    -0.049 A  
HETATM   32  I   UNL     1      -5.856   3.577  67.199  1.00  0.00    -0.025 I  
HETATM   33  C   UNL     1      -7.258   6.591  69.982  1.00  0.00    -0.080 A  
ENDBRANCH  24  26
ENDBRANCH  17  24
ENDBRANCH   8  16
TORSDOF 4
ENDMDL
MODEL       95
REMARK 921   NORMALIZED FREE ENERGY PREDICTED BY IDOCK:   -4.74 KCAL/MOL
REMARK 922        TOTAL FREE ENERGY PREDICTED BY IDOCK:   -7.59 KCAL/MOL
REMARK 923 INTER-LIGAND FREE ENERGY PREDICTED BY IDOCK:   -6.26 KCAL/MOL
REMARK 924 INTRA-LIGAND FREE ENERGY PREDICTED BY IDOCK:   -1.34 KCAL/MOL
REMARK 927      BINDING AFFINITY PREDICTED BY RF-SCORE:    0.00 PKD
ROOT
HETATM    1  O   UNL     1     -12.048  13.572  62.615  1.00  0.00    -0.673 OA 
HETATM    2  H   UNL     1     -11.613  14.367  62.328  1.00  0.00     0.000 HD 
HETATM    3  C   UNL     1     -11.519  12.952  63.819  1.00  0.00    -0.459 C  
HETATM    4  C   UNL     1     -12.239  11.636  64.294  1.00  0.00    -0.003 C  
HETATM    5  O   UNL     1     -11.539  10.658  66.857  1.00  0.00    -0.174 OA 
HETATM    6  C   UNL     1     -10.317  11.947  63.619  1.00  0.00    -0.441 C  
HETATM    7  N   UNL     1     -10.884  11.230  64.770  1.00  0.00    -0.281 N  
HETATM    8  C   UNL     1     -10.614  11.050  66.139  1.00  0.00    -0.228 C  
ENDROOT
BRANCH   3   9
HETATM    9  C   UNL     1     -11.184  14.036  64.896  1.00  0.00    -0.362 C  
HETATM   10  C   UNL     1     -11.872  16.044  66.232  1.00  0.00     1.035 C  
HETATM   11  C   UNL     1     -10.524  16.677  65.899  1.00  0.00    -0.324 C  
HETATM   12  H   UNL     1      -9.921  15.172  63.696  1.00  0.00     0.000 HD 
HETATM   13  C   UNL     1     -12.293  15.075  65.114  1.00  0.00     0.048 C  
HETATM   14  C   UNL     1      -9.475  15.600  65.663  1.00  0.00    -0.237 C  
HETATM   15  N   UNL     1      -9.892  14.694  64.596  1.00  0.00     0.087 NA 
ENDBRANCH   3   9
BRANCH   8  16
HETATM   16  C   UNL     1      -9.313  11.432  66.836  1.00  0.00    -0.191 A  
HETATM   17  C   UNL     1      -9.195  12.654  67.579  1.00  0.00    -0.190 A  
HETATM   18  C   UNL     1      -8.139  10.678  66.653  1.00  0.00    -0.136 A  
HETATM   19  C   UNL     1      -6.786  12.254  67.843  1.00  0.00    -0.093 A  
HETATM   20  F   UNL     1      -7.724  14.211  68.672  1.00  0.00    -0.115 F  
HETATM   21  F   UNL     1      -5.588  12.654  68.292  1.00  0.00    -0.051 F  
HETATM   22  C   UNL     1      -6.890  11.075  67.144  1.00  0.00    -0.098 A  
HETATM   23  C   UNL     1      -7.908  13.036  68.050  1.00  0.00    -0.146 A  
BRANCH  17  24
HETATM   24  N   UNL     1     -10.304  13.527  67.813  1.00  0.00    -0.237 NA 
HETATM   25  H   UNL     1     -10.771  13.910  66.990  1.00  0.00     0.000 HD 
BRANCH  24  26
HETATM   26  C   UNL     1     -10.821  13.912  69.083  1.00  0.00    -0.189 A  
HETATM   27  C   UNL     1     -11.758  13.134  69.764  1.00  0.00    -0.280 A  
HETATM   28  F   UNL     1     -12.152  11.956  69.254  1.00  0.00    -0.326 F  
HETATM   29  C   UNL     1     -12.362  13.584  70.946  1.00  0.00    -0.437 A  
HETATM   30  C   UNL     1     -12.014  14.833  71.459  1.00  0.00    -0.353 A  
HETATM   31  C   UNL     1     -11.066  15.621  70.811  1.00  0.00    -0.382 A  
HETATM   32  I   UNL     1     -12.922  15.546  73.188  1.00  0.00    -0.760 I  
HETATM   33  C   UNL     1     -10.466  15.153  69.637  1.00  0.00    -0.261 A  
ENDBRANCH  24  26
ENDBRANCH  17  24
ENDBRANCH   8  16
TORSDOF 4
ENDMDL
MODEL       96
REMARK 921   NORMALIZED FREE ENERGY PREDICTED BY IDOCK:   -4.73 KCAL/MOL
REMARK 922        TOTAL FREE ENERGY PREDICTED BY IDOCK:   -7.58 KCAL/MOL
REMARK 923 INTER-LIGAND FREE ENERGY PREDICTED BY IDOCK:   -7.65 KCAL/MOL
REMARK 924 INTRA-LIGAND FREE ENERGY PREDICTED BY IDOCK:    0.08 KCAL/MOL
REMARK 927      BINDING AFFINITY PREDICTED BY RF-SCORE:    0.00 PKD
ROOT
HETATM    1  O   UNL     1     -13.355  12.118  64.328  1.00  0.00    -0.761 OA 
HETATM    2  H   UNL     1     -13.203  11.212  64.573  1.00  0.00     0.000 HD 
HETATM    3  C   UNL     1     -12.341  13.073  64.743  1.00  0.00    -0.436 C  
HETATM    4  C   UNL     1     -12.593  14.572  64.337  1.00  0.00    -0.153 C  
HETATM    5  O   UNL     1     -10.444  16.374  64.726  1.00  0.00    -0.620 OA 
HETATM    6  C   UNL     1     -12.502  13.680  66.192  1.00  0.00    -0.395 C  
HETATM    7  N   UNL     1     -11.901  14.892  65.620  1.00  0.00    -0.205 N  
HETATM    8  C   UNL     1     -10.666  15.566  65.634  1.00  0.00    -0.366 C  
ENDROOT
BRANCH   3   9
HETATM    9  C   UNL     1     -10.908  12.484  64.527  1.00  0.00    -0.328 C  
HETATM   10  C   UNL     1      -9.262  11.279  63.068  1.00  0.00    -0.310 C  
HETATM   11  C   UNL     1      -8.891  10.414  64.270  1.00  0.00    -0.224 C  
HETATM   12  H   UNL     1     -11.152  10.824  65.755  1.00  0.00     0.000 HD 
HETATM   13  C   UNL     1     -10.719  11.756  63.188  1.00  0.00    -0.319 C  
HETATM   14  C   UNL     1      -9.129  11.176  65.566  1.00  0.00    -0.195 C  
HETATM   15  N   UNL     1     -10.518  11.617  65.662  1.00  0.00    -0.259 NA 
ENDBRANCH   3   9
BRANCH   8  16
HETATM   16  C   UNL     1      -9.520  15.281  66.600  1.00  0.00    -0.281 A  
HETATM   17  C   UNL     1      -9.768  14.942  67.972  1.00  0.00    -0.212 A  
HETATM   18  C   UNL     1      -8.180  15.486  66.223  1.00  0.00     0.123 A  
HETATM   19  C   UNL     1      -7.360  15.077  68.434  1.00  0.00    -0.112 A  
HETATM   20  F   UNL     1      -8.840  14.643  70.171  1.00  0.00     0.263 F  
HETATM   21  F   UNL     1      -6.341  15.010  69.303  1.00  0.00    -0.098 F  
HETATM   22  C   UNL     1      -7.110  15.389  67.119  1.00  0.00    -0.135 A  
HETATM   23  C   UNL     1      -8.659  14.868  68.859  1.00  0.00    -0.177 A  
BRANCH  17  24
HETATM   24  N   UNL     1     -11.085  14.736  68.492  1.00  0.00    -0.253 NA 
HETATM   25  H   UNL     1     -11.771  14.323  67.859  1.00  0.00     0.000 HD 
BRANCH  24  26
HETATM   26  C   UNL     1     -11.531  15.050  69.807  1.00  0.00    -0.295 A  
HETATM   27  C   UNL     1     -11.318  16.307  70.376  1.00  0.00    -0.299 A  
HETATM   28  F   UNL     1     -10.733  17.280  69.659  1.00  0.00    -0.318 F  
HETATM   29  C   UNL     1     -11.637  16.566  71.716  1.00  0.00    -0.207 A  
HETATM   30  C   UNL     1     -12.187  15.551  72.498  1.00  0.00    -0.416 A  
HETATM   31  C   UNL     1     -12.429  14.294  71.949  1.00  0.00    -0.364 A  
HETATM   32  I   UNL     1     -12.634  15.893  74.499  1.00  0.00     0.121 I  
HETATM   33  C   UNL     1     -12.114  14.054  70.608  1.00  0.00    -0.424 A  
ENDBRANCH  24  26
ENDBRANCH  17  24
ENDBRANCH   8  16
TORSDOF 4
ENDMDL
MODEL       97
REMARK 921   NORMALIZED FREE ENERGY PREDICTED BY IDOCK:   -4.73 KCAL/MOL
REMARK 922        TOTAL FREE ENERGY PREDICTED BY IDOCK:   -7.58 KCAL/MOL
REMARK 923 INTER-LIGAND FREE ENERGY PREDICTED BY IDOCK:   -6.73 KCAL/MOL
REMARK 924 INTRA-LIGAND FREE ENERGY PREDICTED BY IDOCK:   -0.84 KCAL/MOL
REMARK 927      BINDING AFFINITY PREDICTED BY RF-SCORE:    0.00 PKD
ROOT
HETATM    1  O   UNL     1     -12.064  10.859  67.841  1.00  0.00    -0.736 OA 
HETATM    2  H   UNL     1     -11.779  10.306  67.123  1.00  0.00     0.000 HD 
HETATM    3  C   UNL     1     -11.468  12.184  67.905  1.00  0.00    -0.328 C  
HETATM    4  C   UNL     1     -11.940  13.099  69.094  1.00  0.00    -0.281 C  
HETATM    5  O   UNL     1     -11.154  15.818  68.994  1.00  0.00    -0.244 OA 
HETATM    6  C   UNL     1     -10.090  12.296  68.669  1.00  0.00    -0.144 C  
HETATM    7  N   UNL     1     -10.549  13.639  69.048  1.00  0.00    -0.176 N  
HETATM    8  C   UNL     1     -10.297  14.979  68.699  1.00  0.00    -0.236 C  
ENDROOT
BRANCH   3   9
HETATM    9  C   UNL     1     -11.383  12.818  66.478  1.00  0.00    -0.322 C  
HETATM   10  C   UNL     1     -12.373  14.280  64.697  1.00  0.00    -0.433 C  
HETATM   11  C   UNL     1     -12.065  13.183  63.681  1.00  0.00    -0.583 C  
HETATM   12  H   UNL     1     -11.855  11.087  65.426  1.00  0.00     0.000 HD 
HETATM   13  C   UNL     1     -12.602  13.666  66.088  1.00  0.00    -0.391 C  
HETATM   14  C   UNL     1     -10.870  12.359  64.136  1.00  0.00    -0.372 C  
HETATM   15  N   UNL     1     -11.109  11.782  65.456  1.00  0.00    -0.301 NA 
ENDBRANCH   3   9
BRANCH   8  16
HETATM   16  C   UNL     1      -9.117  15.462  67.864  1.00  0.00    -0.178 A  
HETATM   17  C   UNL     1      -7.764  15.165  68.241  1.00  0.00    -0.117 A  
HETATM   18  C   UNL     1      -9.301  16.342  66.780  1.00  0.00    -0.258 A  
HETATM   19  C   UNL     1      -6.948  16.651  66.464  1.00  0.00    -0.141 A  
HETATM   20  F   UNL     1      -5.430  15.624  67.890  1.00  0.00    -0.101 F  
HETATM   21  F   UNL     1      -5.928  17.235  65.820  1.00  0.00    -0.183 F  
HETATM   22  C   UNL     1      -8.240  16.932  66.086  1.00  0.00    -0.295 A  
HETATM   23  C   UNL     1      -6.710  15.796  67.523  1.00  0.00    -0.190 A  
BRANCH  17  24
HETATM   24  N   UNL     1      -7.438  14.310  69.340  1.00  0.00    -0.335 NA 
HETATM   25  H   UNL     1      -7.671  14.650  70.274  1.00  0.00     0.000 HD 
BRANCH  24  26
HETATM   26  C   UNL     1      -6.822  13.029  69.258  1.00  0.00    -0.019 A  
HETATM   27  C   UNL     1      -6.826  12.283  68.077  1.00  0.00    -0.082 A  
HETATM   28  F   UNL     1      -7.368  12.796  66.961  1.00  0.00    -0.134 F  
HETATM   29  C   UNL     1      -6.338  10.970  68.040  1.00  0.00    -0.057 A  
HETATM   30  C   UNL     1      -5.829  10.396  69.204  1.00  0.00    -0.037 A  
HETATM   31  C   UNL     1      -5.794  11.124  70.391  1.00  0.00    -0.145 A  
HETATM   32  I   UNL     1      -5.135   8.436  69.191  1.00  0.00    -0.028 I  
HETATM   33  C   UNL     1      -6.275  12.437  70.410  1.00  0.00     0.113 A  
ENDBRANCH  24  26
ENDBRANCH  17  24
ENDBRANCH   8  16
TORSDOF 4
ENDMDL
MODEL       98
REMARK 921   NORMALIZED FREE ENERGY PREDICTED BY IDOCK:   -4.71 KCAL/MOL
REMARK 922        TOTAL FREE ENERGY PREDICTED BY IDOCK:   -7.56 KCAL/MOL
REMARK 923 INTER-LIGAND FREE ENERGY PREDICTED BY IDOCK:   -8.09 KCAL/MOL
REMARK 924 INTRA-LIGAND FREE ENERGY PREDICTED BY IDOCK:    0.53 KCAL/MOL
REMARK 927      BINDING AFFINITY PREDICTED BY RF-SCORE:    0.00 PKD
ROOT
HETATM    1  O   UNL     1      -7.302   8.674  70.952  1.00  0.00    -0.059 OA 
HETATM    2  H   UNL     1      -6.719   9.386  71.190  1.00  0.00     0.000 HD 
HETATM    3  C   UNL     1      -8.097   8.872  69.749  1.00  0.00    -0.109 C  
HETATM    4  C   UNL     1      -9.061   7.694  69.355  1.00  0.00    -0.142 C  
HETATM    5  O   UNL     1     -10.276   7.845  66.802  1.00  0.00    -0.277 OA 
HETATM    6  C   UNL     1      -9.470   9.629  69.934  1.00  0.00    -0.231 C  
HETATM    7  N   UNL     1      -9.948   8.777  68.837  1.00  0.00    -0.186 N  
HETATM    8  C   UNL     1     -10.240   8.887  67.465  1.00  0.00    -0.248 C  
ENDROOT
BRANCH   3   9
HETATM    9  C   UNL     1      -7.232   9.523  68.620  1.00  0.00    -0.074 C  
HETATM   10  C   UNL     1      -6.680  11.508  67.190  1.00  0.00    -0.129 C  
HETATM   11  C   UNL     1      -6.660  10.580  65.979  1.00  0.00    -0.127 C  
HETATM   12  H   UNL     1      -8.143   8.536  67.032  1.00  0.00     0.000 HD 
HETATM   13  C   UNL     1      -7.637  10.961  68.262  1.00  0.00    -0.100 C  
HETATM   14  C   UNL     1      -6.284   9.166  66.400  1.00  0.00    -0.065 C  
HETATM   15  N   UNL     1      -7.206   8.664  67.415  1.00  0.00    -0.080 NA 
ENDBRANCH   3   9
BRANCH   8  16
HETATM   16  C   UNL     1     -10.379  10.198  66.698  1.00  0.00    -0.274 A  
HETATM   17  C   UNL     1     -11.335  11.194  67.091  1.00  0.00    -0.181 A  
HETATM   18  C   UNL     1      -9.685  10.416  65.493  1.00  0.00    -0.307 A  
HETATM   19  C   UNL     1     -10.827  12.474  65.058  1.00  0.00    -0.290 A  
HETATM   20  F   UNL     1     -12.484  13.223  66.503  1.00  0.00    -0.420 F  
HETATM   21  F   UNL     1     -11.057  13.532  64.267  1.00  0.00    -0.356 F  
HETATM   22  C   UNL     1      -9.900  11.533  64.679  1.00  0.00    -0.283 A  
HETATM   23  C   UNL     1     -11.540  12.308  66.231  1.00  0.00    -0.385 A  
BRANCH  17  24
HETATM   24  N   UNL     1     -12.127  11.080  68.277  1.00  0.00    -0.788 NA 
HETATM   25  H   UNL     1     -12.732  10.261  68.351  1.00  0.00     0.000 HD 
BRANCH  24  26
HETATM   26  C   UNL     1     -12.153  11.999  69.364  1.00  0.00    -0.202 A  
HETATM   27  C   UNL     1     -12.740  11.676  70.589  1.00  0.00    -0.138 A  
HETATM   28  F   UNL     1     -13.247  10.449  70.788  1.00  0.00    -0.427 F  
HETATM   29  C   UNL     1     -12.883  12.630  71.605  1.00  0.00    -0.367 A  
HETATM   30  C   UNL     1     -12.421  13.929  71.395  1.00  0.00    -0.340 A  
HETATM   31  C   UNL     1     -11.812  14.273  70.191  1.00  0.00    -0.379 A  
HETATM   32  I   UNL     1     -12.654  15.376  72.869  1.00  0.00    -0.750 I  
HETATM   33  C   UNL     1     -11.669  13.307  69.189  1.00  0.00    -0.379 A  
ENDBRANCH  24  26
ENDBRANCH  17  24
ENDBRANCH   8  16
TORSDOF 4
ENDMDL
MODEL       99
REMARK 921   NORMALIZED FREE ENERGY PREDICTED BY IDOCK:   -4.71 KCAL/MOL
REMARK 922        TOTAL FREE ENERGY PREDICTED BY IDOCK:   -7.56 KCAL/MOL
REMARK 923 INTER-LIGAND FREE ENERGY PREDICTED BY IDOCK:   -6.03 KCAL/MOL
REMARK 924 INTRA-LIGAND FREE ENERGY PREDICTED BY IDOCK:   -1.53 KCAL/MOL
REMARK 927      BINDING AFFINITY PREDICTED BY RF-SCORE:    0.00 PKD
ROOT
HETATM    1  O   UNL     1     -12.608  14.306  63.403  1.00  0.00    -1.067 OA 
HETATM    2  H   UNL     1     -12.128  15.090  63.162  1.00  0.00     0.000 HD 
HETATM    3  C   UNL     1     -11.942  13.409  64.335  1.00  0.00    -0.411 C  
HETATM    4  C   UNL     1     -12.736  12.111  64.734  1.00  0.00     0.039 C  
HETATM    5  O   UNL     1     -11.683  10.582  66.872  1.00  0.00     0.067 OA 
HETATM    6  C   UNL     1     -10.967  12.340  63.703  1.00  0.00    -0.471 C  
HETATM    7  N   UNL     1     -11.388  11.477  64.815  1.00  0.00    -0.196 N  
HETATM    8  C   UNL     1     -10.875  11.006  66.038  1.00  0.00    -0.122 C  
ENDROOT
BRANCH   3   9
HETATM    9  C   UNL     1     -11.240  14.220  65.473  1.00  0.00    -0.320 C  
HETATM   10  C   UNL     1     -11.218  15.057  67.838  1.00  0.00    -0.330 C  
HETATM   11  C   UNL     1     -10.834  16.435  67.304  1.00  0.00    -0.194 C  
HETATM   12  H   UNL     1     -11.697  16.108  64.729  1.00  0.00     0.000 HD 
HETATM   13  C   UNL     1     -12.036  14.290  66.785  1.00  0.00    -0.462 C  
HETATM   14  C   UNL     1     -10.078  16.303  65.990  1.00  0.00    -0.356 C  
HETATM   15  N   UNL     1     -10.872  15.575  65.004  1.00  0.00    -0.434 NA 
ENDBRANCH   3   9
BRANCH   8  16
HETATM   16  C   UNL     1      -9.418  11.102  66.476  1.00  0.00    -0.215 A  
HETATM   17  C   UNL     1      -8.634   9.925  66.724  1.00  0.00    -0.128 A  
HETATM   18  C   UNL     1      -8.832  12.341  66.798  1.00  0.00    -0.195 A  
HETATM   19  C   UNL     1      -6.816  11.327  67.597  1.00  0.00    -0.077 A  
HETATM   20  F   UNL     1      -6.605   9.015  67.639  1.00  0.00    -0.058 F  
HETATM   21  F   UNL     1      -5.601  11.436  68.152  1.00  0.00    -0.043 F  
HETATM   22  C   UNL     1      -7.553  12.462  67.351  1.00  0.00    -0.160 A  
HETATM   23  C   UNL     1      -7.345  10.084  67.303  1.00  0.00    -0.090 A  
BRANCH  17  24
HETATM   24  N   UNL     1      -9.121   8.604  66.469  1.00  0.00    -0.154 NA 
HETATM   25  H   UNL     1      -9.949   8.310  66.988  1.00  0.00     0.000 HD 
BRANCH  24  26
HETATM   26  C   UNL     1      -8.562   7.661  65.561  1.00  0.00    -0.092 A  
HETATM   27  C   UNL     1      -8.207   6.372  65.962  1.00  0.00    -0.126 A  
HETATM   28  F   UNL     1      -8.447   5.970  67.221  1.00  0.00    -0.106 F  
HETATM   29  C   UNL     1      -7.533   5.498  65.099  1.00  0.00    -0.074 A  
HETATM   30  C   UNL     1      -7.217   5.918  63.808  1.00  0.00    -0.056 A  
HETATM   31  C   UNL     1      -7.577   7.192  63.375  1.00  0.00    -0.112 A  
HETATM   32  I   UNL     1      -6.183   4.658  62.518  1.00  0.00    -0.018 I  
HETATM   33  C   UNL     1      -8.258   8.050  64.245  1.00  0.00    -0.070 A  
ENDBRANCH  24  26
ENDBRANCH  17  24
ENDBRANCH   8  16
TORSDOF 4
ENDMDL
MODEL      100
REMARK 921   NORMALIZED FREE ENERGY PREDICTED BY IDOCK:   -4.70 KCAL/MOL
REMARK 922        TOTAL FREE ENERGY PREDICTED BY IDOCK:   -7.55 KCAL/MOL
REMARK 923 INTER-LIGAND FREE ENERGY PREDICTED BY IDOCK:   -6.36 KCAL/MOL
REMARK 924 INTRA-LIGAND FREE ENERGY PREDICTED BY IDOCK:   -1.19 KCAL/MOL
REMARK 927      BINDING AFFINITY PREDICTED BY RF-SCORE:    0.00 PKD
ROOT
HETATM    1  O   UNL     1      -7.898   6.532  74.444  1.00  0.00    -0.107 OA 
HETATM    2  H   UNL     1      -7.433   5.704  74.441  1.00  0.00     0.000 HD 
HETATM    3  C   UNL     1      -8.654   6.845  73.241  1.00  0.00    -0.121 C  
HETATM    4  C   UNL     1      -9.425   8.216  73.245  1.00  0.00    -0.220 C  
HETATM    5  O   UNL     1     -11.256   8.650  71.129  1.00  0.00    -0.250 OA 
HETATM    6  C   UNL     1      -7.858   7.559  72.079  1.00  0.00    -0.090 C  
HETATM    7  N   UNL     1      -9.132   8.226  71.781  1.00  0.00    -0.173 N  
HETATM    8  C   UNL     1     -10.166   8.153  70.829  1.00  0.00    -0.194 C  
ENDROOT
BRANCH   3   9
HETATM    9  C   UNL     1      -9.410   5.578  72.721  1.00  0.00    -0.138 C  
HETATM   10  C   UNL     1     -11.059   3.729  73.113  1.00  0.00    -0.201 C  
HETATM   11  C   UNL     1     -10.047   2.754  72.517  1.00  0.00    -0.235 C  
HETATM   12  H   UNL     1      -7.797   4.272  72.860  1.00  0.00     0.000 HD 
HETATM   13  C   UNL     1     -10.331   4.919  73.759  1.00  0.00    -0.273 C  
HETATM   14  C   UNL     1      -9.144   3.469  71.522  1.00  0.00    -0.112 C  
HETATM   15  N   UNL     1      -8.460   4.593  72.155  1.00  0.00    -0.116 NA 
ENDBRANCH   3   9
BRANCH   8  16
HETATM   16  C   UNL     1     -10.095   7.388  69.512  1.00  0.00    -0.187 A  
HETATM   17  C   UNL     1      -9.701   8.037  68.293  1.00  0.00    -0.164 A  
HETATM   18  C   UNL     1     -10.555   6.062  69.411  1.00  0.00    -0.365 A  
HETATM   19  C   UNL     1     -10.286   6.012  67.033  1.00  0.00    -0.240 A  
HETATM   20  F   UNL     1      -9.561   7.903  65.896  1.00  0.00    -0.197 F  
HETATM   21  F   UNL     1     -10.405   5.369  65.863  1.00  0.00    -0.190 F  
HETATM   22  C   UNL     1     -10.654   5.376  68.196  1.00  0.00    -0.146 A  
HETATM   23  C   UNL     1      -9.830   7.316  67.074  1.00  0.00    -0.203 A  
BRANCH  17  24
HETATM   24  N   UNL     1      -9.242   9.391  68.252  1.00  0.00    -0.131 NA 
HETATM   25  H   UNL     1      -8.365   9.596  68.731  1.00  0.00     0.000 HD 
BRANCH  24  26
HETATM   26  C   UNL     1      -9.892  10.482  67.606  1.00  0.00    -0.166 A  
HETATM   27  C   UNL     1     -11.008  11.109  68.163  1.00  0.00    -0.238 A  
HETATM   28  F   UNL     1     -11.461  10.729  69.369  1.00  0.00    -0.245 F  
HETATM   29  C   UNL     1     -11.723  12.088  67.460  1.00  0.00    -0.351 A  
HETATM   30  C   UNL     1     -11.308  12.452  66.180  1.00  0.00    -0.352 A  
HETATM   31  C   UNL     1     -10.186  11.857  65.609  1.00  0.00    -0.280 A  
HETATM   32  I   UNL     1     -12.371  13.872  65.097  1.00  0.00    -0.454 I  
HETATM   33  C   UNL     1      -9.477  10.888  66.327  1.00  0.00    -0.222 A  
ENDBRANCH  24  26
ENDBRANCH  17  24
ENDBRANCH   8  16
TORSDOF 4
ENDMDL
MODEL      101
REMARK 921   NORMALIZED FREE ENERGY PREDICTED BY IDOCK:   -4.70 KCAL/MOL
REMARK 922        TOTAL FREE ENERGY PREDICTED BY IDOCK:   -7.55 KCAL/MOL
REMARK 923 INTER-LIGAND FREE ENERGY PREDICTED BY IDOCK:   -6.39 KCAL/MOL
REMARK 924 INTRA-LIGAND FREE ENERGY PREDICTED BY IDOCK:   -1.15 KCAL/MOL
REMARK 927      BINDING AFFINITY PREDICTED BY RF-SCORE:    0.00 PKD
ROOT
HETATM    1  O   UNL     1     -12.145  13.791  71.192  1.00  0.00    -0.424 OA 
HETATM    2  H   UNL     1     -11.839  13.384  71.995  1.00  0.00     0.000 HD 
HETATM    3  C   UNL     1     -11.841  13.082  69.959  1.00  0.00    -0.285 C  
HETATM    4  C   UNL     1     -12.349  13.754  68.631  1.00  0.00     0.021 C  
HETATM    5  O   UNL     1     -12.178  12.198  66.272  1.00  0.00    -0.604 OA 
HETATM    6  C   UNL     1     -10.437  13.386  69.305  1.00  0.00     0.164 C  
HETATM    7  N   UNL     1     -11.121  13.161  68.024  1.00  0.00    -0.252 N  
HETATM    8  C   UNL     1     -11.204  12.167  67.031  1.00  0.00    -0.314 C  
ENDROOT
BRANCH   3   9
HETATM    9  C   UNL     1     -12.068  11.545  70.138  1.00  0.00    -0.351 C  
HETATM   10  C   UNL     1     -13.238   9.649  71.290  1.00  0.00    -0.429 C  
HETATM   11  C   UNL     1     -11.885   8.960  71.444  1.00  0.00    -0.383 C  
HETATM   12  H   UNL     1     -10.292  11.164  71.150  1.00  0.00     0.000 HD 
HETATM   13  C   UNL     1     -13.055  11.176  71.255  1.00  0.00    -0.353 C  
HETATM   14  C   UNL     1     -10.942   9.388  70.329  1.00  0.00    -0.262 C  
HETATM   15  N   UNL     1     -10.778  10.839  70.315  1.00  0.00    -0.025 NA 
ENDBRANCH   3   9
BRANCH   8  16
HETATM   16  C   UNL     1     -10.265  10.974  66.902  1.00  0.00    -0.263 A  
HETATM   17  C   UNL     1      -8.895  11.142  66.508  1.00  0.00    -0.171 A  
HETATM   18  C   UNL     1     -10.741   9.654  67.017  1.00  0.00    -0.225 A  
HETATM   19  C   UNL     1      -8.644   8.703  66.362  1.00  0.00    -0.119 A  
HETATM   20  F   UNL     1      -6.867  10.078  65.772  1.00  0.00    -0.086 F  
HETATM   21  F   UNL     1      -7.891   7.630  66.081  1.00  0.00    -0.085 F  
HETATM   22  C   UNL     1      -9.951   8.530  66.752  1.00  0.00    -0.351 A  
HETATM   23  C   UNL     1      -8.126   9.978  66.231  1.00  0.00    -0.117 A  
BRANCH  17  24
HETATM   24  N   UNL     1      -8.295  12.427  66.327  1.00  0.00    -0.370 NA 
HETATM   25  H   UNL     1      -8.278  12.799  65.376  1.00  0.00     0.000 HD 
BRANCH  24  26
HETATM   26  C   UNL     1      -7.718  13.239  67.345  1.00  0.00    -0.140 A  
HETATM   27  C   UNL     1      -7.721  14.633  67.267  1.00  0.00    -0.169 A  
HETATM   28  F   UNL     1      -8.332  15.247  66.241  1.00  0.00    -0.276 F  
HETATM   29  C   UNL     1      -7.033  15.418  68.201  1.00  0.00    -0.131 A  
HETATM   30  C   UNL     1      -6.338  14.798  69.239  1.00  0.00    -0.115 A  
HETATM   31  C   UNL     1      -6.336  13.409  69.352  1.00  0.00    -0.111 A  
HETATM   32  I   UNL     1      -5.276  15.935  70.618  1.00  0.00    -0.073 I  
HETATM   33  C   UNL     1      -7.034  12.639  68.417  1.00  0.00    -0.094 A  
ENDBRANCH  24  26
ENDBRANCH  17  24
ENDBRANCH   8  16
TORSDOF 4
ENDMDL
MODEL      102
REMARK 921   NORMALIZED FREE ENERGY PREDICTED BY IDOCK:   -4.69 KCAL/MOL
REMARK 922        TOTAL FREE ENERGY PREDICTED BY IDOCK:   -7.53 KCAL/MOL
REMARK 923 INTER-LIGAND FREE ENERGY PREDICTED BY IDOCK:   -6.67 KCAL/MOL
REMARK 924 INTRA-LIGAND FREE ENERGY PREDICTED BY IDOCK:   -0.86 KCAL/MOL
REMARK 927      BINDING AFFINITY PREDICTED BY RF-SCORE:    0.00 PKD
ROOT
HETATM    1  O   UNL     1      -6.954  10.112  67.001  1.00  0.00    -0.085 OA 
HETATM    2  H   UNL     1      -6.779  11.043  67.068  1.00  0.00     0.000 HD 
HETATM    3  C   UNL     1      -8.158   9.638  67.666  1.00  0.00    -0.113 C  
HETATM    4  C   UNL     1      -8.448   8.096  67.557  1.00  0.00    -0.126 C  
HETATM    5  O   UNL     1     -10.990   7.214  68.440  1.00  0.00    -0.133 OA 
HETATM    6  C   UNL     1      -8.014   9.268  69.195  1.00  0.00    -0.097 C  
HETATM    7  N   UNL     1      -9.037   8.250  68.919  1.00  0.00    -0.147 N  
HETATM    8  C   UNL     1     -10.410   8.042  69.149  1.00  0.00    -0.220 C  
ENDROOT
BRANCH   3   9
HETATM    9  C   UNL     1      -9.345  10.628  67.427  1.00  0.00    -0.143 C  
HETATM   10  C   UNL     1     -10.776  11.949  65.847  1.00  0.00    -0.326 C  
HETATM   11  C   UNL     1     -10.615  13.153  66.772  1.00  0.00    -0.267 C  
HETATM   12  H   UNL     1      -8.357  12.337  68.083  1.00  0.00     0.000 HD 
HETATM   13  C   UNL     1      -9.550  11.028  65.959  1.00  0.00    -0.249 C  
HETATM   14  C   UNL     1     -10.384  12.694  68.205  1.00  0.00    -0.234 C  
HETATM   15  N   UNL     1      -9.215  11.824  68.290  1.00  0.00    -0.185 NA 
ENDBRANCH   3   9
BRANCH   8  16
HETATM   16  C   UNL     1     -11.272   8.855  70.108  1.00  0.00    -0.175 A  
HETATM   17  C   UNL     1     -12.184   8.216  71.015  1.00  0.00    -0.177 A  
HETATM   18  C   UNL     1     -11.318  10.260  70.038  1.00  0.00    -0.370 A  
HETATM   19  C   UNL     1     -13.087  10.412  71.644  1.00  0.00    -0.448 A  
HETATM   20  F   UNL     1     -14.020   8.485  72.544  1.00  0.00    -0.381 F  
HETATM   21  F   UNL     1     -13.961  11.148  72.345  1.00  0.00    -0.192 F  
HETATM   22  C   UNL     1     -12.209  11.035  70.789  1.00  0.00    -0.480 A  
HETATM   23  C   UNL     1     -13.087   9.034  71.750  1.00  0.00    -0.381 A  
BRANCH  17  24
HETATM   24  N   UNL     1     -12.260   6.795  71.162  1.00  0.00    -0.375 NA 
HETATM   25  H   UNL     1     -13.060   6.329  70.733  1.00  0.00     0.000 HD 
BRANCH  24  26
HETATM   26  C   UNL     1     -11.326   5.968  71.849  1.00  0.00    -0.279 A  
HETATM   27  C   UNL     1     -10.650   4.929  71.207  1.00  0.00    -0.023 A  
HETATM   28  F   UNL     1     -10.825   4.725  69.892  1.00  0.00    -0.164 F  
HETATM   29  C   UNL     1      -9.838   4.036  71.919  1.00  0.00    -0.247 A  
HETATM   30  C   UNL     1      -9.692   4.192  73.297  1.00  0.00    -0.120 A  
HETATM   31  C   UNL     1     -10.339   5.233  73.959  1.00  0.00    -0.301 A  
HETATM   32  I   UNL     1      -8.526   2.860  74.386  1.00  0.00    -0.073 I  
HETATM   33  C   UNL     1     -11.139   6.122  73.233  1.00  0.00    -0.160 A  
ENDBRANCH  24  26
ENDBRANCH  17  24
ENDBRANCH   8  16
TORSDOF 4
ENDMDL
MODEL      103
REMARK 921   NORMALIZED FREE ENERGY PREDICTED BY IDOCK:   -4.68 KCAL/MOL
REMARK 922        TOTAL FREE ENERGY PREDICTED BY IDOCK:   -7.52 KCAL/MOL
REMARK 923 INTER-LIGAND FREE ENERGY PREDICTED BY IDOCK:   -5.90 KCAL/MOL
REMARK 924 INTRA-LIGAND FREE ENERGY PREDICTED BY IDOCK:   -1.63 KCAL/MOL
REMARK 927      BINDING AFFINITY PREDICTED BY RF-SCORE:    0.00 PKD
ROOT
HETATM    1  O   UNL     1      -6.368   5.724  65.093  1.00  0.00    -0.035 OA 
HETATM    2  H   UNL     1      -5.563   6.183  64.884  1.00  0.00     0.000 HD 
HETATM    3  C   UNL     1      -7.437   6.534  65.658  1.00  0.00    -0.082 C  
HETATM    4  C   UNL     1      -8.771   5.775  66.003  1.00  0.00    -0.146 C  
HETATM    5  O   UNL     1     -11.007   7.377  66.673  1.00  0.00    -0.119 OA 
HETATM    6  C   UNL     1      -7.413   6.730  67.224  1.00  0.00    -0.096 C  
HETATM    7  N   UNL     1      -8.878   6.759  67.121  1.00  0.00    -0.118 N  
HETATM    8  C   UNL     1      -9.922   7.702  67.166  1.00  0.00    -0.229 C  
ENDROOT
BRANCH   3   9
HETATM    9  C   UNL     1      -7.543   7.904  64.911  1.00  0.00    -0.104 C  
HETATM   10  C   UNL     1      -8.095   9.202  62.838  1.00  0.00    -0.157 C  
HETATM   11  C   UNL     1      -6.789   9.971  63.019  1.00  0.00    -0.128 C  
HETATM   12  H   UNL     1      -5.500   8.172  64.627  1.00  0.00     0.000 HD 
HETATM   13  C   UNL     1      -7.969   7.793  63.440  1.00  0.00    -0.107 C  
HETATM   14  C   UNL     1      -6.403  10.020  64.490  1.00  0.00    -0.130 C  
HETATM   15  N   UNL     1      -6.285   8.673  65.042  1.00  0.00    -0.060 NA 
ENDBRANCH   3   9
BRANCH   8  16
HETATM   16  C   UNL     1      -9.785   9.141  67.648  1.00  0.00    -0.198 A  
HETATM   17  C   UNL     1     -10.588   9.647  68.725  1.00  0.00    -0.216 A  
HETATM   18  C   UNL     1      -8.980  10.069  66.960  1.00  0.00    -0.152 A  
HETATM   19  C   UNL     1      -9.729  11.908  68.297  1.00  0.00    -0.200 A  
HETATM   20  F   UNL     1     -11.337  11.582  69.941  1.00  0.00    -0.311 F  
HETATM   21  F   UNL     1      -9.721  13.217  68.581  1.00  0.00    -0.217 F  
HETATM   22  C   UNL     1      -8.946  11.432  67.271  1.00  0.00    -0.159 A  
HETATM   23  C   UNL     1     -10.541  11.041  69.004  1.00  0.00    -0.225 A  
BRANCH  17  24
HETATM   24  N   UNL     1     -11.471   8.818  69.486  1.00  0.00    -0.332 NA 
HETATM   25  H   UNL     1     -12.457   8.831  69.224  1.00  0.00     0.000 HD 
BRANCH  24  26
HETATM   26  C   UNL     1     -11.106   7.975  70.575  1.00  0.00    -0.251 A  
HETATM   27  C   UNL     1     -11.263   6.589  70.519  1.00  0.00    -0.344 A  
HETATM   28  F   UNL     1     -11.712   6.008  69.395  1.00  0.00    -0.458 F  
HETATM   29  C   UNL     1     -11.031   5.782  71.641  1.00  0.00    -0.308 A  
HETATM   30  C   UNL     1     -10.625   6.372  72.838  1.00  0.00    -0.235 A  
HETATM   31  C   UNL     1     -10.441   7.750  72.915  1.00  0.00    -0.412 A  
HETATM   32  I   UNL     1     -10.312   5.205  74.529  1.00  0.00     0.003 I  
HETATM   33  C   UNL     1     -10.668   8.542  71.784  1.00  0.00    -0.373 A  
ENDBRANCH  24  26
ENDBRANCH  17  24
ENDBRANCH   8  16
TORSDOF 4
ENDMDL
MODEL      104
REMARK 921   NORMALIZED FREE ENERGY PREDICTED BY IDOCK:   -4.67 KCAL/MOL
REMARK 922        TOTAL FREE ENERGY PREDICTED BY IDOCK:   -7.51 KCAL/MOL
REMARK 923 INTER-LIGAND FREE ENERGY PREDICTED BY IDOCK:   -6.31 KCAL/MOL
REMARK 924 INTRA-LIGAND FREE ENERGY PREDICTED BY IDOCK:   -1.20 KCAL/MOL
REMARK 927      BINDING AFFINITY PREDICTED BY RF-SCORE:    0.00 PKD
ROOT
HETATM    1  O   UNL     1      -9.447   8.988  64.950  1.00  0.00    -0.435 OA 
HETATM    2  H   UNL     1     -10.073   8.273  64.948  1.00  0.00     0.000 HD 
HETATM    3  C   UNL     1      -9.573   9.945  66.039  1.00  0.00    -0.225 C  
HETATM    4  C   UNL     1      -8.538  11.129  66.043  1.00  0.00    -0.154 C  
HETATM    5  O   UNL     1      -8.460  12.742  68.369  1.00  0.00    -0.164 OA 
HETATM    6  C   UNL     1     -10.585  11.136  65.811  1.00  0.00    -0.227 C  
HETATM    7  N   UNL     1      -9.656  11.922  66.633  1.00  0.00    -0.204 N  
HETATM    8  C   UNL     1      -9.577  12.434  67.941  1.00  0.00    -0.205 C  
ENDROOT
BRANCH   3   9
HETATM    9  C   UNL     1      -9.852   9.208  67.390  1.00  0.00    -0.184 C  
HETATM   10  C   UNL     1      -9.082   8.503  69.670  1.00  0.00    -0.149 C  
HETATM   11  C   UNL     1      -9.616   7.104  69.373  1.00  0.00    -0.153 C  
HETATM   12  H   UNL     1      -9.662   7.276  66.644  1.00  0.00     0.000 HD 
HETATM   13  C   UNL     1      -8.665   9.199  68.363  1.00  0.00    -0.129 C  
HETATM   14  C   UNL     1     -10.767   7.174  68.381  1.00  0.00    -0.147 C  
HETATM   15  N   UNL     1     -10.350   7.835  67.147  1.00  0.00    -0.290 NA 
ENDBRANCH   3   9
BRANCH   8  16
HETATM   16  C   UNL     1     -10.738  12.510  68.927  1.00  0.00    -0.202 A  
HETATM   17  C   UNL     1     -10.841  13.581  69.877  1.00  0.00     0.454 A  
HETATM   18  C   UNL     1     -11.668  11.459  69.043  1.00  0.00    -0.409 A  
HETATM   19  C   UNL     1     -12.733  12.439  70.949  1.00  0.00    -0.185 A  
HETATM   20  F   UNL     1     -11.927  14.422  71.851  1.00  0.00    -0.371 F  
HETATM   21  F   UNL     1     -13.657  12.389  71.919  1.00  0.00    -0.492 F  
HETATM   22  C   UNL     1     -12.652  11.415  70.035  1.00  0.00    -0.125 A  
HETATM   23  C   UNL     1     -11.843  13.495  70.883  1.00  0.00     0.072 A  
BRANCH  17  24
HETATM   24  N   UNL     1      -9.942  14.693  69.888  1.00  0.00    -0.375 NA 
HETATM   25  H   UNL     1      -9.253  14.722  70.640  1.00  0.00     0.000 HD 
BRANCH  24  26
HETATM   26  C   UNL     1      -9.916  15.765  68.950  1.00  0.00    -0.223 A  
HETATM   27  C   UNL     1      -8.787  16.568  68.780  1.00  0.00    -0.255 A  
HETATM   28  F   UNL     1      -7.664  16.302  69.465  1.00  0.00    -0.235 F  
HETATM   29  C   UNL     1      -8.815  17.701  67.957  1.00  0.00    -0.257 A  
HETATM   30  C   UNL     1      -9.991  18.032  67.285  1.00  0.00    -0.323 A  
HETATM   31  C   UNL     1     -11.126  17.236  67.421  1.00  0.00     0.086 A  
HETATM   32  I   UNL     1     -10.075  19.730  66.088  1.00  0.00    -0.459 I  
HETATM   33  C   UNL     1     -11.080  16.103  68.239  1.00  0.00    -0.348 A  
ENDBRANCH  24  26
ENDBRANCH  17  24
ENDBRANCH   8  16
TORSDOF 4
ENDMDL
MODEL      105
REMARK 921   NORMALIZED FREE ENERGY PREDICTED BY IDOCK:   -4.67 KCAL/MOL
REMARK 922        TOTAL FREE ENERGY PREDICTED BY IDOCK:   -7.51 KCAL/MOL
REMARK 923 INTER-LIGAND FREE ENERGY PREDICTED BY IDOCK:   -6.03 KCAL/MOL
REMARK 924 INTRA-LIGAND FREE ENERGY PREDICTED BY IDOCK:   -1.48 KCAL/MOL
REMARK 927      BINDING AFFINITY PREDICTED BY RF-SCORE:    0.00 PKD
ROOT
HETATM    1  O   UNL     1      -8.984  15.862  67.498  1.00  0.00    -0.190 OA 
HETATM    2  H   UNL     1      -8.655  16.190  68.327  1.00  0.00     0.000 HD 
HETATM    3  C   UNL     1      -9.585  14.538  67.526  1.00  0.00    -0.210 C  
HETATM    4  C   UNL     1     -10.129  13.995  66.154  1.00  0.00    -0.309 C  
HETATM    5  O   UNL     1     -11.697  11.640  66.249  1.00  0.00    -0.443 OA 
HETATM    6  C   UNL     1      -8.597  13.317  67.354  1.00  0.00    -0.204 C  
HETATM    7  N   UNL     1      -9.724  12.659  66.679  1.00  0.00    -0.243 N  
HETATM    8  C   UNL     1     -10.678  11.660  66.947  1.00  0.00    -0.257 C  
ENDROOT
BRANCH   3   9
HETATM    9  C   UNL     1     -10.487  14.369  68.793  1.00  0.00    -0.244 C  
HETATM   10  C   UNL     1     -12.769  14.171  69.814  1.00  0.00     0.005 C  
HETATM   11  C   UNL     1     -12.340  15.188  70.870  1.00  0.00    -0.412 C  
HETATM   12  H   UNL     1     -10.253  16.310  69.504  1.00  0.00     0.000 HD 
HETATM   13  C   UNL     1     -11.995  14.407  68.506  1.00  0.00    -0.333 C  
HETATM   14  C   UNL     1     -10.836  15.125  71.087  1.00  0.00    -0.021 C  
HETATM   15  N   UNL     1     -10.120  15.355  69.835  1.00  0.00    -0.270 NA 
ENDBRANCH   3   9
BRANCH   8  16
HETATM   16  C   UNL     1     -10.625  10.685  68.118  1.00  0.00    -0.237 A  
HETATM   17  C   UNL     1     -10.622   9.265  67.908  1.00  0.00    -0.231 A  
HETATM   18  C   UNL     1     -10.728  11.135  69.448  1.00  0.00    -0.220 A  
HETATM   19  C   UNL     1     -10.850   8.911  70.328  1.00  0.00    -0.239 A  
HETATM   20  F   UNL     1     -10.847   7.084  68.894  1.00  0.00    -0.212 F  
HETATM   21  F   UNL     1     -10.985   8.079  71.369  1.00  0.00    -0.236 F  
HETATM   22  C   UNL     1     -10.840  10.269  70.542  1.00  0.00    -0.281 A  
HETATM   23  C   UNL     1     -10.754   8.415  69.041  1.00  0.00    -0.080 A  
BRANCH  17  24
HETATM   24  N   UNL     1     -10.551   8.677  66.606  1.00  0.00    -0.218 NA 
HETATM   25  H   UNL     1     -11.413   8.658  66.061  1.00  0.00     0.000 HD 
BRANCH  24  26
HETATM   26  C   UNL     1      -9.392   8.116  65.997  1.00  0.00    -0.117 A  
HETATM   27  C   UNL     1      -8.625   8.830  65.075  1.00  0.00    -0.169 A  
HETATM   28  F   UNL     1      -8.935  10.104  64.786  1.00  0.00    -0.161 F  
HETATM   29  C   UNL     1      -7.569   8.226  64.380  1.00  0.00    -0.113 A  
HETATM   30  C   UNL     1      -7.270   6.885  64.618  1.00  0.00    -0.076 A  
HETATM   31  C   UNL     1      -8.007   6.155  65.547  1.00  0.00    -0.117 A  
HETATM   32  I   UNL     1      -5.735   5.950  63.573  1.00  0.00    -0.022 I  
HETATM   33  C   UNL     1      -9.052   6.774  66.240  1.00  0.00    -0.165 A  
ENDBRANCH  24  26
ENDBRANCH  17  24
ENDBRANCH   8  16
TORSDOF 4
ENDMDL
MODEL      106
REMARK 921   NORMALIZED FREE ENERGY PREDICTED BY IDOCK:   -4.55 KCAL/MOL
REMARK 922        TOTAL FREE ENERGY PREDICTED BY IDOCK:   -7.36 KCAL/MOL
REMARK 923 INTER-LIGAND FREE ENERGY PREDICTED BY IDOCK:   -5.93 KCAL/MOL
REMARK 924 INTRA-LIGAND FREE ENERGY PREDICTED BY IDOCK:   -1.43 KCAL/MOL
REMARK 927      BINDING AFFINITY PREDICTED BY RF-SCORE:    0.00 PKD
ROOT
HETATM    1  O   UNL     1     -14.003   7.264  71.116  1.00  0.00    -0.573 OA 
HETATM    2  H   UNL     1     -14.439   7.830  70.490  1.00  0.00     0.000 HD 
HETATM    3  C   UNL     1     -12.554   7.379  71.183  1.00  0.00    -0.293 C  
HETATM    4  C   UNL     1     -11.833   6.442  72.219  1.00  0.00    -0.271 C  
HETATM    5  O   UNL     1      -9.089   6.952  72.699  1.00  0.00    -0.135 OA 
HETATM    6  C   UNL     1     -11.734   6.497  70.161  1.00  0.00    -0.353 C  
HETATM    7  N   UNL     1     -10.721   6.428  71.223  1.00  0.00    -0.233 N  
HETATM    8  C   UNL     1      -9.465   6.987  71.523  1.00  0.00    -0.154 C  
ENDROOT
BRANCH   3   9
HETATM    9  C   UNL     1     -12.119   8.880  71.121  1.00  0.00    -0.277 C  
HETATM   10  C   UNL     1     -12.558  11.286  71.677  1.00  0.00    -0.357 C  
HETATM   11  C   UNL     1     -12.200  11.642  70.237  1.00  0.00    -0.401 C  
HETATM   12  H   UNL     1     -12.593   9.177  69.118  1.00  0.00     0.000 HD 
HETATM   13  C   UNL     1     -13.125   9.858  71.745  1.00  0.00    -0.553 C  
HETATM   14  C   UNL     1     -11.228  10.622  69.663  1.00  0.00    -0.289 C  
HETATM   15  N   UNL     1     -11.786   9.275  69.733  1.00  0.00     0.168 NA 
ENDBRANCH   3   9
BRANCH   8  16
HETATM   16  C   UNL     1      -8.590   7.758  70.541  1.00  0.00    -0.132 A  
HETATM   17  C   UNL     1      -7.868   7.085  69.498  1.00  0.00    -0.119 A  
HETATM   18  C   UNL     1      -8.337   9.132  70.711  1.00  0.00    -0.248 A  
HETATM   19  C   UNL     1      -6.724   9.187  68.943  1.00  0.00    -0.052 A  
HETATM   20  F   UNL     1      -6.165   7.239  67.807  1.00  0.00    -0.038 F  
HETATM   21  F   UNL     1      -5.824   9.857  68.210  1.00  0.00    -0.043 F  
HETATM   22  C   UNL     1      -7.420   9.844  69.930  1.00  0.00    -0.156 A  
HETATM   23  C   UNL     1      -6.932   7.836  68.734  1.00  0.00    -0.067 A  
BRANCH  17  24
HETATM   24  N   UNL     1      -8.010   5.686  69.238  1.00  0.00    -0.095 NA 
HETATM   25  H   UNL     1      -7.715   5.047  69.977  1.00  0.00     0.000 HD 
BRANCH  24  26
HETATM   26  C   UNL     1      -8.525   5.098  68.047  1.00  0.00    -0.100 A  
HETATM   27  C   UNL     1      -7.712   4.374  67.173  1.00  0.00    -0.089 A  
HETATM   28  F   UNL     1      -6.421   4.161  67.475  1.00  0.00    -0.034 F  
HETATM   29  C   UNL     1      -8.193   3.916  65.939  1.00  0.00    -0.105 A  
HETATM   30  C   UNL     1      -9.514   4.181  65.577  1.00  0.00    -0.176 A  
HETATM   31  C   UNL     1     -10.351   4.884  66.440  1.00  0.00    -0.328 A  
HETATM   32  I   UNL     1     -10.244   3.549  63.737  1.00  0.00    -0.243 I  
HETATM   33  C   UNL     1      -9.860   5.326  67.672  1.00  0.00    -0.187 A  
ENDBRANCH  24  26
ENDBRANCH  17  24
ENDBRANCH   8  16
TORSDOF 4
ENDMDL
MODEL      107
REMARK 921   NORMALIZED FREE ENERGY PREDICTED BY IDOCK:   -4.55 KCAL/MOL
REMARK 922        TOTAL FREE ENERGY PREDICTED BY IDOCK:   -7.36 KCAL/MOL
REMARK 923 INTER-LIGAND FREE ENERGY PREDICTED BY IDOCK:   -5.70 KCAL/MOL
REMARK 924 INTRA-LIGAND FREE ENERGY PREDICTED BY IDOCK:   -1.66 KCAL/MOL
REMARK 927      BINDING AFFINITY PREDICTED BY RF-SCORE:    0.00 PKD
ROOT
HETATM    1  O   UNL     1     -11.756   6.396  67.870  1.00  0.00    -0.490 OA 
HETATM    2  H   UNL     1     -12.441   6.792  68.396  1.00  0.00     0.000 HD 
HETATM    3  C   UNL     1     -10.408   6.894  68.094  1.00  0.00    -0.190 C  
HETATM    4  C   UNL     1      -9.274   6.239  67.223  1.00  0.00    -0.118 C  
HETATM    5  O   UNL     1      -6.605   6.851  67.941  1.00  0.00    -0.054 OA 
HETATM    6  C   UNL     1      -9.988   8.171  67.266  1.00  0.00    -0.218 C  
HETATM    7  N   UNL     1      -8.640   7.588  67.282  1.00  0.00    -0.117 N  
HETATM    8  C   UNL     1      -7.410   7.788  67.937  1.00  0.00    -0.102 C  
ENDROOT
BRANCH   3   9
HETATM    9  C   UNL     1     -10.141   7.090  69.622  1.00  0.00    -0.186 C  
HETATM   10  C   UNL     1     -10.314   6.241  71.976  1.00  0.00    -0.231 C  
HETATM   11  C   UNL     1     -10.807   7.624  72.395  1.00  0.00    -0.341 C  
HETATM   12  H   UNL     1     -11.633   8.503  69.940  1.00  0.00     0.000 HD 
HETATM   13  C   UNL     1     -10.692   5.966  70.511  1.00  0.00    -0.363 C  
HETATM   14  C   UNL     1     -10.254   8.690  71.461  1.00  0.00    -0.274 C  
HETATM   15  N   UNL     1     -10.627   8.412  70.077  1.00  0.00    -0.232 NA 
ENDBRANCH   3   9
BRANCH   8  16
HETATM   16  C   UNL     1      -7.043   9.017  68.761  1.00  0.00    -0.070 A  
HETATM   17  C   UNL     1      -6.766  10.279  68.136  1.00  0.00    -0.058 A  
HETATM   18  C   UNL     1      -6.816   8.925  70.148  1.00  0.00    -0.042 A  
HETATM   19  C   UNL     1      -6.052  11.188  70.304  1.00  0.00    -0.144 A  
HETATM   20  F   UNL     1      -5.893  12.505  68.397  1.00  0.00    -0.053 F  
HETATM   21  F   UNL     1      -5.558  12.201  71.029  1.00  0.00    -0.155 F  
HETATM   22  C   UNL     1      -6.328   9.988  70.915  1.00  0.00    -0.030 A  
HETATM   23  C   UNL     1      -6.254  11.333  68.944  1.00  0.00    -0.052 A  
BRANCH  17  24
HETATM   24  N   UNL     1      -6.926  10.498  66.732  1.00  0.00    -0.098 NA 
HETATM   25  H   UNL     1      -6.097  10.379  66.149  1.00  0.00     0.000 HD 
BRANCH  24  26
HETATM   26  C   UNL     1      -8.132  10.866  66.069  1.00  0.00    -0.142 A  
HETATM   27  C   UNL     1      -8.424  10.431  64.775  1.00  0.00    -0.173 A  
HETATM   28  F   UNL     1      -7.586   9.593  64.143  1.00  0.00    -0.110 F  
HETATM   29  C   UNL     1      -9.543  10.906  64.080  1.00  0.00    -0.321 A  
HETATM   30  C   UNL     1     -10.392  11.826  64.694  1.00  0.00    -0.290 A  
HETATM   31  C   UNL     1     -10.135  12.261  65.992  1.00  0.00    -0.269 A  
HETATM   32  I   UNL     1     -12.039  12.579  63.674  1.00  0.00    -0.583 I  
HETATM   33  C   UNL     1      -9.019  11.770  66.677  1.00  0.00    -0.195 A  
ENDBRANCH  24  26
ENDBRANCH  17  24
ENDBRANCH   8  16
TORSDOF 4
ENDMDL
MODEL      108
REMARK 921   NORMALIZED FREE ENERGY PREDICTED BY IDOCK:   -4.53 KCAL/MOL
REMARK 922        TOTAL FREE ENERGY PREDICTED BY IDOCK:   -7.33 KCAL/MOL
REMARK 923 INTER-LIGAND FREE ENERGY PREDICTED BY IDOCK:   -5.78 KCAL/MOL
REMARK 924 INTRA-LIGAND FREE ENERGY PREDICTED BY IDOCK:   -1.56 KCAL/MOL
REMARK 927      BINDING AFFINITY PREDICTED BY RF-SCORE:    0.00 PKD
ROOT
HETATM    1  O   UNL     1     -13.306   9.702  70.678  1.00  0.00    -0.593 OA 
HETATM    2  H   UNL     1     -13.901  10.046  70.022  1.00  0.00     0.000 HD 
HETATM    3  C   UNL     1     -11.887   9.812  70.376  1.00  0.00    -0.193 C  
HETATM    4  C   UNL     1     -10.902   9.242  71.462  1.00  0.00    -0.372 C  
HETATM    5  O   UNL     1      -8.155   9.840  71.126  1.00  0.00    -0.153 OA 
HETATM    6  C   UNL     1     -11.260   8.640  69.524  1.00  0.00     0.143 C  
HETATM    7  N   UNL     1     -10.037   8.897  70.297  1.00  0.00    -0.181 N  
HETATM    8  C   UNL     1      -8.781   9.505  70.114  1.00  0.00    -0.230 C  
ENDROOT
BRANCH   3   9
HETATM    9  C   UNL     1     -11.564  11.209  69.751  1.00  0.00    -0.334 C  
HETATM   10  C   UNL     1     -11.817  13.704  69.782  1.00  0.00    -0.392 C  
HETATM   11  C   UNL     1     -12.091  13.654  68.281  1.00  0.00    -0.306 C  
HETATM   12  H   UNL     1     -12.824  11.025  68.107  1.00  0.00     0.000 HD 
HETATM   13  C   UNL     1     -12.259  12.389  70.445  1.00  0.00    -0.370 C  
HETATM   14  C   UNL     1     -11.404  12.449  67.656  1.00  0.00    -0.312 C  
HETATM   15  N   UNL     1     -11.840  11.211  68.297  1.00  0.00    -0.577 NA 
ENDBRANCH   3   9
BRANCH   8  16
HETATM   16  C   UNL     1      -8.188   9.911  68.770  1.00  0.00    -0.114 A  
HETATM   17  C   UNL     1      -7.610   8.939  67.885  1.00  0.00    -0.093 A  
HETATM   18  C   UNL     1      -8.048  11.265  68.412  1.00  0.00    -0.143 A  
HETATM   19  C   UNL     1      -6.810  10.749  66.430  1.00  0.00    -0.135 A  
HETATM   20  F   UNL     1      -6.279   8.545  65.921  1.00  0.00    -0.049 F  
HETATM   21  F   UNL     1      -6.137  11.149  65.342  1.00  0.00    -0.078 F  
HETATM   22  C   UNL     1      -7.371  11.687  67.263  1.00  0.00    -0.136 A  
HETATM   23  C   UNL     1      -6.915   9.404  66.735  1.00  0.00    -0.081 A  
BRANCH  17  24
HETATM   24  N   UNL     1      -7.656   7.533  68.145  1.00  0.00    -0.111 NA 
HETATM   25  H   UNL     1      -7.270   7.216  69.035  1.00  0.00     0.000 HD 
BRANCH  24  26
HETATM   26  C   UNL     1      -8.188   6.534  67.281  1.00  0.00    -0.113 A  
HETATM   27  C   UNL     1      -7.363   5.685  66.540  1.00  0.00    -0.079 A  
HETATM   28  F   UNL     1      -6.029   5.757  66.677  1.00  0.00    -0.016 F  
HETATM   29  C   UNL     1      -7.890   4.798  65.592  1.00  0.00    -0.095 A  
HETATM   30  C   UNL     1      -9.269   4.753  65.389  1.00  0.00    -0.155 A  
HETATM   31  C   UNL     1     -10.116   5.574  66.129  1.00  0.00    -0.135 A  
HETATM   32  I   UNL     1     -10.078   3.477  63.962  1.00  0.00    -0.205 I  
HETATM   33  C   UNL     1      -9.575   6.447  67.079  1.00  0.00    -0.168 A  
ENDBRANCH  24  26
ENDBRANCH  17  24
ENDBRANCH   8  16
TORSDOF 4
ENDMDL
MODEL      109
REMARK 921   NORMALIZED FREE ENERGY PREDICTED BY IDOCK:   -4.53 KCAL/MOL
REMARK 922        TOTAL FREE ENERGY PREDICTED BY IDOCK:   -7.33 KCAL/MOL
REMARK 923 INTER-LIGAND FREE ENERGY PREDICTED BY IDOCK:   -6.97 KCAL/MOL
REMARK 924 INTRA-LIGAND FREE ENERGY PREDICTED BY IDOCK:   -0.36 KCAL/MOL
REMARK 927      BINDING AFFINITY PREDICTED BY RF-SCORE:    0.00 PKD
ROOT
HETATM    1  O   UNL     1      -8.479   7.579  69.709  1.00  0.00    -0.132 OA 
HETATM    2  H   UNL     1      -9.321   7.140  69.710  1.00  0.00     0.000 HD 
HETATM    3  C   UNL     1      -8.486   8.976  69.302  1.00  0.00    -0.128 C  
HETATM    4  C   UNL     1      -7.092   9.704  69.300  1.00  0.00    -0.063 C  
HETATM    5  O   UNL     1      -7.126  12.514  68.957  1.00  0.00    -0.099 OA 
HETATM    6  C   UNL     1      -8.375   9.254  67.752  1.00  0.00    -0.116 C  
HETATM    7  N   UNL     1      -7.648  10.468  68.145  1.00  0.00    -0.090 N  
HETATM    8  C   UNL     1      -7.875  11.855  68.229  1.00  0.00    -0.141 C  
ENDROOT
BRANCH   3   9
HETATM    9  C   UNL     1      -9.706   9.725  69.931  1.00  0.00    -0.238 C  
HETATM   10  C   UNL     1     -11.482   9.869  71.696  1.00  0.00    -0.181 C  
HETATM   11  C   UNL     1     -12.492  10.189  70.597  1.00  0.00    -0.372 C  
HETATM   12  H   UNL     1     -11.089   9.182  68.476  1.00  0.00     0.000 HD 
HETATM   13  C   UNL     1     -10.340   9.008  71.132  1.00  0.00    -0.362 C  
HETATM   14  C   UNL     1     -11.802  10.868  69.423  1.00  0.00    -0.328 C  
HETATM   15  N   UNL     1     -10.723  10.034  68.901  1.00  0.00    -0.211 NA 
ENDBRANCH   3   9
BRANCH   8  16
HETATM   16  C   UNL     1      -9.055  12.591  67.605  1.00  0.00    -0.187 A  
HETATM   17  C   UNL     1      -9.537  13.827  68.153  1.00  0.00    -0.216 A  
HETATM   18  C   UNL     1      -9.808  12.015  66.564  1.00  0.00    -0.225 A  
HETATM   19  C   UNL     1     -11.448  13.759  66.611  1.00  0.00    -0.345 A  
HETATM   20  F   UNL     1     -11.292  15.471  68.172  1.00  0.00    -0.297 F  
HETATM   21  F   UNL     1     -12.592  14.291  66.159  1.00  0.00    -0.464 F  
HETATM   22  C   UNL     1     -10.987  12.582  66.069  1.00  0.00    -0.318 A  
HETATM   23  C   UNL     1     -10.748  14.366  67.637  1.00  0.00    -0.263 A  
BRANCH  17  24
HETATM   24  N   UNL     1      -8.883  14.502  69.231  1.00  0.00    -0.395 NA 
HETATM   25  H   UNL     1      -9.023  14.120  70.167  1.00  0.00     0.000 HD 
BRANCH  24  26
HETATM   26  C   UNL     1      -8.055  15.656  69.124  1.00  0.00    -0.238 A  
HETATM   27  C   UNL     1      -6.820  15.739  69.768  1.00  0.00    -0.120 A  
HETATM   28  F   UNL     1      -6.352  14.690  70.464  1.00  0.00    -0.163 F  
HETATM   29  C   UNL     1      -6.075  16.926  69.770  1.00  0.00    -0.229 A  
HETATM   30  C   UNL     1      -6.572  18.048  69.108  1.00  0.00    -0.253 A  
HETATM   31  C   UNL     1      -7.793  17.986  68.440  1.00  0.00    -0.300 A  
HETATM   32  I   UNL     1      -5.509  19.834  69.127  1.00  0.00    -0.271 I  
HETATM   33  C   UNL     1      -8.520  16.792  68.439  1.00  0.00    -0.231 A  
ENDBRANCH  24  26
ENDBRANCH  17  24
ENDBRANCH   8  16
TORSDOF 4
ENDMDL
MODEL      110
REMARK 921   NORMALIZED FREE ENERGY PREDICTED BY IDOCK:   -4.51 KCAL/MOL
REMARK 922        TOTAL FREE ENERGY PREDICTED BY IDOCK:   -7.31 KCAL/MOL
REMARK 923 INTER-LIGAND FREE ENERGY PREDICTED BY IDOCK:   -5.93 KCAL/MOL
REMARK 924 INTRA-LIGAND FREE ENERGY PREDICTED BY IDOCK:   -1.38 KCAL/MOL
REMARK 927      BINDING AFFINITY PREDICTED BY RF-SCORE:    0.00 PKD
ROOT
HETATM    1  O   UNL     1     -12.933   9.666  70.698  1.00  0.00    -0.546 OA 
HETATM    2  H   UNL     1     -13.579   9.871  70.032  1.00  0.00     0.000 HD 
HETATM    3  C   UNL     1     -11.541   9.727  70.278  1.00  0.00    -0.220 C  
HETATM    4  C   UNL     1     -10.471   9.387  71.380  1.00  0.00    -0.288 C  
HETATM    5  O   UNL     1      -7.768   9.931  70.736  1.00  0.00    -0.293 OA 
HETATM    6  C   UNL     1     -10.949   8.417  69.626  1.00  0.00    -0.087 C  
HETATM    7  N   UNL     1      -9.681   8.829  70.243  1.00  0.00    -0.170 N  
HETATM    8  C   UNL     1      -8.455   9.401  69.856  1.00  0.00    -0.177 C  
ENDROOT
BRANCH   3   9
HETATM    9  C   UNL     1     -11.294  10.979  69.374  1.00  0.00    -0.284 C  
HETATM   10  C   UNL     1     -11.638  13.420  68.916  1.00  0.00    -0.356 C  
HETATM   11  C   UNL     1     -11.964  13.062  67.468  1.00  0.00    -0.360 C  
HETATM   12  H   UNL     1     -12.604  10.430  67.855  1.00  0.00     0.000 HD 
HETATM   13  C   UNL     1     -12.007  12.253  69.847  1.00  0.00    -0.377 C  
HETATM   14  C   UNL     1     -11.255  11.776  67.068  1.00  0.00    -0.322 C  
HETATM   15  N   UNL     1     -11.621  10.680  67.961  1.00  0.00    -0.480 NA 
ENDBRANCH   3   9
BRANCH   8  16
HETATM   16  C   UNL     1      -7.966   9.543  68.419  1.00  0.00    -0.093 A  
HETATM   17  C   UNL     1      -6.978  10.521  68.060  1.00  0.00    -0.074 A  
HETATM   18  C   UNL     1      -8.570   8.827  67.368  1.00  0.00    -0.126 A  
HETATM   19  C   UNL     1      -7.323   9.990  65.687  1.00  0.00    -0.127 A  
HETATM   20  F   UNL     1      -5.853  11.686  66.283  1.00  0.00    -0.145 F  
HETATM   21  F   UNL     1      -7.044  10.218  64.397  1.00  0.00    -0.135 F  
HETATM   22  C   UNL     1      -8.261   9.041  66.021  1.00  0.00    -0.113 A  
HETATM   23  C   UNL     1      -6.701  10.723  66.680  1.00  0.00    -0.120 A  
BRANCH  17  24
HETATM   24  N   UNL     1      -6.310  11.335  69.028  1.00  0.00    -0.055 NA 
HETATM   25  H   UNL     1      -5.725  10.853  69.712  1.00  0.00     0.000 HD 
BRANCH  24  26
HETATM   26  C   UNL     1      -6.381  12.754  69.128  1.00  0.00    -0.106 A  
HETATM   27  C   UNL     1      -7.539  13.459  68.797  1.00  0.00    -0.047 A  
HETATM   28  F   UNL     1      -8.648  12.796  68.429  1.00  0.00    -0.171 F  
HETATM   29  C   UNL     1      -7.559  14.860  68.768  1.00  0.00    -0.135 A  
HETATM   30  C   UNL     1      -6.400  15.568  69.084  1.00  0.00    -0.120 A  
HETATM   31  C   UNL     1      -5.236  14.890  69.438  1.00  0.00    -0.087 A  
HETATM   32  I   UNL     1      -6.387  17.645  69.011  1.00  0.00    -0.233 I  
HETATM   33  C   UNL     1      -5.235  13.491  69.472  1.00  0.00    -0.084 A  
ENDBRANCH  24  26
ENDBRANCH  17  24
ENDBRANCH   8  16
TORSDOF 4
ENDMDL
MODEL      111
REMARK 921   NORMALIZED FREE ENERGY PREDICTED BY IDOCK:   -4.48 KCAL/MOL
REMARK 922        TOTAL FREE ENERGY PREDICTED BY IDOCK:   -7.27 KCAL/MOL
REMARK 923 INTER-LIGAND FREE ENERGY PREDICTED BY IDOCK:   -5.75 KCAL/MOL
REMARK 924 INTRA-LIGAND FREE ENERGY PREDICTED BY IDOCK:   -1.52 KCAL/MOL
REMARK 927      BINDING AFFINITY PREDICTED BY RF-SCORE:    0.00 PKD
ROOT
HETATM    1  O   UNL     1      -7.089   6.449  65.051  1.00  0.00    -0.056 OA 
HETATM    2  H   UNL     1      -6.247   6.880  65.137  1.00  0.00     0.000 HD 
HETATM    3  C   UNL     1      -7.970   6.527  66.206  1.00  0.00    -0.111 C  
HETATM    4  C   UNL     1      -9.364   5.813  66.062  1.00  0.00    -0.117 C  
HETATM    5  O   UNL     1     -11.268   6.323  68.095  1.00  0.00    -0.327 OA 
HETATM    6  C   UNL     1      -7.774   5.417  67.312  1.00  0.00    -0.096 C  
HETATM    7  N   UNL     1      -9.223   5.546  67.523  1.00  0.00    -0.110 N  
HETATM    8  C   UNL     1     -10.107   6.115  68.459  1.00  0.00    -0.162 C  
ENDROOT
BRANCH   3   9
HETATM    9  C   UNL     1      -7.939   7.963  66.825  1.00  0.00    -0.107 C  
HETATM   10  C   UNL     1      -7.618  10.434  66.544  1.00  0.00    -0.118 C  
HETATM   11  C   UNL     1      -6.738  10.421  67.791  1.00  0.00    -0.070 C  
HETATM   12  H   UNL     1      -6.112   7.758  67.796  1.00  0.00     0.000 HD 
HETATM   13  C   UNL     1      -7.553   9.071  65.835  1.00  0.00    -0.094 C  
HETATM   14  C   UNL     1      -7.147   9.284  68.717  1.00  0.00    -0.073 C  
HETATM   15  N   UNL     1      -7.075   8.000  68.026  1.00  0.00    -0.083 NA 
ENDBRANCH   3   9
BRANCH   8  16
HETATM   16  C   UNL     1      -9.715   6.624  69.842  1.00  0.00    -0.167 A  
HETATM   17  C   UNL     1     -10.363   7.762  70.429  1.00  0.00    -0.212 A  
HETATM   18  C   UNL     1      -8.606   6.094  70.528  1.00  0.00    -0.138 A  
HETATM   19  C   UNL     1      -8.737   7.730  72.270  1.00  0.00    -0.133 A  
HETATM   20  F   UNL     1     -10.340   9.409  72.181  1.00  0.00    -0.317 F  
HETATM   21  F   UNL     1      -8.256   8.267  73.400  1.00  0.00    -0.214 F  
HETATM   22  C   UNL     1      -8.117   6.632  71.723  1.00  0.00    -0.103 A  
HETATM   23  C   UNL     1      -9.829   8.293  71.636  1.00  0.00    -0.199 A  
BRANCH  17  24
HETATM   24  N   UNL     1     -11.482   8.413  69.821  1.00  0.00    -0.431 NA 
HETATM   25  H   UNL     1     -12.327   7.856  69.693  1.00  0.00     0.000 HD 
BRANCH  24  26
HETATM   26  C   UNL     1     -11.530   9.766  69.377  1.00  0.00     0.034 A  
HETATM   27  C   UNL     1     -11.115  10.136  68.097  1.00  0.00    -0.230 A  
HETATM   28  F   UNL     1     -10.713   9.199  67.223  1.00  0.00    -0.321 F  
HETATM   29  C   UNL     1     -11.037  11.482  67.715  1.00  0.00    -0.319 A  
HETATM   30  C   UNL     1     -11.389  12.475  68.628  1.00  0.00    -0.288 A  
HETATM   31  C   UNL     1     -11.826  12.132  69.906  1.00  0.00    -0.392 A  
HETATM   32  I   UNL     1     -11.246  14.482  68.105  1.00  0.00    -0.361 I  
HETATM   33  C   UNL     1     -11.908  10.784  70.269  1.00  0.00    -0.438 A  
ENDBRANCH  24  26
ENDBRANCH  17  24
ENDBRANCH   8  16
TORSDOF 4
ENDMDL
MODEL      112
REMARK 921   NORMALIZED FREE ENERGY PREDICTED BY IDOCK:   -4.48 KCAL/MOL
REMARK 922        TOTAL FREE ENERGY PREDICTED BY IDOCK:   -7.27 KCAL/MOL
REMARK 923 INTER-LIGAND FREE ENERGY PREDICTED BY IDOCK:   -6.19 KCAL/MOL
REMARK 924 INTRA-LIGAND FREE ENERGY PREDICTED BY IDOCK:   -1.08 KCAL/MOL
REMARK 927      BINDING AFFINITY PREDICTED BY RF-SCORE:    0.00 PKD
ROOT
HETATM    1  O   UNL     1      -5.161  15.078  69.339  1.00  0.00    -0.092 OA 
HETATM    2  H   UNL     1      -5.301  15.985  69.585  1.00  0.00     0.000 HD 
HETATM    3  C   UNL     1      -6.199  14.469  68.521  1.00  0.00    -0.089 C  
HETATM    4  C   UNL     1      -5.969  12.968  68.115  1.00  0.00    -0.092 C  
HETATM    5  O   UNL     1      -7.722  11.894  66.168  1.00  0.00     0.203 OA 
HETATM    6  C   UNL     1      -7.418  13.832  69.297  1.00  0.00     0.142 C  
HETATM    7  N   UNL     1      -7.455  12.862  68.195  1.00  0.00    -0.113 N  
HETATM    8  C   UNL     1      -8.230  12.591  67.052  1.00  0.00    -0.125 C  
ENDROOT
BRANCH   3   9
HETATM    9  C   UNL     1      -6.683  15.464  67.416  1.00  0.00    -0.144 C  
HETATM   10  C   UNL     1      -6.254  17.468  65.970  1.00  0.00    -0.199 C  
HETATM   11  C   UNL     1      -7.646  17.978  66.333  1.00  0.00    -0.297 C  
HETATM   12  H   UNL     1      -8.010  16.521  68.619  1.00  0.00     0.000 HD 
HETATM   13  C   UNL     1      -5.695  16.599  67.109  1.00  0.00    -0.186 C  
HETATM   14  C   UNL     1      -8.570  16.813  66.657  1.00  0.00    -0.252 C  
HETATM   15  N   UNL     1      -8.023  16.002  67.742  1.00  0.00    -0.136 NA 
ENDBRANCH   3   9
BRANCH   8  16
HETATM   16  C   UNL     1      -9.595  13.200  66.751  1.00  0.00    -0.249 A  
HETATM   17  C   UNL     1     -10.650  13.185  67.725  1.00  0.00    -0.234 A  
HETATM   18  C   UNL     1      -9.920  13.664  65.462  1.00  0.00    -0.244 A  
HETATM   19  C   UNL     1     -12.211  14.053  66.039  1.00  0.00    -0.458 A  
HETATM   20  F   UNL     1     -12.989  13.527  68.162  1.00  0.00     0.448 F  
HETATM   21  F   UNL     1     -13.449  14.429  65.691  1.00  0.00    -0.431 F  
HETATM   22  C   UNL     1     -11.205  14.084  65.102  1.00  0.00    -0.329 A  
HETATM   23  C   UNL     1     -11.947  13.605  67.319  1.00  0.00    -0.381 A  
BRANCH  17  24
HETATM   24  N   UNL     1     -10.461  12.713  69.062  1.00  0.00    -0.437 NA 
HETATM   25  H   UNL     1     -10.004  13.349  69.716  1.00  0.00     0.000 HD 
BRANCH  24  26
HETATM   26  C   UNL     1     -10.849  11.439  69.568  1.00  0.00    -0.108 A  
HETATM   27  C   UNL     1     -11.914  11.294  70.458  1.00  0.00    -0.371 A  
HETATM   28  F   UNL     1     -12.645  12.363  70.813  1.00  0.00    -0.401 F  
HETATM   29  C   UNL     1     -12.204  10.060  71.056  1.00  0.00    -0.462 A  
HETATM   30  C   UNL     1     -11.417   8.950  70.750  1.00  0.00    -0.275 A  
HETATM   31  C   UNL     1     -10.361   9.062  69.849  1.00  0.00    -0.219 A  
HETATM   32  I   UNL     1     -11.797   7.115  71.651  1.00  0.00    -0.414 I  
HETATM   33  C   UNL     1     -10.091  10.299  69.253  1.00  0.00    -0.244 A  
ENDBRANCH  24  26
ENDBRANCH  17  24
ENDBRANCH   8  16
TORSDOF 4
ENDMDL
MODEL      113
REMARK 921   NORMALIZED FREE ENERGY PREDICTED BY IDOCK:   -4.47 KCAL/MOL
REMARK 922        TOTAL FREE ENERGY PREDICTED BY IDOCK:   -7.26 KCAL/MOL
REMARK 923 INTER-LIGAND FREE ENERGY PREDICTED BY IDOCK:   -5.96 KCAL/MOL
REMARK 924 INTRA-LIGAND FREE ENERGY PREDICTED BY IDOCK:   -1.30 KCAL/MOL
REMARK 927      BINDING AFFINITY PREDICTED BY RF-SCORE:    0.00 PKD
ROOT
HETATM    1  O   UNL     1     -13.585  10.294  71.702  1.00  0.00    -0.269 OA 
HETATM    2  H   UNL     1     -14.223  10.786  71.199  1.00  0.00     0.000 HD 
HETATM    3  C   UNL     1     -12.277  10.129  71.087  1.00  0.00    -0.389 C  
HETATM    4  C   UNL     1     -11.219   9.313  71.918  1.00  0.00    -0.261 C  
HETATM    5  O   UNL     1      -8.551   9.356  70.970  1.00  0.00    -0.274 OA 
HETATM    6  C   UNL     1     -12.113   8.900  70.108  1.00  0.00     0.466 C  
HETATM    7  N   UNL     1     -10.724   8.861  70.584  1.00  0.00    -0.221 N  
HETATM    8  C   UNL     1      -9.440   9.210  70.126  1.00  0.00    -0.208 C  
ENDROOT
BRANCH   3   9
HETATM    9  C   UNL     1     -11.813  11.462  70.413  1.00  0.00    -0.335 C  
HETATM   10  C   UNL     1     -11.800  13.969  70.360  1.00  0.00    -0.356 C  
HETATM   11  C   UNL     1     -12.090  13.899  68.863  1.00  0.00    -0.355 C  
HETATM   12  H   UNL     1     -13.099  11.357  68.782  1.00  0.00     0.000 HD 
HETATM   13  C   UNL     1     -12.374  12.732  71.069  1.00  0.00    -0.316 C  
HETATM   14  C   UNL     1     -11.539  12.607  68.276  1.00  0.00    -0.332 C  
HETATM   15  N   UNL     1     -12.099  11.445  68.961  1.00  0.00    -0.421 NA 
ENDBRANCH   3   9
BRANCH   8  16
HETATM   16  C   UNL     1      -9.087   9.558  68.684  1.00  0.00    -0.132 A  
HETATM   17  C   UNL     1      -9.367   8.651  67.607  1.00  0.00    -0.137 A  
HETATM   18  C   UNL     1      -8.339  10.710  68.373  1.00  0.00    -0.127 A  
HETATM   19  C   UNL     1      -8.123  10.104  66.067  1.00  0.00    -0.129 A  
HETATM   20  F   UNL     1      -9.005   8.099  65.295  1.00  0.00    -0.173 F  
HETATM   21  F   UNL     1      -7.642  10.351  64.840  1.00  0.00    -0.143 F  
HETATM   22  C   UNL     1      -7.859  10.986  67.088  1.00  0.00    -0.135 A  
HETATM   23  C   UNL     1      -8.850   8.956  66.317  1.00  0.00    -0.158 A  
BRANCH  17  24
HETATM   24  N   UNL     1     -10.091   7.432  67.793  1.00  0.00    -0.173 NA 
HETATM   25  H   UNL     1     -11.079   7.438  67.536  1.00  0.00     0.000 HD 
BRANCH  24  26
HETATM   26  C   UNL     1      -9.567   6.209  68.301  1.00  0.00    -0.120 A  
HETATM   27  C   UNL     1     -10.230   5.476  69.287  1.00  0.00    -0.245 A  
HETATM   28  F   UNL     1     -11.426   5.886  69.739  1.00  0.00    -0.459 F  
HETATM   29  C   UNL     1      -9.643   4.349  69.878  1.00  0.00    -0.275 A  
HETATM   30  C   UNL     1      -8.374   3.943  69.469  1.00  0.00    -0.056 A  
HETATM   31  C   UNL     1      -7.699   4.644  68.472  1.00  0.00    -0.076 A  
HETATM   32  I   UNL     1      -7.461   2.299  70.355  1.00  0.00    -0.042 I  
HETATM   33  C   UNL     1      -8.302   5.761  67.885  1.00  0.00    -0.104 A  
ENDBRANCH  24  26
ENDBRANCH  17  24
ENDBRANCH   8  16
TORSDOF 4
ENDMDL
MODEL      114
REMARK 921   NORMALIZED FREE ENERGY PREDICTED BY IDOCK:   -4.42 KCAL/MOL
REMARK 922        TOTAL FREE ENERGY PREDICTED BY IDOCK:   -7.20 KCAL/MOL
REMARK 923 INTER-LIGAND FREE ENERGY PREDICTED BY IDOCK:   -5.69 KCAL/MOL
REMARK 924 INTRA-LIGAND FREE ENERGY PREDICTED BY IDOCK:   -1.51 KCAL/MOL
REMARK 927      BINDING AFFINITY PREDICTED BY RF-SCORE:    0.00 PKD
ROOT
HETATM    1  O   UNL     1      -7.195  10.700  64.394  1.00  0.00    -0.352 OA 
HETATM    2  H   UNL     1      -6.429  11.168  64.708  1.00  0.00     0.000 HD 
HETATM    3  C   UNL     1      -7.890   9.880  65.373  1.00  0.00    -0.132 C  
HETATM    4  C   UNL     1      -9.157   9.106  64.853  1.00  0.00    -0.132 C  
HETATM    5  O   UNL     1     -10.785   7.871  66.813  1.00  0.00    -0.304 OA 
HETATM    6  C   UNL     1      -7.352   8.407  65.561  1.00  0.00    -0.083 C  
HETATM    7  N   UNL     1      -8.752   8.061  65.840  1.00  0.00    -0.154 N  
HETATM    8  C   UNL     1      -9.563   7.750  66.947  1.00  0.00    -0.198 C  
ENDROOT
BRANCH   3   9
HETATM    9  C   UNL     1      -7.996  10.629  66.742  1.00  0.00    -0.132 C  
HETATM   10  C   UNL     1      -8.434  12.737  68.027  1.00  0.00    -0.177 C  
HETATM   11  C   UNL     1      -7.184  12.446  68.853  1.00  0.00    -0.061 C  
HETATM   12  H   UNL     1      -5.951  10.742  67.104  1.00  0.00     0.000 HD 
HETATM   13  C   UNL     1      -8.294  12.130  66.621  1.00  0.00    -0.051 C  
HETATM   14  C   UNL     1      -6.923  10.948  68.910  1.00  0.00    -0.084 C  
HETATM   15  N   UNL     1      -6.790  10.392  67.567  1.00  0.00    -0.075 NA 
ENDBRANCH   3   9
BRANCH   8  16
HETATM   16  C   UNL     1      -9.052   7.407  68.342  1.00  0.00    -0.132 A  
HETATM   17  C   UNL     1      -9.844   7.663  69.511  1.00  0.00    -0.178 A  
HETATM   18  C   UNL     1      -7.730   6.969  68.548  1.00  0.00    -0.120 A  
HETATM   19  C   UNL     1      -7.935   7.055  70.931  1.00  0.00    -0.097 A  
HETATM   20  F   UNL     1      -9.905   7.801  71.911  1.00  0.00    -0.177 F  
HETATM   21  F   UNL     1      -7.397   6.916  72.151  1.00  0.00    -0.081 F  
HETATM   22  C   UNL     1      -7.171   6.794  69.819  1.00  0.00    -0.077 A  
HETATM   23  C   UNL     1      -9.239   7.491  70.787  1.00  0.00    -0.158 A  
BRANCH  17  24
HETATM   24  N   UNL     1     -11.192   8.139  69.442  1.00  0.00    -0.426 NA 
HETATM   25  H   UNL     1     -11.890   7.495  69.069  1.00  0.00     0.000 HD 
BRANCH  24  26
HETATM   26  C   UNL     1     -11.653   9.425  69.845  1.00  0.00     0.064 A  
HETATM   27  C   UNL     1     -11.485  10.553  69.040  1.00  0.00    -0.237 A  
HETATM   28  F   UNL     1     -10.931  10.435  67.823  1.00  0.00    -0.264 F  
HETATM   29  C   UNL     1     -11.817  11.834  69.500  1.00  0.00    -0.402 A  
HETATM   30  C   UNL     1     -12.336  11.988  70.785  1.00  0.00    -0.308 A  
HETATM   31  C   UNL     1     -12.533  10.877  71.602  1.00  0.00    -0.347 A  
HETATM   32  I   UNL     1     -12.801  13.880  71.510  1.00  0.00    -0.373 I  
HETATM   33  C   UNL     1     -12.205   9.603  71.125  1.00  0.00    -0.437 A  
ENDBRANCH  24  26
ENDBRANCH  17  24
ENDBRANCH   8  16
TORSDOF 4
ENDMDL
MODEL      115
REMARK 921   NORMALIZED FREE ENERGY PREDICTED BY IDOCK:   -4.41 KCAL/MOL
REMARK 922        TOTAL FREE ENERGY PREDICTED BY IDOCK:   -7.18 KCAL/MOL
REMARK 923 INTER-LIGAND FREE ENERGY PREDICTED BY IDOCK:   -5.96 KCAL/MOL
REMARK 924 INTRA-LIGAND FREE ENERGY PREDICTED BY IDOCK:   -1.22 KCAL/MOL
REMARK 927      BINDING AFFINITY PREDICTED BY RF-SCORE:    0.00 PKD
ROOT
HETATM    1  O   UNL     1     -10.046  12.718  63.799  1.00  0.00    -0.563 OA 
HETATM    2  H   UNL     1      -9.770  13.605  64.001  1.00  0.00     0.000 HD 
HETATM    3  C   UNL     1      -9.775  11.716  64.818  1.00  0.00    -0.191 C  
HETATM    4  C   UNL     1     -10.232  10.248  64.484  1.00  0.00    -0.091 C  
HETATM    5  O   UNL     1     -10.134   8.373  66.603  1.00  0.00    -0.266 OA 
HETATM    6  C   UNL     1      -8.350  11.037  64.769  1.00  0.00     0.203 C  
HETATM    7  N   UNL     1      -9.036   9.842  65.279  1.00  0.00    -0.193 N  
HETATM    8  C   UNL     1      -9.170   9.136  66.489  1.00  0.00    -0.175 C  
ENDROOT
BRANCH   3   9
HETATM    9  C   UNL     1     -10.092  12.278  66.242  1.00  0.00    -0.234 C  
HETATM   10  C   UNL     1     -11.441  13.789  67.721  1.00  0.00    -0.354 C  
HETATM   11  C   UNL     1     -10.140  14.238  68.381  1.00  0.00    -0.243 C  
HETATM   12  H   UNL     1      -8.419  13.505  66.385  1.00  0.00     0.000 HD 
HETATM   13  C   UNL     1     -11.178  13.364  66.267  1.00  0.00    -0.322 C  
HETATM   14  C   UNL     1      -9.094  13.135  68.298  1.00  0.00    -0.181 C  
HETATM   15  N   UNL     1      -8.857  12.748  66.910  1.00  0.00    -0.212 NA 
ENDBRANCH   3   9
BRANCH   8  16
HETATM   16  C   UNL     1      -8.301   9.339  67.725  1.00  0.00    -0.116 A  
HETATM   17  C   UNL     1      -8.812   9.097  69.045  1.00  0.00    -0.139 A  
HETATM   18  C   UNL     1      -7.019   9.913  67.631  1.00  0.00    -0.086 A  
HETATM   19  C   UNL     1      -6.756  10.036  70.007  1.00  0.00    -0.112 A  
HETATM   20  F   UNL     1      -8.477   9.357  71.412  1.00  0.00    -0.189 F  
HETATM   21  F   UNL     1      -6.038  10.393  71.080  1.00  0.00    -0.083 F  
HETATM   22  C   UNL     1      -6.252  10.261  68.748  1.00  0.00    -0.047 A  
HETATM   23  C   UNL     1      -8.012   9.478  70.158  1.00  0.00    -0.160 A  
BRANCH  17  24
HETATM   24  N   UNL     1     -10.110   8.545  69.281  1.00  0.00    -0.197 NA 
HETATM   25  H   UNL     1     -10.888   8.959  68.766  1.00  0.00     0.000 HD 
BRANCH  24  26
HETATM   26  C   UNL     1     -10.422   7.474  70.167  1.00  0.00    -0.222 A  
HETATM   27  C   UNL     1     -11.187   7.669  71.318  1.00  0.00    -0.254 A  
HETATM   28  F   UNL     1     -11.704   8.879  71.585  1.00  0.00    -0.316 F  
HETATM   29  C   UNL     1     -11.375   6.642  72.253  1.00  0.00    -0.311 A  
HETATM   30  C   UNL     1     -10.793   5.395  72.027  1.00  0.00    -0.202 A  
HETATM   31  C   UNL     1     -10.042   5.168  70.876  1.00  0.00    -0.302 A  
HETATM   32  I   UNL     1     -11.020   3.864  73.415  1.00  0.00    -0.202 I  
HETATM   33  C   UNL     1      -9.872   6.200  69.948  1.00  0.00    -0.205 A  
ENDBRANCH  24  26
ENDBRANCH  17  24
ENDBRANCH   8  16
TORSDOF 4
ENDMDL
MODEL      116
REMARK 921   NORMALIZED FREE ENERGY PREDICTED BY IDOCK:   -4.41 KCAL/MOL
REMARK 922        TOTAL FREE ENERGY PREDICTED BY IDOCK:   -7.18 KCAL/MOL
REMARK 923 INTER-LIGAND FREE ENERGY PREDICTED BY IDOCK:   -5.48 KCAL/MOL
REMARK 924 INTRA-LIGAND FREE ENERGY PREDICTED BY IDOCK:   -1.70 KCAL/MOL
REMARK 927      BINDING AFFINITY PREDICTED BY RF-SCORE:    0.00 PKD
ROOT
HETATM    1  O   UNL     1     -11.804  10.187  68.323  1.00  0.00    -0.697 OA 
HETATM    2  H   UNL     1     -12.389   9.668  67.782  1.00  0.00     0.000 HD 
HETATM    3  C   UNL     1     -11.051   9.459  69.332  1.00  0.00    -0.076 C  
HETATM    4  C   UNL     1     -10.083  10.318  70.226  1.00  0.00     0.049 C  
HETATM    5  O   UNL     1      -8.281   8.891  71.881  1.00  0.00    -0.345 OA 
HETATM    6  C   UNL     1     -11.771   9.243  70.721  1.00  0.00    -0.269 C  
HETATM    7  N   UNL     1     -10.421   9.333  71.296  1.00  0.00    -0.325 N  
HETATM    8  C   UNL     1      -9.444   8.476  71.835  1.00  0.00    -0.280 C  
ENDROOT
BRANCH   3   9
HETATM    9  C   UNL     1     -10.514   8.110  68.751  1.00  0.00    -0.174 C  
HETATM   10  C   UNL     1      -9.850   6.717  66.775  1.00  0.00    -0.227 C  
HETATM   11  C   UNL     1     -10.652   5.562  67.370  1.00  0.00    -0.274 C  
HETATM   12  H   UNL     1     -12.266   7.024  69.025  1.00  0.00     0.000 HD 
HETATM   13  C   UNL     1     -10.448   8.062  67.218  1.00  0.00    -0.384 C  
HETATM   14  C   UNL     1     -10.708   5.681  68.886  1.00  0.00    -0.209 C  
HETATM   15  N   UNL     1     -11.282   6.963  69.286  1.00  0.00    -0.180 NA 
ENDBRANCH   3   9
BRANCH   8  16
HETATM   16  C   UNL     1      -9.674   7.024  72.239  1.00  0.00    -0.169 A  
HETATM   17  C   UNL     1      -8.728   5.997  71.906  1.00  0.00    -0.137 A  
HETATM   18  C   UNL     1     -10.889   6.612  72.820  1.00  0.00    -0.283 A  
HETATM   19  C   UNL     1     -10.296   4.295  72.727  1.00  0.00    -0.178 A  
HETATM   20  F   UNL     1      -8.281   3.638  71.778  1.00  0.00    -0.062 F  
HETATM   21  F   UNL     1     -10.605   3.007  72.932  1.00  0.00    -0.215 F  
HETATM   22  C   UNL     1     -11.204   5.271  73.063  1.00  0.00    -0.387 A  
HETATM   23  C   UNL     1      -9.089   4.643  72.151  1.00  0.00    -0.127 A  
BRANCH  17  24
HETATM   24  N   UNL     1      -7.470   6.277  71.286  1.00  0.00    -0.091 NA 
HETATM   25  H   UNL     1      -6.682   6.466  71.906  1.00  0.00     0.000 HD 
BRANCH  24  26
HETATM   26  C   UNL     1      -7.211   6.318  69.886  1.00  0.00    -0.074 A  
HETATM   27  C   UNL     1      -6.923   5.163  69.156  1.00  0.00    -0.055 A  
HETATM   28  F   UNL     1      -6.946   3.964  69.759  1.00  0.00    -0.039 F  
HETATM   29  C   UNL     1      -6.536   5.227  67.811  1.00  0.00    -0.053 A  
HETATM   30  C   UNL     1      -6.444   6.468  67.183  1.00  0.00    -0.042 A  
HETATM   31  C   UNL     1      -6.745   7.634  67.882  1.00  0.00    -0.067 A  
HETATM   32  I   UNL     1      -5.835   6.597  65.199  1.00  0.00    -0.032 I  
HETATM   33  C   UNL     1      -7.139   7.554  69.221  1.00  0.00    -0.077 A  
ENDBRANCH  24  26
ENDBRANCH  17  24
ENDBRANCH   8  16
TORSDOF 4
ENDMDL
MODEL      117
REMARK 921   NORMALIZED FREE ENERGY PREDICTED BY IDOCK:   -4.40 KCAL/MOL
REMARK 922        TOTAL FREE ENERGY PREDICTED BY IDOCK:   -7.17 KCAL/MOL
REMARK 923 INTER-LIGAND FREE ENERGY PREDICTED BY IDOCK:   -6.26 KCAL/MOL
REMARK 924 INTRA-LIGAND FREE ENERGY PREDICTED BY IDOCK:   -0.91 KCAL/MOL
REMARK 927      BINDING AFFINITY PREDICTED BY RF-SCORE:    0.00 PKD
ROOT
HETATM    1  O   UNL     1     -12.887   9.762  71.936  1.00  0.00    -0.384 OA 
HETATM    2  H   UNL     1     -13.719  10.189  71.762  1.00  0.00     0.000 HD 
HETATM    3  C   UNL     1     -11.813  10.048  70.997  1.00  0.00    -0.386 C  
HETATM    4  C   UNL     1     -10.437   9.342  71.284  1.00  0.00    -0.338 C  
HETATM    5  O   UNL     1      -8.217  10.217  69.760  1.00  0.00    -0.172 OA 
HETATM    6  C   UNL     1     -11.749   9.138  69.709  1.00  0.00     0.352 C  
HETATM    7  N   UNL     1     -10.295   9.323  69.799  1.00  0.00    -0.207 N  
HETATM    8  C   UNL     1      -9.281  10.055  69.153  1.00  0.00    -0.190 C  
ENDROOT
BRANCH   3   9
HETATM    9  C   UNL     1     -11.797  11.567  70.626  1.00  0.00    -0.178 C  
HETATM   10  C   UNL     1     -12.406  13.936  71.177  1.00  0.00    -0.440 C  
HETATM   11  C   UNL     1     -12.892  14.103  69.740  1.00  0.00     0.196 C  
HETATM   12  H   UNL     1     -13.249  11.458  69.141  1.00  0.00     0.000 HD 
HETATM   13  C   UNL     1     -12.546  12.469  71.617  1.00  0.00    -0.189 C  
HETATM   14  C   UNL     1     -12.137  13.163  68.812  1.00  0.00    -0.191 C  
HETATM   15  N   UNL     1     -12.285  11.776  69.244  1.00  0.00    -0.208 NA 
ENDBRANCH   3   9
BRANCH   8  16
HETATM   16  C   UNL     1      -9.435  10.784  67.823  1.00  0.00    -0.165 A  
HETATM   17  C   UNL     1      -9.145  12.185  67.702  1.00  0.00    -0.181 A  
HETATM   18  C   UNL     1     -10.007  10.149  66.704  1.00  0.00    -0.272 A  
HETATM   19  C   UNL     1     -10.042  12.166  65.415  1.00  0.00    -0.255 A  
HETATM   20  F   UNL     1      -9.316  14.165  66.349  1.00  0.00    -0.269 F  
HETATM   21  F   UNL     1     -10.356  12.820  64.289  1.00  0.00    -0.326 F  
HETATM   22  C   UNL     1     -10.311  10.821  65.516  1.00  0.00    -0.308 A  
HETATM   23  C   UNL     1      -9.482  12.840  66.485  1.00  0.00    -0.253 A  
BRANCH  17  24
HETATM   24  N   UNL     1      -8.590  12.954  68.772  1.00  0.00    -0.370 NA 
HETATM   25  H   UNL     1      -8.709  12.585  69.716  1.00  0.00     0.000 HD 
BRANCH  24  26
HETATM   26  C   UNL     1      -7.886  14.186  68.646  1.00  0.00    -0.137 A  
HETATM   27  C   UNL     1      -8.388  15.378  69.172  1.00  0.00    -0.242 A  
HETATM   28  F   UNL     1      -9.535  15.375  69.871  1.00  0.00    -0.271 F  
HETATM   29  C   UNL     1      -7.760  16.606  68.928  1.00  0.00    -0.239 A  
HETATM   30  C   UNL     1      -6.603  16.641  68.150  1.00  0.00    -0.143 A  
HETATM   31  C   UNL     1      -6.069  15.464  67.631  1.00  0.00    -0.151 A  
HETATM   32  I   UNL     1      -5.670  18.452  67.737  1.00  0.00    -0.166 I  
HETATM   33  C   UNL     1      -6.703  14.245  67.891  1.00  0.00    -0.177 A  
ENDBRANCH  24  26
ENDBRANCH  17  24
ENDBRANCH   8  16
TORSDOF 4
ENDMDL
MODEL      118
REMARK 921   NORMALIZED FREE ENERGY PREDICTED BY IDOCK:   -4.35 KCAL/MOL
REMARK 922        TOTAL FREE ENERGY PREDICTED BY IDOCK:   -7.11 KCAL/MOL
REMARK 923 INTER-LIGAND FREE ENERGY PREDICTED BY IDOCK:   -5.34 KCAL/MOL
REMARK 924 INTRA-LIGAND FREE ENERGY PREDICTED BY IDOCK:   -1.77 KCAL/MOL
REMARK 927      BINDING AFFINITY PREDICTED BY RF-SCORE:    0.00 PKD
ROOT
HETATM    1  O   UNL     1      -8.167   3.427  70.369  1.00  0.00    -0.052 OA 
HETATM    2  H   UNL     1      -8.651   3.100  69.619  1.00  0.00     0.000 HD 
HETATM    3  C   UNL     1      -7.746   4.818  70.301  1.00  0.00    -0.058 C  
HETATM    4  C   UNL     1      -6.946   5.360  71.542  1.00  0.00    -0.066 C  
HETATM    5  O   UNL     1      -6.507   8.155  71.649  1.00  0.00    -0.040 OA 
HETATM    6  C   UNL     1      -6.368   5.098  69.581  1.00  0.00    -0.030 C  
HETATM    7  N   UNL     1      -6.232   6.204  70.539  1.00  0.00    -0.034 N  
HETATM    8  C   UNL     1      -6.342   7.607  70.555  1.00  0.00    -0.038 C  
ENDROOT
BRANCH   3   9
HETATM    9  C   UNL     1      -8.889   5.711  69.716  1.00  0.00    -0.124 C  
HETATM   10  C   UNL     1     -11.333   6.129  69.343  1.00  0.00    -0.401 C  
HETATM   11  C   UNL     1     -11.014   6.456  67.886  1.00  0.00    -0.416 C  
HETATM   12  H   UNL     1      -8.596   5.187  67.724  1.00  0.00     0.000 HD 
HETATM   13  C   UNL     1     -10.300   5.136  69.902  1.00  0.00    -0.347 C  
HETATM   14  C   UNL     1      -9.595   6.990  67.761  1.00  0.00    -0.123 C  
HETATM   15  N   UNL     1      -8.630   6.032  68.294  1.00  0.00    -0.115 NA 
ENDBRANCH   3   9
BRANCH   8  16
HETATM   16  C   UNL     1      -6.412   8.497  69.319  1.00  0.00    -0.042 A  
HETATM   17  C   UNL     1      -7.320   9.607  69.250  1.00  0.00    -0.079 A  
HETATM   18  C   UNL     1      -5.703   8.175  68.146  1.00  0.00    -0.034 A  
HETATM   19  C   UNL     1      -6.740   9.926  66.884  1.00  0.00    -0.078 A  
HETATM   20  F   UNL     1      -8.364  11.269  67.861  1.00  0.00    -0.117 F  
HETATM   21  F   UNL     1      -6.913  10.579  65.727  1.00  0.00    -0.116 F  
HETATM   22  C   UNL     1      -5.858   8.872  66.943  1.00  0.00    -0.049 A  
HETATM   23  C   UNL     1      -7.465  10.282  68.006  1.00  0.00    -0.087 A  
BRANCH  17  24
HETATM   24  N   UNL     1      -8.122  10.020  70.360  1.00  0.00    -0.411 NA 
HETATM   25  H   UNL     1      -7.702  10.687  71.009  1.00  0.00     0.000 HD 
BRANCH  24  26
HETATM   26  C   UNL     1      -9.449   9.591  70.647  1.00  0.00    -0.213 A  
HETATM   27  C   UNL     1     -10.562  10.195  70.059  1.00  0.00    -0.287 A  
HETATM   28  F   UNL     1     -10.396  11.169  69.149  1.00  0.00    -0.210 F  
HETATM   29  C   UNL     1     -11.865   9.859  70.447  1.00  0.00    -0.310 A  
HETATM   30  C   UNL     1     -12.059   8.896  71.436  1.00  0.00    -0.322 A  
HETATM   31  C   UNL     1     -10.967   8.263  72.025  1.00  0.00    -0.374 A  
HETATM   32  I   UNL     1     -13.980   8.405  72.063  1.00  0.00    -0.418 I  
HETATM   33  C   UNL     1      -9.671   8.601  71.619  1.00  0.00    -0.348 A  
ENDBRANCH  24  26
ENDBRANCH  17  24
ENDBRANCH   8  16
TORSDOF 4
ENDMDL
MODEL      119
REMARK 921   NORMALIZED FREE ENERGY PREDICTED BY IDOCK:   -4.34 KCAL/MOL
REMARK 922        TOTAL FREE ENERGY PREDICTED BY IDOCK:   -7.10 KCAL/MOL
REMARK 923 INTER-LIGAND FREE ENERGY PREDICTED BY IDOCK:   -6.13 KCAL/MOL
REMARK 924 INTRA-LIGAND FREE ENERGY PREDICTED BY IDOCK:   -0.97 KCAL/MOL
REMARK 927      BINDING AFFINITY PREDICTED BY RF-SCORE:    0.00 PKD
ROOT
HETATM    1  O   UNL     1      -5.358   7.245  66.953  1.00  0.00    -0.021 OA 
HETATM    2  H   UNL     1      -4.672   7.559  66.375  1.00  0.00     0.000 HD 
HETATM    3  C   UNL     1      -6.667   7.855  66.784  1.00  0.00    -0.063 C  
HETATM    4  C   UNL     1      -7.803   7.335  67.740  1.00  0.00    -0.114 C  
HETATM    5  O   UNL     1     -10.444   8.163  67.145  1.00  0.00    -0.295 OA 
HETATM    6  C   UNL     1      -6.924   9.193  67.583  1.00  0.00    -0.078 C  
HETATM    7  N   UNL     1      -8.318   8.734  67.663  1.00  0.00    -0.114 N  
HETATM    8  C   UNL     1      -9.560   9.022  67.069  1.00  0.00    -0.176 C  
ENDROOT
BRANCH   3   9
HETATM    9  C   UNL     1      -7.004   8.023  65.266  1.00  0.00    -0.063 C  
HETATM   10  C   UNL     1      -7.056   7.078  62.943  1.00  0.00    -0.060 C  
HETATM   11  C   UNL     1      -6.454   8.387  62.440  1.00  0.00    -0.088 C  
HETATM   12  H   UNL     1      -5.400   9.264  64.807  1.00  0.00     0.000 HD 
HETATM   13  C   UNL     1      -6.621   6.818  64.395  1.00  0.00    -0.042 C  
HETATM   14  C   UNL     1      -6.842   9.537  63.359  1.00  0.00    -0.102 C  
HETATM   15  N   UNL     1      -6.417   9.272  64.730  1.00  0.00    -0.074 NA 
ENDBRANCH   3   9
BRANCH   8  16
HETATM   16  C   UNL     1      -9.864  10.251  66.219  1.00  0.00    -0.276 A  
HETATM   17  C   UNL     1     -10.031  11.547  66.813  1.00  0.00    -0.208 A  
HETATM   18  C   UNL     1     -10.139  10.137  64.843  1.00  0.00    -0.277 A  
HETATM   19  C   UNL     1     -10.744  12.444  64.640  1.00  0.00    -0.305 A  
HETATM   20  F   UNL     1     -10.750  13.822  66.511  1.00  0.00    -0.278 F  
HETATM   21  F   UNL     1     -11.187  13.470  63.900  1.00  0.00    -0.379 F  
HETATM   22  C   UNL     1     -10.574  11.211  64.058  1.00  0.00    -0.436 A  
HETATM   23  C   UNL     1     -10.490  12.612  65.989  1.00  0.00    -0.268 A  
BRANCH  17  24
HETATM   24  N   UNL     1      -9.812  11.793  68.205  1.00  0.00    -0.184 NA 
HETATM   25  H   UNL     1      -8.934  11.456  68.600  1.00  0.00     0.000 HD 
BRANCH  24  26
HETATM   26  C   UNL     1     -10.702  12.463  69.092  1.00  0.00    -0.034 A  
HETATM   27  C   UNL     1     -11.755  11.797  69.723  1.00  0.00    -0.335 A  
HETATM   28  F   UNL     1     -11.914  10.475  69.549  1.00  0.00    -0.309 F  
HETATM   29  C   UNL     1     -12.705  12.489  70.485  1.00  0.00    -0.059 A  
HETATM   30  C   UNL     1     -12.595  13.872  70.626  1.00  0.00    -0.335 A  
HETATM   31  C   UNL     1     -11.543  14.558  70.025  1.00  0.00    -0.339 A  
HETATM   32  I   UNL     1     -14.012  14.931  71.717  1.00  0.00    -0.758 I  
HETATM   33  C   UNL     1     -10.597  13.852  69.275  1.00  0.00    -0.062 A  
ENDBRANCH  24  26
ENDBRANCH  17  24
ENDBRANCH   8  16
TORSDOF 4
ENDMDL
MODEL      120
REMARK 921   NORMALIZED FREE ENERGY PREDICTED BY IDOCK:   -4.34 KCAL/MOL
REMARK 922        TOTAL FREE ENERGY PREDICTED BY IDOCK:   -7.10 KCAL/MOL
REMARK 923 INTER-LIGAND FREE ENERGY PREDICTED BY IDOCK:   -6.00 KCAL/MOL
REMARK 924 INTRA-LIGAND FREE ENERGY PREDICTED BY IDOCK:   -1.10 KCAL/MOL
REMARK 927      BINDING AFFINITY PREDICTED BY RF-SCORE:    0.00 PKD
ROOT
HETATM    1  O   UNL     1     -13.782  11.126  71.814  1.00  0.00    -0.045 OA 
HETATM    2  H   UNL     1     -14.365  11.608  71.239  1.00  0.00     0.000 HD 
HETATM    3  C   UNL     1     -12.600  10.550  71.190  1.00  0.00    -0.417 C  
HETATM    4  C   UNL     1     -11.635   9.752  72.141  1.00  0.00     0.507 C  
HETATM    5  O   UNL     1      -9.122   9.010  71.069  1.00  0.00    -0.222 OA 
HETATM    6  C   UNL     1     -12.776   9.118  70.548  1.00  0.00     0.372 C  
HETATM    7  N   UNL     1     -11.377   8.904  70.941  1.00  0.00    -0.273 N  
HETATM    8  C   UNL     1     -10.106   8.857  70.339  1.00  0.00    -0.196 C  
ENDROOT
BRANCH   3   9
HETATM    9  C   UNL     1     -11.967  11.558  70.176  1.00  0.00    -0.369 C  
HETATM   10  C   UNL     1     -11.548  13.921  69.449  1.00  0.00    -0.350 C  
HETATM   11  C   UNL     1     -11.934  13.510  68.030  1.00  0.00    -0.372 C  
HETATM   12  H   UNL     1     -13.347  11.252  68.651  1.00  0.00     0.000 HD 
HETATM   13  C   UNL     1     -12.273  13.033  70.473  1.00  0.00    -0.392 C  
HETATM   14  C   UNL     1     -11.637  12.035  67.806  1.00  0.00    -0.330 C  
HETATM   15  N   UNL     1     -12.337  11.209  68.786  1.00  0.00    -0.467 NA 
ENDBRANCH   3   9
BRANCH   8  16
HETATM   16  C   UNL     1      -9.847   8.771  68.839  1.00  0.00    -0.183 A  
HETATM   17  C   UNL     1     -10.220   7.609  68.083  1.00  0.00    -0.196 A  
HETATM   18  C   UNL     1      -9.099   9.758  68.170  1.00  0.00    -0.125 A  
HETATM   19  C   UNL     1      -9.056   8.520  66.121  1.00  0.00    -0.195 A  
HETATM   20  F   UNL     1     -10.032   6.415  66.004  1.00  0.00    -0.123 F  
HETATM   21  F   UNL     1      -8.657   8.392  64.848  1.00  0.00    -0.171 F  
HETATM   22  C   UNL     1      -8.705   9.643  66.832  1.00  0.00    -0.139 A  
HETATM   23  C   UNL     1      -9.788   7.518  66.731  1.00  0.00    -0.225 A  
BRANCH  17  24
HETATM   24  N   UNL     1     -10.955   6.521  68.650  1.00  0.00    -0.403 NA 
HETATM   25  H   UNL     1     -11.948   6.466  68.422  1.00  0.00     0.000 HD 
BRANCH  24  26
HETATM   26  C   UNL     1     -10.433   5.505  69.502  1.00  0.00    -0.297 A  
HETATM   27  C   UNL     1      -9.783   4.379  68.994  1.00  0.00    -0.153 A  
HETATM   28  F   UNL     1      -9.580   4.259  67.672  1.00  0.00    -0.165 F  
HETATM   29  C   UNL     1      -9.395   3.322  69.828  1.00  0.00    -0.229 A  
HETATM   30  C   UNL     1      -9.654   3.398  71.196  1.00  0.00    -0.164 A  
HETATM   31  C   UNL     1     -10.282   4.519  71.732  1.00  0.00    -0.226 A  
HETATM   32  I   UNL     1      -9.125   1.828  72.452  1.00  0.00    -0.137 I  
HETATM   33  C   UNL     1     -10.655   5.570  70.888  1.00  0.00    -0.309 A  
ENDBRANCH  24  26
ENDBRANCH  17  24
ENDBRANCH   8  16
TORSDOF 4
ENDMDL
MODEL      121
REMARK 921   NORMALIZED FREE ENERGY PREDICTED BY IDOCK:   -4.33 KCAL/MOL
REMARK 922        TOTAL FREE ENERGY PREDICTED BY IDOCK:   -7.09 KCAL/MOL
REMARK 923 INTER-LIGAND FREE ENERGY PREDICTED BY IDOCK:   -6.35 KCAL/MOL
REMARK 924 INTRA-LIGAND FREE ENERGY PREDICTED BY IDOCK:   -0.74 KCAL/MOL
REMARK 927      BINDING AFFINITY PREDICTED BY RF-SCORE:    0.00 PKD
ROOT
HETATM    1  O   UNL     1     -11.978  11.575  66.989  1.00  0.00    -0.556 OA 
HETATM    2  H   UNL     1     -11.730  11.457  66.079  1.00  0.00     0.000 HD 
HETATM    3  C   UNL     1     -11.537  12.810  67.617  1.00  0.00    -0.358 C  
HETATM    4  C   UNL     1     -11.947  13.006  69.123  1.00  0.00    -0.271 C  
HETATM    5  O   UNL     1     -11.504  15.570  70.238  1.00  0.00    -0.275 OA 
HETATM    6  C   UNL     1     -10.092  12.795  68.253  1.00  0.00    -0.237 C  
HETATM    7  N   UNL     1     -10.648  13.731  69.239  1.00  0.00    -0.078 N  
HETATM    8  C   UNL     1     -10.603  15.106  69.533  1.00  0.00    -0.270 C  
ENDROOT
BRANCH   3   9
HETATM    9  C   UNL     1     -11.720  14.020  66.642  1.00  0.00    -0.399 C  
HETATM   10  C   UNL     1     -12.911  15.077  64.705  1.00  0.00     0.411 C  
HETATM   11  C   UNL     1     -11.550  15.466  64.132  1.00  0.00    -0.081 C  
HETATM   12  H   UNL     1     -10.022  13.654  65.498  1.00  0.00     0.000 HD 
HETATM   13  C   UNL     1     -12.783  13.802  65.556  1.00  0.00    -0.530 C  
HETATM   14  C   UNL     1     -10.533  15.636  65.251  1.00  0.00    -0.412 C  
HETATM   15  N   UNL     1     -10.424  14.415  66.045  1.00  0.00    -0.291 NA 
ENDBRANCH   3   9
BRANCH   8  16
HETATM   16  C   UNL     1      -9.610  16.099  68.939  1.00  0.00    -0.245 A  
HETATM   17  C   UNL     1      -8.197  15.957  69.146  1.00  0.00    -0.240 A  
HETATM   18  C   UNL     1     -10.048  17.272  68.294  1.00  0.00    -0.321 A  
HETATM   19  C   UNL     1      -7.827  18.143  68.089  1.00  0.00    -0.280 A  
HETATM   20  F   UNL     1      -6.025  16.973  68.970  1.00  0.00    -0.146 F  
HETATM   21  F   UNL     1      -6.992  19.121  67.714  1.00  0.00    -0.225 F  
HETATM   22  C   UNL     1      -9.178  18.284  67.873  1.00  0.00    -0.284 A  
HETATM   23  C   UNL     1      -7.343  17.012  68.721  1.00  0.00    -0.236 A  
BRANCH  17  24
HETATM   24  N   UNL     1      -7.624  14.829  69.813  1.00  0.00    -0.390 NA 
HETATM   25  H   UNL     1      -7.690  14.812  70.832  1.00  0.00     0.000 HD 
BRANCH  24  26
HETATM   26  C   UNL     1      -6.969  13.726  69.193  1.00  0.00    -0.082 A  
HETATM   27  C   UNL     1      -6.915  13.588  67.805  1.00  0.00    -0.159 A  
HETATM   28  F   UNL     1      -7.435  14.539  67.013  1.00  0.00    -0.202 F  
HETATM   29  C   UNL     1      -6.389  12.435  67.206  1.00  0.00    -0.142 A  
HETATM   30  C   UNL     1      -5.902  11.406  68.011  1.00  0.00    -0.042 A  
HETATM   31  C   UNL     1      -5.925  11.528  69.398  1.00  0.00    -0.076 A  
HETATM   32  I   UNL     1      -5.153   9.667  67.153  1.00  0.00    -0.034 I  
HETATM   33  C   UNL     1      -6.443  12.689  69.981  1.00  0.00     0.104 A  
ENDBRANCH  24  26
ENDBRANCH  17  24
ENDBRANCH   8  16
TORSDOF 4
ENDMDL
MODEL      122
REMARK 921   NORMALIZED FREE ENERGY PREDICTED BY IDOCK:   -4.32 KCAL/MOL
REMARK 922        TOTAL FREE ENERGY PREDICTED BY IDOCK:   -7.07 KCAL/MOL
REMARK 923 INTER-LIGAND FREE ENERGY PREDICTED BY IDOCK:   -6.70 KCAL/MOL
REMARK 924 INTRA-LIGAND FREE ENERGY PREDICTED BY IDOCK:   -0.37 KCAL/MOL
REMARK 927      BINDING AFFINITY PREDICTED BY RF-SCORE:    0.00 PKD
ROOT
HETATM    1  O   UNL     1     -12.789  15.920  69.427  1.00  0.00    -0.424 OA 
HETATM    2  H   UNL     1     -12.759  16.094  70.360  1.00  0.00     0.000 HD 
HETATM    3  C   UNL     1     -11.896  14.879  68.941  1.00  0.00    -0.301 C  
HETATM    4  C   UNL     1     -11.946  14.590  67.396  1.00  0.00    -0.335 C  
HETATM    5  O   UNL     1     -10.569  12.288  66.489  1.00  0.00    -0.227 OA 
HETATM    6  C   UNL     1     -10.428  15.332  68.575  1.00  0.00    -0.235 C  
HETATM    7  N   UNL     1     -10.493  14.286  67.546  1.00  0.00    -0.252 N  
HETATM    8  C   UNL     1      -9.991  12.990  67.324  1.00  0.00    -0.232 C  
ENDROOT
BRANCH   3   9
HETATM    9  C   UNL     1     -11.891  13.658  69.918  1.00  0.00    -0.320 C  
HETATM   10  C   UNL     1     -12.134  11.192  70.301  1.00  0.00    -0.462 C  
HETATM   11  C   UNL     1     -13.028  11.506  71.497  1.00  0.00    -0.485 C  
HETATM   12  H   UNL     1     -13.735  14.054  70.794  1.00  0.00     0.000 HD 
HETATM   13  C   UNL     1     -12.231  12.316  69.256  1.00  0.00    -0.097 C  
HETATM   14  C   UNL     1     -12.665  12.860  72.091  1.00  0.00     0.019 C  
HETATM   15  N   UNL     1     -12.767  13.913  71.084  1.00  0.00    -0.352 NA 
ENDBRANCH   3   9
BRANCH   8  16
HETATM   16  C   UNL     1      -8.877  12.329  68.129  1.00  0.00    -0.187 A  
HETATM   17  C   UNL     1      -7.516  12.771  68.021  1.00  0.00    -0.122 A  
HETATM   18  C   UNL     1      -9.115  11.170  68.890  1.00  0.00    -0.098 A  
HETATM   19  C   UNL     1      -6.795  10.867  69.394  1.00  0.00    -0.114 A  
HETATM   20  F   UNL     1      -5.207  12.315  68.513  1.00  0.00    -0.050 F  
HETATM   21  F   UNL     1      -5.812  10.159  69.968  1.00  0.00    -0.039 F  
HETATM   22  C   UNL     1      -8.097  10.442  69.516  1.00  0.00    -0.145 A  
HETATM   23  C   UNL     1      -6.504  11.999  68.656  1.00  0.00    -0.063 A  
BRANCH  17  24
HETATM   24  N   UNL     1      -7.133  13.917  67.255  1.00  0.00    -0.368 NA 
HETATM   25  H   UNL     1      -6.904  13.761  66.273  1.00  0.00     0.000 HD 
BRANCH  24  26
HETATM   26  C   UNL     1      -7.043  15.257  67.731  1.00  0.00    -0.160 A  
HETATM   27  C   UNL     1      -7.590  16.329  67.023  1.00  0.00    -0.215 A  
HETATM   28  F   UNL     1      -8.277  16.107  65.891  1.00  0.00    -0.327 F  
HETATM   29  C   UNL     1      -7.379  17.654  67.427  1.00  0.00    -0.202 A  
HETATM   30  C   UNL     1      -6.615  17.910  68.564  1.00  0.00    -0.215 A  
HETATM   31  C   UNL     1      -6.075  16.858  69.301  1.00  0.00    -0.206 A  
HETATM   32  I   UNL     1      -6.251  19.867  69.166  1.00  0.00    -0.372 I  
HETATM   33  C   UNL     1      -6.302  15.541  68.890  1.00  0.00    -0.108 A  
ENDBRANCH  24  26
ENDBRANCH  17  24
ENDBRANCH   8  16
TORSDOF 4
ENDMDL
MODEL      123
REMARK 921   NORMALIZED FREE ENERGY PREDICTED BY IDOCK:   -4.30 KCAL/MOL
REMARK 922        TOTAL FREE ENERGY PREDICTED BY IDOCK:   -7.05 KCAL/MOL
REMARK 923 INTER-LIGAND FREE ENERGY PREDICTED BY IDOCK:   -6.13 KCAL/MOL
REMARK 924 INTRA-LIGAND FREE ENERGY PREDICTED BY IDOCK:   -0.93 KCAL/MOL
REMARK 927      BINDING AFFINITY PREDICTED BY RF-SCORE:    0.00 PKD
ROOT
HETATM    1  O   UNL     1      -6.940   3.959  67.400  1.00  0.00    -0.053 OA 
HETATM    2  H   UNL     1      -6.518   3.620  66.619  1.00  0.00     0.000 HD 
HETATM    3  C   UNL     1      -7.717   5.177  67.230  1.00  0.00    -0.092 C  
HETATM    4  C   UNL     1      -8.416   5.738  68.522  1.00  0.00    -0.110 C  
HETATM    5  O   UNL     1     -10.289   7.829  68.149  1.00  0.00    -0.197 OA 
HETATM    6  C   UNL     1      -6.923   6.536  67.348  1.00  0.00    -0.078 C  
HETATM    7  N   UNL     1      -8.170   7.075  67.908  1.00  0.00    -0.114 N  
HETATM    8  C   UNL     1      -9.236   7.903  67.508  1.00  0.00    -0.136 C  
ENDROOT
BRANCH   3   9
HETATM    9  C   UNL     1      -8.553   5.116  65.909  1.00  0.00    -0.128 C  
HETATM   10  C   UNL     1     -10.323   4.013  64.516  1.00  0.00    -0.221 C  
HETATM   11  C   UNL     1      -9.375   4.091  63.322  1.00  0.00    -0.131 C  
HETATM   12  H   UNL     1      -7.031   4.369  64.705  1.00  0.00     0.000 HD 
HETATM   13  C   UNL     1      -9.520   3.927  65.825  1.00  0.00    -0.178 C  
HETATM   14  C   UNL     1      -8.422   5.267  63.477  1.00  0.00    -0.087 C  
HETATM   15  N   UNL     1      -7.668   5.165  64.723  1.00  0.00    -0.082 NA 
ENDBRANCH   3   9
BRANCH   8  16
HETATM   16  C   UNL     1      -9.246   8.783  66.263  1.00  0.00    -0.261 A  
HETATM   17  C   UNL     1     -10.219   9.824  66.094  1.00  0.00    -0.208 A  
HETATM   18  C   UNL     1      -8.400   8.513  65.170  1.00  0.00    -0.178 A  
HETATM   19  C   UNL     1      -9.429  10.181  63.795  1.00  0.00    -0.275 A  
HETATM   20  F   UNL     1     -11.236  11.403  64.592  1.00  0.00    -0.368 F  
HETATM   21  F   UNL     1      -9.532  10.818  62.621  1.00  0.00    -0.249 F  
HETATM   22  C   UNL     1      -8.484   9.194  63.952  1.00  0.00    -0.189 A  
HETATM   23  C   UNL     1     -10.287  10.485  64.836  1.00  0.00    -0.237 A  
BRANCH  17  24
HETATM   24  N   UNL     1     -11.157  10.180  67.114  1.00  0.00    -0.178 NA 
HETATM   25  H   UNL     1     -11.932   9.535  67.273  1.00  0.00     0.000 HD 
BRANCH  24  26
HETATM   26  C   UNL     1     -11.112  11.346  67.930  1.00  0.00    -0.261 A  
HETATM   27  C   UNL     1     -11.855  11.451  69.107  1.00  0.00    -0.345 A  
HETATM   28  F   UNL     1     -12.593  10.412  69.531  1.00  0.00    -0.241 F  
HETATM   29  C   UNL     1     -11.912  12.649  69.830  1.00  0.00    -0.365 A  
HETATM   30  C   UNL     1     -11.205  13.761  69.372  1.00  0.00    -0.207 A  
HETATM   31  C   UNL     1     -10.438  13.677  68.213  1.00  0.00    -0.253 A  
HETATM   32  I   UNL     1     -11.301  15.563  70.403  1.00  0.00    -0.477 I  
HETATM   33  C   UNL     1     -10.384  12.471  67.506  1.00  0.00    -0.225 A  
ENDBRANCH  24  26
ENDBRANCH  17  24
ENDBRANCH   8  16
TORSDOF 4
ENDMDL
MODEL      124
REMARK 921   NORMALIZED FREE ENERGY PREDICTED BY IDOCK:   -4.30 KCAL/MOL
REMARK 922        TOTAL FREE ENERGY PREDICTED BY IDOCK:   -7.05 KCAL/MOL
REMARK 923 INTER-LIGAND FREE ENERGY PREDICTED BY IDOCK:   -5.28 KCAL/MOL
REMARK 924 INTRA-LIGAND FREE ENERGY PREDICTED BY IDOCK:   -1.77 KCAL/MOL
REMARK 927      BINDING AFFINITY PREDICTED BY RF-SCORE:    0.00 PKD
ROOT
HETATM    1  O   UNL     1      -8.312  10.552  70.219  1.00  0.00    -0.312 OA 
HETATM    2  H   UNL     1      -7.454  10.549  70.627  1.00  0.00     0.000 HD 
HETATM    3  C   UNL     1      -8.950   9.254  70.060  1.00  0.00    -0.198 C  
HETATM    4  C   UNL     1     -10.370   9.259  69.385  1.00  0.00    -0.215 C  
HETATM    5  O   UNL     1     -11.825   6.831  69.469  1.00  0.00    -0.133 OA 
HETATM    6  C   UNL     1      -8.584   8.450  68.751  1.00  0.00    -0.135 C  
HETATM    7  N   UNL     1      -9.958   7.936  68.830  1.00  0.00    -0.182 N  
HETATM    8  C   UNL     1     -10.623   6.751  69.196  1.00  0.00    -0.232 C  
ENDROOT
BRANCH   3   9
HETATM    9  C   UNL     1      -8.748   8.382  71.343  1.00  0.00    -0.172 C  
HETATM   10  C   UNL     1      -9.607   7.534  73.541  1.00  0.00    -0.339 C  
HETATM   11  C   UNL     1      -8.244   7.851  74.150  1.00  0.00    -0.303 C  
HETATM   12  H   UNL     1      -7.390   9.651  72.275  1.00  0.00     0.000 HD 
HETATM   13  C   UNL     1      -9.893   8.478  72.361  1.00  0.00    -0.358 C  
HETATM   14  C   UNL     1      -7.157   7.771  73.089  1.00  0.00    -0.087 C  
HETATM   15  N   UNL     1      -7.445   8.676  71.980  1.00  0.00    -0.259 NA 
ENDBRANCH   3   9
BRANCH   8  16
HETATM   16  C   UNL     1      -9.953   5.400  69.418  1.00  0.00    -0.280 A  
HETATM   17  C   UNL     1      -9.838   4.440  68.356  1.00  0.00    -0.061 A  
HETATM   18  C   UNL     1      -9.558   4.983  70.703  1.00  0.00    -0.250 A  
HETATM   19  C   UNL     1      -8.991   2.780  69.956  1.00  0.00    -0.101 A  
HETATM   20  F   UNL     1      -9.326   2.173  67.739  1.00  0.00    -0.180 F  
HETATM   21  F   UNL     1      -8.565   1.537  70.218  1.00  0.00    -0.059 F  
HETATM   22  C   UNL     1      -9.085   3.695  70.977  1.00  0.00    -0.177 A  
HETATM   23  C   UNL     1      -9.369   3.136  68.674  1.00  0.00    -0.171 A  
BRANCH  17  24
HETATM   24  N   UNL     1     -10.231   4.726  67.010  1.00  0.00    -0.189 NA 
HETATM   25  H   UNL     1     -11.232   4.728  66.813  1.00  0.00     0.000 HD 
BRANCH  24  26
HETATM   26  C   UNL     1      -9.359   5.008  65.920  1.00  0.00    -0.159 A  
HETATM   27  C   UNL     1      -9.095   4.065  64.925  1.00  0.00    -0.140 A  
HETATM   28  F   UNL     1      -9.716   2.874  64.945  1.00  0.00    -0.154 F  
HETATM   29  C   UNL     1      -8.134   4.299  63.933  1.00  0.00    -0.093 A  
HETATM   30  C   UNL     1      -7.431   5.504  63.931  1.00  0.00    -0.062 A  
HETATM   31  C   UNL     1      -7.690   6.471  64.900  1.00  0.00    -0.105 A  
HETATM   32  I   UNL     1      -5.971   5.865  62.496  1.00  0.00    -0.026 I  
HETATM   33  C   UNL     1      -8.659   6.226  65.878  1.00  0.00    -0.150 A  
ENDBRANCH  24  26
ENDBRANCH  17  24
ENDBRANCH   8  16
TORSDOF 4
ENDMDL
MODEL      125
REMARK 921   NORMALIZED FREE ENERGY PREDICTED BY IDOCK:   -4.30 KCAL/MOL
REMARK 922        TOTAL FREE ENERGY PREDICTED BY IDOCK:   -7.05 KCAL/MOL
REMARK 923 INTER-LIGAND FREE ENERGY PREDICTED BY IDOCK:   -6.36 KCAL/MOL
REMARK 924 INTRA-LIGAND FREE ENERGY PREDICTED BY IDOCK:   -0.69 KCAL/MOL
REMARK 927      BINDING AFFINITY PREDICTED BY RF-SCORE:    0.00 PKD
ROOT
HETATM    1  O   UNL     1      -5.410   7.521  67.881  1.00  0.00    -0.024 OA 
HETATM    2  H   UNL     1      -4.861   8.213  67.531  1.00  0.00     0.000 HD 
HETATM    3  C   UNL     1      -6.816   7.848  68.061  1.00  0.00    -0.072 C  
HETATM    4  C   UNL     1      -7.725   6.703  68.640  1.00  0.00    -0.109 C  
HETATM    5  O   UNL     1     -10.521   7.146  68.579  1.00  0.00    -0.195 OA 
HETATM    6  C   UNL     1      -7.205   8.534  69.429  1.00  0.00    -0.062 C  
HETATM    7  N   UNL     1      -8.480   7.817  69.285  1.00  0.00    -0.136 N  
HETATM    8  C   UNL     1      -9.814   8.094  68.935  1.00  0.00    -0.176 C  
ENDROOT
BRANCH   3   9
HETATM    9  C   UNL     1      -7.351   8.665  66.839  1.00  0.00    -0.079 C  
HETATM   10  C   UNL     1      -8.397   8.715  64.560  1.00  0.00    -0.157 C  
HETATM   11  C   UNL     1      -7.342   9.736  64.142  1.00  0.00    -0.128 C  
HETATM   12  H   UNL     1      -5.489   9.195  66.080  1.00  0.00     0.000 HD 
HETATM   13  C   UNL     1      -7.842   7.803  65.667  1.00  0.00    -0.107 C  
HETATM   14  C   UNL     1      -6.872  10.537  65.348  1.00  0.00    -0.078 C  
HETATM   15  N   UNL     1      -6.347   9.654  66.386  1.00  0.00    -0.068 NA 
ENDBRANCH   3   9
BRANCH   8  16
HETATM   16  C   UNL     1     -10.422   9.488  68.824  1.00  0.00    -0.243 A  
HETATM   17  C   UNL     1     -10.865  10.203  69.987  1.00  0.00    -0.307 A  
HETATM   18  C   UNL     1     -10.709  10.062  67.571  1.00  0.00    -0.339 A  
HETATM   19  C   UNL     1     -11.839  11.935  68.543  1.00  0.00    -0.297 A  
HETATM   20  F   UNL     1     -12.101  12.078  70.847  1.00  0.00    -0.439 F  
HETATM   21  F   UNL     1     -12.532  13.074  68.407  1.00  0.00    -0.210 F  
HETATM   22  C   UNL     1     -11.407  11.265  67.423  1.00  0.00    -0.349 A  
HETATM   23  C   UNL     1     -11.586  11.415  69.799  1.00  0.00    -0.332 A  
BRANCH  17  24
HETATM   24  N   UNL     1     -10.663   9.717  71.317  1.00  0.00    -0.311 NA 
HETATM   25  H   UNL     1     -10.476  10.413  72.039  1.00  0.00     0.000 HD 
BRANCH  24  26
HETATM   26  C   UNL     1     -10.698   8.354  71.731  1.00  0.00    -0.285 A  
HETATM   27  C   UNL     1     -11.861   7.588  71.644  1.00  0.00    -0.291 A  
HETATM   28  F   UNL     1     -12.973   8.111  71.102  1.00  0.00    -0.291 F  
HETATM   29  C   UNL     1     -11.925   6.294  72.177  1.00  0.00    -0.338 A  
HETATM   30  C   UNL     1     -10.801   5.754  72.801  1.00  0.00    -0.255 A  
HETATM   31  C   UNL     1      -9.621   6.489  72.883  1.00  0.00    -0.158 A  
HETATM   32  I   UNL     1     -10.876   3.852  73.637  1.00  0.00    -0.282 I  
HETATM   33  C   UNL     1      -9.570   7.776  72.337  1.00  0.00    -0.238 A  
ENDBRANCH  24  26
ENDBRANCH  17  24
ENDBRANCH   8  16
TORSDOF 4
ENDMDL
MODEL      126
REMARK 921   NORMALIZED FREE ENERGY PREDICTED BY IDOCK:   -4.28 KCAL/MOL
REMARK 922        TOTAL FREE ENERGY PREDICTED BY IDOCK:   -7.02 KCAL/MOL
REMARK 923 INTER-LIGAND FREE ENERGY PREDICTED BY IDOCK:   -5.19 KCAL/MOL
REMARK 924 INTRA-LIGAND FREE ENERGY PREDICTED BY IDOCK:   -1.84 KCAL/MOL
REMARK 927      BINDING AFFINITY PREDICTED BY RF-SCORE:    0.00 PKD
ROOT
HETATM    1  O   UNL     1      -8.163  11.838  66.065  1.00  0.00    -0.378 OA 
HETATM    2  H   UNL     1      -8.754  11.962  65.330  1.00  0.00     0.000 HD 
HETATM    3  C   UNL     1      -7.863  10.459  66.419  1.00  0.00    -0.128 C  
HETATM    4  C   UNL     1      -6.886  10.254  67.634  1.00  0.00    -0.075 C  
HETATM    5  O   UNL     1      -5.927   7.625  68.063  1.00  0.00    -0.037 OA 
HETATM    6  C   UNL     1      -8.872   9.755  67.408  1.00  0.00    -0.132 C  
HETATM    7  N   UNL     1      -7.693   9.027  67.898  1.00  0.00    -0.096 N  
HETATM    8  C   UNL     1      -7.126   7.743  67.795  1.00  0.00    -0.082 C  
ENDROOT
BRANCH   3   9
HETATM    9  C   UNL     1      -7.628   9.600  65.133  1.00  0.00    -0.114 C  
HETATM   10  C   UNL     1      -6.065   8.673  63.404  1.00  0.00    -0.081 C  
HETATM   11  C   UNL     1      -7.064   9.099  62.331  1.00  0.00    -0.097 C  
HETATM   12  H   UNL     1      -8.425  10.972  63.788  1.00  0.00     0.000 HD 
HETATM   13  C   UNL     1      -6.178   9.597  64.629  1.00  0.00    -0.089 C  
HETATM   14  C   UNL     1      -8.477   9.114  62.897  1.00  0.00    -0.209 C  
HETATM   15  N   UNL     1      -8.563   9.998  64.056  1.00  0.00    -0.173 NA 
ENDBRANCH   3   9
BRANCH   8  16
HETATM   16  C   UNL     1      -7.836   6.511  67.246  1.00  0.00    -0.105 A  
HETATM   17  C   UNL     1      -8.596   5.644  68.101  1.00  0.00    -0.104 A  
HETATM   18  C   UNL     1      -7.650   6.094  65.914  1.00  0.00    -0.087 A  
HETATM   19  C   UNL     1      -8.869   4.060  66.244  1.00  0.00    -0.121 A  
HETATM   20  F   UNL     1      -9.718   3.531  68.340  1.00  0.00    -0.230 F  
HETATM   21  F   UNL     1      -9.330   2.892  65.777  1.00  0.00    -0.153 F  
HETATM   22  C   UNL     1      -8.153   4.888  65.413  1.00  0.00    -0.114 A  
HETATM   23  C   UNL     1      -9.079   4.420  67.562  1.00  0.00    -0.129 A  
BRANCH  17  24
HETATM   24  N   UNL     1      -8.835   5.936  69.481  1.00  0.00    -0.122 NA 
HETATM   25  H   UNL     1      -8.178   5.543  70.156  1.00  0.00     0.000 HD 
BRANCH  24  26
HETATM   26  C   UNL     1      -9.902   6.722  70.004  1.00  0.00    -0.169 A  
HETATM   27  C   UNL     1      -9.668   7.883  70.742  1.00  0.00    -0.172 A  
HETATM   28  F   UNL     1      -8.412   8.323  70.925  1.00  0.00    -0.109 F  
HETATM   29  C   UNL     1     -10.714   8.575  71.367  1.00  0.00    -0.317 A  
HETATM   30  C   UNL     1     -12.019   8.099  71.244  1.00  0.00    -0.291 A  
HETATM   31  C   UNL     1     -12.283   6.955  70.496  1.00  0.00    -0.253 A  
HETATM   32  I   UNL     1     -13.587   9.081  72.192  1.00  0.00    -0.521 I  
HETATM   33  C   UNL     1     -11.229   6.281  69.870  1.00  0.00    -0.498 A  
ENDBRANCH  24  26
ENDBRANCH  17  24
ENDBRANCH   8  16
TORSDOF 4
ENDMDL
MODEL      127
REMARK 921   NORMALIZED FREE ENERGY PREDICTED BY IDOCK:   -4.27 KCAL/MOL
REMARK 922        TOTAL FREE ENERGY PREDICTED BY IDOCK:   -7.01 KCAL/MOL
REMARK 923 INTER-LIGAND FREE ENERGY PREDICTED BY IDOCK:   -5.86 KCAL/MOL
REMARK 924 INTRA-LIGAND FREE ENERGY PREDICTED BY IDOCK:   -1.16 KCAL/MOL
REMARK 927      BINDING AFFINITY PREDICTED BY RF-SCORE:    0.00 PKD
ROOT
HETATM    1  O   UNL     1     -12.399  15.349  68.313  1.00  0.00    -0.458 OA 
HETATM    2  H   UNL     1     -12.584  15.504  69.231  1.00  0.00     0.000 HD 
HETATM    3  C   UNL     1     -11.342  14.391  68.026  1.00  0.00    -0.294 C  
HETATM    4  C   UNL     1     -11.036  14.134  66.505  1.00  0.00    -0.309 C  
HETATM    5  O   UNL     1      -9.317  11.965  65.904  1.00  0.00    -0.231 OA 
HETATM    6  C   UNL     1      -9.871  14.963  67.988  1.00  0.00    -0.216 C  
HETATM    7  N   UNL     1      -9.629  13.939  66.964  1.00  0.00    -0.245 N  
HETATM    8  C   UNL     1      -8.990  12.690  66.849  1.00  0.00    -0.213 C  
ENDROOT
BRANCH   3   9
HETATM    9  C   UNL     1     -11.450  13.152  68.974  1.00  0.00    -0.296 C  
HETATM   10  C   UNL     1     -11.908  10.708  69.298  1.00  0.00    -0.309 C  
HETATM   11  C   UNL     1     -12.782  11.071  70.495  1.00  0.00    -0.331 C  
HETATM   12  H   UNL     1     -13.261  13.685  69.847  1.00  0.00     0.000 HD 
HETATM   13  C   UNL     1     -11.900  11.859  68.279  1.00  0.00    -0.343 C  
HETATM   14  C   UNL     1     -12.309  12.374  71.122  1.00  0.00    -0.141 C  
HETATM   15  N   UNL     1     -12.312  13.455  70.140  1.00  0.00    -0.287 NA 
ENDBRANCH   3   9
BRANCH   8  16
HETATM   16  C   UNL     1      -8.026  12.099  67.871  1.00  0.00    -0.150 A  
HETATM   17  C   UNL     1      -8.192  10.761  68.366  1.00  0.00    -0.129 A  
HETATM   18  C   UNL     1      -7.032  12.888  68.480  1.00  0.00    -0.098 A  
HETATM   19  C   UNL     1      -6.407  11.153  70.007  1.00  0.00    -0.147 A  
HETATM   20  F   UNL     1      -7.544   9.128  70.008  1.00  0.00    -0.054 F  
HETATM   21  F   UNL     1      -5.661  10.721  71.033  1.00  0.00    -0.104 F  
HETATM   22  C   UNL     1      -6.231  12.431  69.532  1.00  0.00    -0.126 A  
HETATM   23  C   UNL     1      -7.371  10.336  69.447  1.00  0.00    -0.115 A  
BRANCH  17  24
HETATM   24  N   UNL     1      -9.184   9.865  67.855  1.00  0.00    -0.131 NA 
HETATM   25  H   UNL     1     -10.158  10.151  67.954  1.00  0.00     0.000 HD 
BRANCH  24  26
HETATM   26  C   UNL     1      -8.942   8.613  67.222  1.00  0.00    -0.133 A  
HETATM   27  C   UNL     1      -7.851   8.414  66.374  1.00  0.00    -0.098 A  
HETATM   28  F   UNL     1      -6.959   9.400  66.184  1.00  0.00    -0.083 F  
HETATM   29  C   UNL     1      -7.695   7.225  65.650  1.00  0.00    -0.105 A  
HETATM   30  C   UNL     1      -8.645   6.212  65.784  1.00  0.00    -0.151 A  
HETATM   31  C   UNL     1      -9.732   6.376  66.639  1.00  0.00    -0.197 A  
HETATM   32  I   UNL     1      -8.463   4.452  64.692  1.00  0.00    -0.141 I  
HETATM   33  C   UNL     1      -9.868   7.565  67.362  1.00  0.00    -0.221 A  
ENDBRANCH  24  26
ENDBRANCH  17  24
ENDBRANCH   8  16
TORSDOF 4
ENDMDL
MODEL      128
REMARK 921   NORMALIZED FREE ENERGY PREDICTED BY IDOCK:   -4.26 KCAL/MOL
REMARK 922        TOTAL FREE ENERGY PREDICTED BY IDOCK:   -7.00 KCAL/MOL
REMARK 923 INTER-LIGAND FREE ENERGY PREDICTED BY IDOCK:   -6.71 KCAL/MOL
REMARK 924 INTRA-LIGAND FREE ENERGY PREDICTED BY IDOCK:   -0.29 KCAL/MOL
REMARK 927      BINDING AFFINITY PREDICTED BY RF-SCORE:    0.00 PKD
ROOT
HETATM    1  O   UNL     1     -12.206  14.336  71.816  1.00  0.00    -0.319 OA 
HETATM    2  H   UNL     1     -11.862  13.750  72.480  1.00  0.00     0.000 HD 
HETATM    3  C   UNL     1     -11.949  13.960  70.435  1.00  0.00    -0.323 C  
HETATM    4  C   UNL     1     -12.520  14.930  69.336  1.00  0.00    -0.039 C  
HETATM    5  O   UNL     1     -12.437  14.008  66.660  1.00  0.00    -0.420 OA 
HETATM    6  C   UNL     1     -10.577  14.444  69.821  1.00  0.00     0.081 C  
HETATM    7  N   UNL     1     -11.314  14.529  68.553  1.00  0.00    -0.271 N  
HETATM    8  C   UNL     1     -11.431  13.810  67.349  1.00  0.00    -0.345 C  
ENDROOT
BRANCH   3   9
HETATM    9  C   UNL     1     -12.154  12.422  70.236  1.00  0.00    -0.297 C  
HETATM   10  C   UNL     1     -13.057  10.234  71.065  1.00  0.00    -0.458 C  
HETATM   11  C   UNL     1     -11.716   9.594  70.714  1.00  0.00    -0.390 C  
HETATM   12  H   UNL     1     -10.198  11.869  70.676  1.00  0.00     0.000 HD 
HETATM   13  C   UNL     1     -12.862  11.721  71.404  1.00  0.00    -0.440 C  
HETATM   14  C   UNL     1     -11.049  10.349  69.574  1.00  0.00    -0.264 C  
HETATM   15  N   UNL     1     -10.870  11.757  69.918  1.00  0.00     0.220 NA 
ENDBRANCH   3   9
BRANCH   8  16
HETATM   16  C   UNL     1     -10.487  12.704  66.891  1.00  0.00    -0.246 A  
HETATM   17  C   UNL     1      -9.071  12.794  67.108  1.00  0.00    -0.219 A  
HETATM   18  C   UNL     1     -10.948  11.629  66.107  1.00  0.00    -0.339 A  
HETATM   19  C   UNL     1      -8.739  10.782  65.739  1.00  0.00    -0.186 A  
HETATM   20  F   UNL     1      -6.896  11.907  66.594  1.00  0.00    -0.125 F  
HETATM   21  F   UNL     1      -7.915   9.891  65.170  1.00  0.00    -0.117 F  
HETATM   22  C   UNL     1     -10.095  10.679  65.535  1.00  0.00    -0.343 A  
HETATM   23  C   UNL     1      -8.232  11.820  66.498  1.00  0.00    -0.066 A  
BRANCH  17  24
HETATM   24  N   UNL     1      -8.470  13.852  67.861  1.00  0.00    -0.164 NA 
HETATM   25  H   UNL     1      -8.508  13.773  68.878  1.00  0.00     0.000 HD 
BRANCH  24  26
HETATM   26  C   UNL     1      -7.824  15.004  67.328  1.00  0.00    -0.211 A  
HETATM   27  C   UNL     1      -6.555  15.399  67.753  1.00  0.00    -0.157 A  
HETATM   28  F   UNL     1      -5.881  14.654  68.643  1.00  0.00    -0.081 F  
HETATM   29  C   UNL     1      -5.984  16.605  67.325  1.00  0.00    -0.194 A  
HETATM   30  C   UNL     1      -6.694  17.426  66.450  1.00  0.00    -0.262 A  
HETATM   31  C   UNL     1      -7.954  17.046  65.994  1.00  0.00    -0.176 A  
HETATM   32  I   UNL     1      -5.891  19.241  65.829  1.00  0.00    -0.243 I  
HETATM   33  C   UNL     1      -8.506  15.834  66.422  1.00  0.00    -0.313 A  
ENDBRANCH  24  26
ENDBRANCH  17  24
ENDBRANCH   8  16
TORSDOF 4
ENDMDL
MODEL      129
REMARK 921   NORMALIZED FREE ENERGY PREDICTED BY IDOCK:   -4.25 KCAL/MOL
REMARK 922        TOTAL FREE ENERGY PREDICTED BY IDOCK:   -6.99 KCAL/MOL
REMARK 923 INTER-LIGAND FREE ENERGY PREDICTED BY IDOCK:   -5.71 KCAL/MOL
REMARK 924 INTRA-LIGAND FREE ENERGY PREDICTED BY IDOCK:   -1.28 KCAL/MOL
REMARK 927      BINDING AFFINITY PREDICTED BY RF-SCORE:    0.00 PKD
ROOT
HETATM    1  O   UNL     1     -10.811  13.513  63.975  1.00  0.00    -0.554 OA 
HETATM    2  H   UNL     1     -10.262  14.287  63.929  1.00  0.00     0.000 HD 
HETATM    3  C   UNL     1     -10.578  12.629  65.107  1.00  0.00    -0.298 C  
HETATM    4  C   UNL     1     -11.486  11.348  65.184  1.00  0.00     0.076 C  
HETATM    5  O   UNL     1     -11.378   9.854  67.587  1.00  0.00    -0.151 OA 
HETATM    6  C   UNL     1      -9.451  11.538  64.923  1.00  0.00    -0.129 C  
HETATM    7  N   UNL     1     -10.288  10.703  65.796  1.00  0.00    -0.244 N  
HETATM    8  C   UNL     1     -10.302  10.253  67.129  1.00  0.00    -0.238 C  
ENDROOT
BRANCH   3   9
HETATM    9  C   UNL     1     -10.363  13.458  66.416  1.00  0.00    -0.288 C  
HETATM   10  C   UNL     1     -11.295  14.480  68.508  1.00  0.00    -0.309 C  
HETATM   11  C   UNL     1     -10.543  15.764  68.168  1.00  0.00    -0.275 C  
HETATM   12  H   UNL     1     -10.196  15.313  65.492  1.00  0.00     0.000 HD 
HETATM   13  C   UNL     1     -11.645  13.714  67.221  1.00  0.00    -0.387 C  
HETATM   14  C   UNL     1      -9.302  15.450  67.344  1.00  0.00    -0.201 C  
HETATM   15  N   UNL     1      -9.656  14.726  66.127  1.00  0.00    -0.303 NA 
ENDBRANCH   3   9
BRANCH   8  16
HETATM   16  C   UNL     1      -9.130  10.344  68.100  1.00  0.00    -0.142 A  
HETATM   17  C   UNL     1      -9.082   9.542  69.290  1.00  0.00    -0.161 A  
HETATM   18  C   UNL     1      -8.129  11.322  67.946  1.00  0.00    -0.121 A  
HETATM   19  C   UNL     1      -7.096  10.779  70.036  1.00  0.00    -0.026 A  
HETATM   20  F   UNL     1      -8.018   9.149  71.410  1.00  0.00    -0.168 F  
HETATM   21  F   UNL     1      -6.152  11.006  70.961  1.00  0.00    -0.086 F  
HETATM   22  C   UNL     1      -7.124  11.544  68.894  1.00  0.00    -0.111 A  
HETATM   23  C   UNL     1      -8.057   9.807  70.240  1.00  0.00    -0.154 A  
BRANCH  17  24
HETATM   24  N   UNL     1     -10.054   8.535  69.582  1.00  0.00    -0.197 NA 
HETATM   25  H   UNL     1     -11.027   8.837  69.647  1.00  0.00     0.000 HD 
BRANCH  24  26
HETATM   26  C   UNL     1      -9.795   7.150  69.791  1.00  0.00    -0.173 A  
HETATM   27  C   UNL     1      -9.408   6.307  68.749  1.00  0.00    -0.124 A  
HETATM   28  F   UNL     1      -9.209   6.807  67.518  1.00  0.00    -0.123 F  
HETATM   29  C   UNL     1      -9.288   4.923  68.934  1.00  0.00    -0.180 A  
HETATM   30  C   UNL     1      -9.552   4.375  70.189  1.00  0.00    -0.193 A  
HETATM   31  C   UNL     1      -9.920   5.196  71.252  1.00  0.00    -0.257 A  
HETATM   32  I   UNL     1      -9.421   2.321  70.485  1.00  0.00     0.015 I  
HETATM   33  C   UNL     1     -10.027   6.576  71.053  1.00  0.00    -0.203 A  
ENDBRANCH  24  26
ENDBRANCH  17  24
ENDBRANCH   8  16
TORSDOF 4
ENDMDL
MODEL      130
REMARK 921   NORMALIZED FREE ENERGY PREDICTED BY IDOCK:   -4.20 KCAL/MOL
REMARK 922        TOTAL FREE ENERGY PREDICTED BY IDOCK:   -6.93 KCAL/MOL
REMARK 923 INTER-LIGAND FREE ENERGY PREDICTED BY IDOCK:   -5.56 KCAL/MOL
REMARK 924 INTRA-LIGAND FREE ENERGY PREDICTED BY IDOCK:   -1.37 KCAL/MOL
REMARK 927      BINDING AFFINITY PREDICTED BY RF-SCORE:    0.00 PKD
ROOT
HETATM    1  O   UNL     1     -12.981  13.756  65.833  1.00  0.00    -0.407 OA 
HETATM    2  H   UNL     1     -13.141  14.441  66.472  1.00  0.00     0.000 HD 
HETATM    3  C   UNL     1     -11.760  12.985  66.013  1.00  0.00    -0.393 C  
HETATM    4  C   UNL     1     -11.495  11.851  64.956  1.00  0.00    -0.244 C  
HETATM    5  O   UNL     1      -9.386  10.050  65.525  1.00  0.00    -0.182 OA 
HETATM    6  C   UNL     1     -10.452  13.582  65.360  1.00  0.00    -0.315 C  
HETATM    7  N   UNL     1     -10.055  12.181  65.168  1.00  0.00    -0.264 N  
HETATM    8  C   UNL     1      -9.169  11.247  65.737  1.00  0.00    -0.219 C  
ENDROOT
BRANCH   3   9
HETATM    9  C   UNL     1     -11.541  12.647  67.525  1.00  0.00    -0.359 C  
HETATM   10  C   UNL     1     -11.694  11.012  69.421  1.00  0.00    -0.394 C  
HETATM   11  C   UNL     1     -12.306  12.120  70.273  1.00  0.00    -0.269 C  
HETATM   12  H   UNL     1     -13.151  13.750  68.245  1.00  0.00     0.000 HD 
HETATM   13  C   UNL     1     -12.018  11.246  67.936  1.00  0.00    -0.080 C  
HETATM   14  C   UNL     1     -11.823  13.483  69.800  1.00  0.00    -0.329 C  
HETATM   15  N   UNL     1     -12.143  13.687  68.389  1.00  0.00    -0.344 NA 
ENDBRANCH   3   9
BRANCH   8  16
HETATM   16  C   UNL     1      -8.041  11.583  66.707  1.00  0.00    -0.158 A  
HETATM   17  C   UNL     1      -7.295  10.551  67.370  1.00  0.00    -0.093 A  
HETATM   18  C   UNL     1      -7.790  12.910  67.103  1.00  0.00    -0.084 A  
HETATM   19  C   UNL     1      -6.174  12.252  68.742  1.00  0.00    -0.072 A  
HETATM   20  F   UNL     1      -5.727  10.003  69.108  1.00  0.00    -0.036 F  
HETATM   21  F   UNL     1      -5.316  12.569  69.721  1.00  0.00    -0.070 F  
HETATM   22  C   UNL     1      -6.874  13.249  68.105  1.00  0.00    -0.114 A  
HETATM   23  C   UNL     1      -6.384  10.931  68.394  1.00  0.00    -0.053 A  
BRANCH  17  24
HETATM   24  N   UNL     1      -7.474   9.162  67.082  1.00  0.00    -0.087 NA 
HETATM   25  H   UNL     1      -7.267   8.857  66.130  1.00  0.00     0.000 HD 
BRANCH  24  26
HETATM   26  C   UNL     1      -7.914   8.162  67.996  1.00  0.00    -0.127 A  
HETATM   27  C   UNL     1      -7.152   7.024  68.267  1.00  0.00    -0.082 A  
HETATM   28  F   UNL     1      -5.940   6.878  67.707  1.00  0.00    -0.025 F  
HETATM   29  C   UNL     1      -7.651   5.982  69.060  1.00  0.00    -0.091 A  
HETATM   30  C   UNL     1      -8.933   6.085  69.599  1.00  0.00    -0.132 A  
HETATM   31  C   UNL     1      -9.706   7.219  69.362  1.00  0.00    -0.161 A  
HETATM   32  I   UNL     1      -9.715   4.539  70.747  1.00  0.00    -0.238 I  
HETATM   33  C   UNL     1      -9.191   8.255  68.576  1.00  0.00    -0.136 A  
ENDBRANCH  24  26
ENDBRANCH  17  24
ENDBRANCH   8  16
TORSDOF 4
ENDMDL
MODEL      131
REMARK 921   NORMALIZED FREE ENERGY PREDICTED BY IDOCK:   -4.19 KCAL/MOL
REMARK 922        TOTAL FREE ENERGY PREDICTED BY IDOCK:   -6.91 KCAL/MOL
REMARK 923 INTER-LIGAND FREE ENERGY PREDICTED BY IDOCK:   -5.64 KCAL/MOL
REMARK 924 INTRA-LIGAND FREE ENERGY PREDICTED BY IDOCK:   -1.28 KCAL/MOL
REMARK 927      BINDING AFFINITY PREDICTED BY RF-SCORE:    0.00 PKD
ROOT
HETATM    1  O   UNL     1      -8.602  10.531  66.582  1.00  0.00    -0.128 OA 
HETATM    2  H   UNL     1      -8.423  11.267  67.157  1.00  0.00     0.000 HD 
HETATM    3  C   UNL     1      -9.259   9.386  67.195  1.00  0.00    -0.134 C  
HETATM    4  C   UNL     1      -9.556   8.169  66.244  1.00  0.00    -0.178 C  
HETATM    5  O   UNL     1     -11.221   6.126  67.279  1.00  0.00    -0.288 OA 
HETATM    6  C   UNL     1      -8.315   8.324  67.882  1.00  0.00    -0.128 C  
HETATM    7  N   UNL     1      -9.321   7.339  67.462  1.00  0.00    -0.128 N  
HETATM    8  C   UNL     1     -10.354   6.575  68.036  1.00  0.00    -0.187 C  
ENDROOT
BRANCH   3   9
HETATM    9  C   UNL     1     -10.392   9.856  68.165  1.00  0.00    -0.195 C  
HETATM   10  C   UNL     1     -12.205  11.489  68.746  1.00  0.00    -0.071 C  
HETATM   11  C   UNL     1     -11.658  11.528  70.170  1.00  0.00    -0.336 C  
HETATM   12  H   UNL     1      -9.137  10.606  69.644  1.00  0.00     0.000 HD 
HETATM   13  C   UNL     1     -11.075  11.168  67.753  1.00  0.00    -0.344 C  
HETATM   14  C   UNL     1     -10.967  10.215  70.509  1.00  0.00    -0.310 C  
HETATM   15  N   UNL     1      -9.896   9.930  69.558  1.00  0.00    -0.210 NA 
ENDBRANCH   3   9
BRANCH   8  16
HETATM   16  C   UNL     1     -10.570   6.370  69.531  1.00  0.00    -0.308 A  
HETATM   17  C   UNL     1      -9.657   5.590  70.317  1.00  0.00    -0.174 A  
HETATM   18  C   UNL     1     -11.747   6.810  70.166  1.00  0.00    -0.370 A  
HETATM   19  C   UNL     1     -11.182   5.749  72.236  1.00  0.00    -0.278 A  
HETATM   20  F   UNL     1      -9.239   4.489  72.413  1.00  0.00    -0.128 F  
HETATM   21  F   UNL     1     -11.487   5.433  73.502  1.00  0.00    -0.312 F  
HETATM   22  C   UNL     1     -12.057   6.508  71.496  1.00  0.00    -0.363 A  
HETATM   23  C   UNL     1     -10.012   5.288  71.661  1.00  0.00    -0.180 A  
BRANCH  17  24
HETATM   24  N   UNL     1      -8.440   5.059  69.786  1.00  0.00    -0.087 NA 
HETATM   25  H   UNL     1      -7.575   5.321  70.261  1.00  0.00     0.000 HD 
BRANCH  24  26
HETATM   26  C   UNL     1      -8.317   4.198  68.658  1.00  0.00    -0.083 A  
HETATM   27  C   UNL     1      -7.311   4.369  67.706  1.00  0.00    -0.069 A  
HETATM   28  F   UNL     1      -6.385   5.328  67.871  1.00  0.00    -0.033 F  
HETATM   29  C   UNL     1      -7.278   3.606  66.531  1.00  0.00    -0.067 A  
HETATM   30  C   UNL     1      -8.267   2.648  66.310  1.00  0.00    -0.087 A  
HETATM   31  C   UNL     1      -9.271   2.442  67.253  1.00  0.00    -0.151 A  
HETATM   32  I   UNL     1      -8.269   1.528  64.559  1.00  0.00    -0.075 I  
HETATM   33  C   UNL     1      -9.284   3.205  68.425  1.00  0.00    -0.235 A  
ENDBRANCH  24  26
ENDBRANCH  17  24
ENDBRANCH   8  16
TORSDOF 4
ENDMDL
MODEL      132
REMARK 921   NORMALIZED FREE ENERGY PREDICTED BY IDOCK:   -4.18 KCAL/MOL
REMARK 922        TOTAL FREE ENERGY PREDICTED BY IDOCK:   -6.90 KCAL/MOL
REMARK 923 INTER-LIGAND FREE ENERGY PREDICTED BY IDOCK:   -5.31 KCAL/MOL
REMARK 924 INTRA-LIGAND FREE ENERGY PREDICTED BY IDOCK:   -1.59 KCAL/MOL
REMARK 927      BINDING AFFINITY PREDICTED BY RF-SCORE:    0.00 PKD
ROOT
HETATM    1  O   UNL     1      -9.589   2.796  65.453  1.00  0.00    -0.337 OA 
HETATM    2  H   UNL     1      -9.441   3.451  64.781  1.00  0.00     0.000 HD 
HETATM    3  C   UNL     1      -9.155   3.149  66.797  1.00  0.00    -0.167 C  
HETATM    4  C   UNL     1      -9.400   2.065  67.910  1.00  0.00    -0.168 C  
HETATM    5  O   UNL     1      -8.991   2.880  70.590  1.00  0.00    -0.081 OA 
HETATM    6  C   UNL     1      -7.648   2.838  67.150  1.00  0.00    -0.070 C  
HETATM    7  N   UNL     1      -8.144   2.599  68.512  1.00  0.00    -0.056 N  
HETATM    8  C   UNL     1      -8.150   3.245  69.762  1.00  0.00    -0.048 C  
ENDROOT
BRANCH   3   9
HETATM    9  C   UNL     1      -9.524   4.633  67.122  1.00  0.00    -0.153 C  
HETATM   10  C   UNL     1     -11.067   6.591  66.843  1.00  0.00    -0.342 C  
HETATM   11  C   UNL     1      -9.842   7.472  66.610  1.00  0.00    -0.274 C  
HETATM   12  H   UNL     1      -8.077   5.503  65.908  1.00  0.00     0.000 HD 
HETATM   13  C   UNL     1     -10.775   5.149  66.396  1.00  0.00    -0.275 C  
HETATM   14  C   UNL     1      -8.629   6.894  67.326  1.00  0.00    -0.120 C  
HETATM   15  N   UNL     1      -8.368   5.527  66.886  1.00  0.00    -0.108 NA 
ENDBRANCH   3   9
BRANCH   8  16
HETATM   16  C   UNL     1      -7.297   4.453  70.131  1.00  0.00    -0.046 A  
HETATM   17  C   UNL     1      -7.714   5.380  71.145  1.00  0.00    -0.102 A  
HETATM   18  C   UNL     1      -6.146   4.788  69.392  1.00  0.00    -0.026 A  
HETATM   19  C   UNL     1      -5.840   6.856  70.559  1.00  0.00    -0.024 A  
HETATM   20  F   UNL     1      -7.362   7.520  72.183  1.00  0.00    -0.065 F  
HETATM   21  F   UNL     1      -5.167   8.001  70.738  1.00  0.00    -0.025 F  
HETATM   22  C   UNL     1      -5.424   5.969  69.594  1.00  0.00    -0.012 A  
HETATM   23  C   UNL     1      -6.965   6.578  71.312  1.00  0.00    -0.075 A  
BRANCH  17  24
HETATM   24  N   UNL     1      -8.880   5.175  71.947  1.00  0.00    -0.133 NA 
HETATM   25  H   UNL     1      -8.887   4.350  72.548  1.00  0.00     0.000 HD 
BRANCH  24  26
HETATM   26  C   UNL     1     -10.033   6.010  71.988  1.00  0.00    -0.170 A  
HETATM   27  C   UNL     1     -10.956   6.044  70.941  1.00  0.00    -0.289 A  
HETATM   28  F   UNL     1     -10.804   5.230  69.884  1.00  0.00    -0.376 F  
HETATM   29  C   UNL     1     -12.011   6.966  70.926  1.00  0.00    -0.430 A  
HETATM   30  C   UNL     1     -12.151   7.864  71.984  1.00  0.00    -0.320 A  
HETATM   31  C   UNL     1     -11.256   7.837  73.052  1.00  0.00    -0.380 A  
HETATM   32  I   UNL     1     -13.683   9.269  71.973  1.00  0.00    -0.396 I  
HETATM   33  C   UNL     1     -10.213   6.905  73.056  1.00  0.00    -0.243 A  
ENDBRANCH  24  26
ENDBRANCH  17  24
ENDBRANCH   8  16
TORSDOF 4
ENDMDL
MODEL      133
REMARK 921   NORMALIZED FREE ENERGY PREDICTED BY IDOCK:   -4.16 KCAL/MOL
REMARK 922        TOTAL FREE ENERGY PREDICTED BY IDOCK:   -6.88 KCAL/MOL
REMARK 923 INTER-LIGAND FREE ENERGY PREDICTED BY IDOCK:   -6.94 KCAL/MOL
REMARK 924 INTRA-LIGAND FREE ENERGY PREDICTED BY IDOCK:    0.06 KCAL/MOL
REMARK 927      BINDING AFFINITY PREDICTED BY RF-SCORE:    0.00 PKD
ROOT
HETATM    1  O   UNL     1     -12.302  16.372  69.269  1.00  0.00    -0.269 OA 
HETATM    2  H   UNL     1     -13.212  16.228  69.037  1.00  0.00     0.000 HD 
HETATM    3  C   UNL     1     -11.336  15.468  68.665  1.00  0.00    -0.344 C  
HETATM    4  C   UNL     1      -9.829  15.708  69.050  1.00  0.00    -0.236 C  
HETATM    5  O   UNL     1      -7.894  14.276  67.559  1.00  0.00    -0.167 OA 
HETATM    6  C   UNL     1     -11.075  14.111  69.429  1.00  0.00    -0.221 C  
HETATM    7  N   UNL     1      -9.703  14.227  68.916  1.00  0.00    -0.167 N  
HETATM    8  C   UNL     1      -8.897  13.650  67.917  1.00  0.00    -0.188 C  
ENDROOT
BRANCH   3   9
HETATM    9  C   UNL     1     -11.680  15.221  67.160  1.00  0.00    -0.053 C  
HETATM   10  C   UNL     1     -12.507  13.692  65.352  1.00  0.00    -0.537 C  
HETATM   11  C   UNL     1     -11.328  14.138  64.491  1.00  0.00    -0.355 C  
HETATM   12  H   UNL     1      -9.715  15.070  66.494  1.00  0.00     0.000 HD 
HETATM   13  C   UNL     1     -12.142  13.791  66.842  1.00  0.00    -0.454 C  
HETATM   14  C   UNL     1     -10.895  15.546  64.872  1.00  0.00    -0.427 C  
HETATM   15  N   UNL     1     -10.550  15.618  66.289  1.00  0.00    -0.303 NA 
ENDBRANCH   3   9
BRANCH   8  16
HETATM   16  C   UNL     1      -9.232  12.382  67.140  1.00  0.00    -0.199 A  
HETATM   17  C   UNL     1      -9.587  11.165  67.815  1.00  0.00    -0.172 A  
HETATM   18  C   UNL     1      -9.061  12.313  65.745  1.00  0.00     0.113 A  
HETATM   19  C   UNL     1      -9.533   9.967  65.672  1.00  0.00    -0.220 A  
HETATM   20  F   UNL     1      -9.952   8.796  67.633  1.00  0.00    -0.182 F  
HETATM   21  F   UNL     1      -9.646   8.825  64.980  1.00  0.00    -0.122 F  
HETATM   22  C   UNL     1      -9.206  11.129  65.013  1.00  0.00    -0.190 A  
HETATM   23  C   UNL     1      -9.710   9.977  67.043  1.00  0.00    -0.181 A  
BRANCH  17  24
HETATM   24  N   UNL     1      -9.763  11.091  69.233  1.00  0.00    -0.419 NA 
HETATM   25  H   UNL     1      -9.091  11.598  69.808  1.00  0.00     0.000 HD 
BRANCH  24  26
HETATM   26  C   UNL     1     -10.788  10.377  69.918  1.00  0.00    -0.298 A  
HETATM   27  C   UNL     1     -12.141  10.630  69.690  1.00  0.00    -0.240 A  
HETATM   28  F   UNL     1     -12.511  11.524  68.758  1.00  0.00    -0.288 F  
HETATM   29  C   UNL     1     -13.139  10.022  70.464  1.00  0.00    -0.119 A  
HETATM   30  C   UNL     1     -12.774   9.139  71.480  1.00  0.00    -0.341 A  
HETATM   31  C   UNL     1     -11.432   8.853  71.715  1.00  0.00    -0.423 A  
HETATM   32  I   UNL     1     -14.229   8.252  72.671  1.00  0.00     0.437 I  
HETATM   33  C   UNL     1     -10.448   9.460  70.928  1.00  0.00    -0.381 A  
ENDBRANCH  24  26
ENDBRANCH  17  24
ENDBRANCH   8  16
TORSDOF 4
ENDMDL
MODEL      134
REMARK 921   NORMALIZED FREE ENERGY PREDICTED BY IDOCK:   -4.16 KCAL/MOL
REMARK 922        TOTAL FREE ENERGY PREDICTED BY IDOCK:   -6.88 KCAL/MOL
REMARK 923 INTER-LIGAND FREE ENERGY PREDICTED BY IDOCK:   -7.83 KCAL/MOL
REMARK 924 INTRA-LIGAND FREE ENERGY PREDICTED BY IDOCK:    0.95 KCAL/MOL
REMARK 927      BINDING AFFINITY PREDICTED BY RF-SCORE:    0.00 PKD
ROOT
HETATM    1  O   UNL     1      -8.600  17.329  66.761  1.00  0.00    -0.225 OA 
HETATM    2  H   UNL     1      -7.846  16.858  66.426  1.00  0.00     0.000 HD 
HETATM    3  C   UNL     1      -9.501  16.571  67.616  1.00  0.00    -0.225 C  
HETATM    4  C   UNL     1     -10.749  17.351  68.169  1.00  0.00    -0.343 C  
HETATM    5  O   UNL     1     -12.266  16.057  70.181  1.00  0.00    -0.282 OA 
HETATM    6  C   UNL     1     -10.629  15.744  66.884  1.00  0.00    -0.317 C  
HETATM    7  N   UNL     1     -11.441  16.032  68.075  1.00  0.00    -0.264 N  
HETATM    8  C   UNL     1     -11.902  15.365  69.225  1.00  0.00    -0.343 C  
ENDROOT
BRANCH   3   9
HETATM    9  C   UNL     1      -8.691  15.677  68.611  1.00  0.00    -0.193 C  
HETATM   10  C   UNL     1      -6.717  15.366  70.127  1.00  0.00     0.000 C  
HETATM   11  C   UNL     1      -6.505  13.990  69.502  1.00  0.00    -0.122 C  
HETATM   12  H   UNL     1      -7.889  14.401  67.178  1.00  0.00     0.000 HD 
HETATM   13  C   UNL     1      -7.386  16.310  69.114  1.00  0.00    -0.218 C  
HETATM   14  C   UNL     1      -7.826  13.428  68.995  1.00  0.00     0.187 C  
HETATM   15  N   UNL     1      -8.442  14.337  68.033  1.00  0.00    -0.154 NA 
ENDBRANCH   3   9
BRANCH   8  16
HETATM   16  C   UNL     1     -11.860  13.856  69.442  1.00  0.00    -0.384 A  
HETATM   17  C   UNL     1     -11.756  12.946  68.337  1.00  0.00    -0.345 A  
HETATM   18  C   UNL     1     -12.073  13.296  70.716  1.00  0.00    -0.311 A  
HETATM   19  C   UNL     1     -12.110  11.057  69.867  1.00  0.00    -0.361 A  
HETATM   20  F   UNL     1     -11.906  10.666  67.587  1.00  0.00    -0.299 F  
HETATM   21  F   UNL     1     -12.257   9.740  70.067  1.00  0.00    -0.171 F  
HETATM   22  C   UNL     1     -12.198  11.919  70.935  1.00  0.00    -0.351 A  
HETATM   23  C   UNL     1     -11.905  11.555  68.594  1.00  0.00    -0.318 A  
BRANCH  17  24
HETATM   24  N   UNL     1     -11.568  13.385  66.989  1.00  0.00    -0.337 NA 
HETATM   25  H   UNL     1     -11.940  14.304  66.747  1.00  0.00     0.000 HD 
BRANCH  24  26
HETATM   26  C   UNL     1     -10.913  12.663  65.951  1.00  0.00    -0.278 A  
HETATM   27  C   UNL     1     -11.545  12.378  64.739  1.00  0.00    -0.341 A  
HETATM   28  F   UNL     1     -12.783  12.840  64.501  1.00  0.00    -0.469 F  
HETATM   29  C   UNL     1     -10.945  11.552  63.779  1.00  0.00    -0.485 A  
HETATM   30  C   UNL     1      -9.685  11.010  64.033  1.00  0.00    -0.288 A  
HETATM   31  C   UNL     1      -9.024  11.295  65.225  1.00  0.00    -0.079 A  
HETATM   32  I   UNL     1      -8.787   9.750  62.645  1.00  0.00    -0.265 I  
HETATM   33  C   UNL     1      -9.632  12.129  66.169  1.00  0.00    -0.250 A  
ENDBRANCH  24  26
ENDBRANCH  17  24
ENDBRANCH   8  16
TORSDOF 4
ENDMDL
MODEL      135
REMARK 921   NORMALIZED FREE ENERGY PREDICTED BY IDOCK:   -4.13 KCAL/MOL
REMARK 922        TOTAL FREE ENERGY PREDICTED BY IDOCK:   -6.85 KCAL/MOL
REMARK 923 INTER-LIGAND FREE ENERGY PREDICTED BY IDOCK:   -5.63 KCAL/MOL
REMARK 924 INTRA-LIGAND FREE ENERGY PREDICTED BY IDOCK:   -1.22 KCAL/MOL
REMARK 927      BINDING AFFINITY PREDICTED BY RF-SCORE:    0.00 PKD
ROOT
HETATM    1  O   UNL     1     -12.498  13.315  68.215  1.00  0.00    -0.041 OA 
HETATM    2  H   UNL     1     -13.288  13.144  67.715  1.00  0.00     0.000 HD 
HETATM    3  C   UNL     1     -11.328  12.530  67.850  1.00  0.00    -0.291 C  
HETATM    4  C   UNL     1     -10.020  12.812  68.677  1.00  0.00    -0.091 C  
HETATM    5  O   UNL     1      -7.628  11.645  67.710  1.00  0.00    -0.108 OA 
HETATM    6  C   UNL     1     -11.188  11.119  68.545  1.00  0.00    -0.258 C  
HETATM    7  N   UNL     1      -9.741  11.361  68.468  1.00  0.00    -0.196 N  
HETATM    8  C   UNL     1      -8.637  10.933  67.707  1.00  0.00    -0.128 C  
ENDROOT
BRANCH   3   9
HETATM    9  C   UNL     1     -11.205  12.416  66.295  1.00  0.00    -0.317 C  
HETATM   10  C   UNL     1     -10.472  13.394  64.105  1.00  0.00    -0.202 C  
HETATM   11  C   UNL     1     -11.829  13.007  63.524  1.00  0.00    -0.582 C  
HETATM   12  H   UNL     1     -13.209  12.782  65.876  1.00  0.00     0.000 HD 
HETATM   13  C   UNL     1     -10.596  13.652  65.616  1.00  0.00    -0.294 C  
HETATM   14  C   UNL     1     -12.395  11.799  64.257  1.00  0.00    -0.097 C  
HETATM   15  N   UNL     1     -12.508  12.065  65.688  1.00  0.00    -0.193 NA 
ENDBRANCH   3   9
BRANCH   8  16
HETATM   16  C   UNL     1      -8.631   9.732  66.767  1.00  0.00    -0.133 A  
HETATM   17  C   UNL     1      -8.531   8.391  67.270  1.00  0.00    -0.124 A  
HETATM   18  C   UNL     1      -8.571   9.899  65.370  1.00  0.00    -0.164 A  
HETATM   19  C   UNL     1      -8.299   7.554  64.973  1.00  0.00    -0.061 A  
HETATM   20  F   UNL     1      -8.159   6.072  66.756  1.00  0.00    -0.102 F  
HETATM   21  F   UNL     1      -8.113   6.532  64.125  1.00  0.00    -0.116 F  
HETATM   22  C   UNL     1      -8.407   8.832  64.479  1.00  0.00    -0.171 A  
HETATM   23  C   UNL     1      -8.348   7.333  66.336  1.00  0.00    -0.124 A  
BRANCH  17  24
HETATM   24  N   UNL     1      -8.549   8.086  68.667  1.00  0.00    -0.128 NA 
HETATM   25  H   UNL     1      -7.647   7.935  69.118  1.00  0.00     0.000 HD 
BRANCH  24  26
HETATM   26  C   UNL     1      -9.706   7.975  69.490  1.00  0.00    -0.170 A  
HETATM   27  C   UNL     1     -10.713   7.045  69.224  1.00  0.00    -0.225 A  
HETATM   28  F   UNL     1     -10.578   6.182  68.204  1.00  0.00    -0.176 F  
HETATM   29  C   UNL     1     -11.908   7.033  69.955  1.00  0.00    -0.049 A  
HETATM   30  C   UNL     1     -12.096   7.963  70.977  1.00  0.00    -0.230 A  
HETATM   31  C   UNL     1     -11.099   8.888  71.278  1.00  0.00    -0.367 A  
HETATM   32  I   UNL     1     -13.874   7.995  72.053  1.00  0.00    -0.250 I  
HETATM   33  C   UNL     1      -9.907   8.881  70.545  1.00  0.00    -0.242 A  
ENDBRANCH  24  26
ENDBRANCH  17  24
ENDBRANCH   8  16
TORSDOF 4
ENDMDL
MODEL      136
REMARK 921   NORMALIZED FREE ENERGY PREDICTED BY IDOCK:   -4.13 KCAL/MOL
REMARK 922        TOTAL FREE ENERGY PREDICTED BY IDOCK:   -6.84 KCAL/MOL
REMARK 923 INTER-LIGAND FREE ENERGY PREDICTED BY IDOCK:   -5.06 KCAL/MOL
REMARK 924 INTRA-LIGAND FREE ENERGY PREDICTED BY IDOCK:   -1.77 KCAL/MOL
REMARK 927      BINDING AFFINITY PREDICTED BY RF-SCORE:    0.00 PKD
ROOT
HETATM    1  O   UNL     1     -11.655   6.510  66.707  1.00  0.00    -0.731 OA 
HETATM    2  H   UNL     1     -12.365   7.061  67.017  1.00  0.00     0.000 HD 
HETATM    3  C   UNL     1     -10.325   6.849  67.191  1.00  0.00    -0.269 C  
HETATM    4  C   UNL     1      -9.150   5.938  66.679  1.00  0.00    -0.134 C  
HETATM    5  O   UNL     1      -6.637   6.278  67.939  1.00  0.00    -0.056 OA 
HETATM    6  C   UNL     1      -9.536   7.938  66.363  1.00  0.00    -0.192 C  
HETATM    7  N   UNL     1      -8.335   7.186  66.752  1.00  0.00    -0.113 N  
HETATM    8  C   UNL     1      -7.261   7.305  67.654  1.00  0.00    -0.091 C  
ENDROOT
BRANCH   3   9
HETATM    9  C   UNL     1     -10.368   7.208  68.712  1.00  0.00    -0.192 C  
HETATM   10  C   UNL     1     -11.421   6.932  70.972  1.00  0.00    -0.358 C  
HETATM   11  C   UNL     1     -11.388   8.451  71.128  1.00  0.00    -0.310 C  
HETATM   12  H   UNL     1     -11.181   9.108  68.480  1.00  0.00     0.000 HD 
HETATM   13  C   UNL     1     -11.523   6.554  69.485  1.00  0.00    -0.384 C  
HETATM   14  C   UNL     1     -10.245   9.043  70.316  1.00  0.00    -0.201 C  
HETATM   15  N   UNL     1     -10.363   8.675  68.908  1.00  0.00    -0.211 NA 
ENDBRANCH   3   9
BRANCH   8  16
HETATM   16  C   UNL     1      -6.889   8.572  68.417  1.00  0.00    -0.065 A  
HETATM   17  C   UNL     1      -6.504   8.525  69.799  1.00  0.00    -0.035 A  
HETATM   18  C   UNL     1      -7.055   9.846  67.841  1.00  0.00    -0.086 A  
HETATM   19  C   UNL     1      -6.520  10.980  69.881  1.00  0.00    -0.144 A  
HETATM   20  F   UNL     1      -6.075   9.768  71.812  1.00  0.00    -0.047 F  
HETATM   21  F   UNL     1      -6.375  12.117  70.575  1.00  0.00    -0.132 F  
HETATM   22  C   UNL     1      -6.877  11.036  68.554  1.00  0.00    -0.064 A  
HETATM   23  C   UNL     1      -6.347   9.754  70.497  1.00  0.00    -0.100 A  
BRANCH  17  24
HETATM   24  N   UNL     1      -6.329   7.297  70.511  1.00  0.00    -0.038 NA 
HETATM   25  H   UNL     1      -5.391   6.897  70.518  1.00  0.00     0.000 HD 
BRANCH  24  26
HETATM   26  C   UNL     1      -7.340   6.579  71.212  1.00  0.00    -0.080 A  
HETATM   27  C   UNL     1      -7.802   6.989  72.464  1.00  0.00    -0.093 A  
HETATM   28  F   UNL     1      -7.337   8.123  73.013  1.00  0.00    -0.114 F  
HETATM   29  C   UNL     1      -8.695   6.205  73.206  1.00  0.00    -0.123 A  
HETATM   30  C   UNL     1      -9.141   4.993  72.682  1.00  0.00    -0.131 A  
HETATM   31  C   UNL     1      -8.712   4.569  71.426  1.00  0.00    -0.140 A  
HETATM   32  I   UNL     1     -10.435   3.789  73.776  1.00  0.00    -0.336 I  
HETATM   33  C   UNL     1      -7.828   5.367  70.693  1.00  0.00    -0.090 A  
ENDBRANCH  24  26
ENDBRANCH  17  24
ENDBRANCH   8  16
TORSDOF 4
ENDMDL
MODEL      137
REMARK 921   NORMALIZED FREE ENERGY PREDICTED BY IDOCK:   -4.11 KCAL/MOL
REMARK 922        TOTAL FREE ENERGY PREDICTED BY IDOCK:   -6.82 KCAL/MOL
REMARK 923 INTER-LIGAND FREE ENERGY PREDICTED BY IDOCK:   -7.19 KCAL/MOL
REMARK 924 INTRA-LIGAND FREE ENERGY PREDICTED BY IDOCK:    0.37 KCAL/MOL
REMARK 927      BINDING AFFINITY PREDICTED BY RF-SCORE:    0.00 PKD
ROOT
HETATM    1  O   UNL     1      -5.751  20.256  68.601  1.00  0.00    -0.236 OA 
HETATM    2  H   UNL     1      -6.210  20.944  69.069  1.00  0.00     0.000 HD 
HETATM    3  C   UNL     1      -6.518  19.052  68.318  1.00  0.00    -0.234 C  
HETATM    4  C   UNL     1      -5.758  17.914  67.543  1.00  0.00    -0.138 C  
HETATM    5  O   UNL     1      -7.330  15.762  66.584  1.00  0.00    -0.142 OA 
HETATM    6  C   UNL     1      -6.537  17.952  69.451  1.00  0.00    -0.200 C  
HETATM    7  N   UNL     1      -6.613  16.989  68.344  1.00  0.00    -0.153 N  
HETATM    8  C   UNL     1      -7.570  16.161  67.728  1.00  0.00    -0.138 C  
ENDROOT
BRANCH   3   9
HETATM    9  C   UNL     1      -7.965  19.419  67.853  1.00  0.00    -0.300 C  
HETATM   10  C   UNL     1     -10.391  19.756  68.392  1.00  0.00    -0.513 C  
HETATM   11  C   UNL     1     -10.739  18.937  67.152  1.00  0.00    -0.506 C  
HETATM   12  H   UNL     1      -8.354  17.628  66.870  1.00  0.00     0.000 HD 
HETATM   13  C   UNL     1      -9.030  19.314  68.954  1.00  0.00    -0.344 C  
HETATM   14  C   UNL     1      -9.635  19.054  66.111  1.00  0.00    -0.259 C  
HETATM   15  N   UNL     1      -8.353  18.627  66.664  1.00  0.00    -0.278 NA 
ENDBRANCH   3   9
BRANCH   8  16
HETATM   16  C   UNL     1      -8.943  15.828  68.301  1.00  0.00    -0.182 A  
HETATM   17  C   UNL     1      -9.864  14.986  67.592  1.00  0.00    -0.220 A  
HETATM   18  C   UNL     1      -9.417  16.452  69.471  1.00  0.00    -0.006 A  
HETATM   19  C   UNL     1     -11.601  15.498  69.250  1.00  0.00    -0.357 A  
HETATM   20  F   UNL     1     -12.116  14.162  67.422  1.00  0.00    -0.392 F  
HETATM   21  F   UNL     1     -12.862  15.367  69.685  1.00  0.00    -0.202 F  
HETATM   22  C   UNL     1     -10.724  16.296  69.945  1.00  0.00    -0.322 A  
HETATM   23  C   UNL     1     -11.189  14.864  68.093  1.00  0.00    -0.299 A  
BRANCH  17  24
HETATM   24  N   UNL     1      -9.519  14.317  66.375  1.00  0.00    -0.349 NA 
HETATM   25  H   UNL     1      -9.419  14.897  65.542  1.00  0.00     0.000 HD 
BRANCH  24  26
HETATM   26  C   UNL     1      -9.301  12.919  66.215  1.00  0.00    -0.141 A  
HETATM   27  C   UNL     1      -8.344  12.231  66.964  1.00  0.00    -0.168 A  
HETATM   28  F   UNL     1      -7.640  12.876  67.909  1.00  0.00    -0.094 F  
HETATM   29  C   UNL     1      -8.041  10.888  66.706  1.00  0.00    -0.142 A  
HETATM   30  C   UNL     1      -8.716  10.217  65.686  1.00  0.00    -0.162 A  
HETATM   31  C   UNL     1      -9.690  10.873  64.938  1.00  0.00    -0.318 A  
HETATM   32  I   UNL     1      -8.261   8.236  65.254  1.00  0.00    -0.134 I  
HETATM   33  C   UNL     1      -9.988  12.212  65.214  1.00  0.00    -0.260 A  
ENDBRANCH  24  26
ENDBRANCH  17  24
ENDBRANCH   8  16
TORSDOF 4
ENDMDL
MODEL      138
REMARK 921   NORMALIZED FREE ENERGY PREDICTED BY IDOCK:   -4.03 KCAL/MOL
REMARK 922        TOTAL FREE ENERGY PREDICTED BY IDOCK:   -6.72 KCAL/MOL
REMARK 923 INTER-LIGAND FREE ENERGY PREDICTED BY IDOCK:   -5.65 KCAL/MOL
REMARK 924 INTRA-LIGAND FREE ENERGY PREDICTED BY IDOCK:   -1.07 KCAL/MOL
REMARK 927      BINDING AFFINITY PREDICTED BY RF-SCORE:    0.00 PKD
ROOT
HETATM    1  O   UNL     1      -8.346  11.632  65.335  1.00  0.00    -0.300 OA 
HETATM    2  H   UNL     1      -8.182  12.483  65.725  1.00  0.00     0.000 HD 
HETATM    3  C   UNL     1      -8.992  10.650  66.192  1.00  0.00    -0.168 C  
HETATM    4  C   UNL     1      -9.263   9.241  65.548  1.00  0.00    -0.231 C  
HETATM    5  O   UNL     1     -10.911   7.468  67.016  1.00  0.00    -0.306 OA 
HETATM    6  C   UNL     1      -8.041   9.790  67.113  1.00  0.00    -0.116 C  
HETATM    7  N   UNL     1      -9.029   8.719  66.926  1.00  0.00    -0.129 N  
HETATM    8  C   UNL     1     -10.058   8.093  67.654  1.00  0.00    -0.207 C  
ENDROOT
BRANCH   3   9
HETATM    9  C   UNL     1     -10.142  11.314  67.019  1.00  0.00    -0.206 C  
HETATM   10  C   UNL     1     -12.273  12.634  67.090  1.00  0.00     0.010 C  
HETATM   11  C   UNL     1     -11.662  13.485  68.200  1.00  0.00    -0.396 C  
HETATM   12  H   UNL     1      -9.029  12.929  67.710  1.00  0.00     0.000 HD 
HETATM   13  C   UNL     1     -11.168  12.083  66.174  1.00  0.00    -0.394 C  
HETATM   14  C   UNL     1     -10.633  12.680  68.981  1.00  0.00    -0.041 C  
HETATM   15  N   UNL     1      -9.591  12.170  68.094  1.00  0.00    -0.204 NA 
ENDBRANCH   3   9
BRANCH   8  16
HETATM   16  C   UNL     1     -10.286   8.237  69.154  1.00  0.00    -0.225 A  
HETATM   17  C   UNL     1      -9.598   7.401  70.097  1.00  0.00    -0.165 A  
HETATM   18  C   UNL     1     -11.287   9.087  69.663  1.00  0.00     0.106 A  
HETATM   19  C   UNL     1     -10.979   8.318  71.909  1.00  0.00    -0.287 A  
HETATM   20  F   UNL     1      -9.443   6.639  72.373  1.00  0.00    -0.149 F  
HETATM   21  F   UNL     1     -11.328   8.339  73.203  1.00  0.00    -0.398 F  
HETATM   22  C   UNL     1     -11.635   9.133  71.017  1.00  0.00    -0.370 A  
HETATM   23  C   UNL     1      -9.990   7.462  71.463  1.00  0.00    -0.181 A  
BRANCH  17  24
HETATM   24  N   UNL     1      -8.581   6.473  69.709  1.00  0.00    -0.135 NA 
HETATM   25  H   UNL     1      -7.660   6.595  70.130  1.00  0.00     0.000 HD 
BRANCH  24  26
HETATM   26  C   UNL     1      -8.731   5.394  68.792  1.00  0.00    -0.097 A  
HETATM   27  C   UNL     1      -9.353   4.198  69.155  1.00  0.00    -0.166 A  
HETATM   28  F   UNL     1      -9.885   4.063  70.381  1.00  0.00    -0.242 F  
HETATM   29  C   UNL     1      -9.375   3.094  68.293  1.00  0.00    -0.246 A  
HETATM   30  C   UNL     1      -8.772   3.192  67.039  1.00  0.00    -0.124 A  
HETATM   31  C   UNL     1      -8.163   4.380  66.643  1.00  0.00    -0.102 A  
HETATM   32  I   UNL     1      -8.754   1.559  65.753  1.00  0.00    -0.083 I  
HETATM   33  C   UNL     1      -8.157   5.477  67.512  1.00  0.00    -0.101 A  
ENDBRANCH  24  26
ENDBRANCH  17  24
ENDBRANCH   8  16
TORSDOF 4
ENDMDL
MODEL      139
REMARK 921   NORMALIZED FREE ENERGY PREDICTED BY IDOCK:   -4.03 KCAL/MOL
REMARK 922        TOTAL FREE ENERGY PREDICTED BY IDOCK:   -6.72 KCAL/MOL
REMARK 923 INTER-LIGAND FREE ENERGY PREDICTED BY IDOCK:   -5.39 KCAL/MOL
REMARK 924 INTRA-LIGAND FREE ENERGY PREDICTED BY IDOCK:   -1.33 KCAL/MOL
REMARK 927      BINDING AFFINITY PREDICTED BY RF-SCORE:    0.00 PKD
ROOT
HETATM    1  O   UNL     1     -13.751  12.561  71.390  1.00  0.00     0.207 OA 
HETATM    2  H   UNL     1     -14.153  13.280  70.917  1.00  0.00     0.000 HD 
HETATM    3  C   UNL     1     -12.604  11.936  70.750  1.00  0.00    -0.234 C  
HETATM    4  C   UNL     1     -11.938  10.745  71.533  1.00  0.00     0.035 C  
HETATM    5  O   UNL     1      -9.454   9.809  70.549  1.00  0.00    -0.229 OA 
HETATM    6  C   UNL     1     -12.920  10.780  69.721  1.00  0.00     0.358 C  
HETATM    7  N   UNL     1     -11.651  10.196  70.175  1.00  0.00    -0.271 N  
HETATM    8  C   UNL     1     -10.330  10.048  69.712  1.00  0.00    -0.255 C  
ENDROOT
BRANCH   3   9
HETATM    9  C   UNL     1     -11.666  13.019  70.123  1.00  0.00    -0.170 C  
HETATM   10  C   UNL     1     -10.667  15.319  70.190  1.00  0.00    -0.293 C  
HETATM   11  C   UNL     1     -10.992  15.460  68.706  1.00  0.00    -0.264 C  
HETATM   12  H   UNL     1     -12.922  13.528  68.545  1.00  0.00     0.000 HD 
HETATM   13  C   UNL     1     -11.668  14.364  70.863  1.00  0.00    -0.281 C  
HETATM   14  C   UNL     1     -11.007  14.095  68.033  1.00  0.00    -0.255 C  
HETATM   15  N   UNL     1     -11.965  13.205  68.684  1.00  0.00    -0.323 NA 
ENDBRANCH   3   9
BRANCH   8  16
HETATM   16  C   UNL     1      -9.869  10.295  68.280  1.00  0.00    -0.161 A  
HETATM   17  C   UNL     1     -10.133   9.346  67.236  1.00  0.00    -0.226 A  
HETATM   18  C   UNL     1      -9.039  11.386  67.958  1.00  0.00    -0.171 A  
HETATM   19  C   UNL     1      -8.715  10.642  65.706  1.00  0.00    -0.182 A  
HETATM   20  F   UNL     1      -9.661   8.647  64.984  1.00  0.00    -0.043 F  
HETATM   21  F   UNL     1      -8.146  10.793  64.502  1.00  0.00    -0.132 F  
HETATM   22  C   UNL     1      -8.466  11.564  66.694  1.00  0.00    -0.172 A  
HETATM   23  C   UNL     1      -9.521   9.549  65.969  1.00  0.00    -0.233 A  
BRANCH  17  24
HETATM   24  N   UNL     1     -10.936   8.179  67.438  1.00  0.00    -0.480 NA 
HETATM   25  H   UNL     1     -11.940   8.277  67.280  1.00  0.00     0.000 HD 
BRANCH  24  26
HETATM   26  C   UNL     1     -10.470   6.894  67.837  1.00  0.00    -0.212 A  
HETATM   27  C   UNL     1     -10.955   6.256  68.980  1.00  0.00    -0.372 A  
HETATM   28  F   UNL     1     -11.932   6.826  69.704  1.00  0.00    -0.286 F  
HETATM   29  C   UNL     1     -10.396   5.057  69.440  1.00  0.00    -0.215 A  
HETATM   30  C   UNL     1      -9.337   4.481  68.739  1.00  0.00    -0.146 A  
HETATM   31  C   UNL     1      -8.847   5.086  67.584  1.00  0.00    -0.104 A  
HETATM   32  I   UNL     1      -8.460   2.723  69.420  1.00  0.00    -0.139 I  
HETATM   33  C   UNL     1      -9.422   6.278  67.131  1.00  0.00    -0.136 A  
ENDBRANCH  24  26
ENDBRANCH  17  24
ENDBRANCH   8  16
TORSDOF 4
ENDMDL
MODEL      140
REMARK 921   NORMALIZED FREE ENERGY PREDICTED BY IDOCK:   -4.02 KCAL/MOL
REMARK 922        TOTAL FREE ENERGY PREDICTED BY IDOCK:   -6.70 KCAL/MOL
REMARK 923 INTER-LIGAND FREE ENERGY PREDICTED BY IDOCK:   -5.15 KCAL/MOL
REMARK 924 INTRA-LIGAND FREE ENERGY PREDICTED BY IDOCK:   -1.55 KCAL/MOL
REMARK 927      BINDING AFFINITY PREDICTED BY RF-SCORE:    0.00 PKD
ROOT
HETATM    1  O   UNL     1      -5.198   7.411  73.023  1.00  0.00    -0.037 OA 
HETATM    2  H   UNL     1      -4.611   6.795  72.600  1.00  0.00     0.000 HD 
HETATM    3  C   UNL     1      -6.520   7.546  72.430  1.00  0.00    -0.054 C  
HETATM    4  C   UNL     1      -7.492   8.566  73.130  1.00  0.00     0.023 C  
HETATM    5  O   UNL     1     -10.196   8.524  72.293  1.00  0.00    -0.304 OA 
HETATM    6  C   UNL     1      -6.654   8.584  71.247  1.00  0.00    -0.062 C  
HETATM    7  N   UNL     1      -8.017   8.798  71.753  1.00  0.00    -0.094 N  
HETATM    8  C   UNL     1      -9.337   8.456  71.408  1.00  0.00    -0.190 C  
ENDROOT
BRANCH   3   9
HETATM    9  C   UNL     1      -7.088   6.145  72.029  1.00  0.00    -0.083 C  
HETATM   10  C   UNL     1      -8.522   4.158  72.562  1.00  0.00    -0.100 C  
HETATM   11  C   UNL     1      -7.369   3.259  72.123  1.00  0.00    -0.051 C  
HETATM   12  H   UNL     1      -5.340   5.076  72.382  1.00  0.00     0.000 HD 
HETATM   13  C   UNL     1      -7.978   5.494  73.097  1.00  0.00    -0.104 C  
HETATM   14  C   UNL     1      -6.506   3.969  71.090  1.00  0.00    -0.026 C  
HETATM   15  N   UNL     1      -5.997   5.233  71.618  1.00  0.00    -0.024 NA 
ENDBRANCH   3   9
BRANCH   8  16
HETATM   16  C   UNL     1      -9.773   7.875  70.067  1.00  0.00    -0.179 A  
HETATM   17  C   UNL     1      -9.675   8.640  68.856  1.00  0.00    -0.170 A  
HETATM   18  C   UNL     1     -10.423   6.629  69.987  1.00  0.00    -0.250 A  
HETATM   19  C   UNL     1     -10.891   6.877  67.652  1.00  0.00    -0.263 A  
HETATM   20  F   UNL     1     -10.282   8.820  66.536  1.00  0.00    -0.319 F  
HETATM   21  F   UNL     1     -11.444   6.415  66.522  1.00  0.00    -0.324 F  
HETATM   22  C   UNL     1     -10.978   6.130  68.804  1.00  0.00    -0.421 A  
HETATM   23  C   UNL     1     -10.265   8.109  67.675  1.00  0.00    -0.234 A  
BRANCH  17  24
HETATM   24  N   UNL     1      -9.065   9.932  68.804  1.00  0.00    -0.141 NA 
HETATM   25  H   UNL     1      -8.045   9.961  68.807  1.00  0.00     0.000 HD 
BRANCH  24  26
HETATM   26  C   UNL     1      -9.744  11.183  68.750  1.00  0.00    -0.185 A  
HETATM   27  C   UNL     1      -9.189  12.296  68.115  1.00  0.00    -0.197 A  
HETATM   28  F   UNL     1      -8.011  12.189  67.479  1.00  0.00    -0.126 F  
HETATM   29  C   UNL     1      -9.799  13.555  68.183  1.00  0.00    -0.237 A  
HETATM   30  C   UNL     1     -10.990  13.702  68.893  1.00  0.00    -0.249 A  
HETATM   31  C   UNL     1     -11.576  12.604  69.518  1.00  0.00    -0.348 A  
HETATM   32  I   UNL     1     -11.898  15.566  69.046  1.00  0.00    -0.140 I  
HETATM   33  C   UNL     1     -10.960  11.351  69.433  1.00  0.00    -0.260 A  
ENDBRANCH  24  26
ENDBRANCH  17  24
ENDBRANCH   8  16
TORSDOF 4
ENDMDL
MODEL      141
REMARK 921   NORMALIZED FREE ENERGY PREDICTED BY IDOCK:   -4.01 KCAL/MOL
REMARK 922        TOTAL FREE ENERGY PREDICTED BY IDOCK:   -6.69 KCAL/MOL
REMARK 923 INTER-LIGAND FREE ENERGY PREDICTED BY IDOCK:   -4.92 KCAL/MOL
REMARK 924 INTRA-LIGAND FREE ENERGY PREDICTED BY IDOCK:   -1.78 KCAL/MOL
REMARK 927      BINDING AFFINITY PREDICTED BY RF-SCORE:    0.00 PKD
ROOT
HETATM    1  O   UNL     1     -12.809   9.490  70.773  1.00  0.00    -0.516 OA 
HETATM    2  H   UNL     1     -13.249   9.538  69.932  1.00  0.00     0.000 HD 
HETATM    3  C   UNL     1     -11.661   8.599  70.844  1.00  0.00    -0.269 C  
HETATM    4  C   UNL     1     -10.932   8.520  72.236  1.00  0.00    -0.355 C  
HETATM    5  O   UNL     1      -8.448   7.162  72.293  1.00  0.00    -0.115 OA 
HETATM    6  C   UNL     1     -11.968   7.087  71.178  1.00  0.00    -0.356 C  
HETATM    7  N   UNL     1     -10.667   7.100  71.860  1.00  0.00    -0.214 N  
HETATM    8  C   UNL     1      -9.357   6.634  71.645  1.00  0.00    -0.149 C  
ENDROOT
BRANCH   3   9
HETATM    9  C   UNL     1     -10.779   8.734  69.559  1.00  0.00    -0.188 C  
HETATM   10  C   UNL     1      -9.982  10.104  67.616  1.00  0.00    -0.216 C  
HETATM   11  C   UNL     1     -10.224   8.895  66.716  1.00  0.00    -0.348 C  
HETATM   12  H   UNL     1     -11.973   7.551  68.334  1.00  0.00     0.000 HD 
HETATM   13  C   UNL     1     -10.939  10.070  68.819  1.00  0.00    -0.242 C  
HETATM   14  C   UNL     1     -10.084   7.605  67.511  1.00  0.00    -0.202 C  
HETATM   15  N   UNL     1     -11.003   7.591  68.645  1.00  0.00     0.014 NA 
ENDBRANCH   3   9
BRANCH   8  16
HETATM   16  C   UNL     1      -8.947   5.627  70.576  1.00  0.00    -0.150 A  
HETATM   17  C   UNL     1      -7.759   5.813  69.791  1.00  0.00    -0.084 A  
HETATM   18  C   UNL     1      -9.791   4.559  70.216  1.00  0.00    -0.299 A  
HETATM   19  C   UNL     1      -8.396   3.902  68.385  1.00  0.00    -0.090 A  
HETATM   20  F   UNL     1      -6.486   5.121  67.872  1.00  0.00    -0.040 F  
HETATM   21  F   UNL     1      -8.154   3.105  67.336  1.00  0.00    -0.078 F  
HETATM   22  C   UNL     1      -9.529   3.706  69.139  1.00  0.00    -0.235 A  
HETATM   23  C   UNL     1      -7.533   4.937  68.693  1.00  0.00    -0.069 A  
BRANCH  17  24
HETATM   24  N   UNL     1      -6.832   6.875  70.033  1.00  0.00    -0.055 NA 
HETATM   25  H   UNL     1      -6.048   6.671  70.653  1.00  0.00     0.000 HD 
BRANCH  24  26
HETATM   26  C   UNL     1      -6.898   8.191  69.490  1.00  0.00    -0.042 A  
HETATM   27  C   UNL     1      -6.494   8.470  68.184  1.00  0.00    -0.057 A  
HETATM   28  F   UNL     1      -6.086   7.476  67.379  1.00  0.00    -0.040 F  
HETATM   29  C   UNL     1      -6.433   9.785  67.703  1.00  0.00    -0.067 A  
HETATM   30  C   UNL     1      -6.791  10.839  68.543  1.00  0.00    -0.062 A  
HETATM   31  C   UNL     1      -7.218  10.586  69.845  1.00  0.00    -0.136 A  
HETATM   32  I   UNL     1      -6.673  12.802  67.872  1.00  0.00    -0.168 I  
HETATM   33  C   UNL     1      -7.282   9.268  70.307  1.00  0.00    -0.087 A  
ENDBRANCH  24  26
ENDBRANCH  17  24
ENDBRANCH   8  16
TORSDOF 4
ENDMDL
MODEL      142
REMARK 921   NORMALIZED FREE ENERGY PREDICTED BY IDOCK:   -4.01 KCAL/MOL
REMARK 922        TOTAL FREE ENERGY PREDICTED BY IDOCK:   -6.69 KCAL/MOL
REMARK 923 INTER-LIGAND FREE ENERGY PREDICTED BY IDOCK:   -4.92 KCAL/MOL
REMARK 924 INTRA-LIGAND FREE ENERGY PREDICTED BY IDOCK:   -1.77 KCAL/MOL
REMARK 927      BINDING AFFINITY PREDICTED BY RF-SCORE:    0.00 PKD
ROOT
HETATM    1  O   UNL     1      -8.179   7.236  74.275  1.00  0.00    -0.145 OA 
HETATM    2  H   UNL     1      -8.906   6.669  74.504  1.00  0.00     0.000 HD 
HETATM    3  C   UNL     1      -7.856   7.323  72.859  1.00  0.00    -0.094 C  
HETATM    4  C   UNL     1      -6.652   8.261  72.479  1.00  0.00    -0.087 C  
HETATM    5  O   UNL     1      -6.285   8.807  69.725  1.00  0.00    -0.034 OA 
HETATM    6  C   UNL     1      -6.875   6.221  72.296  1.00  0.00    -0.073 C  
HETATM    7  N   UNL     1      -6.409   7.276  71.386  1.00  0.00    -0.037 N  
HETATM    8  C   UNL     1      -6.543   7.638  70.032  1.00  0.00    -0.038 C  
ENDROOT
BRANCH   3   9
HETATM    9  C   UNL     1      -9.161   7.418  72.002  1.00  0.00    -0.132 C  
HETATM   10  C   UNL     1     -11.501   8.272  71.710  1.00  0.00    -0.353 C  
HETATM   11  C   UNL     1     -11.916   6.869  71.277  1.00  0.00    -0.402 C  
HETATM   12  H   UNL     1      -9.832   5.487  72.386  1.00  0.00     0.000 HD 
HETATM   13  C   UNL     1     -10.303   8.197  72.671  1.00  0.00    -0.398 C  
HETATM   14  C   UNL     1     -10.738   6.136  70.652  1.00  0.00    -0.275 C  
HETATM   15  N   UNL     1      -9.613   6.073  71.580  1.00  0.00    -0.152 NA 
ENDBRANCH   3   9
BRANCH   8  16
HETATM   16  C   UNL     1      -7.113   6.746  68.936  1.00  0.00    -0.089 A  
HETATM   17  C   UNL     1      -8.317   7.098  68.238  1.00  0.00    -0.124 A  
HETATM   18  C   UNL     1      -6.568   5.476  68.671  1.00  0.00    -0.048 A  
HETATM   19  C   UNL     1      -8.311   4.905  67.133  1.00  0.00    -0.106 A  
HETATM   20  F   UNL     1     -10.063   6.380  66.749  1.00  0.00    -0.188 F  
HETATM   21  F   UNL     1      -8.889   4.023  66.306  1.00  0.00    -0.111 F  
HETATM   22  C   UNL     1      -7.151   4.562  67.786  1.00  0.00    -0.064 A  
HETATM   23  C   UNL     1      -8.891   6.139  67.358  1.00  0.00    -0.106 A  
BRANCH  17  24
HETATM   24  N   UNL     1      -8.989   8.346  68.436  1.00  0.00    -0.136 NA 
HETATM   25  H   UNL     1      -9.171   8.623  69.401  1.00  0.00     0.000 HD 
BRANCH  24  26
HETATM   26  C   UNL     1      -9.428   9.238  67.416  1.00  0.00    -0.132 A  
HETATM   27  C   UNL     1      -8.571   9.683  66.408  1.00  0.00    -0.127 A  
HETATM   28  F   UNL     1      -7.311   9.222  66.344  1.00  0.00    -0.087 F  
HETATM   29  C   UNL     1      -8.970  10.663  65.490  1.00  0.00    -0.209 A  
HETATM   30  C   UNL     1     -10.254  11.202  65.578  1.00  0.00    -0.263 A  
HETATM   31  C   UNL     1     -11.136  10.761  66.562  1.00  0.00    -0.061 A  
HETATM   32  I   UNL     1     -10.861  12.687  64.256  1.00  0.00    -0.519 I  
HETATM   33  C   UNL     1     -10.725   9.774  67.465  1.00  0.00    -0.327 A  
ENDBRANCH  24  26
ENDBRANCH  17  24
ENDBRANCH   8  16
TORSDOF 4
ENDMDL
MODEL      143
REMARK 921   NORMALIZED FREE ENERGY PREDICTED BY IDOCK:   -4.00 KCAL/MOL
REMARK 922        TOTAL FREE ENERGY PREDICTED BY IDOCK:   -6.69 KCAL/MOL
REMARK 923 INTER-LIGAND FREE ENERGY PREDICTED BY IDOCK:   -5.67 KCAL/MOL
REMARK 924 INTRA-LIGAND FREE ENERGY PREDICTED BY IDOCK:   -1.01 KCAL/MOL
REMARK 927      BINDING AFFINITY PREDICTED BY RF-SCORE:    0.00 PKD
ROOT
HETATM    1  O   UNL     1     -11.093  17.930  69.249  1.00  0.00     0.107 OA 
HETATM    2  H   UNL     1     -11.056  18.046  70.191  1.00  0.00     0.000 HD 
HETATM    3  C   UNL     1     -10.583  16.667  68.739  1.00  0.00    -0.340 C  
HETATM    4  C   UNL     1     -10.645  16.475  67.179  1.00  0.00    -0.270 C  
HETATM    5  O   UNL     1     -10.089  13.878  66.195  1.00  0.00    -0.291 OA 
HETATM    6  C   UNL     1      -9.031  16.602  68.455  1.00  0.00    -0.223 C  
HETATM    7  N   UNL     1      -9.393  15.684  67.366  1.00  0.00    -0.208 N  
HETATM    8  C   UNL     1      -9.352  14.305  67.090  1.00  0.00    -0.228 C  
ENDROOT
BRANCH   3   9
HETATM    9  C   UNL     1     -11.048  15.479  69.645  1.00  0.00    -0.279 C  
HETATM   10  C   UNL     1     -12.467  13.438  69.978  1.00  0.00    -0.202 C  
HETATM   11  C   UNL     1     -12.854  13.981  71.351  1.00  0.00    -0.434 C  
HETATM   12  H   UNL     1     -12.244  16.611  70.915  1.00  0.00     0.000 HD 
HETATM   13  C   UNL     1     -12.141  14.598  69.022  1.00  0.00    -0.270 C  
HETATM   14  C   UNL     1     -11.749  14.870  71.902  1.00  0.00    -0.313 C  
HETATM   15  N   UNL     1     -11.457  15.966  70.982  1.00  0.00    -0.393 NA 
ENDBRANCH   3   9
BRANCH   8  16
HETATM   16  C   UNL     1      -8.576  13.270  67.897  1.00  0.00    -0.188 A  
HETATM   17  C   UNL     1      -7.141  13.232  67.878  1.00  0.00    -0.133 A  
HETATM   18  C   UNL     1      -9.236  12.223  68.568  1.00  0.00    -0.089 A  
HETATM   19  C   UNL     1      -7.187  11.132  69.153  1.00  0.00    -0.123 A  
HETATM   20  F   UNL     1      -5.154  12.001  68.440  1.00  0.00    -0.046 F  
HETATM   21  F   UNL     1      -6.536  10.108  69.721  1.00  0.00    -0.043 F  
HETATM   22  C   UNL     1      -8.560  11.166  69.188  1.00  0.00     0.045 A  
HETATM   23  C   UNL     1      -6.488  12.134  68.504  1.00  0.00    -0.059 A  
BRANCH  17  24
HETATM   24  N   UNL     1      -6.351  14.217  67.208  1.00  0.00    -0.361 NA 
HETATM   25  H   UNL     1      -6.018  13.983  66.272  1.00  0.00     0.000 HD 
BRANCH  24  26
HETATM   26  C   UNL     1      -5.983  15.494  67.721  1.00  0.00    -0.149 A  
HETATM   27  C   UNL     1      -5.755  15.704  69.082  1.00  0.00    -0.106 A  
HETATM   28  F   UNL     1      -5.819  14.673  69.941  1.00  0.00    -0.098 F  
HETATM   29  C   UNL     1      -5.528  16.987  69.595  1.00  0.00    -0.180 A  
HETATM   30  C   UNL     1      -5.521  18.080  68.729  1.00  0.00    -0.182 A  
HETATM   31  C   UNL     1      -5.725  17.897  67.364  1.00  0.00    -0.161 A  
HETATM   32  I   UNL     1      -5.227  20.001  69.467  1.00  0.00    -0.302 I  
HETATM   33  C   UNL     1      -5.941  16.608  66.865  1.00  0.00    -0.152 A  
ENDBRANCH  24  26
ENDBRANCH  17  24
ENDBRANCH   8  16
TORSDOF 4
ENDMDL
MODEL      144
REMARK 921   NORMALIZED FREE ENERGY PREDICTED BY IDOCK:   -3.97 KCAL/MOL
REMARK 922        TOTAL FREE ENERGY PREDICTED BY IDOCK:   -6.64 KCAL/MOL
REMARK 923 INTER-LIGAND FREE ENERGY PREDICTED BY IDOCK:   -5.06 KCAL/MOL
REMARK 924 INTRA-LIGAND FREE ENERGY PREDICTED BY IDOCK:   -1.58 KCAL/MOL
REMARK 927      BINDING AFFINITY PREDICTED BY RF-SCORE:    0.00 PKD
ROOT
HETATM    1  O   UNL     1      -7.577   6.661  64.319  1.00  0.00    -0.089 OA 
HETATM    2  H   UNL     1      -8.284   6.093  64.033  1.00  0.00     0.000 HD 
HETATM    3  C   UNL     1      -7.884   7.556  65.424  1.00  0.00    -0.117 C  
HETATM    4  C   UNL     1      -6.715   8.495  65.899  1.00  0.00    -0.057 C  
HETATM    5  O   UNL     1      -7.125   9.913  68.315  1.00  0.00    -0.075 OA 
HETATM    6  C   UNL     1      -8.534   8.943  65.042  1.00  0.00    -0.176 C  
HETATM    7  N   UNL     1      -7.805   9.467  66.204  1.00  0.00    -0.099 N  
HETATM    8  C   UNL     1      -8.074   9.871  67.525  1.00  0.00    -0.110 C  
ENDROOT
BRANCH   3   9
HETATM    9  C   UNL     1      -8.721   6.814  66.517  1.00  0.00    -0.136 C  
HETATM   10  C   UNL     1      -8.812   5.487  68.643  1.00  0.00    -0.108 C  
HETATM   11  C   UNL     1      -9.792   4.536  67.961  1.00  0.00    -0.154 C  
HETATM   12  H   UNL     1      -9.179   5.144  65.365  1.00  0.00     0.000 HD 
HETATM   13  C   UNL     1      -7.879   6.124  67.601  1.00  0.00    -0.105 C  
HETATM   14  C   UNL     1     -10.574   5.267  66.879  1.00  0.00    -0.214 C  
HETATM   15  N   UNL     1      -9.670   5.862  65.897  1.00  0.00     0.020 NA 
ENDBRANCH   3   9
BRANCH   8  16
HETATM   16  C   UNL     1      -9.462  10.129  68.100  1.00  0.00    -0.151 A  
HETATM   17  C   UNL     1     -10.123  11.390  67.915  1.00  0.00    -0.183 A  
HETATM   18  C   UNL     1     -10.082   9.200  68.957  1.00  0.00    -0.199 A  
HETATM   19  C   UNL     1     -11.899  10.677  69.456  1.00  0.00    -0.273 A  
HETATM   20  F   UNL     1     -11.945  12.821  68.562  1.00  0.00    -0.320 F  
HETATM   21  F   UNL     1     -13.033  10.943  70.119  1.00  0.00    -0.320 F  
HETATM   22  C   UNL     1     -11.281   9.462  69.629  1.00  0.00    -0.100 A  
HETATM   23  C   UNL     1     -11.332  11.628  68.627  1.00  0.00    -0.267 A  
BRANCH  17  24
HETATM   24  N   UNL     1      -9.587  12.431  67.095  1.00  0.00    -0.202 NA 
HETATM   25  H   UNL     1      -9.507  12.237  66.096  1.00  0.00     0.000 HD 
BRANCH  24  26
HETATM   26  C   UNL     1      -9.154  13.714  67.537  1.00  0.00    -0.213 A  
HETATM   27  C   UNL     1      -9.870  14.876  67.242  1.00  0.00    -0.229 A  
HETATM   28  F   UNL     1     -11.034  14.797  66.576  1.00  0.00    -0.300 F  
HETATM   29  C   UNL     1      -9.369  16.144  67.562  1.00  0.00    -0.217 A  
HETATM   30  C   UNL     1      -8.132  16.252  68.197  1.00  0.00    -0.158 A  
HETATM   31  C   UNL     1      -7.406  15.108  68.521  1.00  0.00    -0.119 A  
HETATM   32  I   UNL     1      -7.343  18.121  68.648  1.00  0.00    -0.243 I  
HETATM   33  C   UNL     1      -7.924  13.848  68.203  1.00  0.00    -0.148 A  
ENDBRANCH  24  26
ENDBRANCH  17  24
ENDBRANCH   8  16
TORSDOF 4
ENDMDL
MODEL      145
REMARK 921   NORMALIZED FREE ENERGY PREDICTED BY IDOCK:   -3.96 KCAL/MOL
REMARK 922        TOTAL FREE ENERGY PREDICTED BY IDOCK:   -6.63 KCAL/MOL
REMARK 923 INTER-LIGAND FREE ENERGY PREDICTED BY IDOCK:   -4.96 KCAL/MOL
REMARK 924 INTRA-LIGAND FREE ENERGY PREDICTED BY IDOCK:   -1.68 KCAL/MOL
REMARK 927      BINDING AFFINITY PREDICTED BY RF-SCORE:    0.00 PKD
ROOT
HETATM    1  O   UNL     1     -13.030   7.282  70.673  1.00  0.00    -0.601 OA 
HETATM    2  H   UNL     1     -13.319   6.429  70.370  1.00  0.00     0.000 HD 
HETATM    3  C   UNL     1     -11.710   7.332  71.282  1.00  0.00    -0.296 C  
HETATM    4  C   UNL     1     -11.232   8.744  71.783  1.00  0.00    -0.340 C  
HETATM    5  O   UNL     1      -8.516   8.967  72.554  1.00  0.00    -0.395 OA 
HETATM    6  C   UNL     1     -11.641   7.016  72.828  1.00  0.00    -0.104 C  
HETATM    7  N   UNL     1     -10.527   7.974  72.849  1.00  0.00    -0.349 N  
HETATM    8  C   UNL     1      -9.122   7.959  72.932  1.00  0.00    -0.220 C  
ENDROOT
BRANCH   3   9
HETATM    9  C   UNL     1     -10.697   6.457  70.473  1.00  0.00    -0.257 C  
HETATM   10  C   UNL     1     -10.003   5.390  68.312  1.00  0.00    -0.212 C  
HETATM   11  C   UNL     1      -9.733   4.100  69.082  1.00  0.00    -0.205 C  
HETATM   12  H   UNL     1     -11.276   4.628  71.278  1.00  0.00     0.000 HD 
HETATM   13  C   UNL     1     -11.102   6.205  69.014  1.00  0.00    -0.437 C  
HETATM   14  C   UNL     1      -9.369   4.410  70.527  1.00  0.00    -0.143 C  
HETATM   15  N   UNL     1     -10.426   5.182  71.175  1.00  0.00    -0.202 NA 
ENDBRANCH   3   9
BRANCH   8  16
HETATM   16  C   UNL     1      -8.278   6.751  73.321  1.00  0.00    -0.119 A  
HETATM   17  C   UNL     1      -7.065   6.432  72.622  1.00  0.00    -0.075 A  
HETATM   18  C   UNL     1      -8.730   5.820  74.275  1.00  0.00    -0.122 A  
HETATM   19  C   UNL     1      -6.912   4.319  73.864  1.00  0.00    -0.065 A  
HETATM   20  F   UNL     1      -5.338   4.806  72.227  1.00  0.00    -0.004 F  
HETATM   21  F   UNL     1      -6.286   3.158  74.102  1.00  0.00    -0.015 F  
HETATM   22  C   UNL     1      -8.065   4.620  74.549  1.00  0.00    -0.094 A  
HETATM   23  C   UNL     1      -6.424   5.196  72.913  1.00  0.00    -0.056 A  
BRANCH  17  24
HETATM   24  N   UNL     1      -6.512   7.277  71.608  1.00  0.00    -0.040 NA 
HETATM   25  H   UNL     1      -5.775   7.921  71.896  1.00  0.00     0.000 HD 
BRANCH  24  26
HETATM   26  C   UNL     1      -6.892   7.305  70.236  1.00  0.00    -0.052 A  
HETATM   27  C   UNL     1      -6.452   6.338  69.330  1.00  0.00    -0.043 A  
HETATM   28  F   UNL     1      -5.700   5.311  69.755  1.00  0.00    -0.013 F  
HETATM   29  C   UNL     1      -6.717   6.448  67.958  1.00  0.00    -0.068 A  
HETATM   30  C   UNL     1      -7.443   7.542  67.486  1.00  0.00    -0.104 A  
HETATM   31  C   UNL     1      -7.911   8.510  68.371  1.00  0.00    -0.106 A  
HETATM   32  I   UNL     1      -7.817   7.754  65.453  1.00  0.00    -0.131 I  
HETATM   33  C   UNL     1      -7.646   8.381  69.739  1.00  0.00    -0.087 A  
ENDBRANCH  24  26
ENDBRANCH  17  24
ENDBRANCH   8  16
TORSDOF 4
ENDMDL
MODEL      146
REMARK 921   NORMALIZED FREE ENERGY PREDICTED BY IDOCK:   -3.92 KCAL/MOL
REMARK 922        TOTAL FREE ENERGY PREDICTED BY IDOCK:   -6.59 KCAL/MOL
REMARK 923 INTER-LIGAND FREE ENERGY PREDICTED BY IDOCK:   -4.96 KCAL/MOL
REMARK 924 INTRA-LIGAND FREE ENERGY PREDICTED BY IDOCK:   -1.62 KCAL/MOL
REMARK 927      BINDING AFFINITY PREDICTED BY RF-SCORE:    0.00 PKD
ROOT
HETATM    1  O   UNL     1      -6.378   6.917  65.614  1.00  0.00    -0.041 OA 
HETATM    2  H   UNL     1      -5.797   7.663  65.712  1.00  0.00     0.000 HD 
HETATM    3  C   UNL     1      -7.621   6.971  66.368  1.00  0.00    -0.088 C  
HETATM    4  C   UNL     1      -8.583   5.737  66.206  1.00  0.00    -0.130 C  
HETATM    5  O   UNL     1     -11.186   6.004  67.287  1.00  0.00    -0.231 OA 
HETATM    6  C   UNL     1      -7.562   6.437  67.853  1.00  0.00    -0.102 C  
HETATM    7  N   UNL     1      -8.950   6.011  67.626  1.00  0.00    -0.112 N  
HETATM    8  C   UNL     1     -10.250   6.418  67.979  1.00  0.00    -0.164 C  
ENDROOT
BRANCH   3   9
HETATM    9  C   UNL     1      -8.244   8.404  66.300  1.00  0.00    -0.111 C  
HETATM   10  C   UNL     1      -9.765  10.051  65.176  1.00  0.00    -0.380 C  
HETATM   11  C   UNL     1      -8.647  11.086  65.271  1.00  0.00    -0.048 C  
HETATM   12  H   UNL     1      -6.546   9.362  65.577  1.00  0.00     0.000 HD 
HETATM   13  C   UNL     1      -9.171   8.635  65.098  1.00  0.00     0.046 C  
HETATM   14  C   UNL     1      -7.746  10.787  66.460  1.00  0.00    -0.145 C  
HETATM   15  N   UNL     1      -7.189   9.440  66.364  1.00  0.00    -0.088 NA 
ENDBRANCH   3   9
BRANCH   8  16
HETATM   16  C   UNL     1     -10.589   7.438  69.060  1.00  0.00    -0.203 A  
HETATM   17  C   UNL     1     -11.042   7.026  70.359  1.00  0.00    -0.287 A  
HETATM   18  C   UNL     1     -10.615   8.817  68.781  1.00  0.00    -0.174 A  
HETATM   19  C   UNL     1     -11.514   9.367  70.930  1.00  0.00    -0.316 A  
HETATM   20  F   UNL     1     -12.031   7.687  72.448  1.00  0.00    -0.304 F  
HETATM   21  F   UNL     1     -11.977  10.277  71.799  1.00  0.00    -0.428 F  
HETATM   22  C   UNL     1     -11.070   9.774  69.695  1.00  0.00    -0.251 A  
HETATM   23  C   UNL     1     -11.513   8.024  71.256  1.00  0.00    -0.269 A  
BRANCH  17  24
HETATM   24  N   UNL     1     -11.094   5.654  70.760  1.00  0.00    -0.198 NA 
HETATM   25  H   UNL     1     -12.016   5.220  70.803  1.00  0.00     0.000 HD 
BRANCH  24  26
HETATM   26  C   UNL     1      -9.981   4.835  71.106  1.00  0.00    -0.202 A  
HETATM   27  C   UNL     1      -9.053   5.222  72.075  1.00  0.00    -0.137 A  
HETATM   28  F   UNL     1      -9.230   6.367  72.754  1.00  0.00    -0.139 F  
HETATM   29  C   UNL     1      -7.891   4.478  72.312  1.00  0.00    -0.092 A  
HETATM   30  C   UNL     1      -7.656   3.319  71.573  1.00  0.00    -0.048 A  
HETATM   31  C   UNL     1      -8.575   2.898  70.615  1.00  0.00    -0.107 A  
HETATM   32  I   UNL     1      -5.921   2.215  71.874  1.00  0.00    -0.014 I  
HETATM   33  C   UNL     1      -9.736   3.647  70.396  1.00  0.00    -0.201 A  
ENDBRANCH  24  26
ENDBRANCH  17  24
ENDBRANCH   8  16
TORSDOF 4
ENDMDL
MODEL      147
REMARK 921   NORMALIZED FREE ENERGY PREDICTED BY IDOCK:   -3.89 KCAL/MOL
REMARK 922        TOTAL FREE ENERGY PREDICTED BY IDOCK:   -6.55 KCAL/MOL
REMARK 923 INTER-LIGAND FREE ENERGY PREDICTED BY IDOCK:   -7.42 KCAL/MOL
REMARK 924 INTRA-LIGAND FREE ENERGY PREDICTED BY IDOCK:    0.87 KCAL/MOL
REMARK 927      BINDING AFFINITY PREDICTED BY RF-SCORE:    0.00 PKD
ROOT
HETATM    1  O   UNL     1     -13.018  12.154  64.504  1.00  0.00    -0.677 OA 
HETATM    2  H   UNL     1     -13.037  11.229  64.287  1.00  0.00     0.000 HD 
HETATM    3  C   UNL     1     -11.846  12.618  65.230  1.00  0.00    -0.408 C  
HETATM    4  C   UNL     1     -11.814  14.149  65.588  1.00  0.00    -0.375 C  
HETATM    5  O   UNL     1      -9.371  15.170  66.591  1.00  0.00    -0.233 OA 
HETATM    6  C   UNL     1     -11.900  12.486  66.803  1.00  0.00    -0.346 C  
HETATM    7  N   UNL     1     -11.082  13.707  66.811  1.00  0.00    -0.303 N  
HETATM    8  C   UNL     1      -9.743  14.079  67.034  1.00  0.00    -0.256 C  
ENDROOT
BRANCH   3   9
HETATM    9  C   UNL     1     -10.546  11.972  64.647  1.00  0.00    -0.307 C  
HETATM   10  C   UNL     1      -9.270  11.070  62.685  1.00  0.00    -0.363 C  
HETATM   11  C   UNL     1      -8.883   9.867  63.541  1.00  0.00    -0.251 C  
HETATM   12  H   UNL     1     -10.871  10.065  65.410  1.00  0.00     0.000 HD 
HETATM   13  C   UNL     1     -10.621  11.639  63.150  1.00  0.00    -0.341 C  
HETATM   14  C   UNL     1      -8.856  10.250  65.014  1.00  0.00    -0.187 C  
HETATM   15  N   UNL     1     -10.148  10.784  65.435  1.00  0.00    -0.270 NA 
ENDBRANCH   3   9
BRANCH   8  16
HETATM   16  C   UNL     1      -8.675  13.188  67.659  1.00  0.00    -0.192 A  
HETATM   17  C   UNL     1      -9.025  12.115  68.546  1.00  0.00    -0.082 A  
HETATM   18  C   UNL     1      -7.305  13.475  67.509  1.00  0.00    -0.174 A  
HETATM   19  C   UNL     1      -6.646  11.763  69.047  1.00  0.00    -0.094 A  
HETATM   20  F   UNL     1      -8.251  10.491  70.142  1.00  0.00    -0.100 F  
HETATM   21  F   UNL     1      -5.688  11.112  69.722  1.00  0.00    -0.050 F  
HETATM   22  C   UNL     1      -6.299  12.780  68.189  1.00  0.00    -0.088 A  
HETATM   23  C   UNL     1      -7.977  11.441  69.234  1.00  0.00     0.146 A  
BRANCH  17  24
HETATM   24  N   UNL     1     -10.379  11.739  68.809  1.00  0.00    -0.299 NA 
HETATM   25  H   UNL     1     -11.105  12.394  68.515  1.00  0.00     0.000 HD 
BRANCH  24  26
HETATM   26  C   UNL     1     -10.814  10.540  69.442  1.00  0.00    -0.249 A  
HETATM   27  C   UNL     1     -11.536  10.556  70.637  1.00  0.00    -0.327 A  
HETATM   28  F   UNL     1     -11.894  11.726  71.190  1.00  0.00    -0.296 F  
HETATM   29  C   UNL     1     -11.841   9.373  71.323  1.00  0.00    -0.435 A  
HETATM   30  C   UNL     1     -11.422   8.150  70.799  1.00  0.00    -0.261 A  
HETATM   31  C   UNL     1     -10.718   8.104  69.598  1.00  0.00    -0.196 A  
HETATM   32  I   UNL     1     -11.825   6.382  71.814  1.00  0.00    -0.175 I  
HETATM   33  C   UNL     1     -10.430   9.293  68.920  1.00  0.00    -0.235 A  
ENDBRANCH  24  26
ENDBRANCH  17  24
ENDBRANCH   8  16
TORSDOF 4
ENDMDL
MODEL      148
REMARK 921   NORMALIZED FREE ENERGY PREDICTED BY IDOCK:   -3.86 KCAL/MOL
REMARK 922        TOTAL FREE ENERGY PREDICTED BY IDOCK:   -6.50 KCAL/MOL
REMARK 923 INTER-LIGAND FREE ENERGY PREDICTED BY IDOCK:   -4.72 KCAL/MOL
REMARK 924 INTRA-LIGAND FREE ENERGY PREDICTED BY IDOCK:   -1.79 KCAL/MOL
REMARK 927      BINDING AFFINITY PREDICTED BY RF-SCORE:    0.00 PKD
ROOT
HETATM    1  O   UNL     1      -7.995   5.698  72.789  1.00  0.00    -0.101 OA 
HETATM    2  H   UNL     1      -8.292   4.879  72.410  1.00  0.00     0.000 HD 
HETATM    3  C   UNL     1      -7.675   6.760  71.849  1.00  0.00    -0.096 C  
HETATM    4  C   UNL     1      -7.184   8.116  72.477  1.00  0.00    -0.101 C  
HETATM    5  O   UNL     1      -6.987  10.331  70.724  1.00  0.00    -0.332 OA 
HETATM    6  C   UNL     1      -6.206   6.763  71.269  1.00  0.00    -0.041 C  
HETATM    7  N   UNL     1      -6.349   8.225  71.245  1.00  0.00    -0.036 N  
HETATM    8  C   UNL     1      -6.564   9.249  70.304  1.00  0.00    -0.062 C  
ENDROOT
BRANCH   3   9
HETATM    9  C   UNL     1      -8.740   6.822  70.705  1.00  0.00    -0.146 C  
HETATM   10  C   UNL     1     -11.127   6.637  69.959  1.00  0.00    -0.394 C  
HETATM   11  C   UNL     1     -10.653   5.781  68.788  1.00  0.00    -0.321 C  
HETATM   12  H   UNL     1      -8.244   5.004  69.826  1.00  0.00     0.000 HD 
HETATM   13  C   UNL     1     -10.169   6.481  71.152  1.00  0.00    -0.219 C  
HETATM   14  C   UNL     1      -9.223   6.142  68.412  1.00  0.00    -0.111 C  
HETATM   15  N   UNL     1      -8.329   5.984  69.556  1.00  0.00    -0.114 NA 
ENDBRANCH   3   9
BRANCH   8  16
HETATM   16  C   UNL     1      -6.451   9.092  68.792  1.00  0.00    -0.053 A  
HETATM   17  C   UNL     1      -7.532   9.458  67.921  1.00  0.00    -0.084 A  
HETATM   18  C   UNL     1      -5.348   8.444  68.206  1.00  0.00    -0.034 A  
HETATM   19  C   UNL     1      -6.322   8.483  66.019  1.00  0.00    -0.053 A  
HETATM   20  F   UNL     1      -8.451   9.356  65.701  1.00  0.00    -0.119 F  
HETATM   21  F   UNL     1      -6.270   8.168  64.717  1.00  0.00    -0.047 F  
HETATM   22  C   UNL     1      -5.276   8.139  66.842  1.00  0.00    -0.032 A  
HETATM   23  C   UNL     1      -7.432   9.118  66.543  1.00  0.00    -0.093 A  
BRANCH  17  24
HETATM   24  N   UNL     1      -8.723  10.095  68.393  1.00  0.00    -0.120 NA 
HETATM   25  H   UNL     1      -9.202   9.654  69.178  1.00  0.00     0.000 HD 
BRANCH  24  26
HETATM   26  C   UNL     1      -9.304  11.287  67.872  1.00  0.00    -0.161 A  
HETATM   27  C   UNL     1     -10.566  11.291  67.276  1.00  0.00    -0.233 A  
HETATM   28  F   UNL     1     -11.295  10.164  67.237  1.00  0.00    -0.325 F  
HETATM   29  C   UNL     1     -11.073  12.435  66.645  1.00  0.00    -0.336 A  
HETATM   30  C   UNL     1     -10.305  13.599  66.618  1.00  0.00    -0.275 A  
HETATM   31  C   UNL     1      -9.050  13.628  67.223  1.00  0.00    -0.228 A  
HETATM   32  I   UNL     1     -11.012  15.301  65.656  1.00  0.00    -0.276 I  
HETATM   33  C   UNL     1      -8.563  12.480  67.857  1.00  0.00    -0.179 A  
ENDBRANCH  24  26
ENDBRANCH  17  24
ENDBRANCH   8  16
TORSDOF 4
ENDMDL
MODEL      149
REMARK 921   NORMALIZED FREE ENERGY PREDICTED BY IDOCK:   -3.84 KCAL/MOL
REMARK 922        TOTAL FREE ENERGY PREDICTED BY IDOCK:   -6.49 KCAL/MOL
REMARK 923 INTER-LIGAND FREE ENERGY PREDICTED BY IDOCK:   -5.94 KCAL/MOL
REMARK 924 INTRA-LIGAND FREE ENERGY PREDICTED BY IDOCK:   -0.54 KCAL/MOL
REMARK 927      BINDING AFFINITY PREDICTED BY RF-SCORE:    0.00 PKD
ROOT
HETATM    1  O   UNL     1     -13.601  13.527  72.751  1.00  0.00    -0.672 OA 
HETATM    2  H   UNL     1     -13.277  12.875  73.362  1.00  0.00     0.000 HD 
HETATM    3  C   UNL     1     -12.982  13.533  71.435  1.00  0.00    -0.339 C  
HETATM    4  C   UNL     1     -13.519  14.611  70.423  1.00  0.00     0.250 C  
HETATM    5  O   UNL     1     -12.670  14.364  67.733  1.00  0.00     0.281 OA 
HETATM    6  C   UNL     1     -11.661  14.385  71.286  1.00  0.00    -0.122 C  
HETATM    7  N   UNL     1     -12.117  14.627  69.911  1.00  0.00    -0.319 N  
HETATM    8  C   UNL     1     -11.812  14.197  68.606  1.00  0.00    -0.348 C  
ENDROOT
BRANCH   3   9
HETATM    9  C   UNL     1     -12.782  12.072  70.914  1.00  0.00    -0.199 C  
HETATM   10  C   UNL     1     -13.300   9.624  71.083  1.00  0.00    -0.344 C  
HETATM   11  C   UNL     1     -11.805   9.340  70.958  1.00  0.00    -0.376 C  
HETATM   12  H   UNL     1     -10.878  11.802  71.707  1.00  0.00     0.000 HD 
HETATM   13  C   UNL     1     -13.525  11.002  71.727  1.00  0.00    -0.260 C  
HETATM   14  C   UNL     1     -11.119  10.448  70.172  1.00  0.00    -0.314 C  
HETATM   15  N   UNL     1     -11.342  11.747  70.801  1.00  0.00     0.748 NA 
ENDBRANCH   3   9
BRANCH   8  16
HETATM   16  C   UNL     1     -10.565  13.416  68.207  1.00  0.00    -0.264 A  
HETATM   17  C   UNL     1      -9.250  13.895  68.529  1.00  0.00    -0.154 A  
HETATM   18  C   UNL     1     -10.648  12.279  67.381  1.00  0.00    -0.247 A  
HETATM   19  C   UNL     1      -8.270  12.101  67.168  1.00  0.00    -0.182 A  
HETATM   20  F   UNL     1      -6.884  13.673  68.167  1.00  0.00    -0.078 F  
HETATM   21  F   UNL     1      -7.192  11.495  66.652  1.00  0.00    -0.132 F  
HETATM   22  C   UNL     1      -9.524  11.626  66.864  1.00  0.00    -0.195 A  
HETATM   23  C   UNL     1      -8.131  13.216  67.973  1.00  0.00    -0.157 A  
BRANCH  17  24
HETATM   24  N   UNL     1      -9.026  15.055  69.335  1.00  0.00    -0.403 NA 
HETATM   25  H   UNL     1      -9.235  14.973  70.330  1.00  0.00     0.000 HD 
BRANCH  24  26
HETATM   26  C   UNL     1      -8.539  16.314  68.881  1.00  0.00    -0.260 A  
HETATM   27  C   UNL     1      -9.338  17.193  68.147  1.00  0.00    -0.264 A  
HETATM   28  F   UNL     1     -10.623  16.888  67.903  1.00  0.00    -0.308 F  
HETATM   29  C   UNL     1      -8.813  18.365  67.589  1.00  0.00    -0.272 A  
HETATM   30  C   UNL     1      -7.465  18.669  67.777  1.00  0.00    -0.227 A  
HETATM   31  C   UNL     1      -6.650  17.821  68.522  1.00  0.00    -0.213 A  
HETATM   32  I   UNL     1      -6.647  20.382  66.928  1.00  0.00    -0.351 I  
HETATM   33  C   UNL     1      -7.191  16.658  69.081  1.00  0.00    -0.220 A  
ENDBRANCH  24  26
ENDBRANCH  17  24
ENDBRANCH   8  16
TORSDOF 4
ENDMDL
MODEL      150
REMARK 921   NORMALIZED FREE ENERGY PREDICTED BY IDOCK:   -3.83 KCAL/MOL
REMARK 922        TOTAL FREE ENERGY PREDICTED BY IDOCK:   -6.47 KCAL/MOL
REMARK 923 INTER-LIGAND FREE ENERGY PREDICTED BY IDOCK:   -6.13 KCAL/MOL
REMARK 924 INTRA-LIGAND FREE ENERGY PREDICTED BY IDOCK:   -0.33 KCAL/MOL
REMARK 927      BINDING AFFINITY PREDICTED BY RF-SCORE:    0.00 PKD
ROOT
HETATM    1  O   UNL     1     -12.859  13.989  66.375  1.00  0.00    -0.474 OA 
HETATM    2  H   UNL     1     -13.211  14.551  67.056  1.00  0.00     0.000 HD 
HETATM    3  C   UNL     1     -11.608  13.314  66.685  1.00  0.00    -0.365 C  
HETATM    4  C   UNL     1     -11.026  12.383  65.559  1.00  0.00    -0.293 C  
HETATM    5  O   UNL     1      -8.857  10.715  66.284  1.00  0.00    -0.151 OA 
HETATM    6  C   UNL     1     -10.284  14.120  66.384  1.00  0.00    -0.290 C  
HETATM    7  N   UNL     1      -9.697  12.806  66.089  1.00  0.00    -0.260 N  
HETATM    8  C   UNL     1      -8.823  11.880  66.690  1.00  0.00    -0.191 C  
ENDROOT
BRANCH   3   9
HETATM    9  C   UNL     1     -11.626  12.771  68.152  1.00  0.00    -0.336 C  
HETATM   10  C   UNL     1     -12.011  10.881  69.755  1.00  0.00    -0.423 C  
HETATM   11  C   UNL     1     -12.808  11.842  70.634  1.00  0.00    -0.093 C  
HETATM   12  H   UNL     1     -13.383  13.721  68.731  1.00  0.00     0.000 HD 
HETATM   13  C   UNL     1     -12.096  11.315  68.282  1.00  0.00    -0.058 C  
HETATM   14  C   UNL     1     -12.319  13.269  70.438  1.00  0.00    -0.295 C  
HETATM   15  N   UNL     1     -12.411  13.663  69.035  1.00  0.00    -0.019 NA 
ENDBRANCH   3   9
BRANCH   8  16
HETATM   16  C   UNL     1      -7.936  12.166  67.897  1.00  0.00    -0.150 A  
HETATM   17  C   UNL     1      -7.111  13.339  67.956  1.00  0.00    -0.122 A  
HETATM   18  C   UNL     1      -7.777  11.219  68.926  1.00  0.00    -0.125 A  
HETATM   19  C   UNL     1      -6.063  12.492  70.009  1.00  0.00    -0.117 A  
HETATM   20  F   UNL     1      -5.318  14.485  69.076  1.00  0.00    -0.086 F  
HETATM   21  F   UNL     1      -5.161  12.629  70.991  1.00  0.00    -0.103 F  
HETATM   22  C   UNL     1      -6.857  11.371  69.970  1.00  0.00     0.138 A  
HETATM   23  C   UNL     1      -6.176  13.453  69.021  1.00  0.00    -0.092 A  
BRANCH  17  24
HETATM   24  N   UNL     1      -7.153  14.364  66.959  1.00  0.00    -0.335 NA 
HETATM   25  H   UNL     1      -6.834  14.111  66.023  1.00  0.00     0.000 HD 
BRANCH  24  26
HETATM   26  C   UNL     1      -7.597  15.704  67.146  1.00  0.00    -0.223 A  
HETATM   27  C   UNL     1      -8.519  16.043  68.138  1.00  0.00    -0.169 A  
HETATM   28  F   UNL     1      -8.966  15.106  68.989  1.00  0.00    -0.174 F  
HETATM   29  C   UNL     1      -9.054  17.335  68.228  1.00  0.00    -0.262 A  
HETATM   30  C   UNL     1      -8.651  18.308  67.314  1.00  0.00    -0.254 A  
HETATM   31  C   UNL     1      -7.717  18.003  66.327  1.00  0.00    -0.293 A  
HETATM   32  I   UNL     1      -9.455  20.223  67.397  1.00  0.00    -0.470 I  
HETATM   33  C   UNL     1      -7.185  16.711  66.256  1.00  0.00    -0.047 A  
ENDBRANCH  24  26
ENDBRANCH  17  24
ENDBRANCH   8  16
TORSDOF 4
ENDMDL
MODEL      151
REMARK 921   NORMALIZED FREE ENERGY PREDICTED BY IDOCK:   -3.81 KCAL/MOL
REMARK 922        TOTAL FREE ENERGY PREDICTED BY IDOCK:   -6.44 KCAL/MOL
REMARK 923 INTER-LIGAND FREE ENERGY PREDICTED BY IDOCK:   -5.21 KCAL/MOL
REMARK 924 INTRA-LIGAND FREE ENERGY PREDICTED BY IDOCK:   -1.23 KCAL/MOL
REMARK 927      BINDING AFFINITY PREDICTED BY RF-SCORE:    0.00 PKD
ROOT
HETATM    1  O   UNL     1      -7.228  12.737  68.646  1.00  0.00    -0.101 OA 
HETATM    2  H   UNL     1      -6.302  12.526  68.663  1.00  0.00     0.000 HD 
HETATM    3  C   UNL     1      -8.124  11.657  68.261  1.00  0.00    -0.150 C  
HETATM    4  C   UNL     1      -9.657  12.006  68.233  1.00  0.00    -0.204 C  
HETATM    5  O   UNL     1     -11.450   9.835  67.934  1.00  0.00    -0.032 OA 
HETATM    6  C   UNL     1      -8.372  11.472  66.713  1.00  0.00    -0.165 C  
HETATM    7  N   UNL     1      -9.717  11.030  67.105  1.00  0.00    -0.172 N  
HETATM    8  C   UNL     1     -10.444   9.830  67.217  1.00  0.00    -0.261 C  
ENDROOT
BRANCH   3   9
HETATM    9  C   UNL     1      -7.687  10.314  68.934  1.00  0.00    -0.098 C  
HETATM   10  C   UNL     1      -7.837   8.707  70.854  1.00  0.00    -0.129 C  
HETATM   11  C   UNL     1      -6.313   8.617  70.845  1.00  0.00    -0.044 C  
HETATM   12  H   UNL     1      -5.794  10.950  69.514  1.00  0.00     0.000 HD 
HETATM   13  C   UNL     1      -8.289  10.079  70.327  1.00  0.00     0.041 C  
HETATM   14  C   UNL     1      -5.774   8.889  69.448  1.00  0.00    -0.035 C  
HETATM   15  N   UNL     1      -6.212  10.197  68.968  1.00  0.00    -0.043 NA 
ENDBRANCH   3   9
BRANCH   8  16
HETATM   16  C   UNL     1     -10.017   8.486  66.636  1.00  0.00    -0.363 A  
HETATM   17  C   UNL     1     -10.442   7.249  67.226  1.00  0.00    -0.310 A  
HETATM   18  C   UNL     1      -9.071   8.408  65.596  1.00  0.00    -0.155 A  
HETATM   19  C   UNL     1      -8.939   6.021  65.721  1.00  0.00    -0.104 A  
HETATM   20  F   UNL     1     -10.158   4.863  67.324  1.00  0.00    -0.180 F  
HETATM   21  F   UNL     1      -8.408   4.862  65.307  1.00  0.00    -0.113 F  
HETATM   22  C   UNL     1      -8.534   7.199  65.140  1.00  0.00    -0.023 A  
HETATM   23  C   UNL     1      -9.864   6.040  66.749  1.00  0.00    -0.163 A  
BRANCH  17  24
HETATM   24  N   UNL     1     -11.376   7.190  68.309  1.00  0.00    -0.378 NA 
HETATM   25  H   UNL     1     -12.352   7.388  68.087  1.00  0.00     0.000 HD 
BRANCH  24  26
HETATM   26  C   UNL     1     -11.074   6.880  69.666  1.00  0.00    -0.258 A  
HETATM   27  C   UNL     1     -11.476   7.706  70.717  1.00  0.00    -0.277 A  
HETATM   28  F   UNL     1     -12.221   8.796  70.469  1.00  0.00    -0.184 F  
HETATM   29  C   UNL     1     -11.060   7.468  72.033  1.00  0.00    -0.288 A  
HETATM   30  C   UNL     1     -10.233   6.379  72.304  1.00  0.00    -0.185 A  
HETATM   31  C   UNL     1      -9.834   5.527  71.277  1.00  0.00    -0.228 A  
HETATM   32  I   UNL     1      -9.567   6.022  74.240  1.00  0.00    -0.302 I  
HETATM   33  C   UNL     1     -10.266   5.772  69.969  1.00  0.00    -0.304 A  
ENDBRANCH  24  26
ENDBRANCH  17  24
ENDBRANCH   8  16
TORSDOF 4
ENDMDL
MODEL      152
REMARK 921   NORMALIZED FREE ENERGY PREDICTED BY IDOCK:   -3.80 KCAL/MOL
REMARK 922        TOTAL FREE ENERGY PREDICTED BY IDOCK:   -6.43 KCAL/MOL
REMARK 923 INTER-LIGAND FREE ENERGY PREDICTED BY IDOCK:   -4.91 KCAL/MOL
REMARK 924 INTRA-LIGAND FREE ENERGY PREDICTED BY IDOCK:   -1.53 KCAL/MOL
REMARK 927      BINDING AFFINITY PREDICTED BY RF-SCORE:    0.00 PKD
ROOT
HETATM    1  O   UNL     1      -6.020  13.299  70.951  1.00  0.00    -0.359 OA 
HETATM    2  H   UNL     1      -6.619  13.862  71.428  1.00  0.00     0.000 HD 
HETATM    3  C   UNL     1      -6.447  12.890  69.622  1.00  0.00    -0.044 C  
HETATM    4  C   UNL     1      -5.455  11.959  68.832  1.00  0.00    -0.050 C  
HETATM    5  O   UNL     1      -6.035  11.515  66.097  1.00  0.00    -0.122 OA 
HETATM    6  C   UNL     1      -7.354  11.600  69.545  1.00  0.00     0.191 C  
HETATM    7  N   UNL     1      -6.694  11.361  68.255  1.00  0.00    -0.058 N  
HETATM    8  C   UNL     1      -6.986  11.470  66.883  1.00  0.00    -0.134 C  
ENDROOT
BRANCH   3   9
HETATM    9  C   UNL     1      -7.094  14.091  68.858  1.00  0.00    -0.111 C  
HETATM   10  C   UNL     1      -6.877  16.003  67.250  1.00  0.00    -0.236 C  
HETATM   11  C   UNL     1      -7.640  16.874  68.245  1.00  0.00    -0.202 C  
HETATM   12  H   UNL     1      -7.199  15.376  70.490  1.00  0.00     0.000 HD 
HETATM   13  C   UNL     1      -6.113  14.895  67.993  1.00  0.00    -0.163 C  
HETATM   14  C   UNL     1      -8.571  16.020  69.093  1.00  0.00    -0.247 C  
HETATM   15  N   UNL     1      -7.826  14.977  69.792  1.00  0.00    -0.107 NA 
ENDBRANCH   3   9
BRANCH   8  16
HETATM   16  C   UNL     1      -8.378  11.677  66.294  1.00  0.00    -0.027 A  
HETATM   17  C   UNL     1      -8.844  10.891  65.187  1.00  0.00    -0.156 A  
HETATM   18  C   UNL     1      -9.197  12.742  66.713  1.00  0.00    -0.225 A  
HETATM   19  C   UNL     1     -10.841  12.312  65.027  1.00  0.00    -0.298 A  
HETATM   20  F   UNL     1     -10.513  10.612  63.478  1.00  0.00    -0.371 F  
HETATM   21  F   UNL     1     -11.989  12.632  64.414  1.00  0.00    -0.371 F  
HETATM   22  C   UNL     1     -10.410  13.063  66.095  1.00  0.00    -0.285 A  
HETATM   23  C   UNL     1     -10.074  11.256  64.572  1.00  0.00    -0.295 A  
BRANCH  17  24
HETATM   24  N   UNL     1      -8.096   9.799  64.645  1.00  0.00    -0.139 NA 
HETATM   25  H   UNL     1      -7.374  10.029  63.960  1.00  0.00     0.000 HD 
BRANCH  24  26
HETATM   26  C   UNL     1      -8.260   8.422  64.968  1.00  0.00    -0.153 A  
HETATM   27  C   UNL     1      -7.782   7.408  64.136  1.00  0.00    -0.121 A  
HETATM   28  F   UNL     1      -7.093   7.717  63.026  1.00  0.00    -0.073 F  
HETATM   29  C   UNL     1      -8.066   6.060  64.391  1.00  0.00    -0.119 A  
HETATM   30  C   UNL     1      -8.835   5.720  65.504  1.00  0.00    -0.113 A  
HETATM   31  C   UNL     1      -9.306   6.711  66.362  1.00  0.00    -0.175 A  
HETATM   32  I   UNL     1      -9.306   3.732  65.887  1.00  0.00    -0.130 I  
HETATM   33  C   UNL     1      -9.006   8.051  66.099  1.00  0.00    -0.215 A  
ENDBRANCH  24  26
ENDBRANCH  17  24
ENDBRANCH   8  16
TORSDOF 4
ENDMDL
MODEL      153
REMARK 921   NORMALIZED FREE ENERGY PREDICTED BY IDOCK:   -3.76 KCAL/MOL
REMARK 922        TOTAL FREE ENERGY PREDICTED BY IDOCK:   -6.38 KCAL/MOL
REMARK 923 INTER-LIGAND FREE ENERGY PREDICTED BY IDOCK:   -5.75 KCAL/MOL
REMARK 924 INTRA-LIGAND FREE ENERGY PREDICTED BY IDOCK:   -0.63 KCAL/MOL
REMARK 927      BINDING AFFINITY PREDICTED BY RF-SCORE:    0.00 PKD
ROOT
HETATM    1  O   UNL     1      -8.466   7.447  71.198  1.00  0.00    -0.116 OA 
HETATM    2  H   UNL     1      -7.607   7.043  71.161  1.00  0.00     0.000 HD 
HETATM    3  C   UNL     1      -8.947   8.042  69.961  1.00  0.00    -0.144 C  
HETATM    4  C   UNL     1     -10.369   8.711  70.022  1.00  0.00    -0.207 C  
HETATM    5  O   UNL     1     -11.523   9.470  67.550  1.00  0.00     0.263 OA 
HETATM    6  C   UNL     1      -8.510   9.534  69.685  1.00  0.00    -0.169 C  
HETATM    7  N   UNL     1      -9.812   9.663  69.017  1.00  0.00    -0.175 N  
HETATM    8  C   UNL     1     -10.325   9.726  67.708  1.00  0.00    -0.225 C  
ENDROOT
BRANCH   3   9
HETATM    9  C   UNL     1      -8.621   7.117  68.743  1.00  0.00    -0.125 C  
HETATM   10  C   UNL     1      -9.404   5.588  66.915  1.00  0.00    -0.129 C  
HETATM   11  C   UNL     1      -8.299   4.614  67.311  1.00  0.00    -0.105 C  
HETATM   12  H   UNL     1      -7.867   5.528  69.853  1.00  0.00     0.000 HD 
HETATM   13  C   UNL     1      -9.844   6.415  68.135  1.00  0.00    -0.127 C  
HETATM   14  C   UNL     1      -7.130   5.362  67.935  1.00  0.00    -0.067 C  
HETATM   15  N   UNL     1      -7.567   6.137  69.092  1.00  0.00    -0.093 NA 
ENDBRANCH   3   9
BRANCH   8  16
HETATM   16  C   UNL     1      -9.496   9.948  66.448  1.00  0.00    -0.234 A  
HETATM   17  C   UNL     1      -9.896  10.898  65.449  1.00  0.00    -0.255 A  
HETATM   18  C   UNL     1      -8.392   9.128  66.146  1.00  0.00    -0.123 A  
HETATM   19  C   UNL     1      -8.100  10.098  63.977  1.00  0.00    -0.158 A  
HETATM   20  F   UNL     1      -9.566  11.732  63.218  1.00  0.00    -0.324 F  
HETATM   21  F   UNL     1      -7.458  10.146  62.802  1.00  0.00    -0.122 F  
HETATM   22  C   UNL     1      -7.700   9.194  64.932  1.00  0.00    -0.110 A  
HETATM   23  C   UNL     1      -9.180  10.926  64.220  1.00  0.00    -0.197 A  
BRANCH  17  24
HETATM   24  N   UNL     1     -11.017  11.771  65.617  1.00  0.00    -0.300 NA 
HETATM   25  H   UNL     1     -11.780  11.677  64.947  1.00  0.00     0.000 HD 
BRANCH  24  26
HETATM   26  C   UNL     1     -11.170  12.759  66.632  1.00  0.00    -0.301 A  
HETATM   27  C   UNL     1     -10.549  14.007  66.545  1.00  0.00    -0.279 A  
HETATM   28  F   UNL     1      -9.832  14.326  65.456  1.00  0.00    -0.326 F  
HETATM   29  C   UNL     1     -10.593  14.920  67.607  1.00  0.00    -0.264 A  
HETATM   30  C   UNL     1     -11.279  14.582  68.773  1.00  0.00    -0.261 A  
HETATM   31  C   UNL     1     -11.925  13.352  68.878  1.00  0.00    -0.362 A  
HETATM   32  I   UNL     1     -11.329  15.899  70.380  1.00  0.00    -0.356 I  
HETATM   33  C   UNL     1     -11.880  12.455  67.806  1.00  0.00    -0.362 A  
ENDBRANCH  24  26
ENDBRANCH  17  24
ENDBRANCH   8  16
TORSDOF 4
ENDMDL
MODEL      154
REMARK 921   NORMALIZED FREE ENERGY PREDICTED BY IDOCK:   -3.66 KCAL/MOL
REMARK 922        TOTAL FREE ENERGY PREDICTED BY IDOCK:   -6.26 KCAL/MOL
REMARK 923 INTER-LIGAND FREE ENERGY PREDICTED BY IDOCK:   -4.82 KCAL/MOL
REMARK 924 INTRA-LIGAND FREE ENERGY PREDICTED BY IDOCK:   -1.44 KCAL/MOL
REMARK 927      BINDING AFFINITY PREDICTED BY RF-SCORE:    0.00 PKD
ROOT
HETATM    1  O   UNL     1     -12.621  13.827  68.685  1.00  0.00    -0.267 OA 
HETATM    2  H   UNL     1     -13.392  13.508  68.231  1.00  0.00     0.000 HD 
HETATM    3  C   UNL     1     -11.338  13.443  68.116  1.00  0.00    -0.287 C  
HETATM    4  C   UNL     1     -10.062  13.970  68.868  1.00  0.00    -0.126 C  
HETATM    5  O   UNL     1      -7.579  13.630  67.550  1.00  0.00    -0.161 OA 
HETATM    6  C   UNL     1     -10.755  12.051  68.580  1.00  0.00    -0.236 C  
HETATM    7  N   UNL     1      -9.440  12.688  68.424  1.00  0.00    -0.198 N  
HETATM    8  C   UNL     1      -8.361  12.674  67.522  1.00  0.00    -0.177 C  
ENDROOT
BRANCH   3   9
HETATM    9  C   UNL     1     -11.373  13.557  66.556  1.00  0.00    -0.319 C  
HETATM   10  C   UNL     1     -11.298  14.972  64.487  1.00  0.00    -0.294 C  
HETATM   11  C   UNL     1     -12.495  14.188  63.956  1.00  0.00    -0.206 C  
HETATM   12  H   UNL     1     -13.414  13.218  66.343  1.00  0.00     0.000 HD 
HETATM   13  C   UNL     1     -11.320  14.996  66.025  1.00  0.00    -0.270 C  
HETATM   14  C   UNL     1     -12.512  12.783  64.541  1.00  0.00    -0.428 C  
HETATM   15  N   UNL     1     -12.536  12.828  66.001  1.00  0.00    -0.496 NA 
ENDBRANCH   3   9
BRANCH   8  16
HETATM   16  C   UNL     1      -8.152  11.644  66.417  1.00  0.00    -0.023 A  
HETATM   17  C   UNL     1      -6.877  11.019  66.210  1.00  0.00    -0.096 A  
HETATM   18  C   UNL     1      -9.156  11.379  65.466  1.00  0.00    -0.149 A  
HETATM   19  C   UNL     1      -7.726   9.980  64.153  1.00  0.00    -0.144 A  
HETATM   20  F   UNL     1      -5.506   9.672  64.764  1.00  0.00    -0.050 F  
HETATM   21  F   UNL     1      -7.519   9.219  63.069  1.00  0.00    -0.105 F  
HETATM   22  C   UNL     1      -8.955  10.563  64.348  1.00  0.00    -0.232 A  
HETATM   23  C   UNL     1      -6.703  10.208  65.054  1.00  0.00    -0.127 A  
BRANCH  17  24
HETATM   24  N   UNL     1      -5.764  11.226  67.085  1.00  0.00    -0.065 NA 
HETATM   25  H   UNL     1      -5.067  11.911  66.790  1.00  0.00     0.000 HD 
BRANCH  24  26
HETATM   26  C   UNL     1      -5.534  10.568  68.327  1.00  0.00    -0.033 A  
HETATM   27  C   UNL     1      -5.562   9.176  68.439  1.00  0.00    -0.038 A  
HETATM   28  F   UNL     1      -5.749   8.417  67.348  1.00  0.00    -0.036 F  
HETATM   29  C   UNL     1      -5.471   8.543  69.686  1.00  0.00    -0.030 A  
HETATM   30  C   UNL     1      -5.341   9.315  70.839  1.00  0.00    -0.033 A  
HETATM   31  C   UNL     1      -5.289  10.704  70.753  1.00  0.00    -0.097 A  
HETATM   32  I   UNL     1      -5.243   8.405  72.706  1.00  0.00    -0.055 I  
HETATM   33  C   UNL     1      -5.372  11.322  69.501  1.00  0.00    -0.045 A  
ENDBRANCH  24  26
ENDBRANCH  17  24
ENDBRANCH   8  16
TORSDOF 4
ENDMDL
MODEL      155
REMARK 921   NORMALIZED FREE ENERGY PREDICTED BY IDOCK:   -3.65 KCAL/MOL
REMARK 922        TOTAL FREE ENERGY PREDICTED BY IDOCK:   -6.25 KCAL/MOL
REMARK 923 INTER-LIGAND FREE ENERGY PREDICTED BY IDOCK:   -4.66 KCAL/MOL
REMARK 924 INTRA-LIGAND FREE ENERGY PREDICTED BY IDOCK:   -1.59 KCAL/MOL
REMARK 927      BINDING AFFINITY PREDICTED BY RF-SCORE:    0.00 PKD
ROOT
HETATM    1  O   UNL     1     -10.233  13.607  64.191  1.00  0.00    -0.718 OA 
HETATM    2  H   UNL     1      -9.673  14.355  64.361  1.00  0.00     0.000 HD 
HETATM    3  C   UNL     1     -10.129  12.503  65.133  1.00  0.00    -0.246 C  
HETATM    4  C   UNL     1     -11.057  11.264  64.852  1.00  0.00    -0.113 C  
HETATM    5  O   UNL     1     -11.216   9.307  66.892  1.00  0.00     0.243 OA 
HETATM    6  C   UNL     1      -9.004  11.436  64.839  1.00  0.00     0.104 C  
HETATM    7  N   UNL     1      -9.936  10.468  65.433  1.00  0.00    -0.270 N  
HETATM    8  C   UNL     1     -10.094   9.755  66.635  1.00  0.00    -0.237 C  
ENDROOT
BRANCH   3   9
HETATM    9  C   UNL     1     -10.041  13.038  66.600  1.00  0.00    -0.251 C  
HETATM   10  C   UNL     1     -11.173  13.643  68.755  1.00  0.00    -0.314 C  
HETATM   11  C   UNL     1     -10.371  14.942  68.764  1.00  0.00    -0.245 C  
HETATM   12  H   UNL     1      -9.753  15.036  66.101  1.00  0.00     0.000 HD 
HETATM   13  C   UNL     1     -11.397  13.169  67.309  1.00  0.00    -0.344 C  
HETATM   14  C   UNL     1      -9.056  14.759  68.022  1.00  0.00    -0.179 C  
HETATM   15  N   UNL     1      -9.290  14.313  66.651  1.00  0.00    -0.280 NA 
ENDBRANCH   3   9
BRANCH   8  16
HETATM   16  C   UNL     1      -9.028   9.606  67.715  1.00  0.00    -0.122 A  
HETATM   17  C   UNL     1      -8.801   8.350  68.372  1.00  0.00    -0.140 A  
HETATM   18  C   UNL     1      -8.333  10.724  68.214  1.00  0.00    -0.125 A  
HETATM   19  C   UNL     1      -7.263   9.453  69.938  1.00  0.00    -0.083 A  
HETATM   20  F   UNL     1      -7.744   7.195  70.197  1.00  0.00    -0.087 F  
HETATM   21  F   UNL     1      -6.453   9.390  71.003  1.00  0.00    -0.066 F  
HETATM   22  C   UNL     1      -7.463  10.658  69.308  1.00  0.00    -0.130 A  
HETATM   23  C   UNL     1      -7.923   8.323  69.491  1.00  0.00    -0.112 A  
BRANCH  17  24
HETATM   24  N   UNL     1      -9.465   7.144  67.984  1.00  0.00    -0.131 NA 
HETATM   25  H   UNL     1     -10.382   6.969  68.395  1.00  0.00     0.000 HD 
BRANCH  24  26
HETATM   26  C   UNL     1      -8.969   6.163  67.077  1.00  0.00    -0.114 A  
HETATM   27  C   UNL     1      -8.689   4.858  67.485  1.00  0.00    -0.103 A  
HETATM   28  F   UNL     1      -8.944   4.479  68.748  1.00  0.00    -0.106 F  
HETATM   29  C   UNL     1      -8.074   3.940  66.623  1.00  0.00    -0.097 A  
HETATM   30  C   UNL     1      -7.743   4.332  65.327  1.00  0.00    -0.085 A  
HETATM   31  C   UNL     1      -8.030   5.623  64.888  1.00  0.00    -0.117 A  
HETATM   32  I   UNL     1      -6.795   3.005  64.039  1.00  0.00    -0.038 I  
HETATM   33  C   UNL     1      -8.652   6.525  65.757  1.00  0.00    -0.149 A  
ENDBRANCH  24  26
ENDBRANCH  17  24
ENDBRANCH   8  16
TORSDOF 4
ENDMDL
MODEL      156
REMARK 921   NORMALIZED FREE ENERGY PREDICTED BY IDOCK:   -3.64 KCAL/MOL
REMARK 922        TOTAL FREE ENERGY PREDICTED BY IDOCK:   -6.24 KCAL/MOL
REMARK 923 INTER-LIGAND FREE ENERGY PREDICTED BY IDOCK:   -6.89 KCAL/MOL
REMARK 924 INTRA-LIGAND FREE ENERGY PREDICTED BY IDOCK:    0.65 KCAL/MOL
REMARK 927      BINDING AFFINITY PREDICTED BY RF-SCORE:    0.00 PKD
ROOT
HETATM    1  O   UNL     1     -10.768  10.524  63.804  1.00  0.00    -0.363 OA 
HETATM    2  H   UNL     1     -10.953   9.778  64.363  1.00  0.00     0.000 HD 
HETATM    3  C   UNL     1     -10.711  11.820  64.462  1.00  0.00    -0.315 C  
HETATM    4  C   UNL     1     -10.405  13.054  63.537  1.00  0.00     0.459 C  
HETATM    5  O   UNL     1      -9.842  15.507  64.833  1.00  0.00    -0.249 OA 
HETATM    6  C   UNL     1     -12.085  12.580  64.632  1.00  0.00    -0.428 C  
HETATM    7  N   UNL     1     -11.287  13.804  64.478  1.00  0.00    -0.375 N  
HETATM    8  C   UNL     1     -10.781  14.842  65.282  1.00  0.00    -0.393 C  
ENDROOT
BRANCH   3   9
HETATM    9  C   UNL     1      -9.945  11.713  65.822  1.00  0.00    -0.237 C  
HETATM   10  C   UNL     1      -9.990  11.473  68.318  1.00  0.00    -0.205 C  
HETATM   11  C   UNL     1      -8.968  12.603  68.405  1.00  0.00    -0.125 C  
HETATM   12  H   UNL     1      -9.413  13.719  65.947  1.00  0.00     0.000 HD 
HETATM   13  C   UNL     1     -10.855  11.636  67.057  1.00  0.00    -0.311 C  
HETATM   14  C   UNL     1      -8.119  12.649  67.142  1.00  0.00    -0.141 C  
HETATM   15  N   UNL     1      -8.958  12.807  65.958  1.00  0.00     0.143 NA 
ENDBRANCH   3   9
BRANCH   8  16
HETATM   16  C   UNL     1     -11.204  15.127  66.718  1.00  0.00    -0.285 A  
HETATM   17  C   UNL     1     -10.537  16.123  67.509  1.00  0.00    -0.314 A  
HETATM   18  C   UNL     1     -12.160  14.326  67.371  1.00  0.00    -0.371 A  
HETATM   19  C   UNL     1     -11.809  15.400  69.482  1.00  0.00    -0.349 A  
HETATM   20  F   UNL     1     -10.202  17.063  69.697  1.00  0.00    -0.238 F  
HETATM   21  F   UNL     1     -12.076  15.506  70.791  1.00  0.00    -0.289 F  
HETATM   22  C   UNL     1     -12.464  14.452  68.731  1.00  0.00     0.101 A  
HETATM   23  C   UNL     1     -10.859  16.212  68.892  1.00  0.00    -0.305 A  
BRANCH  17  24
HETATM   24  N   UNL     1      -9.526  16.983  66.976  1.00  0.00    -0.243 NA 
HETATM   25  H   UNL     1      -9.528  17.127  65.966  1.00  0.00     0.000 HD 
BRANCH  24  26
HETATM   26  C   UNL     1      -8.517  17.658  67.720  1.00  0.00    -0.227 A  
HETATM   27  C   UNL     1      -7.424  16.980  68.263  1.00  0.00    -0.207 A  
HETATM   28  F   UNL     1      -7.269  15.666  68.039  1.00  0.00    -0.110 F  
HETATM   29  C   UNL     1      -6.509  17.625  69.107  1.00  0.00    -0.237 A  
HETATM   30  C   UNL     1      -6.687  18.976  69.405  1.00  0.00    -0.266 A  
HETATM   31  C   UNL     1      -7.758  19.681  68.860  1.00  0.00    -0.326 A  
HETATM   32  I   UNL     1      -5.370  19.950  70.684  1.00  0.00    -0.350 I  
HETATM   33  C   UNL     1      -8.656  19.026  68.012  1.00  0.00    -0.337 A  
ENDBRANCH  24  26
ENDBRANCH  17  24
ENDBRANCH   8  16
TORSDOF 4
ENDMDL
MODEL      157
REMARK 921   NORMALIZED FREE ENERGY PREDICTED BY IDOCK:   -3.64 KCAL/MOL
REMARK 922        TOTAL FREE ENERGY PREDICTED BY IDOCK:   -6.24 KCAL/MOL
REMARK 923 INTER-LIGAND FREE ENERGY PREDICTED BY IDOCK:   -5.31 KCAL/MOL
REMARK 924 INTRA-LIGAND FREE ENERGY PREDICTED BY IDOCK:   -0.92 KCAL/MOL
REMARK 927      BINDING AFFINITY PREDICTED BY RF-SCORE:    0.00 PKD
ROOT
HETATM    1  O   UNL     1      -7.611   6.628  71.709  1.00  0.00    -0.091 OA 
HETATM    2  H   UNL     1      -8.193   5.903  71.509  1.00  0.00     0.000 HD 
HETATM    3  C   UNL     1      -7.774   7.822  70.895  1.00  0.00    -0.087 C  
HETATM    4  C   UNL     1      -6.812   9.022  71.226  1.00  0.00    -0.086 C  
HETATM    5  O   UNL     1      -7.393  11.498  69.982  1.00  0.00     0.267 OA 
HETATM    6  C   UNL     1      -6.973   7.856  69.534  1.00  0.00    -0.054 C  
HETATM    7  N   UNL     1      -6.886   9.305  69.762  1.00  0.00    -0.050 N  
HETATM    8  C   UNL     1      -7.473  10.487  69.276  1.00  0.00    -0.122 C  
ENDROOT
BRANCH   3   9
HETATM    9  C   UNL     1      -9.290   8.135  70.674  1.00  0.00    -0.154 C  
HETATM   10  C   UNL     1     -11.457   9.059  71.534  1.00  0.00    -0.407 C  
HETATM   11  C   UNL     1     -12.153   7.807  71.008  1.00  0.00    -0.264 C  
HETATM   12  H   UNL     1      -9.962   6.176  70.863  1.00  0.00     0.000 HD 
HETATM   13  C   UNL     1      -9.996   8.742  71.895  1.00  0.00    -0.401 C  
HETATM   14  C   UNL     1     -11.392   7.235  69.821  1.00  0.00    -0.071 C  
HETATM   15  N   UNL     1     -10.009   6.937  70.185  1.00  0.00    -0.178 NA 
ENDBRANCH   3   9
BRANCH   8  16
HETATM   16  C   UNL     1      -8.322  10.593  68.014  1.00  0.00    -0.118 A  
HETATM   17  C   UNL     1      -9.178  11.722  67.782  1.00  0.00    -0.181 A  
HETATM   18  C   UNL     1      -8.413   9.523  67.104  1.00  0.00    -0.131 A  
HETATM   19  C   UNL     1     -10.121  10.595  65.814  1.00  0.00    -0.266 A  
HETATM   20  F   UNL     1     -10.960  12.660  66.468  1.00  0.00    -0.264 F  
HETATM   21  F   UNL     1     -10.989  10.580  64.793  1.00  0.00    -0.235 F  
HETATM   22  C   UNL     1      -9.296   9.514  66.019  1.00  0.00    -0.273 A  
HETATM   23  C   UNL     1     -10.075  11.672  66.680  1.00  0.00    -0.208 A  
BRANCH  17  24
HETATM   24  N   UNL     1      -9.205  12.861  68.647  1.00  0.00    -0.397 NA 
HETATM   25  H   UNL     1      -8.354  13.422  68.697  1.00  0.00     0.000 HD 
BRANCH  24  26
HETATM   26  C   UNL     1     -10.306  13.289  69.443  1.00  0.00     0.418 A  
HETATM   27  C   UNL     1     -11.340  12.421  69.797  1.00  0.00    -0.053 A  
HETATM   28  F   UNL     1     -11.286  11.128  69.438  1.00  0.00    -0.233 F  
HETATM   29  C   UNL     1     -12.484  12.881  70.463  1.00  0.00    -0.294 A  
HETATM   30  C   UNL     1     -12.590  14.232  70.789  1.00  0.00    -0.356 A  
HETATM   31  C   UNL     1     -11.563  15.116  70.466  1.00  0.00    -0.340 A  
HETATM   32  I   UNL     1     -14.291  14.952  71.742  1.00  0.00    -0.667 I  
HETATM   33  C   UNL     1     -10.423  14.640  69.809  1.00  0.00    -0.018 A  
ENDBRANCH  24  26
ENDBRANCH  17  24
ENDBRANCH   8  16
TORSDOF 4
ENDMDL
MODEL      158
REMARK 921   NORMALIZED FREE ENERGY PREDICTED BY IDOCK:   -3.55 KCAL/MOL
REMARK 922        TOTAL FREE ENERGY PREDICTED BY IDOCK:   -6.12 KCAL/MOL
REMARK 923 INTER-LIGAND FREE ENERGY PREDICTED BY IDOCK:   -5.77 KCAL/MOL
REMARK 924 INTRA-LIGAND FREE ENERGY PREDICTED BY IDOCK:   -0.35 KCAL/MOL
REMARK 927      BINDING AFFINITY PREDICTED BY RF-SCORE:    0.00 PKD
ROOT
HETATM    1  O   UNL     1      -8.233   4.210  64.736  1.00  0.00    -0.099 OA 
HETATM    2  H   UNL     1      -7.347   4.397  64.449  1.00  0.00     0.000 HD 
HETATM    3  C   UNL     1      -8.692   4.937  65.910  1.00  0.00    -0.127 C  
HETATM    4  C   UNL     1     -10.159   4.628  66.385  1.00  0.00    -0.261 C  
HETATM    5  O   UNL     1     -11.237   6.336  68.370  1.00  0.00    -0.335 OA 
HETATM    6  C   UNL     1      -8.348   4.293  67.310  1.00  0.00    -0.100 C  
HETATM    7  N   UNL     1      -9.621   4.879  67.754  1.00  0.00    -0.141 N  
HETATM    8  C   UNL     1     -10.070   5.965  68.529  1.00  0.00    -0.167 C  
ENDROOT
BRANCH   3   9
HETATM    9  C   UNL     1      -8.240   6.433  65.842  1.00  0.00    -0.130 C  
HETATM   10  C   UNL     1      -6.661   8.250  66.544  1.00  0.00    -0.056 C  
HETATM   11  C   UNL     1      -7.869   9.148  66.795  1.00  0.00    -0.101 C  
HETATM   12  H   UNL     1      -9.764   7.190  67.038  1.00  0.00     0.000 HD 
HETATM   13  C   UNL     1      -7.046   6.775  66.745  1.00  0.00    -0.072 C  
HETATM   14  C   UNL     1      -9.028   8.741  65.896  1.00  0.00    -0.195 C  
HETATM   15  N   UNL     1      -9.380   7.340  66.105  1.00  0.00    -0.102 NA 
ENDBRANCH   3   9
BRANCH   8  16
HETATM   16  C   UNL     1      -9.195   6.811  69.447  1.00  0.00    -0.143 A  
HETATM   17  C   UNL     1      -9.436   8.215  69.621  1.00  0.00    -0.159 A  
HETATM   18  C   UNL     1      -8.033   6.282  70.039  1.00  0.00    -0.111 A  
HETATM   19  C   UNL     1      -7.353   8.407  70.908  1.00  0.00    -0.064 A  
HETATM   20  F   UNL     1      -8.607  10.310  70.461  1.00  0.00    -0.004 F  
HETATM   21  F   UNL     1      -6.467   9.162  71.573  1.00  0.00    -0.074 F  
HETATM   22  C   UNL     1      -7.119   7.060  70.759  1.00  0.00    -0.067 A  
HETATM   23  C   UNL     1      -8.478   8.979  70.344  1.00  0.00    -0.182 A  
BRANCH  17  24
HETATM   24  N   UNL     1     -10.564   8.883  69.048  1.00  0.00    -0.316 NA 
HETATM   25  H   UNL     1     -10.884   8.549  68.138  1.00  0.00     0.000 HD 
BRANCH  24  26
HETATM   26  C   UNL     1     -11.283   9.968  69.625  1.00  0.00    -0.239 A  
HETATM   27  C   UNL     1     -11.265  11.246  69.063  1.00  0.00    -0.258 A  
HETATM   28  F   UNL     1     -10.608  11.465  67.912  1.00  0.00    -0.184 F  
HETATM   29  C   UNL     1     -11.862  12.337  69.708  1.00  0.00    -0.388 A  
HETATM   30  C   UNL     1     -12.495  12.144  70.936  1.00  0.00    -0.279 A  
HETATM   31  C   UNL     1     -12.545  10.876  71.510  1.00  0.00    -0.480 A  
HETATM   32  I   UNL     1     -13.354  13.750  71.937  1.00  0.00    -0.524 I  
HETATM   33  C   UNL     1     -11.953   9.795  70.848  1.00  0.00    -0.413 A  
ENDBRANCH  24  26
ENDBRANCH  17  24
ENDBRANCH   8  16
TORSDOF 4
ENDMDL
MODEL      159
REMARK 921   NORMALIZED FREE ENERGY PREDICTED BY IDOCK:   -3.53 KCAL/MOL
REMARK 922        TOTAL FREE ENERGY PREDICTED BY IDOCK:   -6.11 KCAL/MOL
REMARK 923 INTER-LIGAND FREE ENERGY PREDICTED BY IDOCK:   -4.35 KCAL/MOL
REMARK 924 INTRA-LIGAND FREE ENERGY PREDICTED BY IDOCK:   -1.75 KCAL/MOL
REMARK 927      BINDING AFFINITY PREDICTED BY RF-SCORE:    0.00 PKD
ROOT
HETATM    1  O   UNL     1      -5.163   9.051  66.680  1.00  0.00    -0.037 OA 
HETATM    2  H   UNL     1      -4.668   9.325  67.444  1.00  0.00     0.000 HD 
HETATM    3  C   UNL     1      -6.270   8.141  66.928  1.00  0.00    -0.055 C  
HETATM    4  C   UNL     1      -7.090   7.688  65.664  1.00  0.00    -0.061 C  
HETATM    5  O   UNL     1      -9.506   6.293  66.149  1.00  0.00    -0.144 OA 
HETATM    6  C   UNL     1      -5.917   6.602  66.965  1.00  0.00    -0.021 C  
HETATM    7  N   UNL     1      -7.261   6.405  66.407  1.00  0.00    -0.071 N  
HETATM    8  C   UNL     1      -8.530   5.974  66.837  1.00  0.00    -0.109 C  
ENDROOT
BRANCH   3   9
HETATM    9  C   UNL     1      -7.065   8.576  68.203  1.00  0.00    -0.085 C  
HETATM   10  C   UNL     1      -7.782  10.374  69.798  1.00  0.00    -0.126 C  
HETATM   11  C   UNL     1      -7.427   9.438  70.950  1.00  0.00    -0.097 C  
HETATM   12  H   UNL     1      -5.740   7.769  69.589  1.00  0.00     0.000 HD 
HETATM   13  C   UNL     1      -6.910  10.059  68.571  1.00  0.00    -0.054 C  
HETATM   14  C   UNL     1      -7.569   7.986  70.517  1.00  0.00    -0.076 C  
HETATM   15  N   UNL     1      -6.731   7.706  69.354  1.00  0.00    -0.039 NA 
ENDBRANCH   3   9
BRANCH   8  16
HETATM   16  C   UNL     1      -8.817   5.263  68.154  1.00  0.00    -0.107 A  
HETATM   17  C   UNL     1      -9.958   5.607  68.955  1.00  0.00    -0.166 A  
HETATM   18  C   UNL     1      -7.898   4.352  68.708  1.00  0.00    -0.070 A  
HETATM   19  C   UNL     1      -9.135   4.143  70.747  1.00  0.00    -0.111 A  
HETATM   20  F   UNL     1     -11.065   5.391  71.078  1.00  0.00    -0.287 F  
HETATM   21  F   UNL     1      -9.266   3.636  71.980  1.00  0.00    -0.126 F  
HETATM   22  C   UNL     1      -8.045   3.797  69.984  1.00  0.00    -0.061 A  
HETATM   23  C   UNL     1     -10.067   5.036  70.253  1.00  0.00    -0.269 A  
BRANCH  17  24
HETATM   24  N   UNL     1     -10.952   6.541  68.523  1.00  0.00    -0.412 NA 
HETATM   25  H   UNL     1     -11.779   6.156  68.066  1.00  0.00     0.000 HD 
BRANCH  24  26
HETATM   26  C   UNL     1     -10.898   7.956  68.670  1.00  0.00     0.068 A  
HETATM   27  C   UNL     1     -11.209   8.585  69.877  1.00  0.00    -0.032 A  
HETATM   28  F   UNL     1     -11.510   7.849  70.959  1.00  0.00    -0.264 F  
HETATM   29  C   UNL     1     -11.286   9.980  69.976  1.00  0.00    -0.345 A  
HETATM   30  C   UNL     1     -11.039  10.761  68.848  1.00  0.00    -0.253 A  
HETATM   31  C   UNL     1     -10.707  10.161  67.635  1.00  0.00    -0.339 A  
HETATM   32  I   UNL     1     -11.185  12.832  68.953  1.00  0.00    -0.303 I  
HETATM   33  C   UNL     1     -10.625   8.767  67.555  1.00  0.00    -0.298 A  
ENDBRANCH  24  26
ENDBRANCH  17  24
ENDBRANCH   8  16
TORSDOF 4
ENDMDL
MODEL      160
REMARK 921   NORMALIZED FREE ENERGY PREDICTED BY IDOCK:   -3.42 KCAL/MOL
REMARK 922        TOTAL FREE ENERGY PREDICTED BY IDOCK:   -5.97 KCAL/MOL
REMARK 923 INTER-LIGAND FREE ENERGY PREDICTED BY IDOCK:   -4.35 KCAL/MOL
REMARK 924 INTRA-LIGAND FREE ENERGY PREDICTED BY IDOCK:   -1.62 KCAL/MOL
REMARK 927      BINDING AFFINITY PREDICTED BY RF-SCORE:    0.00 PKD
ROOT
HETATM    1  O   UNL     1      -7.104   8.899  66.855  1.00  0.00    -0.079 OA 
HETATM    2  H   UNL     1      -6.767   9.586  67.418  1.00  0.00     0.000 HD 
HETATM    3  C   UNL     1      -7.341   7.611  67.487  1.00  0.00    -0.095 C  
HETATM    4  C   UNL     1      -7.900   6.474  66.555  1.00  0.00    -0.104 C  
HETATM    5  O   UNL     1      -8.795   4.109  67.829  1.00  0.00    -0.104 OA 
HETATM    6  C   UNL     1      -6.107   6.628  67.558  1.00  0.00    -0.031 C  
HETATM    7  N   UNL     1      -7.106   5.559  67.426  1.00  0.00    -0.072 N  
HETATM    8  C   UNL     1      -7.734   4.594  68.235  1.00  0.00    -0.081 C  
ENDROOT
BRANCH   3   9
HETATM    9  C   UNL     1      -8.002   7.801  68.892  1.00  0.00    -0.124 C  
HETATM   10  C   UNL     1      -9.402   9.172  70.458  1.00  0.00    -0.287 C  
HETATM   11  C   UNL     1      -8.351   8.936  71.539  1.00  0.00    -0.163 C  
HETATM   12  H   UNL     1      -6.254   8.285  69.908  1.00  0.00     0.000 HD 
HETATM   13  C   UNL     1      -8.748   9.132  69.066  1.00  0.00    -0.135 C  
HETATM   14  C   UNL     1      -7.625   7.620  71.296  1.00  0.00    -0.080 C  
HETATM   15  N   UNL     1      -7.010   7.604  69.972  1.00  0.00    -0.050 NA 
ENDBRANCH   3   9
BRANCH   8  16
HETATM   16  C   UNL     1      -7.286   4.198  69.638  1.00  0.00    -0.050 A  
HETATM   17  C   UNL     1      -8.236   3.998  70.696  1.00  0.00    -0.065 A  
HETATM   18  C   UNL     1      -5.923   4.160  69.986  1.00  0.00    -0.018 A  
HETATM   19  C   UNL     1      -6.392   3.779  72.303  1.00  0.00    -0.014 A  
HETATM   20  F   UNL     1      -8.587   3.708  73.057  1.00  0.00    -0.086 F  
HETATM   21  F   UNL     1      -5.967   3.610  73.562  1.00  0.00    -0.006 F  
HETATM   22  C   UNL     1      -5.473   3.956  71.295  1.00  0.00    -0.008 A  
HETATM   23  C   UNL     1      -7.744   3.810  72.017  1.00  0.00    -0.063 A  
BRANCH  17  24
HETATM   24  N   UNL     1      -9.650   4.041  70.483  1.00  0.00    -0.179 NA 
HETATM   25  H   UNL     1     -10.079   3.214  70.066  1.00  0.00     0.000 HD 
BRANCH  24  26
HETATM   26  C   UNL     1     -10.518   5.126  70.797  1.00  0.00    -0.193 A  
HETATM   27  C   UNL     1     -11.082   5.929  69.805  1.00  0.00    -0.352 A  
HETATM   28  F   UNL     1     -10.862   5.652  68.510  1.00  0.00    -0.288 F  
HETATM   29  C   UNL     1     -11.822   7.075  70.126  1.00  0.00    -0.190 A  
HETATM   30  C   UNL     1     -12.008   7.417  71.465  1.00  0.00    -0.307 A  
HETATM   31  C   UNL     1     -11.474   6.621  72.475  1.00  0.00    -0.269 A  
HETATM   32  I   UNL     1     -13.068   9.132  71.972  1.00  0.00    -0.571 I  
HETATM   33  C   UNL     1     -10.745   5.475  72.139  1.00  0.00    -0.288 A  
ENDBRANCH  24  26
ENDBRANCH  17  24
ENDBRANCH   8  16
TORSDOF 4
ENDMDL
MODEL      161
REMARK 921   NORMALIZED FREE ENERGY PREDICTED BY IDOCK:   -3.40 KCAL/MOL
REMARK 922        TOTAL FREE ENERGY PREDICTED BY IDOCK:   -5.94 KCAL/MOL
REMARK 923 INTER-LIGAND FREE ENERGY PREDICTED BY IDOCK:   -5.02 KCAL/MOL
REMARK 924 INTRA-LIGAND FREE ENERGY PREDICTED BY IDOCK:   -0.92 KCAL/MOL
REMARK 927      BINDING AFFINITY PREDICTED BY RF-SCORE:    0.00 PKD
ROOT
HETATM    1  O   UNL     1      -5.896   9.725  62.955  1.00  0.00    -0.097 OA 
HETATM    2  H   UNL     1      -5.080   9.448  63.354  1.00  0.00     0.000 HD 
HETATM    3  C   UNL     1      -7.064   9.729  63.823  1.00  0.00    -0.121 C  
HETATM    4  C   UNL     1      -8.415  10.188  63.162  1.00  0.00    -0.182 C  
HETATM    5  O   UNL     1     -10.596  10.640  64.911  1.00  0.00    -0.279 OA 
HETATM    6  C   UNL     1      -7.852   8.366  63.941  1.00  0.00    -0.151 C  
HETATM    7  N   UNL     1      -9.045   9.209  64.096  1.00  0.00    -0.015 N  
HETATM    8  C   UNL     1      -9.914   9.631  65.120  1.00  0.00    -0.012 C  
ENDROOT
BRANCH   3   9
HETATM    9  C   UNL     1      -6.701  10.303  65.231  1.00  0.00    -0.126 C  
HETATM   10  C   UNL     1      -5.129  11.584  66.707  1.00  0.00    -0.116 C  
HETATM   11  C   UNL     1      -5.268  10.476  67.748  1.00  0.00    -0.037 C  
HETATM   12  H   UNL     1      -6.149   8.490  66.087  1.00  0.00     0.000 HD 
HETATM   13  C   UNL     1      -5.341  11.013  65.295  1.00  0.00     0.002 C  
HETATM   14  C   UNL     1      -6.620   9.790  67.616  1.00  0.00    -0.068 C  
HETATM   15  N   UNL     1      -6.800   9.253  66.270  1.00  0.00    -0.081 NA 
ENDBRANCH   3   9
BRANCH   8  16
HETATM   16  C   UNL     1      -9.983   9.029  66.518  1.00  0.00    -0.355 A  
HETATM   17  C   UNL     1     -10.387   9.814  67.650  1.00  0.00    -0.230 A  
HETATM   18  C   UNL     1      -9.510   7.728  66.777  1.00  0.00    -0.251 A  
HETATM   19  C   UNL     1      -9.787   7.958  69.144  1.00  0.00    -0.174 A  
HETATM   20  F   UNL     1     -10.533   9.964  70.046  1.00  0.00    -0.233 F  
HETATM   21  F   UNL     1      -9.666   7.461  70.382  1.00  0.00    -0.173 F  
HETATM   22  C   UNL     1      -9.409   7.193  68.066  1.00  0.00    -0.129 A  
HETATM   23  C   UNL     1     -10.255   9.244  68.947  1.00  0.00    -0.202 A  
BRANCH  17  24
HETATM   24  N   UNL     1     -10.858  11.159  67.529  1.00  0.00    -0.236 NA 
HETATM   25  H   UNL     1     -11.861  11.285  67.388  1.00  0.00     0.000 HD 
BRANCH  24  26
HETATM   26  C   UNL     1     -10.062  12.339  67.586  1.00  0.00    -0.200 A  
HETATM   27  C   UNL     1     -10.365  13.469  66.825  1.00  0.00    -0.264 A  
HETATM   28  F   UNL     1     -11.466  13.487  66.057  1.00  0.00    -0.305 F  
HETATM   29  C   UNL     1      -9.504  14.573  66.783  1.00  0.00    -0.284 A  
HETATM   30  C   UNL     1      -8.322  14.550  67.523  1.00  0.00    -0.188 A  
HETATM   31  C   UNL     1      -8.006  13.443  68.307  1.00  0.00    -0.147 A  
HETATM   32  I   UNL     1      -7.005  16.156  67.450  1.00  0.00    -0.234 I  
HETATM   33  C   UNL     1      -8.881  12.352  68.346  1.00  0.00    -0.129 A  
ENDBRANCH  24  26
ENDBRANCH  17  24
ENDBRANCH   8  16
TORSDOF 4
ENDMDL
MODEL      162
REMARK 921   NORMALIZED FREE ENERGY PREDICTED BY IDOCK:   -3.40 KCAL/MOL
REMARK 922        TOTAL FREE ENERGY PREDICTED BY IDOCK:   -5.94 KCAL/MOL
REMARK 923 INTER-LIGAND FREE ENERGY PREDICTED BY IDOCK:   -6.01 KCAL/MOL
REMARK 924 INTRA-LIGAND FREE ENERGY PREDICTED BY IDOCK:    0.07 KCAL/MOL
REMARK 927      BINDING AFFINITY PREDICTED BY RF-SCORE:    0.00 PKD
ROOT
HETATM    1  O   UNL     1      -5.649  16.545  70.379  1.00  0.00    -0.194 OA 
HETATM    2  H   UNL     1      -6.121  17.291  70.730  1.00  0.00     0.000 HD 
HETATM    3  C   UNL     1      -6.360  15.741  69.397  1.00  0.00    -0.154 C  
HETATM    4  C   UNL     1      -5.578  14.507  68.815  1.00  0.00    -0.087 C  
HETATM    5  O   UNL     1      -6.745  13.196  66.593  1.00  0.00     0.471 OA 
HETATM    6  C   UNL     1      -7.282  14.594  69.969  1.00  0.00     0.072 C  
HETATM    7  N   UNL     1      -6.922  13.862  68.747  1.00  0.00    -0.103 N  
HETATM    8  C   UNL     1      -7.504  13.514  67.514  1.00  0.00    -0.167 C  
ENDROOT
BRANCH   3   9
HETATM    9  C   UNL     1      -7.140  16.656  68.397  1.00  0.00    -0.167 C  
HETATM   10  C   UNL     1      -9.315  17.564  67.539  1.00  0.00    -0.246 C  
HETATM   11  C   UNL     1      -8.827  17.282  66.121  1.00  0.00    -0.195 C  
HETATM   12  H   UNL     1      -6.906  15.433  66.732  1.00  0.00     0.000 HD 
HETATM   13  C   UNL     1      -8.668  16.579  68.528  1.00  0.00    -0.228 C  
HETATM   14  C   UNL     1      -7.308  17.340  66.061  1.00  0.00    -0.190 C  
HETATM   15  N   UNL     1      -6.713  16.397  67.004  1.00  0.00    -0.202 NA 
ENDBRANCH   3   9
BRANCH   8  16
HETATM   16  C   UNL     1      -8.986  13.630  67.178  1.00  0.00    -0.235 A  
HETATM   17  C   UNL     1      -9.976  12.885  67.903  1.00  0.00    -0.233 A  
HETATM   18  C   UNL     1      -9.425  14.353  66.053  1.00  0.00    -0.239 A  
HETATM   19  C   UNL     1     -11.693  13.630  66.311  1.00  0.00    -0.367 A  
HETATM   20  F   UNL     1     -12.263  12.149  68.008  1.00  0.00    -0.376 F  
HETATM   21  F   UNL     1     -12.963  13.608  65.883  1.00  0.00    -0.463 F  
HETATM   22  C   UNL     1     -10.755  14.358  65.618  1.00  0.00    -0.326 A  
HETATM   23  C   UNL     1     -11.315  12.899  67.423  1.00  0.00    -0.309 A  
BRANCH  17  24
HETATM   24  N   UNL     1      -9.659  12.087  69.046  1.00  0.00    -0.401 NA 
HETATM   25  H   UNL     1      -9.393  12.584  69.897  1.00  0.00     0.000 HD 
BRANCH  24  26
HETATM   26  C   UNL     1      -9.679  10.664  69.113  1.00  0.00    -0.189 A  
HETATM   27  C   UNL     1      -9.017   9.873  68.171  1.00  0.00    -0.118 A  
HETATM   28  F   UNL     1      -8.286  10.450  67.204  1.00  0.00    -0.118 F  
HETATM   29  C   UNL     1      -9.153   8.479  68.164  1.00  0.00    -0.138 A  
HETATM   30  C   UNL     1      -9.960   7.864  69.121  1.00  0.00    -0.184 A  
HETATM   31  C   UNL     1     -10.615   8.628  70.084  1.00  0.00    -0.235 A  
HETATM   32  I   UNL     1     -10.213   5.801  69.111  1.00  0.00    -0.347 I  
HETATM   33  C   UNL     1     -10.461  10.018  70.085  1.00  0.00    -0.338 A  
ENDBRANCH  24  26
ENDBRANCH  17  24
ENDBRANCH   8  16
TORSDOF 4
ENDMDL
MODEL      163
REMARK 921   NORMALIZED FREE ENERGY PREDICTED BY IDOCK:   -3.40 KCAL/MOL
REMARK 922        TOTAL FREE ENERGY PREDICTED BY IDOCK:   -5.94 KCAL/MOL
REMARK 923 INTER-LIGAND FREE ENERGY PREDICTED BY IDOCK:   -5.34 KCAL/MOL
REMARK 924 INTRA-LIGAND FREE ENERGY PREDICTED BY IDOCK:   -0.60 KCAL/MOL
REMARK 927      BINDING AFFINITY PREDICTED BY RF-SCORE:    0.00 PKD
ROOT
HETATM    1  O   UNL     1     -12.707  14.941  68.837  1.00  0.00    -0.387 OA 
HETATM    2  H   UNL     1     -13.450  15.040  68.252  1.00  0.00     0.000 HD 
HETATM    3  C   UNL     1     -11.590  14.162  68.327  1.00  0.00    -0.321 C  
HETATM    4  C   UNL     1     -10.361  13.998  69.295  1.00  0.00     0.038 C  
HETATM    5  O   UNL     1      -8.007  12.886  68.183  1.00  0.00    -0.135 OA 
HETATM    6  C   UNL     1     -11.672  12.599  68.539  1.00  0.00    -0.330 C  
HETATM    7  N   UNL     1     -10.208  12.661  68.651  1.00  0.00    -0.197 N  
HETATM    8  C   UNL     1      -9.076  12.349  67.876  1.00  0.00    -0.191 C  
ENDROOT
BRANCH   3   9
HETATM    9  C   UNL     1     -11.306  14.522  66.832  1.00  0.00    -0.348 C  
HETATM   10  C   UNL     1     -10.480  16.157  65.118  1.00  0.00    -0.295 C  
HETATM   11  C   UNL     1     -11.724  15.852  64.287  1.00  0.00    -0.132 C  
HETATM   12  H   UNL     1     -13.288  14.835  66.287  1.00  0.00     0.000 HD 
HETATM   13  C   UNL     1     -10.777  15.947  66.612  1.00  0.00    -0.270 C  
HETATM   14  C   UNL     1     -12.218  14.440  64.570  1.00  0.00    -0.463 C  
HETATM   15  N   UNL     1     -12.497  14.263  65.992  1.00  0.00    -0.423 NA 
ENDBRANCH   3   9
BRANCH   8  16
HETATM   16  C   UNL     1      -9.086  11.510  66.603  1.00  0.00    -0.193 A  
HETATM   17  C   UNL     1      -8.496  10.202  66.566  1.00  0.00    -0.127 A  
HETATM   18  C   UNL     1      -9.538  12.043  65.380  1.00  0.00    -0.148 A  
HETATM   19  C   UNL     1      -8.842  10.120  64.136  1.00  0.00    -0.222 A  
HETATM   20  F   UNL     1      -7.755   8.366  65.201  1.00  0.00    -0.081 F  
HETATM   21  F   UNL     1      -8.703   9.480  62.967  1.00  0.00    -0.174 F  
HETATM   22  C   UNL     1      -9.421  11.367  64.161  1.00  0.00    -0.155 A  
HETATM   23  C   UNL     1      -8.378   9.551  65.307  1.00  0.00    -0.139 A  
BRANCH  17  24
HETATM   24  N   UNL     1      -7.972   9.558  67.731  1.00  0.00    -0.099 NA 
HETATM   25  H   UNL     1      -7.870  10.131  68.569  1.00  0.00     0.000 HD 
BRANCH  24  26
HETATM   26  C   UNL     1      -7.579   8.193  67.833  1.00  0.00    -0.102 A  
HETATM   27  C   UNL     1      -6.324   7.753  67.407  1.00  0.00    -0.055 A  
HETATM   28  F   UNL     1      -5.426   8.635  66.939  1.00  0.00    -0.034 F  
HETATM   29  C   UNL     1      -5.996   6.391  67.384  1.00  0.00    -0.020 A  
HETATM   30  C   UNL     1      -6.937   5.453  67.805  1.00  0.00    -0.066 A  
HETATM   31  C   UNL     1      -8.189   5.865  68.255  1.00  0.00    -0.109 A  
HETATM   32  I   UNL     1      -6.494   3.423  67.747  1.00  0.00    -0.038 I  
HETATM   33  C   UNL     1      -8.499   7.229  68.281  1.00  0.00    -0.124 A  
ENDBRANCH  24  26
ENDBRANCH  17  24
ENDBRANCH   8  16
TORSDOF 4
ENDMDL
MODEL      164
REMARK 921   NORMALIZED FREE ENERGY PREDICTED BY IDOCK:   -3.40 KCAL/MOL
REMARK 922        TOTAL FREE ENERGY PREDICTED BY IDOCK:   -5.94 KCAL/MOL
REMARK 923 INTER-LIGAND FREE ENERGY PREDICTED BY IDOCK:   -5.49 KCAL/MOL
REMARK 924 INTRA-LIGAND FREE ENERGY PREDICTED BY IDOCK:   -0.45 KCAL/MOL
REMARK 927      BINDING AFFINITY PREDICTED BY RF-SCORE:    0.00 PKD
ROOT
HETATM    1  O   UNL     1      -7.520   3.128  65.820  1.00  0.00    -0.071 OA 
HETATM    2  H   UNL     1      -7.305   2.509  66.509  1.00  0.00     0.000 HD 
HETATM    3  C   UNL     1      -8.142   4.371  66.249  1.00  0.00    -0.102 C  
HETATM    4  C   UNL     1      -8.499   5.395  65.111  1.00  0.00    -0.150 C  
HETATM    5  O   UNL     1      -9.285   7.988  65.934  1.00  0.00    -0.156 OA 
HETATM    6  C   UNL     1      -9.714   4.350  66.406  1.00  0.00    -0.215 C  
HETATM    7  N   UNL     1      -9.652   5.757  65.986  1.00  0.00    -0.102 N  
HETATM    8  C   UNL     1      -9.758   7.036  66.563  1.00  0.00    -0.125 C  
ENDROOT
BRANCH   3   9
HETATM    9  C   UNL     1      -7.447   4.918  67.539  1.00  0.00    -0.079 C  
HETATM   10  C   UNL     1      -7.531   5.426  69.994  1.00  0.00    -0.069 C  
HETATM   11  C   UNL     1      -6.922   6.792  69.691  1.00  0.00    -0.063 C  
HETATM   12  H   UNL     1      -7.582   6.932  67.040  1.00  0.00     0.000 HD 
HETATM   13  C   UNL     1      -8.342   4.928  68.786  1.00  0.00    -0.083 C  
HETATM   14  C   UNL     1      -6.073   6.727  68.429  1.00  0.00    -0.026 C  
HETATM   15  N   UNL     1      -6.862   6.256  67.295  1.00  0.00    -0.064 NA 
ENDBRANCH   3   9
BRANCH   8  16
HETATM   16  C   UNL     1     -10.286   7.328  67.963  1.00  0.00    -0.225 A  
HETATM   17  C   UNL     1      -9.804   8.446  68.724  1.00  0.00    -0.173 A  
HETATM   18  C   UNL     1     -11.149   6.431  68.620  1.00  0.00    -0.393 A  
HETATM   19  C   UNL     1     -11.054   7.646  70.681  1.00  0.00    -0.257 A  
HETATM   20  F   UNL     1      -9.711   9.531  70.868  1.00  0.00    -0.301 F  
HETATM   21  F   UNL     1     -11.396   7.777  71.970  1.00  0.00    -0.259 F  
HETATM   22  C   UNL     1     -11.532   6.579  69.958  1.00  0.00    -0.476 A  
HETATM   23  C   UNL     1     -10.201   8.556  70.085  1.00  0.00    -0.195 A  
BRANCH  17  24
HETATM   24  N   UNL     1      -8.901   9.416  68.185  1.00  0.00    -0.125 NA 
HETATM   25  H   UNL     1      -7.971   9.085  67.926  1.00  0.00     0.000 HD 
BRANCH  24  26
HETATM   26  C   UNL     1      -9.174  10.798  67.976  1.00  0.00    -0.150 A  
HETATM   27  C   UNL     1     -10.375  11.235  67.414  1.00  0.00    -0.200 A  
HETATM   28  F   UNL     1     -11.337  10.348  67.112  1.00  0.00    -0.320 F  
HETATM   29  C   UNL     1     -10.581  12.581  67.086  1.00  0.00    -0.247 A  
HETATM   30  C   UNL     1      -9.569  13.509  67.333  1.00  0.00    -0.227 A  
HETATM   31  C   UNL     1      -8.369  13.103  67.912  1.00  0.00    -0.170 A  
HETATM   32  I   UNL     1      -9.830  15.506  66.821  1.00  0.00    -0.307 I  
HETATM   33  C   UNL     1      -8.182  11.757  68.242  1.00  0.00    -0.157 A  
ENDBRANCH  24  26
ENDBRANCH  17  24
ENDBRANCH   8  16
TORSDOF 4
ENDMDL
MODEL      165
REMARK 921   NORMALIZED FREE ENERGY PREDICTED BY IDOCK:   -3.33 KCAL/MOL
REMARK 922        TOTAL FREE ENERGY PREDICTED BY IDOCK:   -5.85 KCAL/MOL
REMARK 923 INTER-LIGAND FREE ENERGY PREDICTED BY IDOCK:   -4.64 KCAL/MOL
REMARK 924 INTRA-LIGAND FREE ENERGY PREDICTED BY IDOCK:   -1.21 KCAL/MOL
REMARK 927      BINDING AFFINITY PREDICTED BY RF-SCORE:    0.00 PKD
ROOT
HETATM    1  O   UNL     1      -9.334   4.475  71.009  1.00  0.00    -0.131 OA 
HETATM    2  H   UNL     1     -10.262   4.386  71.193  1.00  0.00     0.000 HD 
HETATM    3  C   UNL     1      -8.942   5.654  70.252  1.00  0.00    -0.139 C  
HETATM    4  C   UNL     1      -7.406   5.802  69.947  1.00  0.00    -0.070 C  
HETATM    5  O   UNL     1      -6.554   8.283  68.883  1.00  0.00    -0.050 OA 
HETATM    6  C   UNL     1      -9.007   5.529  68.679  1.00  0.00    -0.114 C  
HETATM    7  N   UNL     1      -7.860   6.447  68.681  1.00  0.00    -0.101 N  
HETATM    8  C   UNL     1      -7.592   7.803  68.416  1.00  0.00    -0.109 C  
ENDROOT
BRANCH   3   9
HETATM    9  C   UNL     1      -9.716   6.915  70.758  1.00  0.00    -0.171 C  
HETATM   10  C   UNL     1     -10.226   8.551  72.590  1.00  0.00    -0.237 C  
HETATM   11  C   UNL     1     -11.709   8.389  72.266  1.00  0.00    -0.453 C  
HETATM   12  H   UNL     1     -11.564   5.985  70.969  1.00  0.00     0.000 HD 
HETATM   13  C   UNL     1      -9.463   7.265  72.232  1.00  0.00    -0.167 C  
HETATM   14  C   UNL     1     -11.895   8.013  70.803  1.00  0.00    -0.162 C  
HETATM   15  N   UNL     1     -11.165   6.789  70.484  1.00  0.00    -0.298 NA 
ENDBRANCH   3   9
BRANCH   8  16
HETATM   16  C   UNL     1      -8.545   8.767  67.717  1.00  0.00    -0.129 A  
HETATM   17  C   UNL     1      -8.117  10.076  67.311  1.00  0.00    -0.114 A  
HETATM   18  C   UNL     1      -9.914   8.469  67.579  1.00  0.00    -0.258 A  
HETATM   19  C   UNL     1     -10.431  10.641  66.714  1.00  0.00    -0.247 A  
HETATM   20  F   UNL     1      -8.770  12.252  66.523  1.00  0.00    -0.197 F  
HETATM   21  F   UNL     1     -11.329  11.531  66.269  1.00  0.00    -0.353 F  
HETATM   22  C   UNL     1     -10.850   9.385  67.087  1.00  0.00    -0.132 A  
HETATM   23  C   UNL     1      -9.098  10.987  66.831  1.00  0.00    -0.156 A  
BRANCH  17  24
HETATM   24  N   UNL     1      -6.761  10.516  67.425  1.00  0.00    -0.070 NA 
HETATM   25  H   UNL     1      -6.047   9.927  66.993  1.00  0.00     0.000 HD 
BRANCH  24  26
HETATM   26  C   UNL     1      -6.310  11.696  68.083  1.00  0.00    -0.050 A  
HETATM   27  C   UNL     1      -6.555  11.924  69.438  1.00  0.00    -0.108 A  
HETATM   28  F   UNL     1      -7.179  10.990  70.174  1.00  0.00    -0.114 F  
HETATM   29  C   UNL     1      -6.230  13.144  70.044  1.00  0.00    -0.073 A  
HETATM   30  C   UNL     1      -5.639  14.151  69.282  1.00  0.00    -0.082 A  
HETATM   31  C   UNL     1      -5.364  13.943  67.933  1.00  0.00    -0.080 A  
HETATM   32  I   UNL     1      -5.181  15.987  70.144  1.00  0.00    -0.176 I  
HETATM   33  C   UNL     1      -5.687  12.716  67.344  1.00  0.00    -0.104 A  
ENDBRANCH  24  26
ENDBRANCH  17  24
ENDBRANCH   8  16
TORSDOF 4
ENDMDL
MODEL      166
REMARK 921   NORMALIZED FREE ENERGY PREDICTED BY IDOCK:   -3.19 KCAL/MOL
REMARK 922        TOTAL FREE ENERGY PREDICTED BY IDOCK:   -5.68 KCAL/MOL
REMARK 923 INTER-LIGAND FREE ENERGY PREDICTED BY IDOCK:   -5.12 KCAL/MOL
REMARK 924 INTRA-LIGAND FREE ENERGY PREDICTED BY IDOCK:   -0.56 KCAL/MOL
REMARK 927      BINDING AFFINITY PREDICTED BY RF-SCORE:    0.00 PKD
ROOT
HETATM    1  O   UNL     1      -5.990   6.928  67.400  1.00  0.00    -0.019 OA 
HETATM    2  H   UNL     1      -5.326   6.984  66.724  1.00  0.00     0.000 HD 
HETATM    3  C   UNL     1      -6.635   8.179  67.770  1.00  0.00    -0.057 C  
HETATM    4  C   UNL     1      -7.736   8.086  68.890  1.00  0.00    -0.104 C  
HETATM    5  O   UNL     1      -9.317  10.396  69.313  1.00  0.00    -0.195 OA 
HETATM    6  C   UNL     1      -5.909   9.040  68.877  1.00  0.00    -0.040 C  
HETATM    7  N   UNL     1      -7.263   9.448  69.274  1.00  0.00    -0.064 N  
HETATM    8  C   UNL     1      -8.103  10.571  69.160  1.00  0.00    -0.152 C  
ENDROOT
BRANCH   3   9
HETATM    9  C   UNL     1      -6.950   9.032  66.498  1.00  0.00    -0.080 C  
HETATM   10  C   UNL     1      -8.234   9.347  64.366  1.00  0.00    -0.147 C  
HETATM   11  C   UNL     1      -6.923   9.721  63.680  1.00  0.00    -0.118 C  
HETATM   12  H   UNL     1      -5.204   8.568  65.468  1.00  0.00     0.000 HD 
HETATM   13  C   UNL     1      -7.963   8.390  65.539  1.00  0.00    -0.115 C  
HETATM   14  C   UNL     1      -5.951  10.323  64.684  1.00  0.00    -0.130 C  
HETATM   15  N   UNL     1      -5.705   9.398  65.787  1.00  0.00    -0.052 NA 
ENDBRANCH   3   9
BRANCH   8  16
HETATM   16  C   UNL     1      -7.656  11.963  68.726  1.00  0.00    -0.090 A  
HETATM   17  C   UNL     1      -8.572  12.884  68.114  1.00  0.00    -0.188 A  
HETATM   18  C   UNL     1      -6.301  12.341  68.769  1.00  0.00    -0.077 A  
HETATM   19  C   UNL     1      -6.710  14.414  67.642  1.00  0.00    -0.169 A  
HETATM   20  F   UNL     1      -8.848  14.946  66.908  1.00  0.00    -0.211 F  
HETATM   21  F   UNL     1      -6.255  15.555  67.107  1.00  0.00    -0.167 F  
HETATM   22  C   UNL     1      -5.826  13.545  68.238  1.00  0.00    -0.100 A  
HETATM   23  C   UNL     1      -8.052  14.090  67.569  1.00  0.00    -0.186 A  
BRANCH  17  24
HETATM   24  N   UNL     1      -9.970  12.610  67.980  1.00  0.00    -0.214 NA 
HETATM   25  H   UNL     1     -10.244  11.964  67.238  1.00  0.00     0.000 HD 
BRANCH  24  26
HETATM   26  C   UNL     1     -11.015  13.151  68.781  1.00  0.00    -0.262 A  
HETATM   27  C   UNL     1     -11.589  14.393  68.504  1.00  0.00    -0.314 A  
HETATM   28  F   UNL     1     -11.201  15.086  67.421  1.00  0.00    -0.298 F  
HETATM   29  C   UNL     1     -12.519  14.978  69.372  1.00  0.00    -0.076 A  
HETATM   30  C   UNL     1     -12.889  14.304  70.536  1.00  0.00    -0.275 A  
HETATM   31  C   UNL     1     -12.347  13.054  70.826  1.00  0.00    -0.394 A  
HETATM   32  I   UNL     1     -14.236  15.165  71.864  1.00  0.00    -0.668 I  
HETATM   33  C   UNL     1     -11.427  12.479  69.944  1.00  0.00    -0.159 A  
ENDBRANCH  24  26
ENDBRANCH  17  24
ENDBRANCH   8  16
TORSDOF 4
ENDMDL
MODEL      167
REMARK 921   NORMALIZED FREE ENERGY PREDICTED BY IDOCK:   -3.19 KCAL/MOL
REMARK 922        TOTAL FREE ENERGY PREDICTED BY IDOCK:   -5.68 KCAL/MOL
REMARK 923 INTER-LIGAND FREE ENERGY PREDICTED BY IDOCK:   -5.80 KCAL/MOL
REMARK 924 INTRA-LIGAND FREE ENERGY PREDICTED BY IDOCK:    0.12 KCAL/MOL
REMARK 927      BINDING AFFINITY PREDICTED BY RF-SCORE:    0.00 PKD
ROOT
HETATM    1  O   UNL     1      -8.981   7.527  65.273  1.00  0.00    -0.377 OA 
HETATM    2  H   UNL     1      -9.703   6.984  65.569  1.00  0.00     0.000 HD 
HETATM    3  C   UNL     1      -8.953   8.889  65.782  1.00  0.00    -0.203 C  
HETATM    4  C   UNL     1      -7.758   9.787  65.291  1.00  0.00    -0.121 C  
HETATM    5  O   UNL     1      -7.416  12.275  66.599  1.00  0.00     0.047 OA 
HETATM    6  C   UNL     1      -9.786   9.957  64.970  1.00  0.00    -0.288 C  
HETATM    7  N   UNL     1      -8.742  10.905  65.381  1.00  0.00    -0.181 N  
HETATM    8  C   UNL     1      -8.572  11.954  66.303  1.00  0.00    -0.016 C  
ENDROOT
BRANCH   3   9
HETATM    9  C   UNL     1      -9.317   8.916  67.302  1.00  0.00    -0.140 C  
HETATM   10  C   UNL     1     -11.022   9.228  69.114  1.00  0.00    -0.083 C  
HETATM   11  C   UNL     1     -10.019  10.111  69.852  1.00  0.00    -0.250 C  
HETATM   12  H   UNL     1      -8.423  10.746  67.723  1.00  0.00     0.000 HD 
HETATM   13  C   UNL     1     -10.775   9.297  67.598  1.00  0.00    -0.276 C  
HETATM   14  C   UNL     1      -8.595   9.707  69.495  1.00  0.00    -0.172 C  
HETATM   15  N   UNL     1      -8.380   9.782  68.053  1.00  0.00    -0.110 NA 
ENDBRANCH   3   9
BRANCH   8  16
HETATM   16  C   UNL     1      -9.697  12.638  67.073  1.00  0.00    -0.225 A  
HETATM   17  C   UNL     1      -9.419  13.552  68.145  1.00  0.00    -0.214 A  
HETATM   18  C   UNL     1     -11.044  12.286  66.865  1.00  0.00    -0.341 A  
HETATM   19  C   UNL     1     -11.813  13.636  68.686  1.00  0.00    -0.374 A  
HETATM   20  F   UNL     1     -10.295  14.797  70.006  1.00  0.00    -0.179 F  
HETATM   21  F   UNL     1     -12.810  14.081  69.463  1.00  0.00    -0.255 F  
HETATM   22  C   UNL     1     -12.092  12.771  67.654  1.00  0.00    -0.200 A  
HETATM   23  C   UNL     1     -10.507  14.012  68.937  1.00  0.00    -0.200 A  
BRANCH  17  24
HETATM   24  N   UNL     1      -8.092  13.969  68.481  1.00  0.00    -0.142 NA 
HETATM   25  H   UNL     1      -7.529  13.317  69.028  1.00  0.00     0.000 HD 
BRANCH  24  26
HETATM   26  C   UNL     1      -7.482  15.206  68.126  1.00  0.00    -0.114 A  
HETATM   27  C   UNL     1      -6.748  15.956  69.045  1.00  0.00    -0.151 A  
HETATM   28  F   UNL     1      -6.547  15.487  70.288  1.00  0.00    -0.146 F  
HETATM   29  C   UNL     1      -6.267  17.233  68.728  1.00  0.00    -0.176 A  
HETATM   30  C   UNL     1      -6.519  17.766  67.464  1.00  0.00    -0.163 A  
HETATM   31  C   UNL     1      -7.232  17.030  66.521  1.00  0.00    -0.311 A  
HETATM   32  I   UNL     1      -5.853  19.674  66.978  1.00  0.00    -0.185 I  
HETATM   33  C   UNL     1      -7.697  15.753  66.849  1.00  0.00    -0.254 A  
ENDBRANCH  24  26
ENDBRANCH  17  24
ENDBRANCH   8  16
TORSDOF 4
ENDMDL
MODEL      168
REMARK 921   NORMALIZED FREE ENERGY PREDICTED BY IDOCK:   -3.18 KCAL/MOL
REMARK 922        TOTAL FREE ENERGY PREDICTED BY IDOCK:   -5.67 KCAL/MOL
REMARK 923 INTER-LIGAND FREE ENERGY PREDICTED BY IDOCK:   -4.43 KCAL/MOL
REMARK 924 INTRA-LIGAND FREE ENERGY PREDICTED BY IDOCK:   -1.24 KCAL/MOL
REMARK 927      BINDING AFFINITY PREDICTED BY RF-SCORE:    0.00 PKD
ROOT
HETATM    1  O   UNL     1      -5.435   7.555  65.837  1.00  0.00    -0.027 OA 
HETATM    2  H   UNL     1      -4.882   8.206  65.421  1.00  0.00     0.000 HD 
HETATM    3  C   UNL     1      -6.780   7.986  66.187  1.00  0.00    -0.054 C  
HETATM    4  C   UNL     1      -7.696   6.908  66.875  1.00  0.00    -0.099 C  
HETATM    5  O   UNL     1     -10.436   7.562  67.157  1.00  0.00    -0.278 OA 
HETATM    6  C   UNL     1      -6.945   8.688  67.592  1.00  0.00    -0.075 C  
HETATM    7  N   UNL     1      -8.278   8.070  67.607  1.00  0.00    -0.123 N  
HETATM    8  C   UNL     1      -9.621   8.451  67.422  1.00  0.00    -0.157 C  
ENDROOT
BRANCH   3   9
HETATM    9  C   UNL     1      -7.396   8.852  65.040  1.00  0.00    -0.095 C  
HETATM   10  C   UNL     1      -8.776   9.010  62.951  1.00  0.00    -0.143 C  
HETATM   11  C   UNL     1      -7.682   9.885  62.344  1.00  0.00    -0.133 C  
HETATM   12  H   UNL     1      -5.627   9.133  63.984  1.00  0.00     0.000 HD 
HETATM   13  C   UNL     1      -8.170   8.047  63.985  1.00  0.00    -0.049 C  
HETATM   14  C   UNL     1      -6.932  10.632  63.437  1.00  0.00     0.165 C  
HETATM   15  N   UNL     1      -6.362   9.700  64.406  1.00  0.00    -0.094 NA 
ENDBRANCH   3   9
BRANCH   8  16
HETATM   16  C   UNL     1     -10.130   9.888  67.386  1.00  0.00    -0.254 A  
HETATM   17  C   UNL     1      -9.850  10.806  68.454  1.00  0.00    -0.169 A  
HETATM   18  C   UNL     1     -11.015  10.324  66.382  1.00  0.00     0.077 A  
HETATM   19  C   UNL     1     -11.364  12.447  67.431  1.00  0.00    -0.321 A  
HETATM   20  F   UNL     1     -10.349  12.930  69.464  1.00  0.00     0.095 F  
HETATM   21  F   UNL     1     -11.970  13.642  67.464  1.00  0.00    -0.354 F  
HETATM   22  C   UNL     1     -11.628  11.581  66.396  1.00  0.00    -0.030 A  
HETATM   23  C   UNL     1     -10.504  12.069  68.445  1.00  0.00    -0.219 A  
BRANCH  17  24
HETATM   24  N   UNL     1      -8.992  10.478  69.550  1.00  0.00    -0.388 NA 
HETATM   25  H   UNL     1      -8.098  10.969  69.599  1.00  0.00     0.000 HD 
BRANCH  24  26
HETATM   26  C   UNL     1      -9.263   9.532  70.580  1.00  0.00    -0.225 A  
HETATM   27  C   UNL     1      -8.242   8.842  71.235  1.00  0.00    -0.157 A  
HETATM   28  F   UNL     1      -6.958   9.106  70.944  1.00  0.00    -0.063 F  
HETATM   29  C   UNL     1      -8.522   7.818  72.148  1.00  0.00    -0.159 A  
HETATM   30  C   UNL     1      -9.848   7.483  72.418  1.00  0.00    -0.171 A  
HETATM   31  C   UNL     1     -10.887   8.170  71.794  1.00  0.00    -0.317 A  
HETATM   32  I   UNL     1     -10.295   5.941  73.739  1.00  0.00    -0.272 I  
HETATM   33  C   UNL     1     -10.592   9.197  70.891  1.00  0.00    -0.341 A  
ENDBRANCH  24  26
ENDBRANCH  17  24
ENDBRANCH   8  16
TORSDOF 4
ENDMDL
MODEL      169
REMARK 921   NORMALIZED FREE ENERGY PREDICTED BY IDOCK:   -3.16 KCAL/MOL
REMARK 922        TOTAL FREE ENERGY PREDICTED BY IDOCK:   -5.64 KCAL/MOL
REMARK 923 INTER-LIGAND FREE ENERGY PREDICTED BY IDOCK:   -4.98 KCAL/MOL
REMARK 924 INTRA-LIGAND FREE ENERGY PREDICTED BY IDOCK:   -0.66 KCAL/MOL
REMARK 927      BINDING AFFINITY PREDICTED BY RF-SCORE:    0.00 PKD
ROOT
HETATM    1  O   UNL     1      -5.677   7.017  66.078  1.00  0.00    -0.029 OA 
HETATM    2  H   UNL     1      -4.939   7.210  66.643  1.00  0.00     0.000 HD 
HETATM    3  C   UNL     1      -6.997   7.235  66.650  1.00  0.00    -0.073 C  
HETATM    4  C   UNL     1      -8.219   6.916  65.714  1.00  0.00    -0.132 C  
HETATM    5  O   UNL     1     -10.768   7.750  66.623  1.00  0.00    -0.231 OA 
HETATM    6  C   UNL     1      -7.609   6.036  67.475  1.00  0.00    -0.090 C  
HETATM    7  N   UNL     1      -8.906   6.516  66.978  1.00  0.00    -0.115 N  
HETATM    8  C   UNL     1     -10.024   7.224  67.457  1.00  0.00    -0.169 C  
ENDROOT
BRANCH   3   9
HETATM    9  C   UNL     1      -7.027   8.567  67.470  1.00  0.00    -0.079 C  
HETATM   10  C   UNL     1      -6.293  10.948  67.759  1.00  0.00    -0.062 C  
HETATM   11  C   UNL     1      -6.000  10.638  69.225  1.00  0.00    -0.042 C  
HETATM   12  H   UNL     1      -5.790   7.918  69.012  1.00  0.00     0.000 HD 
HETATM   13  C   UNL     1      -6.130   9.678  66.906  1.00  0.00    -0.063 C  
HETATM   14  C   UNL     1      -6.895   9.509  69.717  1.00  0.00    -0.064 C  
HETATM   15  N   UNL     1      -6.723   8.314  68.897  1.00  0.00    -0.052 NA 
ENDBRANCH   3   9
BRANCH   8  16
HETATM   16  C   UNL     1     -10.317   7.515  68.924  1.00  0.00    -0.220 A  
HETATM   17  C   UNL     1     -10.997   8.714  69.326  1.00  0.00     0.027 A  
HETATM   18  C   UNL     1      -9.803   6.697  69.948  1.00  0.00    -0.180 A  
HETATM   19  C   UNL     1     -10.556   8.168  71.680  1.00  0.00    -0.232 A  
HETATM   20  F   UNL     1     -11.621  10.161  71.142  1.00  0.00    -0.376 F  
HETATM   21  F   UNL     1     -10.641   8.487  72.979  1.00  0.00    -0.330 F  
HETATM   22  C   UNL     1      -9.915   7.010  71.307  1.00  0.00    -0.196 A  
HETATM   23  C   UNL     1     -11.077   9.010  70.715  1.00  0.00    -0.272 A  
BRANCH  17  24
HETATM   24  N   UNL     1     -11.540   9.646  68.387  1.00  0.00    -0.272 NA 
HETATM   25  H   UNL     1     -12.480   9.454  68.037  1.00  0.00     0.000 HD 
BRANCH  24  26
HETATM   26  C   UNL     1     -10.897  10.817  67.893  1.00  0.00    -0.264 A  
HETATM   27  C   UNL     1      -9.778  11.365  68.523  1.00  0.00    -0.197 A  
HETATM   28  F   UNL     1      -9.241  10.753  69.591  1.00  0.00    -0.135 F  
HETATM   29  C   UNL     1      -9.235  12.589  68.112  1.00  0.00    -0.209 A  
HETATM   30  C   UNL     1      -9.816  13.273  67.045  1.00  0.00    -0.242 A  
HETATM   31  C   UNL     1     -10.920  12.739  66.385  1.00  0.00    -0.305 A  
HETATM   32  I   UNL     1      -9.057  15.110  66.438  1.00  0.00    -0.151 I  
HETATM   33  C   UNL     1     -11.445  11.511  66.801  1.00  0.00    -0.233 A  
ENDBRANCH  24  26
ENDBRANCH  17  24
ENDBRANCH   8  16
TORSDOF 4
ENDMDL
MODEL      170
REMARK 921   NORMALIZED FREE ENERGY PREDICTED BY IDOCK:   -3.07 KCAL/MOL
REMARK 922        TOTAL FREE ENERGY PREDICTED BY IDOCK:   -5.54 KCAL/MOL
REMARK 923 INTER-LIGAND FREE ENERGY PREDICTED BY IDOCK:   -4.61 KCAL/MOL
REMARK 924 INTRA-LIGAND FREE ENERGY PREDICTED BY IDOCK:   -0.93 KCAL/MOL
REMARK 927      BINDING AFFINITY PREDICTED BY RF-SCORE:    0.00 PKD
ROOT
HETATM    1  O   UNL     1      -9.393  15.891  66.984  1.00  0.00    -0.207 OA 
HETATM    2  H   UNL     1     -10.308  16.145  66.977  1.00  0.00     0.000 HD 
HETATM    3  C   UNL     1      -9.127  14.461  67.011  1.00  0.00    -0.236 C  
HETATM    4  C   UNL     1      -7.612  14.039  67.023  1.00  0.00     0.244 C  
HETATM    5  O   UNL     1      -7.054  11.292  66.620  1.00  0.00    -0.138 OA 
HETATM    6  C   UNL     1      -9.089  13.782  68.437  1.00  0.00    -0.175 C  
HETATM    7  N   UNL     1      -8.081  12.888  67.850  1.00  0.00    -0.147 N  
HETATM    8  C   UNL     1      -7.989  11.565  67.379  1.00  0.00    -0.143 C  
ENDROOT
BRANCH   3   9
HETATM    9  C   UNL     1     -10.093  13.703  66.043  1.00  0.00    -0.312 C  
HETATM   10  C   UNL     1     -11.366  13.618  63.883  1.00  0.00    -0.138 C  
HETATM   11  C   UNL     1     -12.587  13.145  64.667  1.00  0.00    -0.384 C  
HETATM   12  H   UNL     1     -11.829  14.035  67.140  1.00  0.00     0.000 HD 
HETATM   13  C   UNL     1     -10.466  14.488  64.777  1.00  0.00    -0.365 C  
HETATM   14  C   UNL     1     -12.155  12.402  65.924  1.00  0.00    -0.281 C  
HETATM   15  N   UNL     1     -11.306  13.246  66.760  1.00  0.00    -0.314 NA 
ENDBRANCH   3   9
BRANCH   8  16
HETATM   16  C   UNL     1      -9.026  10.474  67.618  1.00  0.00    -0.138 A  
HETATM   17  C   UNL     1      -9.141   9.819  68.891  1.00  0.00    -0.148 A  
HETATM   18  C   UNL     1      -9.805   9.963  66.562  1.00  0.00    -0.274 A  
HETATM   19  C   UNL     1     -10.746   8.231  67.922  1.00  0.00    -0.070 A  
HETATM   20  F   UNL     1     -10.079   7.986  70.133  1.00  0.00    -0.187 F  
HETATM   21  F   UNL     1     -11.536   7.157  68.054  1.00  0.00    -0.051 F  
HETATM   22  C   UNL     1     -10.653   8.859  66.702  1.00  0.00    -0.150 A  
HETATM   23  C   UNL     1     -10.001   8.690  68.992  1.00  0.00    -0.192 A  
BRANCH  17  24
HETATM   24  N   UNL     1      -8.385  10.220  70.037  1.00  0.00    -0.353 NA 
HETATM   25  H   UNL     1      -8.413  11.209  70.285  1.00  0.00     0.000 HD 
BRANCH  24  26
HETATM   26  C   UNL     1      -7.598   9.370  70.866  1.00  0.00    -0.067 A  
HETATM   27  C   UNL     1      -6.286   9.027  70.534  1.00  0.00    -0.048 A  
HETATM   28  F   UNL     1      -5.711   9.549  69.438  1.00  0.00    -0.034 F  
HETATM   29  C   UNL     1      -5.566   8.085  71.280  1.00  0.00    -0.034 A  
HETATM   30  C   UNL     1      -6.167   7.483  72.385  1.00  0.00    -0.043 A  
HETATM   31  C   UNL     1      -7.467   7.822  72.751  1.00  0.00    -0.121 A  
HETATM   32  I   UNL     1      -5.139   6.053  73.489  1.00  0.00    -0.025 I  
HETATM   33  C   UNL     1      -8.170   8.771  72.001  1.00  0.00    -0.079 A  
ENDBRANCH  24  26
ENDBRANCH  17  24
ENDBRANCH   8  16
TORSDOF 4
ENDMDL
MODEL      171
REMARK 921   NORMALIZED FREE ENERGY PREDICTED BY IDOCK:   -3.07 KCAL/MOL
REMARK 922        TOTAL FREE ENERGY PREDICTED BY IDOCK:   -5.54 KCAL/MOL
REMARK 923 INTER-LIGAND FREE ENERGY PREDICTED BY IDOCK:   -3.75 KCAL/MOL
REMARK 924 INTRA-LIGAND FREE ENERGY PREDICTED BY IDOCK:   -1.79 KCAL/MOL
REMARK 927      BINDING AFFINITY PREDICTED BY RF-SCORE:    0.00 PKD
ROOT
HETATM    1  O   UNL     1     -11.269   5.501  65.898  1.00  0.00    -0.743 OA 
HETATM    2  H   UNL     1     -11.871   6.218  66.059  1.00  0.00     0.000 HD 
HETATM    3  C   UNL     1      -9.920   5.670  66.416  1.00  0.00    -0.152 C  
HETATM    4  C   UNL     1      -8.922   4.483  66.150  1.00  0.00    -0.120 C  
HETATM    5  O   UNL     1      -6.446   4.573  67.520  1.00  0.00    -0.043 OA 
HETATM    6  C   UNL     1      -8.901   6.432  65.481  1.00  0.00    -0.012 C  
HETATM    7  N   UNL     1      -7.885   5.554  66.077  1.00  0.00    -0.102 N  
HETATM    8  C   UNL     1      -6.847   5.631  67.024  1.00  0.00    -0.064 C  
ENDROOT
BRANCH   3   9
HETATM    9  C   UNL     1      -9.956   6.293  67.850  1.00  0.00    -0.133 C  
HETATM   10  C   UNL     1     -11.114   6.581  70.056  1.00  0.00    -0.422 C  
HETATM   11  C   UNL     1     -10.844   8.080  69.956  1.00  0.00    -0.235 C  
HETATM   12  H   UNL     1     -10.446   8.223  67.253  1.00  0.00     0.000 HD 
HETATM   13  C   UNL     1     -11.225   5.968  68.650  1.00  0.00    -0.169 C  
HETATM   14  C   UNL     1      -9.595   8.341  69.127  1.00  0.00    -0.160 C  
HETATM   15  N   UNL     1      -9.722   7.754  67.796  1.00  0.00    -0.148 NA 
ENDBRANCH   3   9
BRANCH   8  16
HETATM   16  C   UNL     1      -6.270   6.922  67.592  1.00  0.00    -0.041 A  
HETATM   17  C   UNL     1      -5.849   7.012  68.962  1.00  0.00    -0.019 A  
HETATM   18  C   UNL     1      -6.267   8.113  66.842  1.00  0.00    -0.055 A  
HETATM   19  C   UNL     1      -5.505   9.429  68.692  1.00  0.00    -0.037 A  
HETATM   20  F   UNL     1      -5.177   8.447  70.771  1.00  0.00    -0.025 F  
HETATM   21  F   UNL     1      -5.172  10.617  69.214  1.00  0.00    -0.039 F  
HETATM   22  C   UNL     1      -5.893   9.352  67.375  1.00  0.00    -0.045 A  
HETATM   23  C   UNL     1      -5.492   8.290  69.475  1.00  0.00    -0.030 A  
BRANCH  17  24
HETATM   24  N   UNL     1      -5.832   5.883  69.841  1.00  0.00    -0.023 NA 
HETATM   25  H   UNL     1      -5.026   5.261  69.778  1.00  0.00     0.000 HD 
BRANCH  24  26
HETATM   26  C   UNL     1      -6.833   5.544  70.796  1.00  0.00    -0.052 A  
HETATM   27  C   UNL     1      -7.360   4.255  70.885  1.00  0.00    -0.044 A  
HETATM   28  F   UNL     1      -6.881   3.277  70.099  1.00  0.00    -0.032 F  
HETATM   29  C   UNL     1      -8.438   3.962  71.731  1.00  0.00    -0.102 A  
HETATM   30  C   UNL     1      -8.992   4.978  72.510  1.00  0.00    -0.129 A  
HETATM   31  C   UNL     1      -8.473   6.269  72.456  1.00  0.00    -0.120 A  
HETATM   32  I   UNL     1     -10.617   4.584  73.745  1.00  0.00    -0.368 I  
HETATM   33  C   UNL     1      -7.391   6.543  71.613  1.00  0.00    -0.087 A  
ENDBRANCH  24  26
ENDBRANCH  17  24
ENDBRANCH   8  16
TORSDOF 4
ENDMDL
MODEL      172
REMARK 921   NORMALIZED FREE ENERGY PREDICTED BY IDOCK:   -2.97 KCAL/MOL
REMARK 922        TOTAL FREE ENERGY PREDICTED BY IDOCK:   -5.41 KCAL/MOL
REMARK 923 INTER-LIGAND FREE ENERGY PREDICTED BY IDOCK:   -3.72 KCAL/MOL
REMARK 924 INTRA-LIGAND FREE ENERGY PREDICTED BY IDOCK:   -1.68 KCAL/MOL
REMARK 927      BINDING AFFINITY PREDICTED BY RF-SCORE:    0.00 PKD
ROOT
HETATM    1  O   UNL     1      -6.248   6.863  66.301  1.00  0.00    -0.042 OA 
HETATM    2  H   UNL     1      -5.593   7.478  66.608  1.00  0.00     0.000 HD 
HETATM    3  C   UNL     1      -6.986   6.147  67.330  1.00  0.00    -0.069 C  
HETATM    4  C   UNL     1      -8.072   5.129  66.821  1.00  0.00    -0.108 C  
HETATM    5  O   UNL     1      -9.825   4.061  68.772  1.00  0.00    -0.117 OA 
HETATM    6  C   UNL     1      -6.325   4.818  67.869  1.00  0.00    -0.037 C  
HETATM    7  N   UNL     1      -7.705   4.343  68.036  1.00  0.00    -0.079 N  
HETATM    8  C   UNL     1      -8.630   4.130  69.075  1.00  0.00    -0.083 C  
ENDROOT
BRANCH   3   9
HETATM    9  C   UNL     1      -7.372   7.109  68.501  1.00  0.00    -0.100 C  
HETATM   10  C   UNL     1      -7.832   9.430  69.333  1.00  0.00    -0.087 C  
HETATM   11  C   UNL     1      -6.942   9.131  70.537  1.00  0.00    -0.082 C  
HETATM   12  H   UNL     1      -5.532   7.044  69.470  1.00  0.00     0.000 HD 
HETATM   13  C   UNL     1      -7.381   8.597  68.122  1.00  0.00    -0.091 C  
HETATM   14  C   UNL     1      -6.948   7.641  70.845  1.00  0.00    -0.053 C  
HETATM   15  N   UNL     1      -6.514   6.869  69.684  1.00  0.00    -0.042 NA 
ENDBRANCH   3   9
BRANCH   8  16
HETATM   16  C   UNL     1      -8.294   4.117  70.562  1.00  0.00    -0.083 A  
HETATM   17  C   UNL     1      -9.120   4.796  71.520  1.00  0.00    -0.136 A  
HETATM   18  C   UNL     1      -7.085   3.569  71.032  1.00  0.00    -0.033 A  
HETATM   19  C   UNL     1      -7.457   4.337  73.269  1.00  0.00    -0.077 A  
HETATM   20  F   UNL     1      -9.341   5.597  73.776  1.00  0.00    -0.135 F  
HETATM   21  F   UNL     1      -7.046   4.464  74.538  1.00  0.00    -0.064 F  
HETATM   22  C   UNL     1      -6.665   3.674  72.363  1.00  0.00    -0.029 A  
HETATM   23  C   UNL     1      -8.653   4.897  72.860  1.00  0.00    -0.118 A  
BRANCH  17  24
HETATM   24  N   UNL     1     -10.357   5.421  71.169  1.00  0.00    -0.229 NA 
HETATM   25  H   UNL     1     -11.194   4.838  71.201  1.00  0.00     0.000 HD 
BRANCH  24  26
HETATM   26  C   UNL     1     -10.534   6.779  70.778  1.00  0.00    -0.214 A  
HETATM   27  C   UNL     1     -10.616   7.811  71.715  1.00  0.00    -0.217 A  
HETATM   28  F   UNL     1     -10.466   7.544  73.023  1.00  0.00    -0.255 F  
HETATM   29  C   UNL     1     -10.926   9.122  71.333  1.00  0.00    -0.414 A  
HETATM   30  C   UNL     1     -11.149   9.409  69.986  1.00  0.00    -0.221 A  
HETATM   31  C   UNL     1     -11.053   8.402  69.028  1.00  0.00     0.220 A  
HETATM   32  I   UNL     1     -11.649  11.337  69.393  1.00  0.00    -0.483 I  
HETATM   33  C   UNL     1     -10.733   7.100  69.425  1.00  0.00    -0.246 A  
ENDBRANCH  24  26
ENDBRANCH  17  24
ENDBRANCH   8  16
TORSDOF 4
ENDMDL
MODEL      173
REMARK 921   NORMALIZED FREE ENERGY PREDICTED BY IDOCK:   -2.95 KCAL/MOL
REMARK 922        TOTAL FREE ENERGY PREDICTED BY IDOCK:   -5.38 KCAL/MOL
REMARK 923 INTER-LIGAND FREE ENERGY PREDICTED BY IDOCK:   -3.71 KCAL/MOL
REMARK 924 INTRA-LIGAND FREE ENERGY PREDICTED BY IDOCK:   -1.67 KCAL/MOL
REMARK 927      BINDING AFFINITY PREDICTED BY RF-SCORE:    0.00 PKD
ROOT
HETATM    1  O   UNL     1      -5.241   9.744  67.263  1.00  0.00    -0.035 OA 
HETATM    2  H   UNL     1      -4.858   9.842  68.127  1.00  0.00     0.000 HD 
HETATM    3  C   UNL     1      -6.015   8.533  67.040  1.00  0.00    -0.053 C  
HETATM    4  C   UNL     1      -6.651   8.370  65.611  1.00  0.00    -0.052 C  
HETATM    5  O   UNL     1      -8.521   6.271  65.282  1.00  0.00    -0.151 OA 
HETATM    6  C   UNL     1      -5.205   7.261  66.573  1.00  0.00    -0.023 C  
HETATM    7  N   UNL     1      -6.422   6.912  65.826  1.00  0.00    -0.049 N  
HETATM    8  C   UNL     1      -7.498   6.010  65.922  1.00  0.00    -0.082 C  
ENDROOT
BRANCH   3   9
HETATM    9  C   UNL     1      -6.910   8.216  68.283  1.00  0.00    -0.069 C  
HETATM   10  C   UNL     1      -8.140   9.003  70.322  1.00  0.00    -0.141 C  
HETATM   11  C   UNL     1      -7.528   7.836  71.092  1.00  0.00    -0.078 C  
HETATM   12  H   UNL     1      -5.413   7.340  69.430  1.00  0.00     0.000 HD 
HETATM   13  C   UNL     1      -7.207   9.429  69.176  1.00  0.00    -0.066 C  
HETATM   14  C   UNL     1      -7.228   6.678  70.151  1.00  0.00    -0.080 C  
HETATM   15  N   UNL     1      -6.339   7.102  69.073  1.00  0.00    -0.034 NA 
ENDBRANCH   3   9
BRANCH   8  16
HETATM   16  C   UNL     1      -7.557   4.809  66.860  1.00  0.00    -0.087 A  
HETATM   17  C   UNL     1      -8.757   4.480  67.576  1.00  0.00    -0.104 A  
HETATM   18  C   UNL     1      -6.401   4.069  67.173  1.00  0.00    -0.040 A  
HETATM   19  C   UNL     1      -7.528   2.765  68.834  1.00  0.00    -0.048 A  
HETATM   20  F   UNL     1      -9.760   3.176  69.330  1.00  0.00    -0.240 F  
HETATM   21  F   UNL     1      -7.504   1.820  69.784  1.00  0.00    -0.041 F  
HETATM   22  C   UNL     1      -6.377   3.062  68.144  1.00  0.00    -0.032 A  
HETATM   23  C   UNL     1      -8.692   3.462  68.568  1.00  0.00    -0.102 A  
BRANCH  17  24
HETATM   24  N   UNL     1      -9.992   5.173  67.374  1.00  0.00    -0.170 NA 
HETATM   25  H   UNL     1     -10.535   4.916  66.550  1.00  0.00     0.000 HD 
BRANCH  24  26
HETATM   26  C   UNL     1     -10.536   6.187  68.214  1.00  0.00    -0.262 A  
HETATM   27  C   UNL     1     -10.594   7.523  67.813  1.00  0.00    -0.206 A  
HETATM   28  F   UNL     1     -10.186   7.874  66.582  1.00  0.00    -0.311 F  
HETATM   29  C   UNL     1     -11.004   8.533  68.693  1.00  0.00     0.131 A  
HETATM   30  C   UNL     1     -11.371   8.198  69.996  1.00  0.00     0.000 A  
HETATM   31  C   UNL     1     -11.342   6.870  70.416  1.00  0.00    -0.376 A  
HETATM   32  I   UNL     1     -11.945   9.679  71.338  1.00  0.00    -0.471 I  
HETATM   33  C   UNL     1     -10.940   5.872  69.522  1.00  0.00    -0.438 A  
ENDBRANCH  24  26
ENDBRANCH  17  24
ENDBRANCH   8  16
TORSDOF 4
ENDMDL
MODEL      174
REMARK 921   NORMALIZED FREE ENERGY PREDICTED BY IDOCK:   -2.92 KCAL/MOL
REMARK 922        TOTAL FREE ENERGY PREDICTED BY IDOCK:   -5.35 KCAL/MOL
REMARK 923 INTER-LIGAND FREE ENERGY PREDICTED BY IDOCK:   -4.21 KCAL/MOL
REMARK 924 INTRA-LIGAND FREE ENERGY PREDICTED BY IDOCK:   -1.14 KCAL/MOL
REMARK 927      BINDING AFFINITY PREDICTED BY RF-SCORE:    0.00 PKD
ROOT
HETATM    1  O   UNL     1      -9.920   9.923  70.762  1.00  0.00    -0.348 OA 
HETATM    2  H   UNL     1      -9.070  10.344  70.701  1.00  0.00     0.000 HD 
HETATM    3  C   UNL     1      -9.909   8.480  70.949  1.00  0.00    -0.189 C  
HETATM    4  C   UNL     1     -11.315   7.784  71.050  1.00  0.00    -0.271 C  
HETATM    5  O   UNL     1     -11.336   5.071  71.861  1.00  0.00     0.082 OA 
HETATM    6  C   UNL     1      -9.825   7.605  69.638  1.00  0.00    -0.181 C  
HETATM    7  N   UNL     1     -10.640   6.634  70.381  1.00  0.00    -0.214 N  
HETATM    8  C   UNL     1     -10.475   5.401  71.038  1.00  0.00    -0.232 C  
ENDROOT
BRANCH   3   9
HETATM    9  C   UNL     1      -8.809   8.069  71.982  1.00  0.00    -0.156 C  
HETATM   10  C   UNL     1      -8.178   7.348  74.300  1.00  0.00    -0.220 C  
HETATM   11  C   UNL     1      -7.056   8.383  74.273  1.00  0.00    -0.203 C  
HETATM   12  H   UNL     1      -8.050   9.981  72.288  1.00  0.00     0.000 HD 
HETATM   13  C   UNL     1      -9.338   7.801  73.398  1.00  0.00    -0.346 C  
HETATM   14  C   UNL     1      -6.595   8.629  72.844  1.00  0.00    -0.012 C  
HETATM   15  N   UNL     1      -7.710   9.061  72.006  1.00  0.00    -0.337 NA 
ENDBRANCH   3   9
BRANCH   8  16
HETATM   16  C   UNL     1      -9.250   4.500  70.923  1.00  0.00    -0.201 A  
HETATM   17  C   UNL     1      -8.883   3.896  69.674  1.00  0.00    -0.088 A  
HETATM   18  C   UNL     1      -8.522   4.108  72.063  1.00  0.00    -0.111 A  
HETATM   19  C   UNL     1      -7.157   2.580  70.824  1.00  0.00    -0.033 A  
HETATM   20  F   UNL     1      -7.517   2.266  68.551  1.00  0.00    -0.046 F  
HETATM   21  F   UNL     1      -6.189   1.654  70.786  1.00  0.00    -0.016 F  
HETATM   22  C   UNL     1      -7.491   3.162  72.024  1.00  0.00    -0.052 A  
HETATM   23  C   UNL     1      -7.841   2.927  69.674  1.00  0.00    -0.042 A  
BRANCH  17  24
HETATM   24  N   UNL     1      -9.559   4.186  68.447  1.00  0.00    -0.148 NA 
HETATM   25  H   UNL     1     -10.562   4.366  68.505  1.00  0.00     0.000 HD 
BRANCH  24  26
HETATM   26  C   UNL     1      -8.968   4.246  67.153  1.00  0.00    -0.123 A  
HETATM   27  C   UNL     1      -8.191   5.334  66.747  1.00  0.00    -0.108 A  
HETATM   28  F   UNL     1      -7.933   6.332  67.607  1.00  0.00    -0.106 F  
HETATM   29  C   UNL     1      -7.728   5.449  65.431  1.00  0.00    -0.092 A  
HETATM   30  C   UNL     1      -8.039   4.454  64.505  1.00  0.00    -0.096 A  
HETATM   31  C   UNL     1      -8.794   3.348  64.888  1.00  0.00    -0.123 A  
HETATM   32  I   UNL     1      -7.398   4.617  62.534  1.00  0.00    -0.041 I  
HETATM   33  C   UNL     1      -9.242   3.242  66.209  1.00  0.00    -0.154 A  
ENDBRANCH  24  26
ENDBRANCH  17  24
ENDBRANCH   8  16
TORSDOF 4
ENDMDL
MODEL      175
REMARK 921   NORMALIZED FREE ENERGY PREDICTED BY IDOCK:   -2.89 KCAL/MOL
REMARK 922        TOTAL FREE ENERGY PREDICTED BY IDOCK:   -5.31 KCAL/MOL
REMARK 923 INTER-LIGAND FREE ENERGY PREDICTED BY IDOCK:   -3.76 KCAL/MOL
REMARK 924 INTRA-LIGAND FREE ENERGY PREDICTED BY IDOCK:   -1.54 KCAL/MOL
REMARK 927      BINDING AFFINITY PREDICTED BY RF-SCORE:    0.00 PKD
ROOT
HETATM    1  O   UNL     1      -7.111   5.649  68.689  1.00  0.00    -0.062 OA 
HETATM    2  H   UNL     1      -6.371   5.503  68.111  1.00  0.00     0.000 HD 
HETATM    3  C   UNL     1      -7.465   7.038  68.936  1.00  0.00    -0.095 C  
HETATM    4  C   UNL     1      -8.690   7.280  69.893  1.00  0.00    -0.141 C  
HETATM    5  O   UNL     1      -9.686   9.927  70.038  1.00  0.00    -0.236 OA 
HETATM    6  C   UNL     1      -6.698   7.758  70.113  1.00  0.00    -0.041 C  
HETATM    7  N   UNL     1      -7.947   8.506  70.308  1.00  0.00    -0.098 N  
HETATM    8  C   UNL     1      -8.459   9.792  70.051  1.00  0.00    -0.206 C  
ENDROOT
BRANCH   3   9
HETATM    9  C   UNL     1      -7.391   7.868  67.613  1.00  0.00    -0.096 C  
HETATM   10  C   UNL     1      -7.928   8.108  65.175  1.00  0.00    -0.126 C  
HETATM   11  C   UNL     1      -6.484   8.544  64.941  1.00  0.00    -0.064 C  
HETATM   12  H   UNL     1      -5.386   7.488  67.212  1.00  0.00     0.000 HD 
HETATM   13  C   UNL     1      -8.008   7.171  66.392  1.00  0.00    -0.112 C  
HETATM   14  C   UNL     1      -5.918   9.199  66.193  1.00  0.00    -0.059 C  
HETATM   15  N   UNL     1      -6.000   8.293  67.335  1.00  0.00    -0.046 NA 
ENDBRANCH   3   9
BRANCH   8  16
HETATM   16  C   UNL     1      -7.627  11.005  69.651  1.00  0.00     0.080 A  
HETATM   17  C   UNL     1      -8.235  12.168  69.069  1.00  0.00     0.290 A  
HETATM   18  C   UNL     1      -6.220  10.974  69.697  1.00  0.00    -0.095 A  
HETATM   19  C   UNL     1      -6.008  13.105  68.627  1.00  0.00    -0.075 A  
HETATM   20  F   UNL     1      -7.898  14.253  67.918  1.00  0.00    -0.110 F  
HETATM   21  F   UNL     1      -5.241  14.080  68.119  1.00  0.00    -0.090 F  
HETATM   22  C   UNL     1      -5.415  12.002  69.194  1.00  0.00    -0.059 A  
HETATM   23  C   UNL     1      -7.386  13.186  68.553  1.00  0.00    -0.111 A  
BRANCH  17  24
HETATM   24  N   UNL     1      -9.651  12.314  68.935  1.00  0.00    -0.406 NA 
HETATM   25  H   UNL     1     -10.189  12.412  69.797  1.00  0.00     0.000 HD 
BRANCH  24  26
HETATM   26  C   UNL     1     -10.385  12.336  67.714  1.00  0.00    -0.207 A  
HETATM   27  C   UNL     1     -10.271  11.315  66.768  1.00  0.00    -0.226 A  
HETATM   28  F   UNL     1      -9.502  10.245  67.023  1.00  0.00    -0.167 F  
HETATM   29  C   UNL     1     -10.888  11.410  65.514  1.00  0.00    -0.282 A  
HETATM   30  C   UNL     1     -11.641  12.543  65.204  1.00  0.00    -0.353 A  
HETATM   31  C   UNL     1     -11.787  13.566  66.137  1.00  0.00    -0.426 A  
HETATM   32  I   UNL     1     -12.535  12.730  63.337  1.00  0.00     0.170 I  
HETATM   33  C   UNL     1     -11.173  13.453  67.389  1.00  0.00    -0.311 A  
ENDBRANCH  24  26
ENDBRANCH  17  24
ENDBRANCH   8  16
TORSDOF 4
ENDMDL
MODEL      176
REMARK 921   NORMALIZED FREE ENERGY PREDICTED BY IDOCK:   -2.80 KCAL/MOL
REMARK 922        TOTAL FREE ENERGY PREDICTED BY IDOCK:   -5.20 KCAL/MOL
REMARK 923 INTER-LIGAND FREE ENERGY PREDICTED BY IDOCK:   -4.74 KCAL/MOL
REMARK 924 INTRA-LIGAND FREE ENERGY PREDICTED BY IDOCK:   -0.46 KCAL/MOL
REMARK 927      BINDING AFFINITY PREDICTED BY RF-SCORE:    0.00 PKD
ROOT
HETATM    1  O   UNL     1      -8.099   1.647  62.676  1.00  0.00    -0.054 OA 
HETATM    2  H   UNL     1      -7.197   1.604  62.380  1.00  0.00     0.000 HD 
HETATM    3  C   UNL     1      -8.392   2.646  63.692  1.00  0.00    -0.086 C  
HETATM    4  C   UNL     1      -9.885   2.717  64.182  1.00  0.00    -0.140 C  
HETATM    5  O   UNL     1     -10.584   4.926  65.810  1.00  0.00    -0.255 OA 
HETATM    6  C   UNL     1      -8.163   2.207  65.191  1.00  0.00    -0.081 C  
HETATM    7  N   UNL     1      -9.290   3.097  65.497  1.00  0.00    -0.143 N  
HETATM    8  C   UNL     1      -9.509   4.370  66.057  1.00  0.00    -0.173 C  
ENDROOT
BRANCH   3   9
HETATM    9  C   UNL     1      -7.658   3.989  63.371  1.00  0.00    -0.065 C  
HETATM   10  C   UNL     1      -5.844   5.642  63.889  1.00  0.00    -0.021 C  
HETATM   11  C   UNL     1      -6.879   6.757  63.761  1.00  0.00    -0.053 C  
HETATM   12  H   UNL     1      -9.127   5.245  64.139  1.00  0.00     0.000 HD 
HETATM   13  C   UNL     1      -6.523   4.339  64.344  1.00  0.00    -0.042 C  
HETATM   14  C   UNL     1      -7.993   6.341  62.811  1.00  0.00    -0.097 C  
HETATM   15  N   UNL     1      -8.626   5.104  63.262  1.00  0.00    -0.117 NA 
ENDBRANCH   3   9
BRANCH   8  16
HETATM   16  C   UNL     1      -8.475   5.180  66.830  1.00  0.00    -0.106 A  
HETATM   17  C   UNL     1      -8.389   6.606  66.693  1.00  0.00    -0.117 A  
HETATM   18  C   UNL     1      -7.471   4.548  67.588  1.00  0.00    -0.074 A  
HETATM   19  C   UNL     1      -6.332   6.606  68.036  1.00  0.00    -0.044 A  
HETATM   20  F   UNL     1      -7.112   8.596  67.127  1.00  0.00    -0.071 F  
HETATM   21  F   UNL     1      -5.305   7.272  68.581  1.00  0.00    -0.017 F  
HETATM   22  C   UNL     1      -6.412   5.241  68.185  1.00  0.00    -0.048 A  
HETATM   23  C   UNL     1      -7.290   7.277  67.298  1.00  0.00    -0.098 A  
BRANCH  17  24
HETATM   24  N   UNL     1      -9.327   7.366  65.927  1.00  0.00    -0.398 NA 
HETATM   25  H   UNL     1      -9.619   6.973  65.031  1.00  0.00     0.000 HD 
BRANCH  24  26
HETATM   26  C   UNL     1      -9.895   8.620  66.293  1.00  0.00    -0.249 A  
HETATM   27  C   UNL     1      -9.788   9.745  65.473  1.00  0.00    -0.308 A  
HETATM   28  F   UNL     1      -9.191   9.649  64.274  1.00  0.00    -0.257 F  
HETATM   29  C   UNL     1     -10.228  11.005  65.900  1.00  0.00    -0.309 A  
HETATM   30  C   UNL     1     -10.794  11.139  67.167  1.00  0.00    -0.273 A  
HETATM   31  C   UNL     1     -10.932  10.030  67.998  1.00  0.00    -0.296 A  
HETATM   32  I   UNL     1     -11.421  13.002  67.844  1.00  0.00    -0.408 I  
HETATM   33  C   UNL     1     -10.496   8.777  67.553  1.00  0.00    -0.340 A  
ENDBRANCH  24  26
ENDBRANCH  17  24
ENDBRANCH   8  16
TORSDOF 4
ENDMDL
MODEL      177
REMARK 921   NORMALIZED FREE ENERGY PREDICTED BY IDOCK:   -2.75 KCAL/MOL
REMARK 922        TOTAL FREE ENERGY PREDICTED BY IDOCK:   -5.14 KCAL/MOL
REMARK 923 INTER-LIGAND FREE ENERGY PREDICTED BY IDOCK:   -3.93 KCAL/MOL
REMARK 924 INTRA-LIGAND FREE ENERGY PREDICTED BY IDOCK:   -1.20 KCAL/MOL
REMARK 927      BINDING AFFINITY PREDICTED BY RF-SCORE:    0.00 PKD
ROOT
HETATM    1  O   UNL     1      -5.129  13.228  70.860  1.00  0.00    -0.107 OA 
HETATM    2  H   UNL     1      -5.470  13.905  71.432  1.00  0.00     0.000 HD 
HETATM    3  C   UNL     1      -5.937  12.908  69.693  1.00  0.00    -0.120 C  
HETATM    4  C   UNL     1      -5.371  11.788  68.745  1.00  0.00    -0.049 C  
HETATM    5  O   UNL     1      -6.670  11.457  66.251  1.00  0.00    -0.069 OA 
HETATM    6  C   UNL     1      -7.075  11.834  69.903  1.00  0.00     0.464 C  
HETATM    7  N   UNL     1      -6.806  11.456  68.509  1.00  0.00    -0.068 N  
HETATM    8  C   UNL     1      -7.393  11.615  67.240  1.00  0.00    -0.136 C  
ENDROOT
BRANCH   3   9
HETATM    9  C   UNL     1      -6.496  14.213  69.037  1.00  0.00    -0.099 C  
HETATM   10  C   UNL     1      -6.086  16.430  67.938  1.00  0.00    -0.137 C  
HETATM   11  C   UNL     1      -7.146  17.035  68.855  1.00  0.00    -0.233 C  
HETATM   12  H   UNL     1      -7.112  15.117  70.806  1.00  0.00     0.000 HD 
HETATM   13  C   UNL     1      -5.419  15.225  68.622  1.00  0.00    -0.091 C  
HETATM   14  C   UNL     1      -8.165  15.979  69.257  1.00  0.00    -0.212 C  
HETATM   15  N   UNL     1      -7.512  14.847  69.907  1.00  0.00    -0.085 NA 
ENDBRANCH   3   9
BRANCH   8  16
HETATM   16  C   UNL     1      -8.815  12.102  66.984  1.00  0.00    -0.203 A  
HETATM   17  C   UNL     1      -9.952  11.384  67.487  1.00  0.00    -0.182 A  
HETATM   18  C   UNL     1      -9.072  13.185  66.122  1.00  0.00     0.094 A  
HETATM   19  C   UNL     1     -11.442  12.864  66.213  1.00  0.00    -0.348 A  
HETATM   20  F   UNL     1     -12.339  11.099  67.428  1.00  0.00     0.153 F  
HETATM   21  F   UNL     1     -12.678  13.207  65.825  1.00  0.00    -0.480 F  
HETATM   22  C   UNL     1     -10.362  13.566  65.736  1.00  0.00    -0.296 A  
HETATM   23  C   UNL     1     -11.247  11.789  67.061  1.00  0.00    -0.322 A  
BRANCH  17  24
HETATM   24  N   UNL     1      -9.829  10.248  68.347  1.00  0.00    -0.152 NA 
HETATM   25  H   UNL     1      -9.870  10.424  69.352  1.00  0.00     0.000 HD 
BRANCH  24  26
HETATM   26  C   UNL     1      -9.656   8.895  67.937  1.00  0.00    -0.148 A  
HETATM   27  C   UNL     1     -10.042   7.825  68.746  1.00  0.00    -0.196 A  
HETATM   28  F   UNL     1     -10.650   8.056  69.921  1.00  0.00    -0.223 F  
HETATM   29  C   UNL     1      -9.745   6.501  68.397  1.00  0.00    -0.132 A  
HETATM   30  C   UNL     1      -9.058   6.243  67.211  1.00  0.00    -0.116 A  
HETATM   31  C   UNL     1      -8.680   7.291  66.376  1.00  0.00    -0.152 A  
HETATM   32  I   UNL     1      -8.569   4.292  66.686  1.00  0.00    -0.121 I  
HETATM   33  C   UNL     1      -8.992   8.607  66.734  1.00  0.00    -0.167 A  
ENDBRANCH  24  26
ENDBRANCH  17  24
ENDBRANCH   8  16
TORSDOF 4
ENDMDL
MODEL      178
REMARK 921   NORMALIZED FREE ENERGY PREDICTED BY IDOCK:   -2.68 KCAL/MOL
REMARK 922        TOTAL FREE ENERGY PREDICTED BY IDOCK:   -5.05 KCAL/MOL
REMARK 923 INTER-LIGAND FREE ENERGY PREDICTED BY IDOCK:   -6.70 KCAL/MOL
REMARK 924 INTRA-LIGAND FREE ENERGY PREDICTED BY IDOCK:    1.65 KCAL/MOL
REMARK 927      BINDING AFFINITY PREDICTED BY RF-SCORE:    0.00 PKD
ROOT
HETATM    1  O   UNL     1     -13.134  11.569  63.843  1.00  0.00    -0.233 OA 
HETATM    2  H   UNL     1     -12.988  10.644  64.007  1.00  0.00     0.000 HD 
HETATM    3  C   UNL     1     -12.144  12.481  64.395  1.00  0.00    -0.424 C  
HETATM    4  C   UNL     1     -12.386  14.011  64.123  1.00  0.00    -0.332 C  
HETATM    5  O   UNL     1     -10.267  15.769  64.784  1.00  0.00    -0.403 OA 
HETATM    6  C   UNL     1     -12.376  12.945  65.887  1.00  0.00    -0.313 C  
HETATM    7  N   UNL     1     -11.756  14.207  65.462  1.00  0.00    -0.334 N  
HETATM    8  C   UNL     1     -10.526  14.878  65.599  1.00  0.00    -0.349 C  
ENDROOT
BRANCH   3   9
HETATM    9  C   UNL     1     -10.700  11.916  64.190  1.00  0.00    -0.351 C  
HETATM   10  C   UNL     1      -8.834  11.253  62.652  1.00  0.00    -0.259 C  
HETATM   11  C   UNL     1      -8.684   9.964  63.455  1.00  0.00    -0.230 C  
HETATM   12  H   UNL     1     -11.165   9.932  64.606  1.00  0.00     0.000 HD 
HETATM   13  C   UNL     1     -10.286  11.754  62.721  1.00  0.00     0.219 C  
HETATM   14  C   UNL     1      -9.138  10.178  64.891  1.00  0.00    -0.215 C  
HETATM   15  N   UNL     1     -10.519  10.650  64.935  1.00  0.00    -0.280 NA 
ENDBRANCH   3   9
BRANCH   8  16
HETATM   16  C   UNL     1      -9.425  14.503  66.585  1.00  0.00    -0.301 A  
HETATM   17  C   UNL     1      -9.583  13.405  67.497  1.00  0.00    -0.221 A  
HETATM   18  C   UNL     1      -8.280  15.306  66.742  1.00  0.00    -0.215 A  
HETATM   19  C   UNL     1      -7.491  14.042  68.616  1.00  0.00    -0.125 A  
HETATM   20  F   UNL     1      -8.743  12.269  69.442  1.00  0.00     0.394 F  
HETATM   21  F   UNL     1      -6.593  13.846  69.590  1.00  0.00    -0.116 F  
HETATM   22  C   UNL     1      -7.324  15.088  67.740  1.00  0.00    -0.183 A  
HETATM   23  C   UNL     1      -8.600  13.223  68.509  1.00  0.00    -0.065 A  
BRANCH  17  24
HETATM   24  N   UNL     1     -10.713  12.529  67.464  1.00  0.00    -0.222 NA 
HETATM   25  H   UNL     1     -11.227  12.471  66.584  1.00  0.00     0.000 HD 
BRANCH  24  26
HETATM   26  C   UNL     1     -11.192  11.730  68.542  1.00  0.00    -0.252 A  
HETATM   27  C   UNL     1     -10.944  10.358  68.609  1.00  0.00    -0.243 A  
HETATM   28  F   UNL     1     -10.185   9.766  67.673  1.00  0.00    -0.195 F  
HETATM   29  C   UNL     1     -11.531   9.557  69.597  1.00  0.00     0.011 A  
HETATM   30  C   UNL     1     -12.374  10.142  70.541  1.00  0.00    -0.245 A  
HETATM   31  C   UNL     1     -12.622  11.512  70.510  1.00  0.00    -0.286 A  
HETATM   32  I   UNL     1     -13.291   8.973  71.995  1.00  0.00    -0.597 I  
HETATM   33  C   UNL     1     -12.021  12.300  69.523  1.00  0.00    -0.333 A  
ENDBRANCH  24  26
ENDBRANCH  17  24
ENDBRANCH   8  16
TORSDOF 4
ENDMDL
MODEL      179
REMARK 921   NORMALIZED FREE ENERGY PREDICTED BY IDOCK:   -2.66 KCAL/MOL
REMARK 922        TOTAL FREE ENERGY PREDICTED BY IDOCK:   -5.03 KCAL/MOL
REMARK 923 INTER-LIGAND FREE ENERGY PREDICTED BY IDOCK:   -4.81 KCAL/MOL
REMARK 924 INTRA-LIGAND FREE ENERGY PREDICTED BY IDOCK:   -0.22 KCAL/MOL
REMARK 927      BINDING AFFINITY PREDICTED BY RF-SCORE:    0.00 PKD
ROOT
HETATM    1  O   UNL     1      -7.298  19.135  66.629  1.00  0.00    -0.211 OA 
HETATM    2  H   UNL     1      -7.993  19.703  66.318  1.00  0.00     0.000 HD 
HETATM    3  C   UNL     1      -7.720  17.909  67.288  1.00  0.00    -0.204 C  
HETATM    4  C   UNL     1      -6.569  16.968  67.802  1.00  0.00    -0.145 C  
HETATM    5  O   UNL     1      -7.334  14.385  68.676  1.00  0.00    -0.109 OA 
HETATM    6  C   UNL     1      -8.014  18.012  68.836  1.00  0.00    -0.174 C  
HETATM    7  N   UNL     1      -7.525  16.628  68.897  1.00  0.00    -0.222 N  
HETATM    8  C   UNL     1      -8.046  15.329  69.034  1.00  0.00    -0.202 C  
ENDROOT
BRANCH   3   9
HETATM    9  C   UNL     1      -8.917  17.256  66.521  1.00  0.00    -0.268 C  
HETATM   10  C   UNL     1     -11.383  16.868  66.286  1.00  0.00     0.810 C  
HETATM   11  C   UNL     1     -11.089  15.385  66.073  1.00  0.00    -0.233 C  
HETATM   12  H   UNL     1      -8.599  15.317  67.204  1.00  0.00     0.000 HD 
HETATM   13  C   UNL     1     -10.290  17.504  67.161  1.00  0.00    -0.330 C  
HETATM   14  C   UNL     1      -9.705  15.201  65.468  1.00  0.00    -0.268 C  
HETATM   15  N   UNL     1      -8.682  15.809  66.314  1.00  0.00    -0.332 NA 
ENDBRANCH   3   9
BRANCH   8  16
HETATM   16  C   UNL     1      -9.472  14.994  69.458  1.00  0.00    -0.081 A  
HETATM   17  C   UNL     1     -10.161  13.852  68.926  1.00  0.00    -0.098 A  
HETATM   18  C   UNL     1     -10.218  15.871  70.268  1.00  0.00     0.005 A  
HETATM   19  C   UNL     1     -12.228  14.593  70.027  1.00  0.00    -0.333 A  
HETATM   20  F   UNL     1     -12.258  12.702  68.678  1.00  0.00    -0.324 F  
HETATM   21  F   UNL     1     -13.534  14.422  70.274  1.00  0.00    -0.208 F  
HETATM   22  C   UNL     1     -11.575  15.682  70.553  1.00  0.00    -0.383 A  
HETATM   23  C   UNL     1     -11.544  13.701  69.222  1.00  0.00    -0.311 A  
BRANCH  17  24
HETATM   24  N   UNL     1      -9.528  12.900  68.067  1.00  0.00    -0.208 NA 
HETATM   25  H   UNL     1      -9.343  13.195  67.107  1.00  0.00     0.000 HD 
BRANCH  24  26
HETATM   26  C   UNL     1      -9.131  11.578  68.421  1.00  0.00    -0.185 A  
HETATM   27  C   UNL     1      -8.248  10.838  67.633  1.00  0.00    -0.115 A  
HETATM   28  F   UNL     1      -7.699  11.390  66.539  1.00  0.00    -0.145 F  
HETATM   29  C   UNL     1      -7.969   9.494  67.914  1.00  0.00    -0.098 A  
HETATM   30  C   UNL     1      -8.579   8.882  69.009  1.00  0.00    -0.138 A  
HETATM   31  C   UNL     1      -9.448   9.604  69.824  1.00  0.00    -0.242 A  
HETATM   32  I   UNL     1      -8.216   6.879  69.429  1.00  0.00    -0.133 I  
HETATM   33  C   UNL     1      -9.709  10.948  69.536  1.00  0.00     0.077 A  
ENDBRANCH  24  26
ENDBRANCH  17  24
ENDBRANCH   8  16
TORSDOF 4
ENDMDL
MODEL      180
REMARK 921   NORMALIZED FREE ENERGY PREDICTED BY IDOCK:   -2.38 KCAL/MOL
REMARK 922        TOTAL FREE ENERGY PREDICTED BY IDOCK:   -4.69 KCAL/MOL
REMARK 923 INTER-LIGAND FREE ENERGY PREDICTED BY IDOCK:   -4.14 KCAL/MOL
REMARK 924 INTRA-LIGAND FREE ENERGY PREDICTED BY IDOCK:   -0.55 KCAL/MOL
REMARK 927      BINDING AFFINITY PREDICTED BY RF-SCORE:    0.00 PKD
ROOT
HETATM    1  O   UNL     1      -6.808   1.664  64.831  1.00  0.00    -0.032 OA 
HETATM    2  H   UNL     1      -6.270   1.080  65.352  1.00  0.00     0.000 HD 
HETATM    3  C   UNL     1      -7.462   2.745  65.552  1.00  0.00    -0.072 C  
HETATM    4  C   UNL     1      -8.353   3.713  64.690  1.00  0.00    -0.093 C  
HETATM    5  O   UNL     1      -9.268   6.071  65.963  1.00  0.00    -0.161 OA 
HETATM    6  C   UNL     1      -8.862   2.408  66.201  1.00  0.00    -0.128 C  
HETATM    7  N   UNL     1      -9.194   3.811  65.919  1.00  0.00    -0.151 N  
HETATM    8  C   UNL     1      -9.328   5.025  66.617  1.00  0.00    -0.138 C  
ENDROOT
BRANCH   3   9
HETATM    9  C   UNL     1      -6.486   3.379  66.597  1.00  0.00    -0.036 C  
HETATM   10  C   UNL     1      -5.751   3.664  68.978  1.00  0.00    -0.022 C  
HETATM   11  C   UNL     1      -5.662   5.167  68.729  1.00  0.00    -0.016 C  
HETATM   12  H   UNL     1      -7.295   5.295  66.538  1.00  0.00     0.000 HD 
HETATM   13  C   UNL     1      -6.811   3.036  68.058  1.00  0.00    -0.049 C  
HETATM   14  C   UNL     1      -5.370   5.446  67.261  1.00  0.00    -0.008 C  
HETATM   15  N   UNL     1      -6.389   4.844  66.406  1.00  0.00    -0.035 NA 
ENDBRANCH   3   9
BRANCH   8  16
HETATM   16  C   UNL     1      -9.403   5.163  68.134  1.00  0.00    -0.148 A  
HETATM   17  C   UNL     1      -8.959   6.356  68.797  1.00  0.00    -0.126 A  
HETATM   18  C   UNL     1      -9.767   4.075  68.949  1.00  0.00    -0.151 A  
HETATM   19  C   UNL     1      -9.259   5.252  70.970  1.00  0.00    -0.147 A  
HETATM   20  F   UNL     1      -8.394   7.406  70.885  1.00  0.00    -0.109 F  
HETATM   21  F   UNL     1      -9.165   5.281  72.307  1.00  0.00    -0.136 F  
HETATM   22  C   UNL     1      -9.698   4.109  70.346  1.00  0.00    -0.271 A  
HETATM   23  C   UNL     1      -8.886   6.350  70.218  1.00  0.00    -0.151 A  
BRANCH  17  24
HETATM   24  N   UNL     1      -8.534   7.523  68.087  1.00  0.00    -0.124 NA 
HETATM   25  H   UNL     1      -7.730   7.418  67.466  1.00  0.00     0.000 HD 
BRANCH  24  26
HETATM   26  C   UNL     1      -9.123   8.817  68.163  1.00  0.00    -0.140 A  
HETATM   27  C   UNL     1     -10.376   9.089  67.611  1.00  0.00    -0.257 A  
HETATM   28  F   UNL     1     -11.089   8.104  67.042  1.00  0.00    -0.313 F  
HETATM   29  C   UNL     1     -10.889  10.393  67.569  1.00  0.00    -0.358 A  
HETATM   30  C   UNL     1     -10.137  11.442  68.098  1.00  0.00    -0.189 A  
HETATM   31  C   UNL     1      -8.893  11.195  68.673  1.00  0.00    -0.155 A  
HETATM   32  I   UNL     1     -10.853  13.391  68.015  1.00  0.00    -0.306 I  
HETATM   33  C   UNL     1      -8.399   9.887  68.715  1.00  0.00    -0.116 A  
ENDBRANCH  24  26
ENDBRANCH  17  24
ENDBRANCH   8  16
TORSDOF 4
ENDMDL
MODEL      181
REMARK 921   NORMALIZED FREE ENERGY PREDICTED BY IDOCK:   -2.23 KCAL/MOL
REMARK 922        TOTAL FREE ENERGY PREDICTED BY IDOCK:   -4.49 KCAL/MOL
REMARK 923 INTER-LIGAND FREE ENERGY PREDICTED BY IDOCK:   -3.29 KCAL/MOL
REMARK 924 INTRA-LIGAND FREE ENERGY PREDICTED BY IDOCK:   -1.21 KCAL/MOL
REMARK 927      BINDING AFFINITY PREDICTED BY RF-SCORE:    0.00 PKD
ROOT
HETATM    1  O   UNL     1      -7.358   2.762  67.631  1.00  0.00    -0.052 OA 
HETATM    2  H   UNL     1      -6.686   2.633  68.291  1.00  0.00     0.000 HD 
HETATM    3  C   UNL     1      -8.363   3.770  67.930  1.00  0.00    -0.092 C  
HETATM    4  C   UNL     1      -9.475   3.983  66.839  1.00  0.00    -0.198 C  
HETATM    5  O   UNL     1     -11.170   6.227  67.173  1.00  0.00    -0.334 OA 
HETATM    6  C   UNL     1      -9.608   3.288  68.774  1.00  0.00    -0.037 C  
HETATM    7  N   UNL     1     -10.363   4.283  68.000  1.00  0.00     0.267 N  
HETATM    8  C   UNL     1     -10.920   5.562  68.183  1.00  0.00     0.196 C  
ENDROOT
BRANCH   3   9
HETATM    9  C   UNL     1      -7.700   5.037  68.562  1.00  0.00    -0.079 C  
HETATM   10  C   UNL     1      -6.003   6.880  68.443  1.00  0.00    -0.025 C  
HETATM   11  C   UNL     1      -5.632   6.578  69.892  1.00  0.00    -0.014 C  
HETATM   12  H   UNL     1      -6.615   4.028  70.022  1.00  0.00     0.000 HD 
HETATM   13  C   UNL     1      -6.526   5.608  67.754  1.00  0.00    -0.047 C  
HETATM   14  C   UNL     1      -6.823   5.986  70.632  1.00  0.00    -0.058 C  
HETATM   15  N   UNL     1      -7.303   4.779  69.965  1.00  0.00    -0.053 NA 
ENDBRANCH   3   9
BRANCH   8  16
HETATM   16  C   UNL     1     -11.112   6.253  69.529  1.00  0.00    -0.476 A  
HETATM   17  C   UNL     1     -10.721   7.620  69.728  1.00  0.00    -0.240 A  
HETATM   18  C   UNL     1     -11.537   5.536  70.663  1.00  0.00     0.711 A  
HETATM   19  C   UNL     1     -11.188   7.396  72.129  1.00  0.00    -0.262 A  
HETATM   20  F   UNL     1     -10.320   9.388  71.308  1.00  0.00    -0.338 F  
HETATM   21  F   UNL     1     -11.198   7.924  73.361  1.00  0.00    -0.429 F  
HETATM   22  C   UNL     1     -11.577   6.090  71.947  1.00  0.00    -0.312 A  
HETATM   23  C   UNL     1     -10.759   8.146  71.050  1.00  0.00    -0.217 A  
BRANCH  17  24
HETATM   24  N   UNL     1     -10.243   8.450  68.666  1.00  0.00    -0.198 NA 
HETATM   25  H   UNL     1     -10.490   8.172  67.716  1.00  0.00     0.000 HD 
BRANCH  24  26
HETATM   26  C   UNL     1      -9.456   9.629  68.807  1.00  0.00    -0.148 A  
HETATM   27  C   UNL     1     -10.004  10.904  68.658  1.00  0.00    -0.189 A  
HETATM   28  F   UNL     1     -11.321  11.047  68.436  1.00  0.00    -0.251 F  
HETATM   29  C   UNL     1      -9.200  12.050  68.663  1.00  0.00    -0.043 A  
HETATM   30  C   UNL     1      -7.821  11.919  68.828  1.00  0.00    -0.052 A  
HETATM   31  C   UNL     1      -7.250  10.660  68.999  1.00  0.00    -0.095 A  
HETATM   32  I   UNL     1      -6.596  13.598  68.800  1.00  0.00    -0.123 I  
HETATM   33  C   UNL     1      -8.068   9.526  69.002  1.00  0.00    -0.101 A  
ENDBRANCH  24  26
ENDBRANCH  17  24
ENDBRANCH   8  16
TORSDOF 4
ENDMDL
MODEL      182
REMARK 921   NORMALIZED FREE ENERGY PREDICTED BY IDOCK:   -2.06 KCAL/MOL
REMARK 922        TOTAL FREE ENERGY PREDICTED BY IDOCK:   -4.28 KCAL/MOL
REMARK 923 INTER-LIGAND FREE ENERGY PREDICTED BY IDOCK:   -6.10 KCAL/MOL
REMARK 924 INTRA-LIGAND FREE ENERGY PREDICTED BY IDOCK:    1.82 KCAL/MOL
REMARK 927      BINDING AFFINITY PREDICTED BY RF-SCORE:    0.00 PKD
ROOT
HETATM    1  O   UNL     1     -12.918  13.797  64.710  1.00  0.00    -0.684 OA 
HETATM    2  H   UNL     1     -13.200  12.890  64.672  1.00  0.00     0.000 HD 
HETATM    3  C   UNL     1     -11.588  14.032  65.251  1.00  0.00    -0.337 C  
HETATM    4  C   UNL     1     -11.122  15.532  65.313  1.00  0.00    -0.338 C  
HETATM    5  O   UNL     1      -8.396  15.991  65.929  1.00  0.00    -0.133 OA 
HETATM    6  C   UNL     1     -11.486  14.174  66.820  1.00  0.00    -0.369 C  
HETATM    7  N   UNL     1     -10.387  15.108  66.541  1.00  0.00    -0.275 N  
HETATM    8  C   UNL     1      -8.981  15.130  66.595  1.00  0.00    -0.287 C  
ENDROOT
BRANCH   3   9
HETATM    9  C   UNL     1     -10.578  12.969  64.706  1.00  0.00    -0.362 C  
HETATM   10  C   UNL     1      -9.728  11.561  62.813  1.00  0.00    -0.184 C  
HETATM   11  C   UNL     1      -9.695  10.370  63.767  1.00  0.00    -0.351 C  
HETATM   12  H   UNL     1     -11.442  11.325  65.642  1.00  0.00     0.000 HD 
HETATM   13  C   UNL     1     -10.817  12.557  63.247  1.00  0.00    -0.205 C  
HETATM   14  C   UNL     1      -9.488  10.842  65.199  1.00  0.00    -0.226 C  
HETATM   15  N   UNL     1     -10.533  11.783  65.592  1.00  0.00    -0.255 NA 
ENDBRANCH   3   9
BRANCH   8  16
HETATM   16  C   UNL     1      -8.112  14.092  67.296  1.00  0.00    -0.174 A  
HETATM   17  C   UNL     1      -8.684  13.111  68.174  1.00  0.00    -0.193 A  
HETATM   18  C   UNL     1      -6.707  14.150  67.229  1.00  0.00     0.225 A  
HETATM   19  C   UNL     1      -6.428  12.390  68.828  1.00  0.00    -0.084 A  
HETATM   20  F   UNL     1      -8.282  11.421  69.837  1.00  0.00     0.389 F  
HETATM   21  F   UNL     1      -5.631  11.609  69.570  1.00  0.00    -0.054 F  
HETATM   22  C   UNL     1      -5.870  13.317  67.980  1.00  0.00    -0.120 A  
HETATM   23  C   UNL     1      -7.803  12.292  68.935  1.00  0.00     0.091 A  
BRANCH  17  24
HETATM   24  N   UNL     1     -10.095  12.966  68.357  1.00  0.00    -0.246 NA 
HETATM   25  H   UNL     1     -10.601  12.443  67.642  1.00  0.00     0.000 HD 
BRANCH  24  26
HETATM   26  C   UNL     1     -10.861  13.481  69.441  1.00  0.00     0.015 A  
HETATM   27  C   UNL     1     -11.740  12.678  70.170  1.00  0.00    -0.168 A  
HETATM   28  F   UNL     1     -11.836  11.366  69.897  1.00  0.00    -0.312 F  
HETATM   29  C   UNL     1     -12.590  13.220  71.143  1.00  0.00    -0.412 A  
HETATM   30  C   UNL     1     -12.552  14.591  71.398  1.00  0.00    -0.341 A  
HETATM   31  C   UNL     1     -11.670  15.412  70.700  1.00  0.00    -0.373 A  
HETATM   32  I   UNL     1     -13.828  15.431  72.808  1.00  0.00    -0.083 I  
HETATM   33  C   UNL     1     -10.822  14.854  69.738  1.00  0.00    -0.255 A  
ENDBRANCH  24  26
ENDBRANCH  17  24
ENDBRANCH   8  16
TORSDOF 4
ENDMDL
MODEL      183
REMARK 921   NORMALIZED FREE ENERGY PREDICTED BY IDOCK:   -2.06 KCAL/MOL
REMARK 922        TOTAL FREE ENERGY PREDICTED BY IDOCK:   -4.28 KCAL/MOL
REMARK 923 INTER-LIGAND FREE ENERGY PREDICTED BY IDOCK:   -3.17 KCAL/MOL
REMARK 924 INTRA-LIGAND FREE ENERGY PREDICTED BY IDOCK:   -1.12 KCAL/MOL
REMARK 927      BINDING AFFINITY PREDICTED BY RF-SCORE:    0.00 PKD
ROOT
HETATM    1  O   UNL     1      -7.264  11.127  63.139  1.00  0.00    -0.192 OA 
HETATM    2  H   UNL     1      -7.632  11.973  63.368  1.00  0.00     0.000 HD 
HETATM    3  C   UNL     1      -7.073  10.194  64.239  1.00  0.00    -0.102 C  
HETATM    4  C   UNL     1      -6.464   8.794  63.862  1.00  0.00    -0.076 C  
HETATM    5  O   UNL     1      -6.498   6.807  65.879  1.00  0.00    -0.047 OA 
HETATM    6  C   UNL     1      -5.712  10.315  65.031  1.00  0.00    -0.128 C  
HETATM    7  N   UNL     1      -5.828   8.862  65.210  1.00  0.00    -0.051 N  
HETATM    8  C   UNL     1      -6.167   7.946  66.224  1.00  0.00    -0.046 C  
ENDROOT
BRANCH   3   9
HETATM    9  C   UNL     1      -8.302  10.225  65.207  1.00  0.00    -0.163 C  
HETATM   10  C   UNL     1     -10.776  10.434  65.557  1.00  0.00     0.028 C  
HETATM   11  C   UNL     1     -10.492  11.414  66.692  1.00  0.00    -0.285 C  
HETATM   12  H   UNL     1      -7.957  12.133  65.960  1.00  0.00     0.000 HD 
HETATM   13  C   UNL     1      -9.646  10.489  64.515  1.00  0.00    -0.359 C  
HETATM   14  C   UNL     1      -9.135  11.124  67.317  1.00  0.00    -0.150 C  
HETATM   15  N   UNL     1      -8.077  11.184  66.313  1.00  0.00    -0.164 NA 
ENDBRANCH   3   9
BRANCH   8  16
HETATM   16  C   UNL     1      -6.293   8.283  67.706  1.00  0.00    -0.053 A  
HETATM   17  C   UNL     1      -7.534   8.113  68.406  1.00  0.00    -0.100 A  
HETATM   18  C   UNL     1      -5.245   8.912  68.404  1.00  0.00    -0.034 A  
HETATM   19  C   UNL     1      -6.569   9.224  70.373  1.00  0.00    -0.068 A  
HETATM   20  F   UNL     1      -8.796   8.564  70.403  1.00  0.00    -0.130 F  
HETATM   21  F   UNL     1      -6.705   9.694  71.621  1.00  0.00     0.012 F  
HETATM   22  C   UNL     1      -5.372   9.380  69.716  1.00  0.00    -0.033 A  
HETATM   23  C   UNL     1      -7.633   8.615  69.734  1.00  0.00    -0.079 A  
BRANCH  17  24
HETATM   24  N   UNL     1      -8.686   7.516  67.804  1.00  0.00    -0.123 NA 
HETATM   25  H   UNL     1      -9.472   8.134  67.598  1.00  0.00     0.000 HD 
BRANCH  24  26
HETATM   26  C   UNL     1      -8.842   6.141  67.465  1.00  0.00    -0.106 A  
HETATM   27  C   UNL     1      -8.177   5.130  68.160  1.00  0.00    -0.097 A  
HETATM   28  F   UNL     1      -7.412   5.435  69.221  1.00  0.00    -0.066 F  
HETATM   29  C   UNL     1      -8.228   3.796  67.736  1.00  0.00    -0.091 A  
HETATM   30  C   UNL     1      -8.965   3.466  66.599  1.00  0.00    -0.152 A  
HETATM   31  C   UNL     1      -9.656   4.453  65.898  1.00  0.00    -0.188 A  
HETATM   32  I   UNL     1      -9.028   1.502  65.922  1.00  0.00     0.052 I  
HETATM   33  C   UNL     1      -9.603   5.779  66.340  1.00  0.00    -0.175 A  
ENDBRANCH  24  26
ENDBRANCH  17  24
ENDBRANCH   8  16
TORSDOF 4
ENDMDL
MODEL      184
REMARK 921   NORMALIZED FREE ENERGY PREDICTED BY IDOCK:   -1.94 KCAL/MOL
REMARK 922        TOTAL FREE ENERGY PREDICTED BY IDOCK:   -4.13 KCAL/MOL
REMARK 923 INTER-LIGAND FREE ENERGY PREDICTED BY IDOCK:   -2.81 KCAL/MOL
REMARK 924 INTRA-LIGAND FREE ENERGY PREDICTED BY IDOCK:   -1.33 KCAL/MOL
REMARK 927      BINDING AFFINITY PREDICTED BY RF-SCORE:    0.00 PKD
ROOT
HETATM    1  O   UNL     1      -5.262  18.256  71.843  1.00  0.00    -0.613 OA 
HETATM    2  H   UNL     1      -4.544  17.657  71.674  1.00  0.00     0.000 HD 
HETATM    3  C   UNL     1      -5.981  18.739  70.674  1.00  0.00     0.051 C  
HETATM    4  C   UNL     1      -7.170  19.730  70.954  1.00  0.00     0.924 C  
HETATM    5  O   UNL     1      -8.865  20.330  68.766  1.00  0.00     0.144 OA 
HETATM    6  C   UNL     1      -5.385  20.018  69.965  1.00  0.00    -0.237 C  
HETATM    7  N   UNL     1      -6.783  20.344  69.650  1.00  0.00    -0.109 N  
HETATM    8  C   UNL     1      -7.650  20.314  68.542  1.00  0.00     0.007 C  
ENDROOT
BRANCH   3   9
HETATM    9  C   UNL     1      -6.216  17.577  69.654  1.00  0.00    -0.227 C  
HETATM   10  C   UNL     1      -6.691  15.156  69.203  1.00  0.00    -0.130 C  
HETATM   11  C   UNL     1      -5.574  15.172  68.162  1.00  0.00    -0.130 C  
HETATM   12  H   UNL     1      -4.230  17.375  69.070  1.00  0.00     0.000 HD 
HETATM   13  C   UNL     1      -6.409  16.197  70.299  1.00  0.00     0.134 C  
HETATM   14  C   UNL     1      -5.409  16.570  67.583  1.00  0.00    -0.137 C  
HETATM   15  N   UNL     1      -5.139  17.542  68.639  1.00  0.00    -0.143 NA 
ENDBRANCH   3   9
BRANCH   8  16
HETATM   16  C   UNL     1      -7.218  20.123  67.093  1.00  0.00    -0.296 A  
HETATM   17  C   UNL     1      -7.465  18.892  66.396  1.00  0.00    -0.254 A  
HETATM   18  C   UNL     1      -6.430  21.085  66.433  1.00  0.00    -0.303 A  
HETATM   19  C   UNL     1      -6.114  19.696  64.509  1.00  0.00    -0.255 A  
HETATM   20  F   UNL     1      -7.002  17.550  64.455  1.00  0.00     1.841 F  
HETATM   21  F   UNL     1      -5.567  19.486  63.303  1.00  0.00    -0.284 F  
HETATM   22  C   UNL     1      -5.881  20.883  65.161  1.00  0.00    -0.270 A  
HETATM   23  C   UNL     1      -6.878  18.715  65.112  1.00  0.00     0.119 A  
BRANCH  17  24
HETATM   24  N   UNL     1      -8.225  17.822  66.964  1.00  0.00    -0.215 NA 
HETATM   25  H   UNL     1      -8.184  17.714  67.978  1.00  0.00     0.000 HD 
BRANCH  24  26
HETATM   26  C   UNL     1      -9.034  16.892  66.251  1.00  0.00    -0.270 A  
HETATM   27  C   UNL     1     -10.197  17.284  65.587  1.00  0.00    -0.124 A  
HETATM   28  F   UNL     1     -10.549  18.580  65.556  1.00  0.00    -0.440 F  
HETATM   29  C   UNL     1     -11.058  16.345  65.004  1.00  0.00    -0.216 A  
HETATM   30  C   UNL     1     -10.744  14.988  65.080  1.00  0.00    -0.427 A  
HETATM   31  C   UNL     1      -9.579  14.571  65.718  1.00  0.00    -0.242 A  
HETATM   32  I   UNL     1     -12.021  13.568  64.260  1.00  0.00    -0.422 I  
HETATM   33  C   UNL     1      -8.725  15.521  66.287  1.00  0.00    -0.283 A  
ENDBRANCH  24  26
ENDBRANCH  17  24
ENDBRANCH   8  16
TORSDOF 4
ENDMDL
MODEL      185
REMARK 921   NORMALIZED FREE ENERGY PREDICTED BY IDOCK:   -1.92 KCAL/MOL
REMARK 922        TOTAL FREE ENERGY PREDICTED BY IDOCK:   -4.11 KCAL/MOL
REMARK 923 INTER-LIGAND FREE ENERGY PREDICTED BY IDOCK:   -3.62 KCAL/MOL
REMARK 924 INTRA-LIGAND FREE ENERGY PREDICTED BY IDOCK:   -0.49 KCAL/MOL
REMARK 927      BINDING AFFINITY PREDICTED BY RF-SCORE:    0.00 PKD
ROOT
HETATM    1  O   UNL     1      -9.850   5.924  73.603  1.00  0.00    -0.158 OA 
HETATM    2  H   UNL     1     -10.577   5.382  73.318  1.00  0.00     0.000 HD 
HETATM    3  C   UNL     1      -9.290   6.821  72.605  1.00  0.00    -0.139 C  
HETATM    4  C   UNL     1      -8.087   7.718  73.077  1.00  0.00    -0.130 C  
HETATM    5  O   UNL     1      -7.272   9.781  71.316  1.00  0.00    -0.309 OA 
HETATM    6  C   UNL     1      -8.171   6.216  71.669  1.00  0.00    -0.118 C  
HETATM    7  N   UNL     1      -7.606   7.572  71.671  1.00  0.00    -0.083 N  
HETATM    8  C   UNL     1      -7.520   8.682  70.810  1.00  0.00    -0.080 C  
ENDROOT
BRANCH   3   9
HETATM    9  C   UNL     1     -10.428   7.497  71.772  1.00  0.00    -0.193 C  
HETATM   10  C   UNL     1     -11.623   7.801  69.588  1.00  0.00     0.400 C  
HETATM   11  C   UNL     1     -11.586   9.309  69.824  1.00  0.00     0.156 C  
HETATM   12  H   UNL     1      -9.533   9.369  71.631  1.00  0.00     0.000 HD 
HETATM   13  C   UNL     1     -10.428   7.127  70.281  1.00  0.00    -0.232 C  
HETATM   14  C   UNL     1     -11.556   9.612  71.315  1.00  0.00    -0.393 C  
HETATM   15  N   UNL     1     -10.412   8.966  71.954  1.00  0.00    -0.347 NA 
ENDBRANCH   3   9
BRANCH   8  16
HETATM   16  C   UNL     1      -7.844   8.665  69.321  1.00  0.00    -0.101 A  
HETATM   17  C   UNL     1      -8.564   9.742  68.702  1.00  0.00    -0.121 A  
HETATM   18  C   UNL     1      -7.585   7.531  68.529  1.00  0.00    -0.114 A  
HETATM   19  C   UNL     1      -8.706   8.444  66.621  1.00  0.00    -0.131 A  
HETATM   20  F   UNL     1      -9.744  10.518  66.755  1.00  0.00    -0.185 F  
HETATM   21  F   UNL     1      -9.135   8.325  65.357  1.00  0.00    -0.192 F  
HETATM   22  C   UNL     1      -8.006   7.412  67.200  1.00  0.00    -0.114 A  
HETATM   23  C   UNL     1      -8.991   9.581  67.354  1.00  0.00    -0.131 A  
BRANCH  17  24
HETATM   24  N   UNL     1      -8.917  10.939  69.402  1.00  0.00    -0.399 NA 
HETATM   25  H   UNL     1      -9.515  10.834  70.222  1.00  0.00     0.000 HD 
BRANCH  24  26
HETATM   26  C   UNL     1      -8.515  12.263  69.064  1.00  0.00     0.398 A  
HETATM   27  C   UNL     1      -9.415  13.197  68.547  1.00  0.00    -0.103 A  
HETATM   28  F   UNL     1     -10.712  12.878  68.414  1.00  0.00    -0.227 F  
HETATM   29  C   UNL     1      -8.985  14.450  68.090  1.00  0.00    -0.185 A  
HETATM   30  C   UNL     1      -7.631  14.777  68.161  1.00  0.00    -0.119 A  
HETATM   31  C   UNL     1      -6.715  13.872  68.691  1.00  0.00    -0.098 A  
HETATM   32  I   UNL     1      -6.958  16.613  67.455  1.00  0.00    -0.252 I  
HETATM   33  C   UNL     1      -7.161  12.628  69.151  1.00  0.00     0.078 A  
ENDBRANCH  24  26
ENDBRANCH  17  24
ENDBRANCH   8  16
TORSDOF 4
ENDMDL
MODEL      186
REMARK 921   NORMALIZED FREE ENERGY PREDICTED BY IDOCK:   -1.74 KCAL/MOL
REMARK 922        TOTAL FREE ENERGY PREDICTED BY IDOCK:   -3.89 KCAL/MOL
REMARK 923 INTER-LIGAND FREE ENERGY PREDICTED BY IDOCK:   -4.34 KCAL/MOL
REMARK 924 INTRA-LIGAND FREE ENERGY PREDICTED BY IDOCK:    0.45 KCAL/MOL
REMARK 927      BINDING AFFINITY PREDICTED BY RF-SCORE:    0.00 PKD
ROOT
HETATM    1  O   UNL     1     -13.402  14.590  66.651  1.00  0.00     0.613 OA 
HETATM    2  H   UNL     1     -14.011  13.867  66.552  1.00  0.00     0.000 HD 
HETATM    3  C   UNL     1     -11.991  14.238  66.683  1.00  0.00    -0.430 C  
HETATM    4  C   UNL     1     -10.982  15.434  66.846  1.00  0.00    -0.294 C  
HETATM    5  O   UNL     1      -8.239  14.846  66.461  1.00  0.00    -0.051 OA 
HETATM    6  C   UNL     1     -11.399  13.848  68.094  1.00  0.00    -0.295 C  
HETATM    7  N   UNL     1     -10.152  14.450  67.601  1.00  0.00    -0.221 N  
HETATM    8  C   UNL     1      -8.896  14.035  67.123  1.00  0.00    -0.228 C  
ENDROOT
BRANCH   3   9
HETATM    9  C   UNL     1     -11.671  13.148  65.607  1.00  0.00    -0.364 C  
HETATM   10  C   UNL     1     -10.470  12.458  63.517  1.00  0.00    -0.430 C  
HETATM   11  C   UNL     1     -11.779  11.856  63.012  1.00  0.00    -0.045 C  
HETATM   12  H   UNL     1     -13.495  13.259  64.615  1.00  0.00     0.000 HD 
HETATM   13  C   UNL     1     -10.758  13.629  64.470  1.00  0.00    -0.420 C  
HETATM   14  C   UNL     1     -12.653  11.428  64.182  1.00  0.00     0.623 C  
HETATM   15  N   UNL     1     -12.917  12.554  65.073  1.00  0.00    -0.730 NA 
ENDBRANCH   3   9
BRANCH   8  16
HETATM   16  C   UNL     1      -8.336  12.622  67.235  1.00  0.00    -0.189 A  
HETATM   17  C   UNL     1      -7.235  12.322  68.106  1.00  0.00    -0.101 A  
HETATM   18  C   UNL     1      -8.775  11.592  66.381  1.00  0.00    -0.170 A  
HETATM   19  C   UNL     1      -7.120  10.054  67.172  1.00  0.00    -0.089 A  
HETATM   20  F   UNL     1      -5.559  10.725  68.755  1.00  0.00    -0.042 F  
HETATM   21  F   UNL     1      -6.531   8.851  67.118  1.00  0.00    -0.057 F  
HETATM   22  C   UNL     1      -8.182  10.326  66.342  1.00  0.00    -0.129 A  
HETATM   23  C   UNL     1      -6.646  11.030  68.028  1.00  0.00    -0.062 A  
BRANCH  17  24
HETATM   24  N   UNL     1      -6.674  13.286  69.002  1.00  0.00    -0.107 NA 
HETATM   25  H   UNL     1      -6.400  12.952  69.927  1.00  0.00     0.000 HD 
BRANCH  24  26
HETATM   26  C   UNL     1      -6.461  14.667  68.728  1.00  0.00    -0.088 A  
HETATM   27  C   UNL     1      -7.241  15.664  69.316  1.00  0.00    -0.198 A  
HETATM   28  F   UNL     1      -8.185  15.337  70.214  1.00  0.00    -0.030 F  
HETATM   29  C   UNL     1      -7.116  17.008  68.939  1.00  0.00    -0.233 A  
HETATM   30  C   UNL     1      -6.187  17.361  67.961  1.00  0.00    -0.147 A  
HETATM   31  C   UNL     1      -5.381  16.389  67.373  1.00  0.00    -0.158 A  
HETATM   32  I   UNL     1      -6.006  19.340  67.352  1.00  0.00    -0.202 I  
HETATM   33  C   UNL     1      -5.511  15.053  67.767  1.00  0.00    -0.073 A  
ENDBRANCH  24  26
ENDBRANCH  17  24
ENDBRANCH   8  16
TORSDOF 4
ENDMDL
MODEL      187
REMARK 921   NORMALIZED FREE ENERGY PREDICTED BY IDOCK:   -1.73 KCAL/MOL
REMARK 922        TOTAL FREE ENERGY PREDICTED BY IDOCK:   -3.88 KCAL/MOL
REMARK 923 INTER-LIGAND FREE ENERGY PREDICTED BY IDOCK:   -3.85 KCAL/MOL
REMARK 924 INTRA-LIGAND FREE ENERGY PREDICTED BY IDOCK:   -0.03 KCAL/MOL
REMARK 927      BINDING AFFINITY PREDICTED BY RF-SCORE:    0.00 PKD
ROOT
HETATM    1  O   UNL     1      -8.507  11.447  64.496  1.00  0.00    -0.259 OA 
HETATM    2  H   UNL     1      -8.753  12.285  64.869  1.00  0.00     0.000 HD 
HETATM    3  C   UNL     1      -8.106  10.417  65.442  1.00  0.00    -0.152 C  
HETATM    4  C   UNL     1      -7.699   9.029  64.824  1.00  0.00    -0.109 C  
HETATM    5  O   UNL     1      -7.352   6.883  66.637  1.00  0.00    -0.074 OA 
HETATM    6  C   UNL     1      -6.585  10.413  65.868  1.00  0.00    -0.123 C  
HETATM    7  N   UNL     1      -6.743   8.956  65.967  1.00  0.00    -0.068 N  
HETATM    8  C   UNL     1      -6.874   7.973  66.966  1.00  0.00    -0.073 C  
ENDROOT
BRANCH   3   9
HETATM    9  C   UNL     1      -9.049  10.418  66.689  1.00  0.00    -0.151 C  
HETATM   10  C   UNL     1     -11.361  10.533  67.654  1.00  0.00    -0.233 C  
HETATM   11  C   UNL     1     -10.844  11.548  68.670  1.00  0.00    -0.253 C  
HETATM   12  H   UNL     1      -8.612  12.355  67.309  1.00  0.00     0.000 HD 
HETATM   13  C   UNL     1     -10.536  10.611  66.359  1.00  0.00    -0.240 C  
HETATM   14  C   UNL     1      -9.361  11.328  68.932  1.00  0.00    -0.072 C  
HETATM   15  N   UNL     1      -8.596  11.410  67.691  1.00  0.00    -0.127 NA 
ENDBRANCH   3   9
BRANCH   8  16
HETATM   16  C   UNL     1      -6.605   8.189  68.451  1.00  0.00    -0.059 A  
HETATM   17  C   UNL     1      -7.266   7.399  69.452  1.00  0.00    -0.083 A  
HETATM   18  C   UNL     1      -5.817   9.265  68.902  1.00  0.00    -0.040 A  
HETATM   19  C   UNL     1      -6.320   8.838  71.203  1.00  0.00    -0.054 A  
HETATM   20  F   UNL     1      -7.774   7.123  71.786  1.00  0.00    -0.088 F  
HETATM   21  F   UNL     1      -6.206   9.164  72.498  1.00  0.00    -0.079 F  
HETATM   22  C   UNL     1      -5.672   9.593  70.255  1.00  0.00    -0.045 A  
HETATM   23  C   UNL     1      -7.109   7.771  70.816  1.00  0.00    -0.053 A  
BRANCH  17  24
HETATM   24  N   UNL     1      -8.117   6.296  69.128  1.00  0.00    -0.109 NA 
HETATM   25  H   UNL     1      -8.186   6.040  68.143  1.00  0.00     0.000 HD 
BRANCH  24  26
HETATM   26  C   UNL     1      -8.878   5.521  70.049  1.00  0.00    -0.128 A  
HETATM   27  C   UNL     1      -9.916   6.077  70.799  1.00  0.00    -0.191 A  
HETATM   28  F   UNL     1     -10.262   7.362  70.619  1.00  0.00    -0.196 F  
HETATM   29  C   UNL     1     -10.568   5.344  71.799  1.00  0.00    -0.286 A  
HETATM   30  C   UNL     1     -10.181   4.027  72.046  1.00  0.00    -0.116 A  
HETATM   31  C   UNL     1      -9.163   3.441  71.298  1.00  0.00    -0.190 A  
HETATM   32  I   UNL     1     -11.103   2.927  73.550  1.00  0.00    -0.101 I  
HETATM   33  C   UNL     1      -8.527   4.183  70.297  1.00  0.00    -0.095 A  
ENDBRANCH  24  26
ENDBRANCH  17  24
ENDBRANCH   8  16
TORSDOF 4
ENDMDL
MODEL      188
REMARK 921   NORMALIZED FREE ENERGY PREDICTED BY IDOCK:   -1.42 KCAL/MOL
REMARK 922        TOTAL FREE ENERGY PREDICTED BY IDOCK:   -3.50 KCAL/MOL
REMARK 923 INTER-LIGAND FREE ENERGY PREDICTED BY IDOCK:   -4.17 KCAL/MOL
REMARK 924 INTRA-LIGAND FREE ENERGY PREDICTED BY IDOCK:    0.67 KCAL/MOL
REMARK 927      BINDING AFFINITY PREDICTED BY RF-SCORE:    0.00 PKD
ROOT
HETATM    1  O   UNL     1     -12.970  13.505  71.945  1.00  0.00    -0.350 OA 
HETATM    2  H   UNL     1     -12.687  13.080  72.746  1.00  0.00     0.000 HD 
HETATM    3  C   UNL     1     -12.477  12.924  70.705  1.00  0.00    -0.286 C  
HETATM    4  C   UNL     1     -12.945  13.626  69.378  1.00  0.00     1.113 C  
HETATM    5  O   UNL     1     -12.386  12.269  66.956  1.00  0.00    -0.393 OA 
HETATM    6  C   UNL     1     -11.068  13.432  70.205  1.00  0.00     0.646 C  
HETATM    7  N   UNL     1     -11.608  13.221  68.855  1.00  0.00    -0.292 N  
HETATM    8  C   UNL     1     -11.485  12.297  67.801  1.00  0.00    -0.329 C  
ENDROOT
BRANCH   3   9
HETATM    9  C   UNL     1     -12.532  11.362  70.770  1.00  0.00    -0.365 C  
HETATM   10  C   UNL     1     -13.651   9.267  71.576  1.00  0.00    -0.412 C  
HETATM   11  C   UNL     1     -12.278   8.736  71.978  1.00  0.00    -0.447 C  
HETATM   12  H   UNL     1     -10.960  11.130  72.111  1.00  0.00     0.000 HD 
HETATM   13  C   UNL     1     -13.666  10.803  71.642  1.00  0.00     0.117 C  
HETATM   14  C   UNL     1     -11.195   9.348  71.101  1.00  0.00    -0.357 C  
HETATM   15  N   UNL     1     -11.223  10.806  71.180  1.00  0.00     0.410 NA 
ENDBRANCH   3   9
BRANCH   8  16
HETATM   16  C   UNL     1     -10.401  11.230  67.689  1.00  0.00    -0.212 A  
HETATM   17  C   UNL     1      -9.285  11.391  66.801  1.00  0.00    -0.177 A  
HETATM   18  C   UNL     1     -10.530   9.987  68.337  1.00  0.00    -0.235 A  
HETATM   19  C   UNL     1      -8.584   9.085  67.275  1.00  0.00    -0.114 A  
HETATM   20  F   UNL     1      -7.404  10.349  65.724  1.00  0.00    -0.122 F  
HETATM   21  F   UNL     1      -7.745   8.062  67.060  1.00  0.00    -0.093 F  
HETATM   22  C   UNL     1      -9.641   8.925  68.138  1.00  0.00    -0.161 A  
HETATM   23  C   UNL     1      -8.411  10.285  66.610  1.00  0.00    -0.125 A  
BRANCH  17  24
HETATM   24  N   UNL     1      -9.054  12.592  66.059  1.00  0.00    -0.433 NA 
HETATM   25  H   UNL     1      -8.680  12.487  65.116  1.00  0.00     0.000 HD 
BRANCH  24  26
HETATM   26  C   UNL     1      -9.295  13.921  66.512  1.00  0.00    -0.247 A  
HETATM   27  C   UNL     1      -8.841  14.370  67.753  1.00  0.00    -0.186 A  
HETATM   28  F   UNL     1      -8.103  13.563  68.532  1.00  0.00    -0.136 F  
HETATM   29  C   UNL     1      -9.198  15.631  68.249  1.00  0.00    -0.188 A  
HETATM   30  C   UNL     1     -10.017  16.461  67.483  1.00  0.00    -0.250 A  
HETATM   31  C   UNL     1     -10.467  16.046  66.232  1.00  0.00    -0.326 A  
HETATM   32  I   UNL     1     -10.596  18.321  68.209  1.00  0.00     0.147 I  
HETATM   33  C   UNL     1     -10.094  14.788  65.748  1.00  0.00    -0.364 A  
ENDBRANCH  24  26
ENDBRANCH  17  24
ENDBRANCH   8  16
TORSDOF 4
ENDMDL
MODEL      189
REMARK 921   NORMALIZED FREE ENERGY PREDICTED BY IDOCK:   -1.39 KCAL/MOL
REMARK 922        TOTAL FREE ENERGY PREDICTED BY IDOCK:   -3.45 KCAL/MOL
REMARK 923 INTER-LIGAND FREE ENERGY PREDICTED BY IDOCK:   -2.24 KCAL/MOL
REMARK 924 INTRA-LIGAND FREE ENERGY PREDICTED BY IDOCK:   -1.22 KCAL/MOL
REMARK 927      BINDING AFFINITY PREDICTED BY RF-SCORE:    0.00 PKD
ROOT
HETATM    1  O   UNL     1      -6.607   7.584  67.890  1.00  0.00    -0.054 OA 
HETATM    2  H   UNL     1      -5.893   7.442  67.279  1.00  0.00     0.000 HD 
HETATM    3  C   UNL     1      -7.015   8.966  68.088  1.00  0.00    -0.077 C  
HETATM    4  C   UNL     1      -8.197   9.201  69.099  1.00  0.00    -0.117 C  
HETATM    5  O   UNL     1      -9.312  11.803  69.168  1.00  0.00     0.127 OA 
HETATM    6  C   UNL     1      -6.221   9.781  69.182  1.00  0.00    -0.040 C  
HETATM    7  N   UNL     1      -7.493  10.480  69.409  1.00  0.00    -0.128 N  
HETATM    8  C   UNL     1      -8.081  11.726  69.119  1.00  0.00     0.249 C  
ENDROOT
BRANCH   3   9
HETATM    9  C   UNL     1      -7.053   9.729  66.723  1.00  0.00    -0.089 C  
HETATM   10  C   UNL     1      -8.350  10.561  64.744  1.00  0.00    -0.125 C  
HETATM   11  C   UNL     1      -7.241  10.025  63.842  1.00  0.00    -0.125 C  
HETATM   12  H   UNL     1      -6.147   8.234  65.596  1.00  0.00     0.000 HD 
HETATM   13  C   UNL     1      -8.428   9.734  66.038  1.00  0.00    -0.131 C  
HETATM   14  C   UNL     1      -5.912  10.015  64.584  1.00  0.00    -0.115 C  
HETATM   15  N   UNL     1      -6.006   9.222  65.807  1.00  0.00    -0.054 NA 
ENDBRANCH   3   9
BRANCH   8  16
HETATM   16  C   UNL     1      -7.332  12.953  68.613  1.00  0.00    -0.099 A  
HETATM   17  C   UNL     1      -8.032  14.078  68.059  1.00  0.00    -0.152 A  
HETATM   18  C   UNL     1      -5.927  12.969  68.529  1.00  0.00    -0.075 A  
HETATM   19  C   UNL     1      -5.889  15.075  67.390  1.00  0.00     0.225 A  
HETATM   20  F   UNL     1      -7.875  16.139  66.830  1.00  0.00    -0.203 F  
HETATM   21  F   UNL     1      -5.206  16.059  66.789  1.00  0.00     0.033 F  
HETATM   22  C   UNL     1      -5.208  14.008  67.929  1.00  0.00    -0.062 A  
HETATM   23  C   UNL     1      -7.270  15.109  67.442  1.00  0.00    -0.199 A  
BRANCH  17  24
HETATM   24  N   UNL     1      -9.459  14.174  68.053  1.00  0.00    -0.207 NA 
HETATM   25  H   UNL     1      -9.903  14.501  68.912  1.00  0.00     0.000 HD 
BRANCH  24  26
HETATM   26  C   UNL     1     -10.320  13.857  66.964  1.00  0.00    -0.267 A  
HETATM   27  C   UNL     1     -11.673  13.569  67.153  1.00  0.00    -0.379 A  
HETATM   28  F   UNL     1     -12.211  13.647  68.381  1.00  0.00    -0.384 F  
HETATM   29  C   UNL     1     -12.480  13.126  66.098  1.00  0.00    -0.274 A  
HETATM   30  C   UNL     1     -11.925  12.977  64.827  1.00  0.00    -0.395 A  
HETATM   31  C   UNL     1     -10.583  13.277  64.606  1.00  0.00    -0.421 A  
HETATM   32  I   UNL     1     -13.088  12.284  63.249  1.00  0.00     1.516 I  
HETATM   33  C   UNL     1      -9.793  13.728  65.668  1.00  0.00    -0.216 A  
ENDBRANCH  24  26
ENDBRANCH  17  24
ENDBRANCH   8  16
TORSDOF 4
ENDMDL
MODEL      190
REMARK 921   NORMALIZED FREE ENERGY PREDICTED BY IDOCK:   -1.30 KCAL/MOL
REMARK 922        TOTAL FREE ENERGY PREDICTED BY IDOCK:   -3.35 KCAL/MOL
REMARK 923 INTER-LIGAND FREE ENERGY PREDICTED BY IDOCK:   -2.35 KCAL/MOL
REMARK 924 INTRA-LIGAND FREE ENERGY PREDICTED BY IDOCK:   -1.00 KCAL/MOL
REMARK 927      BINDING AFFINITY PREDICTED BY RF-SCORE:    0.00 PKD
ROOT
HETATM    1  O   UNL     1     -12.515  12.120  65.005  1.00  0.00    -0.490 OA 
HETATM    2  H   UNL     1     -12.248  12.450  64.155  1.00  0.00     0.000 HD 
HETATM    3  C   UNL     1     -11.696  12.529  66.136  1.00  0.00    -0.409 C  
HETATM    4  C   UNL     1     -12.138  11.983  67.543  1.00  0.00     0.147 C  
HETATM    5  O   UNL     1     -10.856  13.110  69.803  1.00  0.00     0.161 OA 
HETATM    6  C   UNL     1     -10.430  11.637  66.443  1.00  0.00    -0.244 C  
HETATM    7  N   UNL     1     -10.677  11.985  67.849  1.00  0.00    -0.203 N  
HETATM    8  C   UNL     1     -10.139  12.830  68.837  1.00  0.00     0.068 C  
ENDROOT
BRANCH   3   9
HETATM    9  C   UNL     1     -11.315  14.042  66.021  1.00  0.00    -0.328 C  
HETATM   10  C   UNL     1     -11.783  16.328  65.102  1.00  0.00     0.522 C  
HETATM   11  C   UNL     1     -10.304  16.443  64.745  1.00  0.00     0.457 C  
HETATM   12  H   UNL     1      -9.695  13.776  64.744  1.00  0.00     0.000 HD 
HETATM   13  C   UNL     1     -12.219  14.853  65.082  1.00  0.00    -0.114 C  
HETATM   14  C   UNL     1      -9.462  15.595  65.687  1.00  0.00    -0.237 C  
HETATM   15  N   UNL     1      -9.890  14.199  65.651  1.00  0.00    -0.285 NA 
ENDBRANCH   3   9
BRANCH   8  16
HETATM   16  C   UNL     1      -8.793  13.541  68.748  1.00  0.00     0.104 A  
HETATM   17  C   UNL     1      -7.560  12.807  68.744  1.00  0.00    -0.025 A  
HETATM   18  C   UNL     1      -8.703  14.944  68.818  1.00  0.00    -0.182 A  
HETATM   19  C   UNL     1      -6.311  14.915  68.907  1.00  0.00    -0.087 A  
HETATM   20  F   UNL     1      -5.164  12.895  68.934  1.00  0.00    -0.065 F  
HETATM   21  F   UNL     1      -5.143  15.565  69.011  1.00  0.00    -0.094 F  
HETATM   22  C   UNL     1      -7.485  15.629  68.898  1.00  0.00    -0.162 A  
HETATM   23  C   UNL     1      -6.342  13.535  68.843  1.00  0.00    -0.098 A  
BRANCH  17  24
HETATM   24  N   UNL     1      -7.511  11.378  68.705  1.00  0.00    -0.112 NA 
HETATM   25  H   UNL     1      -7.751  10.884  69.565  1.00  0.00     0.000 HD 
BRANCH  24  26
HETATM   26  C   UNL     1      -7.161  10.577  67.580  1.00  0.00    -0.084 A  
HETATM   27  C   UNL     1      -7.244   9.184  67.613  1.00  0.00    -0.083 A  
HETATM   28  F   UNL     1      -7.722   8.565  68.704  1.00  0.00    -0.094 F  
HETATM   29  C   UNL     1      -6.769   8.399  66.554  1.00  0.00    -0.060 A  
HETATM   30  C   UNL     1      -6.209   9.020  65.438  1.00  0.00    -0.063 A  
HETATM   31  C   UNL     1      -6.133  10.409  65.371  1.00  0.00    -0.132 A  
HETATM   32  I   UNL     1      -5.461   7.881  63.868  1.00  0.00    -0.046 I  
HETATM   33  C   UNL     1      -6.620  11.180  66.432  1.00  0.00    -0.108 A  
ENDBRANCH  24  26
ENDBRANCH  17  24
ENDBRANCH   8  16
TORSDOF 4
ENDMDL
MODEL      191
REMARK 921   NORMALIZED FREE ENERGY PREDICTED BY IDOCK:   -1.24 KCAL/MOL
REMARK 922        TOTAL FREE ENERGY PREDICTED BY IDOCK:   -3.28 KCAL/MOL
REMARK 923 INTER-LIGAND FREE ENERGY PREDICTED BY IDOCK:   -3.39 KCAL/MOL
REMARK 924 INTRA-LIGAND FREE ENERGY PREDICTED BY IDOCK:    0.12 KCAL/MOL
REMARK 927      BINDING AFFINITY PREDICTED BY RF-SCORE:    0.00 PKD
ROOT
HETATM    1  O   UNL     1     -10.788   7.897  68.123  1.00  0.00    -0.426 OA 
HETATM    2  H   UNL     1     -10.058   8.351  67.718  1.00  0.00     0.000 HD 
HETATM    3  C   UNL     1     -10.476   7.110  69.306  1.00  0.00    -0.211 C  
HETATM    4  C   UNL     1     -11.684   6.358  69.976  1.00  0.00    -0.275 C  
HETATM    5  O   UNL     1     -11.208   5.196  72.514  1.00  0.00    -0.226 OA 
HETATM    6  C   UNL     1      -9.992   5.628  69.053  1.00  0.00    -0.174 C  
HETATM    7  N   UNL     1     -10.668   5.321  70.321  1.00  0.00    -0.225 N  
HETATM    8  C   UNL     1     -10.329   5.047  71.659  1.00  0.00    -0.192 C  
ENDROOT
BRANCH   3   9
HETATM    9  C   UNL     1      -9.484   7.884  70.236  1.00  0.00    -0.163 C  
HETATM   10  C   UNL     1      -7.189   8.144  71.212  1.00  0.00    -0.066 C  
HETATM   11  C   UNL     1      -7.837   8.338  72.581  1.00  0.00    -0.184 C  
HETATM   12  H   UNL     1     -10.253   7.177  72.034  1.00  0.00     0.000 HD 
HETATM   13  C   UNL     1      -8.082   7.263  70.323  1.00  0.00    -0.121 C  
HETATM   14  C   UNL     1      -9.233   8.925  72.428  1.00  0.00     0.149 C  
HETATM   15  N   UNL     1     -10.066   8.072  71.584  1.00  0.00    -0.177 NA 
ENDBRANCH   3   9
BRANCH   8  16
HETATM   16  C   UNL     1      -8.928   4.716  72.161  1.00  0.00    -0.143 A  
HETATM   17  C   UNL     1      -8.197   3.593  71.645  1.00  0.00    -0.066 A  
HETATM   18  C   UNL     1      -8.360   5.404  73.250  1.00  0.00    -0.117 A  
HETATM   19  C   UNL     1      -6.463   3.948  73.348  1.00  0.00    -0.036 A  
HETATM   20  F   UNL     1      -6.297   2.141  71.899  1.00  0.00    -0.013 F  
HETATM   21  F   UNL     1      -5.316   3.571  73.929  1.00  0.00     0.000 F  
HETATM   22  C   UNL     1      -7.148   5.033  73.842  1.00  0.00    -0.082 A  
HETATM   23  C   UNL     1      -6.976   3.234  72.282  1.00  0.00    -0.031 A  
BRANCH  17  24
HETATM   24  N   UNL     1      -8.674   2.792  70.561  1.00  0.00    -0.064 NA 
HETATM   25  H   UNL     1      -9.476   2.190  70.751  1.00  0.00     0.000 HD 
BRANCH  24  26
HETATM   26  C   UNL     1      -8.139   2.754  69.242  1.00  0.00    -0.047 A  
HETATM   27  C   UNL     1      -8.825   2.152  68.185  1.00  0.00    -0.116 A  
HETATM   28  F   UNL     1     -10.052   1.644  68.383  1.00  0.00    -0.162 F  
HETATM   29  C   UNL     1      -8.234   1.998  66.924  1.00  0.00    -0.081 A  
HETATM   30  C   UNL     1      -6.936   2.463  66.714  1.00  0.00    -0.048 A  
HETATM   31  C   UNL     1      -6.237   3.085  67.745  1.00  0.00    -0.032 A  
HETATM   32  I   UNL     1      -6.019   2.213  64.866  1.00  0.00    -0.019 I  
HETATM   33  C   UNL     1      -6.844   3.240  68.996  1.00  0.00    -0.044 A  
ENDBRANCH  24  26
ENDBRANCH  17  24
ENDBRANCH   8  16
TORSDOF 4
ENDMDL
MODEL      192
REMARK 921   NORMALIZED FREE ENERGY PREDICTED BY IDOCK:   -1.11 KCAL/MOL
REMARK 922        TOTAL FREE ENERGY PREDICTED BY IDOCK:   -3.12 KCAL/MOL
REMARK 923 INTER-LIGAND FREE ENERGY PREDICTED BY IDOCK:   -3.50 KCAL/MOL
REMARK 924 INTRA-LIGAND FREE ENERGY PREDICTED BY IDOCK:    0.38 KCAL/MOL
REMARK 927      BINDING AFFINITY PREDICTED BY RF-SCORE:    0.00 PKD
ROOT
HETATM    1  O   UNL     1     -10.051  10.248  66.446  1.00  0.00    -0.217 OA 
HETATM    2  H   UNL     1      -9.469  10.957  66.695  1.00  0.00     0.000 HD 
HETATM    3  C   UNL     1      -9.892   9.002  67.179  1.00  0.00    -0.203 C  
HETATM    4  C   UNL     1     -10.855   7.829  66.767  1.00  0.00     0.140 C  
HETATM    5  O   UNL     1     -10.888   5.557  68.457  1.00  0.00    -0.166 OA 
HETATM    6  C   UNL     1      -8.806   7.998  66.626  1.00  0.00    -0.145 C  
HETATM    7  N   UNL     1      -9.705   6.945  67.119  1.00  0.00    -0.146 N  
HETATM    8  C   UNL     1      -9.782   6.040  68.194  1.00  0.00    -0.127 C  
ENDROOT
BRANCH   3   9
HETATM    9  C   UNL     1      -9.687   9.283  68.704  1.00  0.00    -0.150 C  
HETATM   10  C   UNL     1      -8.201   9.282  70.724  1.00  0.00    -0.210 C  
HETATM   11  C   UNL     1      -9.336   8.629  71.509  1.00  0.00    -0.319 C  
HETATM   12  H   UNL     1     -10.749   7.632  69.390  1.00  0.00     0.000 HD 
HETATM   13  C   UNL     1      -8.298   8.903  69.237  1.00  0.00    -0.119 C  
HETATM   14  C   UNL     1     -10.683   9.016  70.916  1.00  0.00    -0.253 C  
HETATM   15  N   UNL     1     -10.756   8.645  69.506  1.00  0.00    -0.214 NA 
ENDBRANCH   3   9
BRANCH   8  16
HETATM   16  C   UNL     1      -8.640   5.712  69.150  1.00  0.00    -0.105 A  
HETATM   17  C   UNL     1      -7.380   5.224  68.666  1.00  0.00    -0.070 A  
HETATM   18  C   UNL     1      -8.828   5.730  70.545  1.00  0.00    -0.144 A  
HETATM   19  C   UNL     1      -6.661   4.809  70.978  1.00  0.00    -0.031 A  
HETATM   20  F   UNL     1      -5.267   4.217  69.217  1.00  0.00    -0.006 F  
HETATM   21  F   UNL     1      -5.741   4.357  71.842  1.00  0.00    -0.009 F  
HETATM   22  C   UNL     1      -7.859   5.286  71.452  1.00  0.00    -0.108 A  
HETATM   23  C   UNL     1      -6.425   4.766  69.616  1.00  0.00    -0.032 A  
BRANCH  17  24
HETATM   24  N   UNL     1      -7.072   5.126  67.273  1.00  0.00    -0.068 NA 
HETATM   25  H   UNL     1      -6.244   5.626  66.947  1.00  0.00     0.000 HD 
BRANCH  24  26
HETATM   26  C   UNL     1      -7.809   4.398  66.296  1.00  0.00    -0.095 A  
HETATM   27  C   UNL     1      -8.271   3.103  66.536  1.00  0.00    -0.090 A  
HETATM   28  F   UNL     1      -8.079   2.532  67.736  1.00  0.00    -0.062 F  
HETATM   29  C   UNL     1      -8.876   2.344  65.525  1.00  0.00    -0.127 A  
HETATM   30  C   UNL     1      -9.028   2.894  64.253  1.00  0.00    -0.111 A  
HETATM   31  C   UNL     1      -8.594   4.191  63.992  1.00  0.00    -0.111 A  
HETATM   32  I   UNL     1      -9.884   1.778  62.723  1.00  0.00    -0.099 I  
HETATM   33  C   UNL     1      -8.001   4.940  65.014  1.00  0.00    -0.099 A  
ENDBRANCH  24  26
ENDBRANCH  17  24
ENDBRANCH   8  16
TORSDOF 4
ENDMDL
MODEL      193
REMARK 921   NORMALIZED FREE ENERGY PREDICTED BY IDOCK:   -1.11 KCAL/MOL
REMARK 922        TOTAL FREE ENERGY PREDICTED BY IDOCK:   -3.11 KCAL/MOL
REMARK 923 INTER-LIGAND FREE ENERGY PREDICTED BY IDOCK:   -2.52 KCAL/MOL
REMARK 924 INTRA-LIGAND FREE ENERGY PREDICTED BY IDOCK:   -0.59 KCAL/MOL
REMARK 927      BINDING AFFINITY PREDICTED BY RF-SCORE:    0.00 PKD
ROOT
HETATM    1  O   UNL     1      -5.366  11.291  70.187  1.00  0.00    -0.066 OA 
HETATM    2  H   UNL     1      -4.823  10.887  69.520  1.00  0.00     0.000 HD 
HETATM    3  C   UNL     1      -5.993  12.553  69.823  1.00  0.00    -0.135 C  
HETATM    4  C   UNL     1      -6.892  13.223  70.926  1.00  0.00     1.939 C  
HETATM    5  O   UNL     1      -8.477  15.422  70.111  1.00  0.00     0.142 OA 
HETATM    6  C   UNL     1      -5.133  13.856  70.059  1.00  0.00    -0.090 C  
HETATM    7  N   UNL     1      -6.420  14.508  70.334  1.00  0.00    -0.164 N  
HETATM    8  C   UNL     1      -7.313  15.390  69.698  1.00  0.00    -0.177 C  
ENDROOT
BRANCH   3   9
HETATM    9  C   UNL     1      -6.546  12.491  68.361  1.00  0.00    -0.070 C  
HETATM   10  C   UNL     1      -8.495  12.346  66.789  1.00  0.00    -0.095 C  
HETATM   11  C   UNL     1      -7.739  11.269  66.016  1.00  0.00     0.070 C  
HETATM   12  H   UNL     1      -6.003  10.517  67.991  1.00  0.00     0.000 HD 
HETATM   13  C   UNL     1      -8.070  12.333  68.267  1.00  0.00    -0.166 C  
HETATM   14  C   UNL     1      -6.237  11.458  66.172  1.00  0.00     0.068 C  
HETATM   15  N   UNL     1      -5.855  11.439  67.581  1.00  0.00    -0.049 NA 
ENDBRANCH   3   9
BRANCH   8  16
HETATM   16  C   UNL     1      -7.001  16.210  68.451  1.00  0.00    -0.129 A  
HETATM   17  C   UNL     1      -8.029  16.563  67.513  1.00  0.00    -0.158 A  
HETATM   18  C   UNL     1      -5.675  16.521  68.094  1.00  0.00    -0.121 A  
HETATM   19  C   UNL     1      -6.324  17.455  65.987  1.00  0.00    -0.102 A  
HETATM   20  F   UNL     1      -8.553  17.438  65.335  1.00  0.00     0.173 F  
HETATM   21  F   UNL     1      -5.998  18.015  64.814  1.00  0.00    -0.122 F  
HETATM   22  C   UNL     1      -5.332  17.133  66.884  1.00  0.00    -0.205 A  
HETATM   23  C   UNL     1      -7.643  17.169  66.285  1.00  0.00    -0.317 A  
BRANCH  17  24
HETATM   24  N   UNL     1      -9.413  16.278  67.739  1.00  0.00    -0.220 NA 
HETATM   25  H   UNL     1      -9.840  16.695  68.567  1.00  0.00     0.000 HD 
BRANCH  24  26
HETATM   26  C   UNL     1     -10.251  15.468  66.921  1.00  0.00    -0.279 A  
HETATM   27  C   UNL     1     -11.171  14.572  67.468  1.00  0.00    -0.321 A  
HETATM   28  F   UNL     1     -11.330  14.500  68.799  1.00  0.00    -0.240 F  
HETATM   29  C   UNL     1     -11.893  13.683  66.661  1.00  0.00    -0.447 A  
HETATM   30  C   UNL     1     -11.697  13.697  65.280  1.00  0.00    -0.334 A  
HETATM   31  C   UNL     1     -10.800  14.595  64.707  1.00  0.00    -0.402 A  
HETATM   32  I   UNL     1     -12.724  12.363  64.061  1.00  0.00    -0.092 I  
HETATM   33  C   UNL     1     -10.094  15.483  65.525  1.00  0.00    -0.406 A  
ENDBRANCH  24  26
ENDBRANCH  17  24
ENDBRANCH   8  16
TORSDOF 4
ENDMDL
MODEL      194
REMARK 921   NORMALIZED FREE ENERGY PREDICTED BY IDOCK:   -1.09 KCAL/MOL
REMARK 922        TOTAL FREE ENERGY PREDICTED BY IDOCK:   -3.09 KCAL/MOL
REMARK 923 INTER-LIGAND FREE ENERGY PREDICTED BY IDOCK:   -4.36 KCAL/MOL
REMARK 924 INTRA-LIGAND FREE ENERGY PREDICTED BY IDOCK:    1.27 KCAL/MOL
REMARK 927      BINDING AFFINITY PREDICTED BY RF-SCORE:    0.00 PKD
ROOT
HETATM    1  O   UNL     1      -5.974   7.915  74.090  1.00  0.00    -0.077 OA 
HETATM    2  H   UNL     1      -6.121   7.054  74.464  1.00  0.00     0.000 HD 
HETATM    3  C   UNL     1      -6.709   8.217  72.871  1.00  0.00    -0.090 C  
HETATM    4  C   UNL     1      -6.467   9.642  72.252  1.00  0.00     0.660 C  
HETATM    5  O   UNL     1      -8.202  10.430  70.158  1.00  0.00     0.009 OA 
HETATM    6  C   UNL     1      -6.034   7.767  71.517  1.00  0.00    -0.035 C  
HETATM    7  N   UNL     1      -6.676   8.957  70.943  1.00  0.00    -0.060 N  
HETATM    8  C   UNL     1      -7.773   9.272  70.121  1.00  0.00    -0.120 C  
ENDROOT
BRANCH   3   9
HETATM    9  C   UNL     1      -8.182   7.701  72.975  1.00  0.00    -0.127 C  
HETATM   10  C   UNL     1      -9.887   5.917  72.526  1.00  0.00    -0.179 C  
HETATM   11  C   UNL     1     -10.833   7.004  72.023  1.00  0.00    -0.253 C  
HETATM   12  H   UNL     1      -8.964   8.929  71.489  1.00  0.00     0.000 HD 
HETATM   13  C   UNL     1      -8.426   6.341  72.304  1.00  0.00    -0.115 C  
HETATM   14  C   UNL     1     -10.523   8.332  72.698  1.00  0.00    -0.303 C  
HETATM   15  N   UNL     1      -9.133   8.718  72.473  1.00  0.00    -0.353 NA 
ENDBRANCH   3   9
BRANCH   8  16
HETATM   16  C   UNL     1      -8.566   8.269  69.290  1.00  0.00    -0.138 A  
HETATM   17  C   UNL     1      -9.674   8.684  68.477  1.00  0.00    -0.163 A  
HETATM   18  C   UNL     1      -8.339   6.885  69.405  1.00  0.00    -0.132 A  
HETATM   19  C   UNL     1     -10.210   6.331  68.018  1.00  0.00    -0.172 A  
HETATM   20  F   UNL     1     -11.580   8.007  67.176  1.00  0.00     0.397 F  
HETATM   21  F   UNL     1     -11.000   5.414  67.443  1.00  0.00    -0.268 F  
HETATM   22  C   UNL     1      -9.143   5.923  68.784  1.00  0.00    -0.116 A  
HETATM   23  C   UNL     1     -10.480   7.679  67.873  1.00  0.00    -0.207 A  
BRANCH  17  24
HETATM   24  N   UNL     1     -10.031  10.057  68.299  1.00  0.00    -0.149 NA 
HETATM   25  H   UNL     1      -9.600  10.548  67.515  1.00  0.00     0.000 HD 
BRANCH  24  26
HETATM   26  C   UNL     1     -10.930  10.806  69.111  1.00  0.00    -0.244 A  
HETATM   27  C   UNL     1     -11.391  12.068  68.730  1.00  0.00    -0.278 A  
HETATM   28  F   UNL     1     -11.036  12.582  67.542  1.00  0.00    -0.235 F  
HETATM   29  C   UNL     1     -12.165  12.854  69.593  1.00  0.00    -0.203 A  
HETATM   30  C   UNL     1     -12.492  12.365  70.858  1.00  0.00    -0.274 A  
HETATM   31  C   UNL     1     -12.063  11.100  71.255  1.00  0.00    -0.202 A  
HETATM   32  I   UNL     1     -13.605  13.524  72.176  1.00  0.00    -0.527 I  
HETATM   33  C   UNL     1     -11.299  10.323  70.378  1.00  0.00    -0.410 A  
ENDBRANCH  24  26
ENDBRANCH  17  24
ENDBRANCH   8  16
TORSDOF 4
ENDMDL
MODEL      195
REMARK 921   NORMALIZED FREE ENERGY PREDICTED BY IDOCK:   -1.07 KCAL/MOL
REMARK 922        TOTAL FREE ENERGY PREDICTED BY IDOCK:   -3.06 KCAL/MOL
REMARK 923 INTER-LIGAND FREE ENERGY PREDICTED BY IDOCK:   -2.22 KCAL/MOL
REMARK 924 INTRA-LIGAND FREE ENERGY PREDICTED BY IDOCK:   -0.85 KCAL/MOL
REMARK 927      BINDING AFFINITY PREDICTED BY RF-SCORE:    0.00 PKD
ROOT
HETATM    1  O   UNL     1      -7.040   4.937  72.525  1.00  0.00    -0.072 OA 
HETATM    2  H   UNL     1      -7.921   4.766  72.836  1.00  0.00     0.000 HD 
HETATM    3  C   UNL     1      -6.928   5.800  71.359  1.00  0.00    -0.071 C  
HETATM    4  C   UNL     1      -5.469   6.084  70.845  1.00  0.00    -0.017 C  
HETATM    5  O   UNL     1      -5.184   8.102  68.879  1.00  0.00    -0.023 OA 
HETATM    6  C   UNL     1      -7.040   5.094  69.952  1.00  0.00    -0.058 C  
HETATM    7  N   UNL     1      -6.103   6.128  69.494  1.00  0.00    -0.028 N  
HETATM    8  C   UNL     1      -6.125   7.314  68.737  1.00  0.00    -0.027 C  
ENDROOT
BRANCH   3   9
HETATM    9  C   UNL     1      -7.915   7.008  71.473  1.00  0.00    -0.103 C  
HETATM   10  C   UNL     1      -9.111   8.700  72.886  1.00  0.00    -0.018 C  
HETATM   11  C   UNL     1     -10.393   8.370  72.126  1.00  0.00    -0.397 C  
HETATM   12  H   UNL     1      -9.658   5.913  71.174  1.00  0.00     0.000 HD 
HETATM   13  C   UNL     1      -8.180   7.477  72.911  1.00  0.00    -0.149 C  
HETATM   14  C   UNL     1     -10.066   7.882  70.722  1.00  0.00    -0.192 C  
HETATM   15  N   UNL     1      -9.185   6.719  70.768  1.00  0.00    -0.158 NA 
ENDBRANCH   3   9
BRANCH   8  16
HETATM   16  C   UNL     1      -7.284   7.774  67.859  1.00  0.00    -0.090 A  
HETATM   17  C   UNL     1      -7.314   9.094  67.295  1.00  0.00    -0.087 A  
HETATM   18  C   UNL     1      -8.434   6.980  67.692  1.00  0.00    -0.123 A  
HETATM   19  C   UNL     1      -9.604   8.695  66.501  1.00  0.00    -0.237 A  
HETATM   20  F   UNL     1      -8.619  10.773  66.172  1.00  0.00    -0.145 F  
HETATM   21  F   UNL     1     -10.711   9.137  65.887  1.00  0.00    -0.071 F  
HETATM   22  C   UNL     1      -9.581   7.425  67.026  1.00  0.00    -0.221 A  
HETATM   23  C   UNL     1      -8.503   9.519  66.639  1.00  0.00    -0.133 A  
BRANCH  17  24
HETATM   24  N   UNL     1      -6.224  10.012  67.418  1.00  0.00    -0.058 NA 
HETATM   25  H   UNL     1      -5.339   9.736  66.992  1.00  0.00     0.000 HD 
BRANCH  24  26
HETATM   26  C   UNL     1      -6.256  11.274  68.076  1.00  0.00    -0.049 A  
HETATM   27  C   UNL     1      -6.324  12.475  67.366  1.00  0.00    -0.157 A  
HETATM   28  F   UNL     1      -6.424  12.459  66.027  1.00  0.00     0.837 F  
HETATM   29  C   UNL     1      -6.218  13.713  68.013  1.00  0.00    -0.139 A  
HETATM   30  C   UNL     1      -6.049  13.751  69.397  1.00  0.00    -0.103 A  
HETATM   31  C   UNL     1      -5.998  12.569  70.132  1.00  0.00    -0.142 A  
HETATM   32  I   UNL     1      -5.848  15.572  70.380  1.00  0.00     0.100 I  
HETATM   33  C   UNL     1      -6.116  11.341  69.473  1.00  0.00    -0.085 A  
ENDBRANCH  24  26
ENDBRANCH  17  24
ENDBRANCH   8  16
TORSDOF 4
ENDMDL
MODEL      196
REMARK 921   NORMALIZED FREE ENERGY PREDICTED BY IDOCK:   -0.80 KCAL/MOL
REMARK 922        TOTAL FREE ENERGY PREDICTED BY IDOCK:   -2.73 KCAL/MOL
REMARK 923 INTER-LIGAND FREE ENERGY PREDICTED BY IDOCK:   -1.54 KCAL/MOL
REMARK 924 INTRA-LIGAND FREE ENERGY PREDICTED BY IDOCK:   -1.18 KCAL/MOL
REMARK 927      BINDING AFFINITY PREDICTED BY RF-SCORE:    0.00 PKD
ROOT
HETATM    1  O   UNL     1     -10.282  18.186  70.149  1.00  0.00     0.327 OA 
HETATM    2  H   UNL     1     -10.909  18.687  69.641  1.00  0.00     0.000 HD 
HETATM    3  C   UNL     1      -9.873  16.910  69.582  1.00  0.00     0.174 C  
HETATM    4  C   UNL     1      -8.835  16.079  70.423  1.00  0.00     1.689 C  
HETATM    5  O   UNL     1      -7.681  13.828  69.152  1.00  0.00    -0.010 OA 
HETATM    6  C   UNL     1     -10.790  15.669  69.917  1.00  0.00    -0.318 C  
HETATM    7  N   UNL     1      -9.545  14.890  69.867  1.00  0.00     0.121 N  
HETATM    8  C   UNL     1      -8.896  13.991  69.001  1.00  0.00     0.177 C  
ENDROOT
BRANCH   3   9
HETATM    9  C   UNL     1      -9.632  17.044  68.042  1.00  0.00    -0.260 C  
HETATM   10  C   UNL     1      -8.764  18.364  66.095  1.00  0.00    -0.126 C  
HETATM   11  C   UNL     1     -10.065  18.056  65.358  1.00  0.00     0.591 C  
HETATM   12  H   UNL     1     -11.608  17.446  67.532  1.00  0.00     0.000 HD 
HETATM   13  C   UNL     1      -9.006  18.379  67.613  1.00  0.00    -0.282 C  
HETATM   14  C   UNL     1     -10.653  16.741  65.847  1.00  0.00    -0.248 C  
HETATM   15  N   UNL     1     -10.878  16.776  67.289  1.00  0.00    -0.205 NA 
ENDBRANCH   3   9
BRANCH   8  16
HETATM   16  C   UNL     1      -9.540  13.305  67.802  1.00  0.00    -0.214 A  
HETATM   17  C   UNL     1     -10.230  12.053  67.940  1.00  0.00    -0.196 A  
HETATM   18  C   UNL     1      -9.356  13.793  66.495  1.00  0.00    -0.249 A  
HETATM   19  C   UNL     1     -10.443  11.908  65.497  1.00  0.00    -0.268 A  
HETATM   20  F   UNL     1     -11.217  10.166  66.824  1.00  0.00    -0.201 F  
HETATM   21  F   UNL     1     -10.841  11.238  64.407  1.00  0.00    -0.370 F  
HETATM   22  C   UNL     1      -9.795  13.112  65.354  1.00  0.00    -0.123 A  
HETATM   23  C   UNL     1     -10.648  11.380  66.759  1.00  0.00    -0.255 A  
BRANCH  17  24
HETATM   24  N   UNL     1     -10.458  11.433  69.208  1.00  0.00    -0.406 NA 
HETATM   25  H   UNL     1     -11.332  11.662  69.683  1.00  0.00     0.000 HD 
BRANCH  24  26
HETATM   26  C   UNL     1      -9.584  10.525  69.872  1.00  0.00     0.192 A  
HETATM   27  C   UNL     1     -10.015   9.732  70.937  1.00  0.00    -0.001 A  
HETATM   28  F   UNL     1     -11.301   9.765  71.322  1.00  0.00    -0.376 F  
HETATM   29  C   UNL     1      -9.119   8.944  71.671  1.00  0.00    -0.280 A  
HETATM   30  C   UNL     1      -7.767   8.945  71.328  1.00  0.00    -0.111 A  
HETATM   31  C   UNL     1      -7.313   9.711  70.258  1.00  0.00    -0.153 A  
HETATM   32  I   UNL     1      -6.407   7.818  72.424  1.00  0.00    -0.071 I  
HETATM   33  C   UNL     1      -8.222  10.485  69.528  1.00  0.00    -0.092 A  
ENDBRANCH  24  26
ENDBRANCH  17  24
ENDBRANCH   8  16
TORSDOF 4
ENDMDL
MODEL      197
REMARK 921   NORMALIZED FREE ENERGY PREDICTED BY IDOCK:   -0.75 KCAL/MOL
REMARK 922        TOTAL FREE ENERGY PREDICTED BY IDOCK:   -2.67 KCAL/MOL
REMARK 923 INTER-LIGAND FREE ENERGY PREDICTED BY IDOCK:   -3.30 KCAL/MOL
REMARK 924 INTRA-LIGAND FREE ENERGY PREDICTED BY IDOCK:    0.63 KCAL/MOL
REMARK 927      BINDING AFFINITY PREDICTED BY RF-SCORE:    0.00 PKD
ROOT
HETATM    1  O   UNL     1     -11.411   9.523  70.645  1.00  0.00    -0.267 OA 
HETATM    2  H   UNL     1     -10.697  10.076  70.352  1.00  0.00     0.000 HD 
HETATM    3  C   UNL     1     -11.035   8.234  71.204  1.00  0.00    -0.245 C  
HETATM    4  C   UNL     1     -12.218   7.318  71.690  1.00  0.00    -0.343 C  
HETATM    5  O   UNL     1     -11.515   5.018  73.185  1.00  0.00    -0.327 OA 
HETATM    6  C   UNL     1     -10.848   7.051  70.174  1.00  0.00    -0.256 C  
HETATM    7  N   UNL     1     -11.340   6.191  71.259  1.00  0.00    -0.291 N  
HETATM    8  C   UNL     1     -10.828   5.267  72.189  1.00  0.00    -0.188 C  
ENDROOT
BRANCH   3   9
HETATM    9  C   UNL     1      -9.789   8.382  72.138  1.00  0.00    -0.302 C  
HETATM   10  C   UNL     1      -7.376   7.898  72.620  1.00  0.00    -0.114 C  
HETATM   11  C   UNL     1      -7.776   7.532  74.046  1.00  0.00    -0.164 C  
HETATM   12  H   UNL     1     -10.428   7.039  73.592  1.00  0.00     0.000 HD 
HETATM   13  C   UNL     1      -8.543   7.626  71.656  1.00  0.00    -0.129 C  
HETATM   14  C   UNL     1      -9.032   8.286  74.456  1.00  0.00     0.947 C  
HETATM   15  N   UNL     1     -10.128   8.012  73.531  1.00  0.00    -0.079 NA 
ENDBRANCH   3   9
BRANCH   8  16
HETATM   16  C   UNL     1      -9.435   4.650  72.139  1.00  0.00    -0.185 A  
HETATM   17  C   UNL     1      -8.864   4.194  70.903  1.00  0.00    -0.090 A  
HETATM   18  C   UNL     1      -8.719   4.368  73.318  1.00  0.00    -0.100 A  
HETATM   19  C   UNL     1      -6.980   3.219  72.141  1.00  0.00    -0.030 A  
HETATM   20  F   UNL     1      -7.111   2.940  69.839  1.00  0.00    -0.038 F  
HETATM   21  F   UNL     1      -5.836   2.520  72.148  1.00  0.00    -0.007 F  
HETATM   22  C   UNL     1      -7.510   3.663  73.329  1.00  0.00    -0.061 A  
HETATM   23  C   UNL     1      -7.643   3.467  70.953  1.00  0.00    -0.040 A  
BRANCH  17  24
HETATM   24  N   UNL     1      -9.502   4.390  69.638  1.00  0.00    -0.163 NA 
HETATM   25  H   UNL     1     -10.426   3.974  69.518  1.00  0.00     0.000 HD 
BRANCH  24  26
HETATM   26  C   UNL     1      -8.972   5.111  68.530  1.00  0.00    -0.106 A  
HETATM   27  C   UNL     1      -9.653   5.199  67.315  1.00  0.00    -0.142 A  
HETATM   28  F   UNL     1     -10.871   4.648  67.185  1.00  0.00    -0.096 F  
HETATM   29  C   UNL     1      -9.066   5.793  66.190  1.00  0.00    -0.161 A  
HETATM   30  C   UNL     1      -7.776   6.315  66.285  1.00  0.00    -0.099 A  
HETATM   31  C   UNL     1      -7.082   6.258  67.491  1.00  0.00    -0.073 A  
HETATM   32  I   UNL     1      -6.863   7.165  64.623  1.00  0.00    -0.056 I  
HETATM   33  C   UNL     1      -7.686   5.672  68.608  1.00  0.00    -0.092 A  
ENDBRANCH  24  26
ENDBRANCH  17  24
ENDBRANCH   8  16
TORSDOF 4
ENDMDL
MODEL      198
REMARK 921   NORMALIZED FREE ENERGY PREDICTED BY IDOCK:   -0.37 KCAL/MOL
REMARK 922        TOTAL FREE ENERGY PREDICTED BY IDOCK:   -2.21 KCAL/MOL
REMARK 923 INTER-LIGAND FREE ENERGY PREDICTED BY IDOCK:   -3.98 KCAL/MOL
REMARK 924 INTRA-LIGAND FREE ENERGY PREDICTED BY IDOCK:    1.78 KCAL/MOL
REMARK 927      BINDING AFFINITY PREDICTED BY RF-SCORE:    0.00 PKD
ROOT
HETATM    1  O   UNL     1      -5.799   7.726  66.106  1.00  0.00    -0.036 OA 
HETATM    2  H   UNL     1      -5.575   8.648  66.141  1.00  0.00     0.000 HD 
HETATM    3  C   UNL     1      -6.959   7.319  66.884  1.00  0.00    -0.077 C  
HETATM    4  C   UNL     1      -7.331   5.792  66.826  1.00  0.00    -0.079 C  
HETATM    5  O   UNL     1      -9.822   5.047  67.949  1.00  0.00    -0.147 OA 
HETATM    6  C   UNL     1      -6.695   6.961  68.399  1.00  0.00    -0.068 C  
HETATM    7  N   UNL     1      -7.786   5.991  68.233  1.00  0.00    -0.100 N  
HETATM    8  C   UNL     1      -9.140   5.854  68.590  1.00  0.00    -0.115 C  
ENDROOT
BRANCH   3   9
HETATM    9  C   UNL     1      -8.114   8.364  66.737  1.00  0.00    -0.098 C  
HETATM   10  C   UNL     1     -10.480   8.899  66.102  1.00  0.00     0.281 C  
HETATM   11  C   UNL     1      -9.959  10.115  65.341  1.00  0.00    -0.377 C  
HETATM   12  H   UNL     1      -7.365   9.300  65.037  1.00  0.00     0.000 HD 
HETATM   13  C   UNL     1      -9.409   7.797  66.138  1.00  0.00    -0.162 C  
HETATM   14  C   UNL     1      -8.660  10.612  65.960  1.00  0.00    -0.173 C  
HETATM   15  N   UNL     1      -7.656   9.552  65.982  1.00  0.00    -0.099 NA 
ENDBRANCH   3   9
BRANCH   8  16
HETATM   16  C   UNL     1      -9.872   6.719  69.610  1.00  0.00    -0.173 A  
HETATM   17  C   UNL     1      -9.165   7.645  70.447  1.00  0.00    -0.156 A  
HETATM   18  C   UNL     1     -11.243   6.535  69.873  1.00  0.00    -0.456 A  
HETATM   19  C   UNL     1     -11.228   8.070  71.711  1.00  0.00    -0.266 A  
HETATM   20  F   UNL     1      -9.248   9.092  72.366  1.00  0.00    -0.222 F  
HETATM   21  F   UNL     1     -11.864   8.683  72.718  1.00  0.00    -0.423 F  
HETATM   22  C   UNL     1     -11.918   7.195  70.906  1.00  0.00    -0.375 A  
HETATM   23  C   UNL     1      -9.879   8.286  71.498  1.00  0.00    -0.189 A  
BRANCH  17  24
HETATM   24  N   UNL     1      -7.765   7.903  70.305  1.00  0.00    -0.086 NA 
HETATM   25  H   UNL     1      -7.153   7.091  70.219  1.00  0.00     0.000 HD 
BRANCH  24  26
HETATM   26  C   UNL     1      -7.143   9.184  70.270  1.00  0.00    -0.063 A  
HETATM   27  C   UNL     1      -5.927   9.430  70.910  1.00  0.00    -0.064 A  
HETATM   28  F   UNL     1      -5.279   8.430  71.529  1.00  0.00    -0.032 F  
HETATM   29  C   UNL     1      -5.390  10.722  70.986  1.00  0.00    -0.098 A  
HETATM   30  C   UNL     1      -6.079  11.786  70.404  1.00  0.00    -0.057 A  
HETATM   31  C   UNL     1      -7.284  11.565  69.742  1.00  0.00     0.268 A  
HETATM   32  I   UNL     1      -5.328  13.720  70.536  1.00  0.00    -0.170 I  
HETATM   33  C   UNL     1      -7.802  10.268  69.666  1.00  0.00    -0.168 A  
ENDBRANCH  24  26
ENDBRANCH  17  24
ENDBRANCH   8  16
TORSDOF 4
ENDMDL
MODEL      199
REMARK 921   NORMALIZED FREE ENERGY PREDICTED BY IDOCK:   -0.31 KCAL/MOL
REMARK 922        TOTAL FREE ENERGY PREDICTED BY IDOCK:   -2.13 KCAL/MOL
REMARK 923 INTER-LIGAND FREE ENERGY PREDICTED BY IDOCK:   -7.18 KCAL/MOL
REMARK 924 INTRA-LIGAND FREE ENERGY PREDICTED BY IDOCK:    5.04 KCAL/MOL
REMARK 927      BINDING AFFINITY PREDICTED BY RF-SCORE:    0.00 PKD
ROOT
HETATM    1  O   UNL     1      -7.524  14.853  66.540  1.00  0.00    -0.166 OA 
HETATM    2  H   UNL     1      -7.101  15.449  67.147  1.00  0.00     0.000 HD 
HETATM    3  C   UNL     1      -8.764  14.246  67.000  1.00  0.00    -0.212 C  
HETATM    4  C   UNL     1      -9.466  13.261  65.995  1.00  0.00    -0.082 C  
HETATM    5  O   UNL     1     -12.086  12.418  66.661  1.00  0.00    -0.592 OA 
HETATM    6  C   UNL     1      -8.623  12.919  67.844  1.00  0.00    -0.185 C  
HETATM    7  N   UNL     1      -9.898  12.534  67.224  1.00  0.00    -0.202 N  
HETATM    8  C   UNL     1     -11.257  12.440  67.577  1.00  0.00    -0.294 C  
ENDROOT
BRANCH   3   9
HETATM    9  C   UNL     1      -9.653  15.301  67.737  1.00  0.00    -0.206 C  
HETATM   10  C   UNL     1     -10.464  16.332  69.875  1.00  0.00    -0.222 C  
HETATM   11  C   UNL     1     -11.886  16.259  69.323  1.00  0.00    -0.051 C  
HETATM   12  H   UNL     1     -11.468  14.334  67.425  1.00  0.00     0.000 HD 
HETATM   13  C   UNL     1      -9.603  15.211  69.269  1.00  0.00    -0.218 C  
HETATM   14  C   UNL     1     -11.869  16.321  67.803  1.00  0.00     0.467 C  
HETATM   15  N   UNL     1     -11.049  15.247  67.248  1.00  0.00    -0.332 NA 
ENDBRANCH   3   9
BRANCH   8  16
HETATM   16  C   UNL     1     -11.802  12.502  69.000  1.00  0.00    -0.344 A  
HETATM   17  C   UNL     1     -12.142  11.308  69.721  1.00  0.00    -0.325 A  
HETATM   18  C   UNL     1     -12.134  13.730  69.602  1.00  0.00    -0.392 A  
HETATM   19  C   UNL     1     -13.112  12.676  71.516  1.00  0.00    -0.278 A  
HETATM   20  F   UNL     1     -13.234  10.360  71.643  1.00  0.00    -0.430 F  
HETATM   21  F   UNL     1     -13.756  12.761  72.688  1.00  0.00    -0.612 F  
HETATM   22  C   UNL     1     -12.779  13.826  70.840  1.00  0.00    -0.394 A  
HETATM   23  C   UNL     1     -12.813  11.442  70.968  1.00  0.00    -0.286 A  
BRANCH  17  24
HETATM   24  N   UNL     1     -11.887   9.997  69.210  1.00  0.00    -0.476 NA 
HETATM   25  H   UNL     1     -12.625   9.302  69.333  1.00  0.00     0.000 HD 
BRANCH  24  26
HETATM   26  C   UNL     1     -10.703   9.567  68.544  1.00  0.00    -0.182 A  
HETATM   27  C   UNL     1      -9.600   9.079  69.246  1.00  0.00    -0.162 A  
HETATM   28  F   UNL     1      -9.657   8.945  70.581  1.00  0.00    -0.181 F  
HETATM   29  C   UNL     1      -8.392   8.788  68.598  1.00  0.00    -0.128 A  
HETATM   30  C   UNL     1      -8.291   8.980  67.220  1.00  0.00    -0.111 A  
HETATM   31  C   UNL     1      -9.383   9.446  66.493  1.00  0.00    -0.222 A  
HETATM   32  I   UNL     1      -6.500   8.594  66.236  1.00  0.00    -0.063 I  
HETATM   33  C   UNL     1     -10.584   9.724  67.153  1.00  0.00    -0.298 A  
ENDBRANCH  24  26
ENDBRANCH  17  24
ENDBRANCH   8  16
TORSDOF 4
ENDMDL
MODEL      200
REMARK 921   NORMALIZED FREE ENERGY PREDICTED BY IDOCK:   -0.29 KCAL/MOL
REMARK 922        TOTAL FREE ENERGY PREDICTED BY IDOCK:   -2.10 KCAL/MOL
REMARK 923 INTER-LIGAND FREE ENERGY PREDICTED BY IDOCK:   -2.97 KCAL/MOL
REMARK 924 INTRA-LIGAND FREE ENERGY PREDICTED BY IDOCK:    0.87 KCAL/MOL
REMARK 927      BINDING AFFINITY PREDICTED BY RF-SCORE:    0.00 PKD
ROOT
HETATM    1  O   UNL     1      -6.760   6.524  64.133  1.00  0.00    -0.036 OA 
HETATM    2  H   UNL     1      -7.440   5.900  63.906  1.00  0.00     0.000 HD 
HETATM    3  C   UNL     1      -6.913   7.199  65.413  1.00  0.00    -0.056 C  
HETATM    4  C   UNL     1      -5.788   8.233  65.789  1.00  0.00    -0.041 C  
HETATM    5  O   UNL     1      -5.807   9.222  68.441  1.00  0.00    -0.041 OA 
HETATM    6  C   UNL     1      -7.795   8.509  65.412  1.00  0.00    -0.107 C  
HETATM    7  N   UNL     1      -6.889   8.973  66.471  1.00  0.00    -0.078 N  
HETATM    8  C   UNL     1      -6.898   9.145  67.868  1.00  0.00    -0.069 C  
ENDROOT
BRANCH   3   9
HETATM    9  C   UNL     1      -7.385   6.193  66.513  1.00  0.00    -0.081 C  
HETATM   10  C   UNL     1      -9.108   5.463  68.183  1.00  0.00    -0.115 C  
HETATM   11  C   UNL     1      -7.984   5.272  69.199  1.00  0.00    -0.089 C  
HETATM   12  H   UNL     1      -6.111   6.873  68.010  1.00  0.00     0.000 HD 
HETATM   13  C   UNL     1      -8.726   6.554  67.168  1.00  0.00    -0.111 C  
HETATM   14  C   UNL     1      -6.677   4.949  68.490  1.00  0.00    -0.050 C  
HETATM   15  N   UNL     1      -6.331   5.998  67.534  1.00  0.00    -0.039 NA 
ENDBRANCH   3   9
BRANCH   8  16
HETATM   16  C   UNL     1      -8.140   9.104  68.751  1.00  0.00    -0.101 A  
HETATM   17  C   UNL     1      -9.418   9.539  68.262  1.00  0.00    -0.133 A  
HETATM   18  C   UNL     1      -8.054   8.781  70.118  1.00  0.00    -0.114 A  
HETATM   19  C   UNL     1     -10.353   9.313  70.522  1.00  0.00    -0.254 A  
HETATM   20  F   UNL     1     -11.684  10.132  68.804  1.00  0.00    -0.225 F  
HETATM   21  F   UNL     1     -11.386   9.438  71.366  1.00  0.00    -0.343 F  
HETATM   22  C   UNL     1      -9.137   8.883  70.998  1.00  0.00    -0.303 A  
HETATM   23  C   UNL     1     -10.493   9.646  69.187  1.00  0.00    -0.214 A  
BRANCH  17  24
HETATM   24  N   UNL     1      -9.635   9.923  66.901  1.00  0.00    -0.172 NA 
HETATM   25  H   UNL     1      -9.395   9.237  66.184  1.00  0.00     0.000 HD 
BRANCH  24  26
HETATM   26  C   UNL     1     -10.153  11.170  66.450  1.00  0.00    -0.226 A  
HETATM   27  C   UNL     1     -11.124  11.246  65.450  1.00  0.00    -0.067 A  
HETATM   28  F   UNL     1     -11.641  10.122  64.928  1.00  0.00     1.250 F  
HETATM   29  C   UNL     1     -11.529  12.477  64.917  1.00  0.00    -0.367 A  
HETATM   30  C   UNL     1     -10.958  13.654  65.401  1.00  0.00    -0.298 A  
HETATM   31  C   UNL     1     -10.002  13.608  66.412  1.00  0.00    -0.299 A  
HETATM   32  I   UNL     1     -11.509  15.493  64.602  1.00  0.00     0.028 I  
HETATM   33  C   UNL     1      -9.615  12.372  66.941  1.00  0.00    -0.219 A  
ENDBRANCH  24  26
ENDBRANCH  17  24
ENDBRANCH   8  16
TORSDOF 4
ENDMDL
MODEL      201
REMARK 921   NORMALIZED FREE ENERGY PREDICTED BY IDOCK:   -0.22 KCAL/MOL
REMARK 922        TOTAL FREE ENERGY PREDICTED BY IDOCK:   -2.02 KCAL/MOL
REMARK 923 INTER-LIGAND FREE ENERGY PREDICTED BY IDOCK:   -3.06 KCAL/MOL
REMARK 924 INTRA-LIGAND FREE ENERGY PREDICTED BY IDOCK:    1.04 KCAL/MOL
REMARK 927      BINDING AFFINITY PREDICTED BY RF-SCORE:    0.00 PKD
ROOT
HETATM    1  O   UNL     1      -9.535  14.770  64.330  1.00  0.00     0.200 OA 
HETATM    2  H   UNL     1     -10.310  14.516  63.843  1.00  0.00     0.000 HD 
HETATM    3  C   UNL     1      -9.645  14.720  65.780  1.00  0.00    -0.254 C  
HETATM    4  C   UNL     1      -8.362  15.140  66.587  1.00  0.00    -0.127 C  
HETATM    5  O   UNL     1      -8.387  14.628  69.371  1.00  0.00    -0.053 OA 
HETATM    6  C   UNL     1     -10.228  16.009  66.482  1.00  0.00    -0.293 C  
HETATM    7  N   UNL     1      -9.334  15.658  67.594  1.00  0.00    -0.205 N  
HETATM    8  C   UNL     1      -9.420  15.097  68.882  1.00  0.00    -0.213 C  
ENDROOT
BRANCH   3   9
HETATM    9  C   UNL     1     -10.407  13.430  66.230  1.00  0.00    -0.291 C  
HETATM   10  C   UNL     1     -10.407  11.218  67.412  1.00  0.00    -0.233 C  
HETATM   11  C   UNL     1     -11.130  10.620  66.207  1.00  0.00     0.084 C  
HETATM   12  H   UNL     1     -10.444  12.518  64.361  1.00  0.00     0.000 HD 
HETATM   13  C   UNL     1      -9.535  12.406  66.971  1.00  0.00    -0.211 C  
HETATM   14  C   UNL     1     -11.950  11.687  65.497  1.00  0.00     0.401 C  
HETATM   15  N   UNL     1     -11.104  12.803  65.084  1.00  0.00    -0.285 NA 
ENDBRANCH   3   9
BRANCH   8  16
HETATM   16  C   UNL     1     -10.710  14.893  69.667  1.00  0.00    -0.245 A  
HETATM   17  C   UNL     1     -11.273  15.946  70.465  1.00  0.00    -0.377 A  
HETATM   18  C   UNL     1     -11.316  13.626  69.762  1.00  0.00    -0.181 A  
HETATM   19  C   UNL     1     -12.930  14.372  71.364  1.00  0.00    -0.335 A  
HETATM   20  F   UNL     1     -12.880  16.559  72.145  1.00  0.00    -0.349 F  
HETATM   21  F   UNL     1     -13.958  14.116  72.184  1.00  0.00    -0.445 F  
HETATM   22  C   UNL     1     -12.408  13.360  70.595  1.00  0.00    -0.423 A  
HETATM   23  C   UNL     1     -12.372  15.636  71.312  1.00  0.00    -0.426 A  
BRANCH  17  24
HETATM   24  N   UNL     1     -10.736  17.272  70.483  1.00  0.00     0.217 NA 
HETATM   25  H   UNL     1     -10.863  17.809  71.342  1.00  0.00     0.000 HD 
BRANCH  24  26
HETATM   26  C   UNL     1     -10.042  17.915  69.419  1.00  0.00     0.009 A  
HETATM   27  C   UNL     1      -8.647  17.951  69.364  1.00  0.00     0.487 A  
HETATM   28  F   UNL     1      -7.921  17.316  70.299  1.00  0.00     1.284 F  
HETATM   29  C   UNL     1      -7.973  18.700  68.391  1.00  0.00    -0.351 A  
HETATM   30  C   UNL     1      -8.708  19.419  67.449  1.00  0.00    -0.301 A  
HETATM   31  C   UNL     1     -10.101  19.384  67.468  1.00  0.00    -0.507 A  
HETATM   32  I   UNL     1      -7.737  20.571  66.017  1.00  0.00     0.341 I  
HETATM   33  C   UNL     1     -10.759  18.624  68.441  1.00  0.00     0.022 A  
ENDBRANCH  24  26
ENDBRANCH  17  24
ENDBRANCH   8  16
TORSDOF 4
ENDMDL
MODEL      202
REMARK 921   NORMALIZED FREE ENERGY PREDICTED BY IDOCK:    0.44 KCAL/MOL
REMARK 922        TOTAL FREE ENERGY PREDICTED BY IDOCK:   -1.20 KCAL/MOL
REMARK 923 INTER-LIGAND FREE ENERGY PREDICTED BY IDOCK:   -4.93 KCAL/MOL
REMARK 924 INTRA-LIGAND FREE ENERGY PREDICTED BY IDOCK:    3.73 KCAL/MOL
REMARK 927      BINDING AFFINITY PREDICTED BY RF-SCORE:    0.00 PKD
ROOT
HETATM    1  O   UNL     1      -7.633   7.473  64.924  1.00  0.00    -0.086 OA 
HETATM    2  H   UNL     1      -8.384   7.153  64.439  1.00  0.00     0.000 HD 
HETATM    3  C   UNL     1      -7.897   7.943  66.275  1.00  0.00    -0.094 C  
HETATM    4  C   UNL     1      -6.653   8.473  67.079  1.00  0.00    -0.058 C  
HETATM    5  O   UNL     1      -7.041   8.967  69.840  1.00  0.00    -0.048 OA 
HETATM    6  C   UNL     1      -8.341   9.451  66.417  1.00  0.00    -0.115 C  
HETATM    7  N   UNL     1      -7.630   9.413  67.702  1.00  0.00    -0.088 N  
HETATM    8  C   UNL     1      -7.933   9.347  69.075  1.00  0.00    -0.091 C  
ENDROOT
BRANCH   3   9
HETATM    9  C   UNL     1      -8.890   6.983  67.007  1.00  0.00    -0.124 C  
HETATM   10  C   UNL     1     -11.141   5.883  67.134  1.00  0.00    -0.151 C  
HETATM   11  C   UNL     1     -11.195   6.255  68.613  1.00  0.00    -0.328 C  
HETATM   12  H   UNL     1      -9.348   8.272  68.574  1.00  0.00     0.000 HD 
HETATM   13  C   UNL     1     -10.282   6.899  66.363  1.00  0.00    -0.009 C  
HETATM   14  C   UNL     1      -9.789   6.354  69.187  1.00  0.00    -0.140 C  
HETATM   15  N   UNL     1      -8.991   7.325  68.444  1.00  0.00    -0.127 NA 
ENDBRANCH   3   9
BRANCH   8  16
HETATM   16  C   UNL     1      -9.313   9.574  69.683  1.00  0.00    -0.213 A  
HETATM   17  C   UNL     1      -9.611   9.169  71.027  1.00  0.00    -0.280 A  
HETATM   18  C   UNL     1     -10.385  10.048  68.903  1.00  0.00    -0.217 A  
HETATM   19  C   UNL     1     -11.977   9.720  70.661  1.00  0.00    -0.259 A  
HETATM   20  F   UNL     1     -11.312   8.794  72.685  1.00  0.00    -0.399 F  
HETATM   21  F   UNL     1     -13.239   9.763  71.110  1.00  0.00    -0.388 F  
HETATM   22  C   UNL     1     -11.700  10.122  69.376  1.00  0.00    -0.096 A  
HETATM   23  C   UNL     1     -10.962   9.243  71.469  1.00  0.00    -0.375 A  
BRANCH  17  24
HETATM   24  N   UNL     1      -8.620   8.643  71.914  1.00  0.00    -0.281 NA 
HETATM   25  H   UNL     1      -7.821   9.244  72.121  1.00  0.00     0.000 HD 
BRANCH  24  26
HETATM   26  C   UNL     1      -8.641   7.363  72.537  1.00  0.00    -0.113 A  
HETATM   27  C   UNL     1      -8.023   7.131  73.767  1.00  0.00    -0.107 A  
HETATM   28  F   UNL     1      -7.438   8.144  74.427  1.00  0.00    -0.169 F  
HETATM   29  C   UNL     1      -7.930   5.841  74.307  1.00  0.00    -0.104 A  
HETATM   30  C   UNL     1      -8.474   4.765  73.607  1.00  0.00    -0.105 A  
HETATM   31  C   UNL     1      -9.115   4.971  72.387  1.00  0.00    -0.146 A  
HETATM   32  I   UNL     1      -8.318   2.835  74.362  1.00  0.00    -0.070 I  
HETATM   33  C   UNL     1      -9.208   6.266  71.866  1.00  0.00    -0.147 A  
ENDBRANCH  24  26
ENDBRANCH  17  24
ENDBRANCH   8  16
TORSDOF 4
ENDMDL
MODEL      203
REMARK 921   NORMALIZED FREE ENERGY PREDICTED BY IDOCK:    0.45 KCAL/MOL
REMARK 922        TOTAL FREE ENERGY PREDICTED BY IDOCK:   -1.19 KCAL/MOL
REMARK 923 INTER-LIGAND FREE ENERGY PREDICTED BY IDOCK:   -4.73 KCAL/MOL
REMARK 924 INTRA-LIGAND FREE ENERGY PREDICTED BY IDOCK:    3.54 KCAL/MOL
REMARK 927      BINDING AFFINITY PREDICTED BY RF-SCORE:    0.00 PKD
ROOT
HETATM    1  O   UNL     1      -5.378  11.185  68.554  1.00  0.00    -0.044 OA 
HETATM    2  H   UNL     1      -4.952  11.777  69.162  1.00  0.00     0.000 HD 
HETATM    3  C   UNL     1      -6.811  11.368  68.381  1.00  0.00    -0.068 C  
HETATM    4  C   UNL     1      -7.517  10.389  67.373  1.00  0.00    -0.094 C  
HETATM    5  O   UNL     1     -10.192  10.999  66.672  1.00  0.00    -0.218 OA 
HETATM    6  C   UNL     1      -7.742  10.614  69.409  1.00  0.00    -0.129 C  
HETATM    7  N   UNL     1      -8.688  10.511  68.289  1.00  0.00    -0.130 N  
HETATM    8  C   UNL     1      -9.890  11.108  67.864  1.00  0.00    -0.174 C  
ENDROOT
BRANCH   3   9
HETATM    9  C   UNL     1      -7.165  12.890  68.298  1.00  0.00    -0.112 C  
HETATM   10  C   UNL     1      -6.589  15.208  67.534  1.00  0.00    -0.167 C  
HETATM   11  C   UNL     1      -6.945  15.713  68.930  1.00  0.00    -0.130 C  
HETATM   12  H   UNL     1      -6.701  13.343  70.274  1.00  0.00     0.000 HD 
HETATM   13  C   UNL     1      -6.100  13.752  67.606  1.00  0.00    -0.096 C  
HETATM   14  C   UNL     1      -7.979  14.803  69.576  1.00  0.00    -0.014 C  
HETATM   15  N   UNL     1      -7.494  13.427  69.638  1.00  0.00     0.494 NA 
ENDBRANCH   3   9
BRANCH   8  16
HETATM   16  C   UNL     1     -10.781  11.998  68.723  1.00  0.00    -0.252 A  
HETATM   17  C   UNL     1     -11.469  11.479  69.871  1.00  0.00    -0.260 A  
HETATM   18  C   UNL     1     -11.082  13.319  68.339  1.00  0.00    -0.299 A  
HETATM   19  C   UNL     1     -12.678  13.605  70.100  1.00  0.00    -0.049 A  
HETATM   20  F   UNL     1     -13.159  11.848  71.541  1.00  0.00    -0.472 F  
HETATM   21  F   UNL     1     -13.592  14.356  70.730  1.00  0.00    -0.385 F  
HETATM   22  C   UNL     1     -12.015  14.117  69.010  1.00  0.00    -0.376 A  
HETATM   23  C   UNL     1     -12.423  12.313  70.519  1.00  0.00    -0.189 A  
BRANCH  17  24
HETATM   24  N   UNL     1     -11.277  10.145  70.350  1.00  0.00    -0.308 NA 
HETATM   25  H   UNL     1     -11.332  10.004  71.359  1.00  0.00     0.000 HD 
BRANCH  24  26
HETATM   26  C   UNL     1     -11.017   8.994  69.553  1.00  0.00    -0.106 A  
HETATM   27  C   UNL     1     -10.579   7.793  70.114  1.00  0.00    -0.237 A  
HETATM   28  F   UNL     1     -10.451   7.680  71.446  1.00  0.00    -0.208 F  
HETATM   29  C   UNL     1     -10.195   6.709  69.313  1.00  0.00    -0.206 A  
HETATM   30  C   UNL     1     -10.259   6.826  67.925  1.00  0.00    -0.171 A  
HETATM   31  C   UNL     1     -10.712   8.006  67.339  1.00  0.00    -0.260 A  
HETATM   32  I   UNL     1      -9.659   5.250  66.710  1.00  0.00    -0.231 I  
HETATM   33  C   UNL     1     -11.101   9.076  68.152  1.00  0.00     0.157 A  
ENDBRANCH  24  26
ENDBRANCH  17  24
ENDBRANCH   8  16
TORSDOF 4
ENDMDL
MODEL      204
REMARK 921   NORMALIZED FREE ENERGY PREDICTED BY IDOCK:    2.42 KCAL/MOL
REMARK 922        TOTAL FREE ENERGY PREDICTED BY IDOCK:    1.23 KCAL/MOL
REMARK 923 INTER-LIGAND FREE ENERGY PREDICTED BY IDOCK:   -0.43 KCAL/MOL
REMARK 924 INTRA-LIGAND FREE ENERGY PREDICTED BY IDOCK:    1.66 KCAL/MOL
REMARK 927      BINDING AFFINITY PREDICTED BY RF-SCORE:    0.00 PKD
ROOT
HETATM    1  O   UNL     1     -11.677   9.599  66.337  1.00  0.00     1.515 OA 
HETATM    2  H   UNL     1     -11.597   9.479  65.398  1.00  0.00     0.000 HD 
HETATM    3  C   UNL     1     -11.261  10.893  66.855  1.00  0.00    -0.086 C  
HETATM    4  C   UNL     1     -11.393  11.091  68.410  1.00  0.00    -0.295 C  
HETATM    5  O   UNL     1     -11.027  13.722  69.391  1.00  0.00    -0.200 OA 
HETATM    6  C   UNL     1      -9.727  11.051  67.197  1.00  0.00    -0.174 C  
HETATM    7  N   UNL     1     -10.183  11.953  68.263  1.00  0.00    -0.199 N  
HETATM    8  C   UNL     1     -10.233  13.334  68.528  1.00  0.00    -0.220 C  
ENDROOT
BRANCH   3   9
HETATM    9  C   UNL     1     -11.760  12.045  65.922  1.00  0.00    -0.242 C  
HETATM   10  C   UNL     1     -11.256  14.034  64.480  1.00  0.00    -0.358 C  
HETATM   11  C   UNL     1     -12.402  14.772  65.168  1.00  0.00    -0.158 C  
HETATM   12  H   UNL     1     -12.547  13.241  67.430  1.00  0.00     0.000 HD 
HETATM   13  C   UNL     1     -10.652  12.988  65.432  1.00  0.00    -0.307 C  
HETATM   14  C   UNL     1     -13.451  13.785  65.659  1.00  0.00     0.829 C  
HETATM   15  N   UNL     1     -12.858  12.803  66.563  1.00  0.00     0.395 NA 
ENDBRANCH   3   9
BRANCH   8  16
HETATM   16  C   UNL     1      -9.489  14.407  67.742  1.00  0.00    -0.211 A  
HETATM   17  C   UNL     1      -8.058  14.391  67.627  1.00  0.00    -0.177 A  
HETATM   18  C   UNL     1     -10.160  15.533  67.227  1.00  0.00    -0.250 A  
HETATM   19  C   UNL     1      -8.126  16.595  66.545  1.00  0.00    -0.302 A  
HETATM   20  F   UNL     1      -6.077  15.594  66.985  1.00  0.00    -0.128 F  
HETATM   21  F   UNL     1      -7.485  17.642  66.007  1.00  0.00    -0.287 F  
HETATM   22  C   UNL     1      -9.498  16.615  66.638  1.00  0.00    -0.271 A  
HETATM   23  C   UNL     1      -7.417  15.516  67.037  1.00  0.00    -0.170 A  
BRANCH  17  24
HETATM   24  N   UNL     1      -7.254  13.322  68.133  1.00  0.00    -0.097 NA 
HETATM   25  H   UNL     1      -6.865  13.441  69.069  1.00  0.00     0.000 HD 
BRANCH  24  26
HETATM   26  C   UNL     1      -6.945  12.108  67.457  1.00  0.00    -0.138 A  
HETATM   27  C   UNL     1      -6.925  10.879  68.120  1.00  0.00    -0.069 A  
HETATM   28  F   UNL     1      -7.264  10.810  69.418  1.00  0.00    -0.084 F  
HETATM   29  C   UNL     1      -6.488   9.711  67.482  1.00  0.00    -0.069 A  
HETATM   30  C   UNL     1      -6.072   9.772  66.152  1.00  0.00    -0.065 A  
HETATM   31  C   UNL     1      -6.101  10.981  65.461  1.00  0.00     0.090 A  
HETATM   32  I   UNL     1      -5.380   8.064  65.190  1.00  0.00    -0.032 I  
HETATM   33  C   UNL     1      -6.548  12.137  66.109  1.00  0.00     1.332 A  
ENDBRANCH  24  26
ENDBRANCH  17  24
ENDBRANCH   8  16
TORSDOF 4
ENDMDL
MODEL      205
REMARK 921   NORMALIZED FREE ENERGY PREDICTED BY IDOCK:    3.97 KCAL/MOL
REMARK 922        TOTAL FREE ENERGY PREDICTED BY IDOCK:    3.15 KCAL/MOL
REMARK 923 INTER-LIGAND FREE ENERGY PREDICTED BY IDOCK:   -2.11 KCAL/MOL
REMARK 924 INTRA-LIGAND FREE ENERGY PREDICTED BY IDOCK:    5.26 KCAL/MOL
REMARK 927      BINDING AFFINITY PREDICTED BY RF-SCORE:    0.00 PKD
ROOT
HETATM    1  O   UNL     1      -9.582   5.596  74.437  1.00  0.00    -0.144 OA 
HETATM    2  H   UNL     1     -10.383   6.039  74.693  1.00  0.00     0.000 HD 
HETATM    3  C   UNL     1      -9.192   5.734  73.042  1.00  0.00    -0.140 C  
HETATM    4  C   UNL     1      -7.866   5.000  72.619  1.00  0.00    -0.098 C  
HETATM    5  O   UNL     1      -6.841   5.612  70.051  1.00  0.00    -0.055 OA 
HETATM    6  C   UNL     1      -9.818   4.692  72.034  1.00  0.00    -0.179 C  
HETATM    7  N   UNL     1      -8.549   4.820  71.304  1.00  0.00    -0.116 N  
HETATM    8  C   UNL     1      -8.060   5.435  70.137  1.00  0.00    -0.089 C  
ENDROOT
BRANCH   3   9
HETATM    9  C   UNL     1      -9.407   7.204  72.553  1.00  0.00    -0.138 C  
HETATM   10  C   UNL     1     -10.785   9.299  72.538  1.00  0.00     0.921 C  
HETATM   11  C   UNL     1     -10.618   9.350  71.022  1.00  0.00    -0.400 C  
HETATM   12  H   UNL     1      -9.980   6.722  70.613  1.00  0.00     0.000 HD 
HETATM   13  C   UNL     1     -10.719   7.844  73.030  1.00  0.00    -0.408 C  
HETATM   14  C   UNL     1      -9.319   8.674  70.608  1.00  0.00    -0.185 C  
HETATM   15  N   UNL     1      -9.278   7.293  71.081  1.00  0.00    -0.156 NA 
ENDBRANCH   3   9
BRANCH   8  16
HETATM   16  C   UNL     1      -8.923   6.028  69.028  1.00  0.00    -0.124 A  
HETATM   17  C   UNL     1      -8.349   6.449  67.781  1.00  0.00    -0.118 A  
HETATM   18  C   UNL     1     -10.283   6.322  69.239  1.00  0.00    -0.236 A  
HETATM   19  C   UNL     1     -10.508   7.418  67.122  1.00  0.00    -0.333 A  
HETATM   20  F   UNL     1      -8.669   7.653  65.724  1.00  0.00    -0.145 F  
HETATM   21  F   UNL     1     -11.251   8.099  66.239  1.00  0.00     0.518 F  
HETATM   22  C   UNL     1     -11.071   7.007  68.308  1.00  0.00    -0.080 A  
HETATM   23  C   UNL     1      -9.175   7.157  66.864  1.00  0.00    -0.148 A  
BRANCH  17  24
HETATM   24  N   UNL     1      -6.973   6.238  67.452  1.00  0.00    -0.067 NA 
HETATM   25  H   UNL     1      -6.298   6.891  67.851  1.00  0.00     0.000 HD 
BRANCH  24  26
HETATM   26  C   UNL     1      -6.454   5.203  66.623  1.00  0.00    -0.041 A  
HETATM   27  C   UNL     1      -5.836   5.477  65.402  1.00  0.00    -0.021 A  
HETATM   28  F   UNL     1      -5.661   6.748  65.008  1.00  0.00    -0.027 F  
HETATM   29  C   UNL     1      -5.451   4.449  64.531  1.00  0.00    -0.013 A  
HETATM   30  C   UNL     1      -5.682   3.122  64.892  1.00  0.00    -0.014 A  
HETATM   31  C   UNL     1      -6.279   2.820  66.114  1.00  0.00    -0.024 A  
HETATM   32  I   UNL     1      -5.159   1.577  63.604  1.00  0.00    -0.004 I  
HETATM   33  C   UNL     1      -6.648   3.857  66.977  1.00  0.00    -0.046 A  
ENDBRANCH  24  26
ENDBRANCH  17  24
ENDBRANCH   8  16
TORSDOF 4
ENDMDL
MODEL      206
REMARK 921   NORMALIZED FREE ENERGY PREDICTED BY IDOCK:    4.41 KCAL/MOL
REMARK 922        TOTAL FREE ENERGY PREDICTED BY IDOCK:    3.69 KCAL/MOL
REMARK 923 INTER-LIGAND FREE ENERGY PREDICTED BY IDOCK:    1.15 KCAL/MOL
REMARK 924 INTRA-LIGAND FREE ENERGY PREDICTED BY IDOCK:    2.54 KCAL/MOL
REMARK 927      BINDING AFFINITY PREDICTED BY RF-SCORE:    0.00 PKD
ROOT
HETATM    1  O   UNL     1      -6.442   8.713  74.334  1.00  0.00    -0.138 OA 
HETATM    2  H   UNL     1      -6.498   7.779  74.496  1.00  0.00     0.000 HD 
HETATM    3  C   UNL     1      -6.581   9.132  72.948  1.00  0.00     0.379 C  
HETATM    4  C   UNL     1      -6.487  10.679  72.680  1.00  0.00     3.023 C  
HETATM    5  O   UNL     1      -7.198  11.565  70.086  1.00  0.00     0.229 OA 
HETATM    6  C   UNL     1      -5.260   9.136  72.082  1.00  0.00    -0.060 C  
HETATM    7  N   UNL     1      -5.866  10.277  71.384  1.00  0.00     0.046 N  
HETATM    8  C   UNL     1      -6.497  10.550  70.156  1.00  0.00    -0.144 C  
ENDROOT
BRANCH   3   9
HETATM    9  C   UNL     1      -7.724   8.332  72.243  1.00  0.00    -0.126 C  
HETATM   10  C   UNL     1      -8.459   6.378  70.853  1.00  0.00    -0.131 C  
HETATM   11  C   UNL     1      -9.300   7.340  70.018  1.00  0.00    -0.154 C  
HETATM   12  H   UNL     1      -7.996   9.656  70.663  1.00  0.00     0.000 HD 
HETATM   13  C   UNL     1      -7.244   7.112  71.444  1.00  0.00    -0.077 C  
HETATM   14  C   UNL     1      -9.719   8.541  70.853  1.00  0.00    -0.187 C  
HETATM   15  N   UNL     1      -8.552   9.226  71.402  1.00  0.00    -0.308 NA 
ENDBRANCH   3   9
BRANCH   8  16
HETATM   16  C   UNL     1      -6.501   9.625  68.945  1.00  0.00    -0.046 A  
HETATM   17  C   UNL     1      -7.266   9.935  67.770  1.00  0.00    -0.088 A  
HETATM   18  C   UNL     1      -5.878   8.363  68.988  1.00  0.00    -0.039 A  
HETATM   19  C   UNL     1      -6.734   7.722  66.847  1.00  0.00    -0.067 A  
HETATM   20  F   UNL     1      -8.144   9.148  65.675  1.00  0.00    -0.103 F  
HETATM   21  F   UNL     1      -6.866   6.812  65.872  1.00  0.00    -0.050 F  
HETATM   22  C   UNL     1      -5.988   7.420  67.961  1.00  0.00    -0.035 A  
HETATM   23  C   UNL     1      -7.370   8.946  66.753  1.00  0.00    -0.082 A  
BRANCH  17  24
HETATM   24  N   UNL     1      -7.971  11.169  67.611  1.00  0.00    -0.114 NA 
HETATM   25  H   UNL     1      -8.943  11.109  67.308  1.00  0.00     0.000 HD 
BRANCH  24  26
HETATM   26  C   UNL     1      -7.447  12.474  67.836  1.00  0.00    -0.120 A  
HETATM   27  C   UNL     1      -8.202  13.477  68.446  1.00  0.00    -0.141 A  
HETATM   28  F   UNL     1      -9.439  13.208  68.896  1.00  0.00    -0.101 F  
HETATM   29  C   UNL     1      -7.730  14.793  68.541  1.00  0.00    -0.120 A  
HETATM   30  C   UNL     1      -6.474  15.109  68.023  1.00  0.00    -0.144 A  
HETATM   31  C   UNL     1      -5.691  14.123  67.427  1.00  0.00     0.316 A  
HETATM   32  I   UNL     1      -5.763  17.060  68.112  1.00  0.00    -0.140 I  
HETATM   33  C   UNL     1      -6.172  12.812  67.349  1.00  0.00    -0.133 A  
ENDBRANCH  24  26
ENDBRANCH  17  24
ENDBRANCH   8  16
TORSDOF 4
ENDMDL
MODEL      207
REMARK 921   NORMALIZED FREE ENERGY PREDICTED BY IDOCK:    7.43 KCAL/MOL
REMARK 922        TOTAL FREE ENERGY PREDICTED BY IDOCK:    7.42 KCAL/MOL
REMARK 923 INTER-LIGAND FREE ENERGY PREDICTED BY IDOCK:    3.89 KCAL/MOL
REMARK 924 INTRA-LIGAND FREE ENERGY PREDICTED BY IDOCK:    3.53 KCAL/MOL
REMARK 927      BINDING AFFINITY PREDICTED BY RF-SCORE:    0.00 PKD
ROOT
HETATM    1  O   UNL     1      -7.715  20.452  66.720  1.00  0.00    -0.345 OA 
HETATM    2  H   UNL     1      -8.426  21.080  66.676  1.00  0.00     0.000 HD 
HETATM    3  C   UNL     1      -8.029  19.170  67.333  1.00  0.00    -0.259 C  
HETATM    4  C   UNL     1      -6.852  18.130  67.407  1.00  0.00    -0.195 C  
HETATM    5  O   UNL     1      -7.533  15.490  68.170  1.00  0.00    -0.108 OA 
HETATM    6  C   UNL     1      -7.890  19.093  68.904  1.00  0.00    -0.316 C  
HETATM    7  N   UNL     1      -7.500  17.694  68.678  1.00  0.00    -0.265 N  
HETATM    8  C   UNL     1      -8.056  16.408  68.810  1.00  0.00    -0.234 C  
ENDROOT
BRANCH   3   9
HETATM    9  C   UNL     1      -9.430  18.662  66.858  1.00  0.00    -0.301 C  
HETATM   10  C   UNL     1     -11.899  19.033  66.615  1.00  0.00     2.163 C  
HETATM   11  C   UNL     1     -12.122  17.619  67.144  1.00  0.00     3.185 C  
HETATM   12  H   UNL     1      -9.710  17.284  68.390  1.00  0.00     0.000 HD 
HETATM   13  C   UNL     1     -10.592  19.611  67.184  1.00  0.00    -0.611 C  
HETATM   14  C   UNL     1     -10.927  16.735  66.819  1.00  0.00     0.109 C  
HETATM   15  N   UNL     1      -9.698  17.300  67.370  1.00  0.00    -0.253 NA 
ENDBRANCH   3   9
BRANCH   8  16
HETATM   16  C   UNL     1      -9.335  16.078  69.571  1.00  0.00    -0.146 A  
HETATM   17  C   UNL     1      -9.966  14.794  69.447  1.00  0.00    -0.085 A  
HETATM   18  C   UNL     1     -10.026  17.064  70.301  1.00  0.00     1.239 A  
HETATM   19  C   UNL     1     -11.882  15.618  70.746  1.00  0.00    -0.384 A  
HETATM   20  F   UNL     1     -11.923  13.465  69.876  1.00  0.00    -0.335 F  
HETATM   21  F   UNL     1     -13.095  15.413  71.277  1.00  0.00    -0.385 F  
HETATM   22  C   UNL     1     -11.280  16.847  70.882  1.00  0.00     0.520 A  
HETATM   23  C   UNL     1     -11.249  14.614  70.036  1.00  0.00    -0.209 A  
BRANCH  17  24
HETATM   24  N   UNL     1      -9.386  13.716  68.709  1.00  0.00    -0.397 NA 
HETATM   25  H   UNL     1      -8.612  13.218  69.151  1.00  0.00     0.000 HD 
BRANCH  24  26
HETATM   26  C   UNL     1      -9.784  13.268  67.417  1.00  0.00    -0.221 A  
HETATM   27  C   UNL     1      -8.876  12.699  66.522  1.00  0.00    -0.062 A  
HETATM   28  F   UNL     1      -7.600  12.503  66.892  1.00  0.00    -0.137 F  
HETATM   29  C   UNL     1      -9.244  12.388  65.207  1.00  0.00     0.356 A  
HETATM   30  C   UNL     1     -10.547  12.642  64.782  1.00  0.00    -0.317 A  
HETATM   31  C   UNL     1     -11.479  13.191  65.660  1.00  0.00    -0.351 A  
HETATM   32  I   UNL     1     -11.113  12.228  62.825  1.00  0.00     2.540 I  
HETATM   33  C   UNL     1     -11.099  13.487  66.973  1.00  0.00    -0.310 A  
ENDBRANCH  24  26
ENDBRANCH  17  24
ENDBRANCH   8  16
TORSDOF 4
ENDMDL
MODEL      208
REMARK 921   NORMALIZED FREE ENERGY PREDICTED BY IDOCK:    8.16 KCAL/MOL
REMARK 922        TOTAL FREE ENERGY PREDICTED BY IDOCK:    8.33 KCAL/MOL
REMARK 923 INTER-LIGAND FREE ENERGY PREDICTED BY IDOCK:    7.35 KCAL/MOL
REMARK 924 INTRA-LIGAND FREE ENERGY PREDICTED BY IDOCK:    0.98 KCAL/MOL
REMARK 927      BINDING AFFINITY PREDICTED BY RF-SCORE:    0.00 PKD
ROOT
HETATM    1  O   UNL     1      -7.948   7.639  73.410  1.00  0.00    -0.112 OA 
HETATM    2  H   UNL     1      -7.369   7.115  73.951  1.00  0.00     0.000 HD 
HETATM    3  C   UNL     1      -8.219   7.123  72.077  1.00  0.00    -0.099 C  
HETATM    4  C   UNL     1      -9.178   7.990  71.181  1.00  0.00    -0.149 C  
HETATM    5  O   UNL     1     -10.083   6.806  68.773  1.00  0.00    -0.150 OA 
HETATM    6  C   UNL     1      -7.185   7.518  70.950  1.00  0.00    -0.067 C  
HETATM    7  N   UNL     1      -8.344   7.492  70.048  1.00  0.00    -0.134 N  
HETATM    8  C   UNL     1      -8.888   6.659  69.052  1.00  0.00    -0.128 C  
ENDROOT
BRANCH   3   9
HETATM    9  C   UNL     1      -8.452   5.577  72.122  1.00  0.00    -0.126 C  
HETATM   10  C   UNL     1     -10.023   3.629  72.283  1.00  0.00    -0.239 C  
HETATM   11  C   UNL     1      -9.090   3.015  73.323  1.00  0.00    -0.096 C  
HETATM   12  H   UNL     1      -7.784   5.299  74.071  1.00  0.00     0.000 HD 
HETATM   13  C   UNL     1      -9.917   5.163  72.317  1.00  0.00    -0.228 C  
HETATM   14  C   UNL     1      -7.661   3.485  73.098  1.00  0.00    -0.065 C  
HETATM   15  N   UNL     1      -7.581   4.943  73.137  1.00  0.00    -0.091 NA 
ENDBRANCH   3   9
BRANCH   8  16
HETATM   16  C   UNL     1      -8.162   5.496  68.386  1.00  0.00    -0.099 A  
HETATM   17  C   UNL     1      -8.492   5.076  67.053  1.00  0.00    -0.106 A  
HETATM   18  C   UNL     1      -7.251   4.697  69.102  1.00  0.00    -0.052 A  
HETATM   19  C   UNL     1      -7.014   3.130  67.308  1.00  0.00    -0.053 A  
HETATM   20  F   UNL     1      -8.248   3.388  65.357  1.00  0.00    -0.093 F  
HETATM   21  F   UNL     1      -6.494   1.998  66.814  1.00  0.00    -0.025 F  
HETATM   22  C   UNL     1      -6.682   3.530  68.580  1.00  0.00    -0.045 A  
HETATM   23  C   UNL     1      -7.907   3.876  66.561  1.00  0.00    -0.089 A  
BRANCH  17  24
HETATM   24  N   UNL     1      -9.424   5.780  66.229  1.00  0.00    -0.159 NA 
HETATM   25  H   UNL     1     -10.027   5.217  65.629  1.00  0.00     0.000 HD 
BRANCH  24  26
HETATM   26  C   UNL     1      -9.592   7.193  66.164  1.00  0.00     0.052 A  
HETATM   27  C   UNL     1     -10.770   7.775  65.693  1.00  0.00     3.426 A  
HETATM   28  F   UNL     1     -11.809   7.000  65.342  1.00  0.00     4.495 F  
HETATM   29  C   UNL     1     -10.877   9.159  65.505  1.00  0.00     2.469 A  
HETATM   30  C   UNL     1      -9.787   9.977  65.802  1.00  0.00    -0.278 A  
HETATM   31  C   UNL     1      -8.607   9.425  66.294  1.00  0.00    -0.142 A  
HETATM   32  I   UNL     1      -9.902  12.030  65.496  1.00  0.00    -0.134 I  
HETATM   33  C   UNL     1      -8.519   8.042  66.485  1.00  0.00    -0.137 A  
ENDBRANCH  24  26
ENDBRANCH  17  24
ENDBRANCH   8  16
TORSDOF 4
ENDMDL
MODEL      209
REMARK 921   NORMALIZED FREE ENERGY PREDICTED BY IDOCK:    8.34 KCAL/MOL
REMARK 922        TOTAL FREE ENERGY PREDICTED BY IDOCK:    8.54 KCAL/MOL
REMARK 923 INTER-LIGAND FREE ENERGY PREDICTED BY IDOCK:    7.46 KCAL/MOL
REMARK 924 INTRA-LIGAND FREE ENERGY PREDICTED BY IDOCK:    1.08 KCAL/MOL
REMARK 927      BINDING AFFINITY PREDICTED BY RF-SCORE:    0.00 PKD
ROOT
HETATM    1  O   UNL     1     -10.416  14.844  72.991  1.00  0.00     1.500 OA 
HETATM    2  H   UNL     1     -10.645  14.047  73.454  1.00  0.00     0.000 HD 
HETATM    3  C   UNL     1     -10.570  14.811  71.545  1.00  0.00     1.234 C  
HETATM    4  C   UNL     1     -10.191  16.130  70.777  1.00  0.00     0.943 C  
HETATM    5  O   UNL     1     -10.901  16.257  68.039  1.00  0.00    -0.321 OA 
HETATM    6  C   UNL     1      -9.344  14.252  70.722  1.00  0.00     3.376 C  
HETATM    7  N   UNL     1      -9.760  15.207  69.686  1.00  0.00    -0.183 N  
HETATM    8  C   UNL     1     -10.413  15.195  68.440  1.00  0.00    -0.233 C  
ENDROOT
BRANCH   3   9
HETATM    9  C   UNL     1     -11.900  14.088  71.150  1.00  0.00    -0.056 C  
HETATM   10  C   UNL     1     -14.399  13.926  71.289  1.00  0.00     0.323 C  
HETATM   11  C   UNL     1     -14.247  12.429  71.546  1.00  0.00     1.824 C  
HETATM   12  H   UNL     1     -11.648  12.442  72.397  1.00  0.00     0.000 HD 
HETATM   13  C   UNL     1     -13.159  14.679  71.800  1.00  0.00    -0.420 C  
HETATM   14  C   UNL     1     -12.969  11.907  70.907  1.00  0.00    -0.010 C  
HETATM   15  N   UNL     1     -11.804  12.633  71.407  1.00  0.00     0.885 NA 
ENDBRANCH   3   9
BRANCH   8  16
HETATM   16  C   UNL     1     -10.691  13.950  67.605  1.00  0.00    -0.255 A  
HETATM   17  C   UNL     1     -10.199  13.826  66.262  1.00  0.00    -0.297 A  
HETATM   18  C   UNL     1     -11.563  12.944  68.062  1.00  0.00    -0.385 A  
HETATM   19  C   UNL     1     -11.501  11.763  65.981  1.00  0.00    -0.215 A  
HETATM   20  F   UNL     1     -10.287  12.609  64.191  1.00  0.00    -0.326 F  
HETATM   21  F   UNL     1     -11.908  10.746  65.208  1.00  0.00     0.468 F  
HETATM   22  C   UNL     1     -11.969  11.864  67.270  1.00  0.00    -0.065 A  
HETATM   23  C   UNL     1     -10.644  12.725  65.480  1.00  0.00    -0.281 A  
BRANCH  17  24
HETATM   24  N   UNL     1      -9.329  14.793  65.666  1.00  0.00    -0.484 NA 
HETATM   25  H   UNL     1      -8.621  14.441  65.021  1.00  0.00     0.000 HD 
BRANCH  24  26
HETATM   26  C   UNL     1      -9.357  16.200  65.885  1.00  0.00    -0.281 A  
HETATM   27  C   UNL     1     -10.450  16.983  65.509  1.00  0.00    -0.166 A  
HETATM   28  F   UNL     1     -11.541  16.405  64.980  1.00  0.00    -0.111 F  
HETATM   29  C   UNL     1     -10.415  18.380  65.603  1.00  0.00    -0.120 A  
HETATM   30  C   UNL     1      -9.268  19.005  66.091  1.00  0.00    -0.201 A  
HETATM   31  C   UNL     1      -8.170  18.247  66.493  1.00  0.00    -0.290 A  
HETATM   32  I   UNL     1      -9.170  21.079  66.205  1.00  0.00     1.952 I  
HETATM   33  C   UNL     1      -8.225  16.852  66.402  1.00  0.00    -0.342 A  
ENDBRANCH  24  26
ENDBRANCH  17  24
ENDBRANCH   8  16
TORSDOF 4
ENDMDL
MODEL      210
REMARK 921   NORMALIZED FREE ENERGY PREDICTED BY IDOCK:   21.91 KCAL/MOL
REMARK 922        TOTAL FREE ENERGY PREDICTED BY IDOCK:   25.29 KCAL/MOL
REMARK 923 INTER-LIGAND FREE ENERGY PREDICTED BY IDOCK:   26.69 KCAL/MOL
REMARK 924 INTRA-LIGAND FREE ENERGY PREDICTED BY IDOCK:   -1.40 KCAL/MOL
REMARK 927      BINDING AFFINITY PREDICTED BY RF-SCORE:    0.00 PKD
ROOT
HETATM    1  O   UNL     1     -10.451  13.846  70.803  1.00  0.00     1.023 OA 
HETATM    2  H   UNL     1      -9.647  13.697  71.287  1.00  0.00     0.000 HD 
HETATM    3  C   UNL     1     -10.432  13.469  69.398  1.00  0.00     0.255 C  
HETATM    4  C   UNL     1     -11.763  13.716  68.597  1.00  0.00    -0.354 C  
HETATM    5  O   UNL     1     -11.913  12.588  66.004  1.00  0.00    -0.481 OA 
HETATM    6  C   UNL     1      -9.894  14.557  68.389  1.00  0.00    -0.227 C  
HETATM    7  N   UNL     1     -10.856  13.978  67.441  1.00  0.00    -0.279 N  
HETATM    8  C   UNL     1     -10.852  13.140  66.311  1.00  0.00    -0.279 C  
ENDROOT
BRANCH   3   9
HETATM    9  C   UNL     1      -9.701  12.100  69.206  1.00  0.00     0.619 C  
HETATM   10  C   UNL     1      -9.714   9.597  69.372  1.00  0.00    -0.203 C  
HETATM   11  C   UNL     1      -8.335   9.673  70.021  1.00  0.00    -0.197 C  
HETATM   12  H   UNL     1      -8.438  12.278  70.849  1.00  0.00     0.000 HD 
HETATM   13  C   UNL     1     -10.511  10.879  69.668  1.00  0.00    -0.133 C  
HETATM   14  C   UNL     1      -7.595  10.917  69.551  1.00  0.00    -0.050 C  
HETATM   15  N   UNL     1      -8.365  12.122  69.844  1.00  0.00     1.979 NA 
ENDBRANCH   3   9
BRANCH   8  16
HETATM   16  C   UNL     1      -9.613  12.745  65.515  1.00  0.00    -0.001 A  
HETATM   17  C   UNL     1      -9.221  13.467  64.338  1.00  0.00     2.326 A  
HETATM   18  C   UNL     1      -8.895  11.572  65.815  1.00  0.00    -0.060 A  
HETATM   19  C   UNL     1      -7.493  11.782  63.886  1.00  0.00     2.951 A  
HETATM   20  F   UNL     1      -7.819  13.524  62.385  1.00  0.00     7.317 F  
HETATM   21  F   UNL     1      -6.512  11.309  63.105  1.00  0.00     0.212 F  
HETATM   22  C   UNL     1      -7.850  11.089  65.019  1.00  0.00     0.349 A  
HETATM   23  C   UNL     1      -8.167  12.939  63.542  1.00  0.00     6.763 A  
BRANCH  17  24
HETATM   24  N   UNL     1      -9.886  14.657  63.904  1.00  0.00     1.484 NA 
HETATM   25  H   UNL     1     -10.178  14.693  62.927  1.00  0.00     0.000 HD 
BRANCH  24  26
HETATM   26  C   UNL     1     -10.179  15.798  64.705  1.00  0.00     0.296 A  
HETATM   27  C   UNL     1     -11.468  16.325  64.793  1.00  0.00    -0.121 A  
HETATM   28  F   UNL     1     -12.487  15.720  64.161  1.00  0.00    -0.375 F  
HETATM   29  C   UNL     1     -11.723  17.524  65.472  1.00  0.00     2.423 A  
HETATM   30  C   UNL     1     -10.668  18.203  66.082  1.00  0.00    -0.145 A  
HETATM   31  C   UNL     1      -9.375  17.689  66.027  1.00  0.00    -0.070 A  
HETATM   32  I   UNL     1     -11.007  20.005  67.062  1.00  0.00     0.872 I  
HETATM   33  C   UNL     1      -9.139  16.486  65.353  1.00  0.00     0.794 A  
ENDBRANCH  24  26
ENDBRANCH  17  24
ENDBRANCH   8  16
TORSDOF 4
ENDMDL
MODEL      211
REMARK 921   NORMALIZED FREE ENERGY PREDICTED BY IDOCK:   23.78 KCAL/MOL
REMARK 922        TOTAL FREE ENERGY PREDICTED BY IDOCK:   27.59 KCAL/MOL
REMARK 923 INTER-LIGAND FREE ENERGY PREDICTED BY IDOCK:   21.80 KCAL/MOL
REMARK 924 INTRA-LIGAND FREE ENERGY PREDICTED BY IDOCK:    5.79 KCAL/MOL
REMARK 927      BINDING AFFINITY PREDICTED BY RF-SCORE:    0.00 PKD
ROOT
HETATM    1  O   UNL     1      -9.594   5.661  74.484  1.00  0.00    -0.145 OA 
HETATM    2  H   UNL     1     -10.306   6.024  74.998  1.00  0.00     0.000 HD 
HETATM    3  C   UNL     1      -9.448   6.184  73.134  1.00  0.00    -0.138 C  
HETATM    4  C   UNL     1      -8.269   5.584  72.283  1.00  0.00    -0.111 C  
HETATM    5  O   UNL     1      -7.675   6.885  69.839  1.00  0.00    -0.104 OA 
HETATM    6  C   UNL     1     -10.310   5.480  72.014  1.00  0.00    -0.213 C  
HETATM    7  N   UNL     1      -9.184   5.793  71.123  1.00  0.00    -0.152 N  
HETATM    8  C   UNL     1      -8.870   6.707  70.101  1.00  0.00    -0.141 C  
ENDROOT
BRANCH   3   9
HETATM    9  C   UNL     1      -9.649   7.735  73.121  1.00  0.00    -0.275 C  
HETATM   10  C   UNL     1     -10.794   9.777  74.020  1.00  0.00    12.043 C  
HETATM   11  C   UNL     1     -11.014  10.238  72.582  1.00  0.00     5.074 C  
HETATM   12  H   UNL     1     -10.736   7.812  71.349  1.00  0.00     0.000 HD 
HETATM   13  C   UNL     1     -10.735   8.241  74.081  1.00  0.00     3.705 C  
HETATM   14  C   UNL     1      -9.927   9.680  71.674  1.00  0.00     0.668 C  
HETATM   15  N   UNL     1      -9.890   8.222  71.744  1.00  0.00    -0.197 NA 
ENDBRANCH   3   9
BRANCH   8  16
HETATM   16  C   UNL     1      -9.874   7.601  69.382  1.00  0.00    -0.171 A  
HETATM   17  C   UNL     1      -9.514   8.321  68.193  1.00  0.00    -0.137 A  
HETATM   18  C   UNL     1     -11.138   7.873  69.937  1.00  0.00    -0.123 A  
HETATM   19  C   UNL     1     -11.668   9.499  68.262  1.00  0.00     1.166 A  
HETATM   20  F   UNL     1     -10.115  10.039  66.621  1.00  0.00    -0.235 F  
HETATM   21  F   UNL     1     -12.505  10.415  67.753  1.00  0.00     0.995 F  
HETATM   22  C   UNL     1     -12.028   8.806  69.393  1.00  0.00     1.316 A  
HETATM   23  C   UNL     1     -10.436   9.274  67.677  1.00  0.00    -0.264 A  
BRANCH  17  24
HETATM   24  N   UNL     1      -8.249   8.161  67.545  1.00  0.00    -0.122 NA 
HETATM   25  H   UNL     1      -7.453   8.644  67.962  1.00  0.00     0.000 HD 
BRANCH  24  26
HETATM   26  C   UNL     1      -7.994   7.392  66.374  1.00  0.00    -0.108 A  
HETATM   27  C   UNL     1      -8.150   6.004  66.354  1.00  0.00    -0.110 A  
HETATM   28  F   UNL     1      -8.612   5.365  67.441  1.00  0.00    -0.110 F  
HETATM   29  C   UNL     1      -7.768   5.241  65.243  1.00  0.00    -0.084 A  
HETATM   30  C   UNL     1      -7.227   5.879  64.128  1.00  0.00    -0.056 A  
HETATM   31  C   UNL     1      -7.079   7.264  64.112  1.00  0.00    -0.067 A  
HETATM   32  I   UNL     1      -6.613   4.770  62.480  1.00  0.00    -0.027 I  
HETATM   33  C   UNL     1      -7.474   8.013  65.226  1.00  0.00    -0.080 A  
ENDBRANCH  24  26
ENDBRANCH  17  24
ENDBRANCH   8  16
TORSDOF 4
ENDMDL
MODEL      212
REMARK 921   NORMALIZED FREE ENERGY PREDICTED BY IDOCK:   28.48 KCAL/MOL
REMARK 922        TOTAL FREE ENERGY PREDICTED BY IDOCK:   33.39 KCAL/MOL
REMARK 923 INTER-LIGAND FREE ENERGY PREDICTED BY IDOCK:   34.23 KCAL/MOL
REMARK 924 INTRA-LIGAND FREE ENERGY PREDICTED BY IDOCK:   -0.84 KCAL/MOL
REMARK 927      BINDING AFFINITY PREDICTED BY RF-SCORE:    0.00 PKD
ROOT
HETATM    1  O   UNL     1      -6.812  18.780  72.441  1.00  0.00     2.852 OA 
HETATM    2  H   UNL     1      -5.920  18.470  72.335  1.00  0.00     0.000 HD 
HETATM    3  C   UNL     1      -7.719  18.506  71.338  1.00  0.00     6.333 C  
HETATM    4  C   UNL     1      -9.196  19.018  71.513  1.00  0.00     5.543 C  
HETATM    5  O   UNL     1     -11.088  18.119  69.608  1.00  0.00     1.247 OA 
HETATM    6  C   UNL     1      -7.735  19.565  70.166  1.00  0.00     0.787 C  
HETATM    7  N   UNL     1      -9.156  19.216  70.034  1.00  0.00     0.922 N  
HETATM    8  C   UNL     1      -9.986  18.471  69.176  1.00  0.00    -0.184 C  
ENDROOT
BRANCH   3   9
HETATM    9  C   UNL     1      -7.504  17.055  70.795  1.00  0.00     3.919 C  
HETATM   10  C   UNL     1      -6.966  14.643  71.220  1.00  0.00     1.291 C  
HETATM   11  C   UNL     1      -6.002  14.691  70.038  1.00  0.00    -0.141 C  
HETATM   12  H   UNL     1      -5.637  17.401  69.944  1.00  0.00     0.000 HD 
HETATM   13  C   UNL     1      -7.087  16.035  71.863  1.00  0.00     5.307 C  
HETATM   14  C   UNL     1      -6.449  15.740  69.030  1.00  0.00    -0.130 C  
HETATM   15  N   UNL     1      -6.553  17.054  69.660  1.00  0.00    -0.200 NA 
ENDBRANCH   3   9
BRANCH   8  16
HETATM   16  C   UNL     1      -9.582  17.942  67.804  1.00  0.00    -0.277 A  
HETATM   17  C   UNL     1      -9.297  16.551  67.594  1.00  0.00    -0.212 A  
HETATM   18  C   UNL     1      -9.327  18.817  66.731  1.00  0.00    -0.330 A  
HETATM   19  C   UNL     1      -8.523  17.058  65.319  1.00  0.00     2.057 A  
HETATM   20  F   UNL     1      -8.384  14.883  66.122  1.00  0.00    -0.076 F  
HETATM   21  F   UNL     1      -7.998  16.649  64.156  1.00  0.00     6.554 F  
HETATM   22  C   UNL     1      -8.805  18.391  65.504  1.00  0.00     1.069 A  
HETATM   23  C   UNL     1      -8.752  16.156  66.341  1.00  0.00    -0.325 A  
BRANCH  17  24
HETATM   24  N   UNL     1      -9.484  15.562  68.611  1.00  0.00    -0.196 NA 
HETATM   25  H   UNL     1      -9.383  15.871  69.579  1.00  0.00     0.000 HD 
BRANCH  24  26
HETATM   26  C   UNL     1      -9.798  14.189  68.403  1.00  0.00    -0.231 A  
HETATM   27  C   UNL     1     -11.115  13.747  68.265  1.00  0.00    -0.255 A  
HETATM   28  F   UNL     1     -12.125  14.632  68.266  1.00  0.00    -0.343 F  
HETATM   29  C   UNL     1     -11.424  12.382  68.198  1.00  0.00    -0.370 A  
HETATM   30  C   UNL     1     -10.395  11.442  68.260  1.00  0.00    -0.194 A  
HETATM   31  C   UNL     1      -9.071  11.857  68.377  1.00  0.00    -0.167 A  
HETATM   32  I   UNL     1     -10.826   9.410  68.203  1.00  0.00     0.106 I  
HETATM   33  C   UNL     1      -8.777  13.223  68.433  1.00  0.00    -0.126 A  
ENDBRANCH  24  26
ENDBRANCH  17  24
ENDBRANCH   8  16
TORSDOF 4
ENDMDL
MODEL      213
REMARK 921   NORMALIZED FREE ENERGY PREDICTED BY IDOCK:   33.84 KCAL/MOL
REMARK 922        TOTAL FREE ENERGY PREDICTED BY IDOCK:   40.01 KCAL/MOL
REMARK 923 INTER-LIGAND FREE ENERGY PREDICTED BY IDOCK:   32.94 KCAL/MOL
REMARK 924 INTRA-LIGAND FREE ENERGY PREDICTED BY IDOCK:    7.07 KCAL/MOL
REMARK 927      BINDING AFFINITY PREDICTED BY RF-SCORE:    0.00 PKD
ROOT
HETATM    1  O   UNL     1     -10.309   9.350  63.386  1.00  0.00     1.130 OA 
HETATM    2  H   UNL     1     -10.914   8.632  63.530  1.00  0.00     0.000 HD 
HETATM    3  C   UNL     1     -10.101  10.247  64.513  1.00  0.00    -0.216 C  
HETATM    4  C   UNL     1      -9.099  11.436  64.275  1.00  0.00     0.116 C  
HETATM    5  O   UNL     1      -8.326  12.923  66.557  1.00  0.00     0.059 OA 
HETATM    6  C   UNL     1     -11.124  11.440  64.656  1.00  0.00    -0.207 C  
HETATM    7  N   UNL     1      -9.987  12.189  65.209  1.00  0.00    -0.253 N  
HETATM    8  C   UNL     1      -9.522  12.630  66.462  1.00  0.00    -0.247 C  
ENDROOT
BRANCH   3   9
HETATM    9  C   UNL     1      -9.976   9.437  65.845  1.00  0.00    -0.256 C  
HETATM   10  C   UNL     1      -9.159   9.273  68.210  1.00  0.00    -0.128 C  
HETATM   11  C   UNL     1      -8.650   7.869  67.894  1.00  0.00    -0.125 C  
HETATM   12  H   UNL     1      -8.530   8.103  65.171  1.00  0.00     0.000 HD 
HETATM   13  C   UNL     1      -9.156  10.136  66.938  1.00  0.00    -0.160 C  
HETATM   14  C   UNL     1      -9.480   7.240  66.785  1.00  0.00    -0.171 C  
HETATM   15  N   UNL     1      -9.461   8.073  65.586  1.00  0.00     0.127 NA 
ENDBRANCH   3   9
BRANCH   8  16
HETATM   16  C   UNL     1     -10.341  12.645  67.748  1.00  0.00    -0.221 A  
HETATM   17  C   UNL     1     -10.166  13.675  68.732  1.00  0.00    -0.149 A  
HETATM   18  C   UNL     1     -11.189  11.573  68.087  1.00  0.00    -0.335 A  
HETATM   19  C   UNL     1     -11.650  12.457  70.263  1.00  0.00     0.026 A  
HETATM   20  F   UNL     1     -10.627  14.418  70.972  1.00  0.00     0.296 F  
HETATM   21  F   UNL     1     -12.246  12.351  71.459  1.00  0.00    -0.268 F  
HETATM   22  C   UNL     1     -11.836  11.472  69.323  1.00  0.00    -0.414 A  
HETATM   23  C   UNL     1     -10.826  13.531  69.984  1.00  0.00     0.614 A  
BRANCH  17  24
HETATM   24  N   UNL     1      -9.311  14.804  68.526  1.00  0.00    -0.194 NA 
HETATM   25  H   UNL     1      -8.985  14.968  67.573  1.00  0.00     0.000 HD 
BRANCH  24  26
HETATM   26  C   UNL     1      -8.871  15.721  69.523  1.00  0.00    -0.169 A  
HETATM   27  C   UNL     1      -7.903  16.691  69.256  1.00  0.00    -0.084 A  
HETATM   28  F   UNL     1      -7.404  16.819  68.017  1.00  0.00    -0.148 F  
HETATM   29  C   UNL     1      -7.378  17.498  70.274  1.00  0.00     2.009 A  
HETATM   30  C   UNL     1      -7.837  17.337  71.581  1.00  0.00     9.863 A  
HETATM   31  C   UNL     1      -8.817  16.391  71.871  1.00  0.00     9.532 A  
HETATM   32  I   UNL     1      -7.048  18.492  73.119  1.00  0.00    10.843 I  
HETATM   33  C   UNL     1      -9.338  15.599  70.843  1.00  0.00     2.070 A  
ENDBRANCH  24  26
ENDBRANCH  17  24
ENDBRANCH   8  16
TORSDOF 4
ENDMDL
MODEL      214
REMARK 921   NORMALIZED FREE ENERGY PREDICTED BY IDOCK:   36.53 KCAL/MOL
REMARK 922        TOTAL FREE ENERGY PREDICTED BY IDOCK:   43.32 KCAL/MOL
REMARK 923 INTER-LIGAND FREE ENERGY PREDICTED BY IDOCK:   27.69 KCAL/MOL
REMARK 924 INTRA-LIGAND FREE ENERGY PREDICTED BY IDOCK:   15.64 KCAL/MOL
REMARK 927      BINDING AFFINITY PREDICTED BY RF-SCORE:    0.00 PKD
ROOT
HETATM    1  O   UNL     1      -9.933   9.928  67.798  1.00  0.00    -0.154 OA 
HETATM    2  H   UNL     1     -10.113  10.110  66.883  1.00  0.00     0.000 HD 
HETATM    3  C   UNL     1      -9.440  11.046  68.588  1.00  0.00    -0.195 C  
HETATM    4  C   UNL     1      -9.141  10.744  70.103  1.00  0.00     1.158 C  
HETATM    5  O   UNL     1      -8.621  12.977  71.765  1.00  0.00    12.984 OA 
HETATM    6  C   UNL     1      -7.880  11.285  68.566  1.00  0.00    -0.138 C  
HETATM    7  N   UNL     1      -8.055  11.755  69.947  1.00  0.00     1.442 N  
HETATM    8  C   UNL     1      -8.084  12.973  70.652  1.00  0.00     5.720 C  
ENDROOT
BRANCH   3   9
HETATM    9  C   UNL     1     -10.224  12.354  68.240  1.00  0.00    -0.229 C  
HETATM   10  C   UNL     1     -11.163  14.568  68.949  1.00  0.00    -0.283 C  
HETATM   11  C   UNL     1     -12.466  14.196  68.245  1.00  0.00     0.218 C  
HETATM   12  H   UNL     1     -12.113  11.484  68.184  1.00  0.00     0.000 HD 
HETATM   13  C   UNL     1     -10.440  13.299  69.430  1.00  0.00     0.287 C  
HETATM   14  C   UNL     1     -12.193  13.235  67.097  1.00  0.00    -0.227 C  
HETATM   15  N   UNL     1     -11.509  12.036  67.575  1.00  0.00    -0.340 NA 
ENDBRANCH   3   9
BRANCH   8  16
HETATM   16  C   UNL     1      -7.631  14.320  70.100  1.00  0.00     0.721 A  
HETATM   17  C   UNL     1      -6.654  14.406  69.051  1.00  0.00    -0.103 A  
HETATM   18  C   UNL     1      -8.039  15.528  70.696  1.00  0.00     1.822 A  
HETATM   19  C   UNL     1      -6.582  16.845  69.327  1.00  0.00    -0.232 A  
HETATM   20  F   UNL     1      -5.165  15.819  67.799  1.00  0.00    -0.108 F  
HETATM   21  F   UNL     1      -6.069  18.035  68.984  1.00  0.00    -0.189 F  
HETATM   22  C   UNL     1      -7.527  16.776  70.323  1.00  0.00     1.863 A  
HETATM   23  C   UNL     1      -6.144  15.689  68.709  1.00  0.00    -0.100 A  
BRANCH  17  24
HETATM   24  N   UNL     1      -6.135  13.253  68.383  1.00  0.00    -0.078 NA 
HETATM   25  H   UNL     1      -5.188  12.964  68.630  1.00  0.00     0.000 HD 
BRANCH  24  26
HETATM   26  C   UNL     1      -6.812  12.469  67.405  1.00  0.00    -0.145 A  
HETATM   27  C   UNL     1      -6.751  11.074  67.408  1.00  0.00    -0.080 A  
HETATM   28  F   UNL     1      -6.091  10.432  68.385  1.00  0.00    -0.044 F  
HETATM   29  C   UNL     1      -7.305  10.317  66.367  1.00  0.00    -0.114 A  
HETATM   30  C   UNL     1      -7.939  10.967  65.309  1.00  0.00     0.200 A  
HETATM   31  C   UNL     1      -8.032  12.357  65.292  1.00  0.00     2.690 A  
HETATM   32  I   UNL     1      -8.736   9.873  63.731  1.00  0.00    -0.277 I  
HETATM   33  C   UNL     1      -7.483  13.099  66.343  1.00  0.00     1.620 A  
ENDBRANCH  24  26
ENDBRANCH  17  24
ENDBRANCH   8  16
TORSDOF 4
ENDMDL
MODEL      215
REMARK 921   NORMALIZED FREE ENERGY PREDICTED BY IDOCK:   37.26 KCAL/MOL
REMARK 922        TOTAL FREE ENERGY PREDICTED BY IDOCK:   44.23 KCAL/MOL
REMARK 923 INTER-LIGAND FREE ENERGY PREDICTED BY IDOCK:   39.51 KCAL/MOL
REMARK 924 INTRA-LIGAND FREE ENERGY PREDICTED BY IDOCK:    4.72 KCAL/MOL
REMARK 927      BINDING AFFINITY PREDICTED BY RF-SCORE:    0.00 PKD
ROOT
HETATM    1  O   UNL     1      -6.520  16.500  67.741  1.00  0.00    -0.125 OA 
HETATM    2  H   UNL     1      -6.223  15.600  67.816  1.00  0.00     0.000 HD 
HETATM    3  C   UNL     1      -7.490  16.939  68.732  1.00  0.00    -0.237 C  
HETATM    4  C   UNL     1      -7.981  18.428  68.608  1.00  0.00    -0.296 C  
HETATM    5  O   UNL     1      -9.507  19.447  70.765  1.00  0.00     1.479 OA 
HETATM    6  C   UNL     1      -9.007  16.652  68.402  1.00  0.00    -0.223 C  
HETATM    7  N   UNL     1      -9.275  17.899  69.132  1.00  0.00    -0.021 N  
HETATM    8  C   UNL     1      -9.776  18.303  70.383  1.00  0.00     2.255 C  
ENDROOT
BRANCH   3   9
HETATM    9  C   UNL     1      -7.104  16.408  70.152  1.00  0.00     0.805 C  
HETATM   10  C   UNL     1      -6.882  14.497  71.762  1.00  0.00     1.754 C  
HETATM   11  C   UNL     1      -7.563  15.362  72.819  1.00  0.00     7.704 C  
HETATM   12  H   UNL     1      -8.780  17.145  71.139  1.00  0.00     0.000 HD 
HETATM   13  C   UNL     1      -7.356  14.907  70.357  1.00  0.00     0.492 C  
HETATM   14  C   UNL     1      -7.305  16.837  72.546  1.00  0.00    11.270 C  
HETATM   15  N   UNL     1      -7.764  17.206  71.210  1.00  0.00     6.382 NA 
ENDBRANCH   3   9
BRANCH   8  16
HETATM   16  C   UNL     1     -10.507  17.400  71.370  1.00  0.00     2.899 A  
HETATM   17  C   UNL     1     -11.103  16.164  70.950  1.00  0.00    -0.196 A  
HETATM   18  C   UNL     1     -10.755  17.814  72.693  1.00  0.00     3.596 A  
HETATM   19  C   UNL     1     -12.130  15.913  73.167  1.00  0.00    -0.506 A  
HETATM   20  F   UNL     1     -12.576  14.347  71.510  1.00  0.00    -0.349 F  
HETATM   21  F   UNL     1     -12.919  15.229  74.008  1.00  0.00    -0.581 F  
HETATM   22  C   UNL     1     -11.554  17.089  73.584  1.00  0.00     0.475 A  
HETATM   23  C   UNL     1     -11.922  15.461  71.877  1.00  0.00    -0.408 A  
BRANCH  17  24
HETATM   24  N   UNL     1     -10.954  15.644  69.626  1.00  0.00    -0.262 NA 
HETATM   25  H   UNL     1     -11.125  16.290  68.855  1.00  0.00     0.000 HD 
BRANCH  24  26
HETATM   26  C   UNL     1     -10.589  14.312  69.280  1.00  0.00    -0.141 A  
HETATM   27  C   UNL     1     -10.999  13.723  68.082  1.00  0.00    -0.246 A  
HETATM   28  F   UNL     1     -11.707  14.435  67.191  1.00  0.00    -0.339 F  
HETATM   29  C   UNL     1     -10.752  12.371  67.811  1.00  0.00    -0.247 A  
HETATM   30  C   UNL     1     -10.073  11.596  68.751  1.00  0.00    -0.156 A  
HETATM   31  C   UNL     1      -9.635  12.164  69.945  1.00  0.00     2.379 A  
HETATM   32  I   UNL     1      -9.726   9.578  68.395  1.00  0.00    -0.194 I  
HETATM   33  C   UNL     1      -9.881  13.517  70.198  1.00  0.00     2.543 A  
ENDBRANCH  24  26
ENDBRANCH  17  24
ENDBRANCH   8  16
TORSDOF 4
ENDMDL
