MODEL        1
REMARK 921   NORMALIZED FREE ENERGY PREDICTED BY IDOCK:   -6.55 KCAL/MOL
REMARK 922        TOTAL FREE ENERGY PREDICTED BY IDOCK:  -18.11 KCAL/MOL
REMARK 923 INTER-LIGAND FREE ENERGY PREDICTED BY IDOCK:  -14.59 KCAL/MOL
REMARK 924 INTRA-LIGAND FREE ENERGY PREDICTED BY IDOCK:   -3.53 KCAL/MOL
REMARK 927      BINDING AFFINITY PREDICTED BY RF-SCORE:    0.00 PKD
ROOT
HETATM    1  C   UNL     1     -11.358   4.301  73.235  1.00  0.00    -0.301 C  
HETATM    2  C   UNL     1      -9.866   4.584  73.061  1.00  0.00    -0.176 C  
HETATM    3  C   UNL     1      -9.625   6.023  72.666  1.00  0.00    -0.149 A  
HETATM    4  C   UNL     1      -9.249   3.616  72.051  1.00  0.00    -0.169 C  
HETATM    5  N   UNL     1     -10.138   6.631  71.612  1.00  0.00    -0.185 NA 
HETATM    6  C   UNL     1      -9.702   7.959  71.551  1.00  0.00    -0.161 A  
HETATM    7  C   UNL     1      -8.854   8.322  72.580  1.00  0.00    -0.229 A  
HETATM    8  S   UNL     1      -8.597   7.004  73.640  1.00  0.00    -0.149 SA 
ENDROOT
BRANCH   6   9
HETATM    9  C   UNL     1     -10.095   8.835  70.388  1.00  0.00    -0.192 C  
BRANCH   9  10
HETATM   10  N   UNL     1     -11.195   9.750  70.715  1.00  0.00    -0.320 N  
HETATM   11  C   UNL     1     -12.095   9.342  71.787  1.00  0.00    -0.387 C  
BRANCH  10  12
HETATM   12  C   UNL     1     -11.585  10.677  69.749  1.00  0.00    -0.309 C  
HETATM   13  O   UNL     1     -12.509  10.490  68.962  1.00  0.00    -0.217 OA 
BRANCH  12  14
HETATM   14  N   UNL     1     -10.912  11.864  69.794  1.00  0.00    -0.462 N  
HETATM   15  H   UNL     1     -10.469  12.115  70.678  1.00  0.00     0.000 HD 
BRANCH  14  16
HETATM   16  C   UNL     1     -10.769  12.814  68.677  1.00  0.00    -0.246 C  
BRANCH  16  17
HETATM   17  C   UNL     1      -9.325  12.625  68.162  1.00  0.00    -0.210 C  
HETATM   18  H   UNL     1      -8.067  12.517  66.577  1.00  0.00     0.000 HD 
HETATM   19  N   UNL     1      -9.053  12.467  66.834  1.00  0.00    -0.209 N  
HETATM   20  O   UNL     1      -8.369  12.664  68.947  1.00  0.00     0.078 OA 
BRANCH  19  21
HETATM   21  C   UNL     1      -9.981  12.236  65.732  1.00  0.00    -0.254 C  
BRANCH  21  22
HETATM   22  C   UNL     1     -10.785  10.936  65.920  1.00  0.00    -0.193 C  
BRANCH  22  23
HETATM   23  C   UNL     1      -9.955   9.676  65.887  1.00  0.00    -0.351 A  
HETATM   24  C   UNL     1      -9.508   7.448  66.738  1.00  0.00    -0.226 A  
HETATM   25  C   UNL     1      -8.047   8.415  65.078  1.00  0.00    -0.147 A  
HETATM   26  C   UNL     1      -8.819   9.577  65.072  1.00  0.00    -0.232 A  
HETATM   27  C   UNL     1     -10.287   8.604  66.725  1.00  0.00    -0.336 A  
HETATM   28  C   UNL     1      -8.384   7.354  65.913  1.00  0.00    -0.140 A  
ENDBRANCH  22  23
ENDBRANCH  21  22
BRANCH  21  29
HETATM   29  C   UNL     1     -10.888  13.463  65.528  1.00  0.00    -0.299 C  
BRANCH  29  30
HETATM   30  C   UNL     1     -10.224  14.728  64.950  1.00  0.00    -0.310 C  
BRANCH  30  31
HETATM   31  C   UNL     1      -9.924  15.794  66.029  1.00  0.00    -0.332 C  
BRANCH  31  32
HETATM   32  C   UNL     1     -11.029  16.879  66.039  1.00  0.00     0.141 C  
BRANCH  32  33
HETATM   33  C   UNL     1     -10.605  18.143  66.753  1.00  0.00    -0.310 A  
HETATM   34  C   UNL     1     -10.462  19.348  66.053  1.00  0.00    -0.596 A  
HETATM   35  C   UNL     1     -10.016  20.499  66.703  1.00  0.00    -0.378 A  
HETATM   36  C   UNL     1     -10.326  18.125  68.128  1.00  0.00    -0.393 A  
HETATM   37  C   UNL     1      -9.871  19.270  68.776  1.00  0.00    -0.514 A  
HETATM   38  C   UNL     1      -9.708  20.455  68.062  1.00  0.00    -0.358 A  
ENDBRANCH  32  33
ENDBRANCH  31  32
BRANCH  31  39
HETATM   39  N   UNL     1      -8.603  16.391  65.842  1.00  0.00    -0.196 N  
HETATM   40  C   UNL     1      -7.591  16.206  66.739  1.00  0.00    -0.233 C  
HETATM   41  H   UNL     1      -8.432  16.962  65.014  1.00  0.00     0.000 HD 
HETATM   42  O   UNL     1      -7.704  15.591  67.790  1.00  0.00    -0.123 OA 
BRANCH  40  43
HETATM   43  O   UNL     1      -6.450  16.770  66.282  1.00  0.00    -0.211 OA 
BRANCH  43  44
HETATM   44  C   UNL     1      -6.573  18.155  65.928  1.00  0.00    -0.281 C  
BRANCH  44  45
HETATM   45  C   UNL     1      -6.269  18.969  67.137  1.00  0.00    -0.178 A  
HETATM   46  N   UNL     1      -6.154  19.650  69.376  1.00  0.00    -0.276 NA 
HETATM   47  C   UNL     1      -6.436  18.644  68.470  1.00  0.00    -0.228 A  
HETATM   48  C   UNL     1      -5.762  20.720  68.722  1.00  0.00    -0.363 A  
HETATM   49  S   UNL     1      -5.694  20.582  67.013  1.00  0.00    -0.187 SA 
ENDBRANCH  44  45
ENDBRANCH  43  44
ENDBRANCH  40  43
ENDBRANCH  31  39
ENDBRANCH  30  31
ENDBRANCH  29  30
ENDBRANCH  21  29
ENDBRANCH  19  21
ENDBRANCH  16  17
BRANCH  16  50
HETATM   50  C   UNL     1     -10.923  14.260  69.177  1.00  0.00    -0.286 C  
BRANCH  50  51
HETATM   51  C   UNL     1     -12.229  14.470  69.935  1.00  0.00    -0.328 C  
BRANCH  51  52
HETATM   52  N   UNL     1     -12.239  13.951  71.318  1.00  0.00    -0.325 NA 
HETATM   53  O   UNL     1     -13.683  16.012  72.850  1.00  0.00    -0.565 OA 
HETATM   54  C   UNL     1     -12.351  16.251  72.372  1.00  0.00    -0.388 C  
HETATM   55  C   UNL     1     -11.560  14.937  72.202  1.00  0.00    -0.199 C  
HETATM   56  C   UNL     1     -14.385  15.078  72.015  1.00  0.00    -0.573 C  
HETATM   57  C   UNL     1     -13.602  13.763  71.867  1.00  0.00    -0.429 C  
ENDBRANCH  51  52
ENDBRANCH  50  51
ENDBRANCH  16  50
ENDBRANCH  14  16
ENDBRANCH  12  14
ENDBRANCH  10  12
ENDBRANCH   9  10
ENDBRANCH   6   9
TORSDOF 21
ENDMDL
MODEL        2
REMARK 921   NORMALIZED FREE ENERGY PREDICTED BY IDOCK:   -5.66 KCAL/MOL
REMARK 922        TOTAL FREE ENERGY PREDICTED BY IDOCK:  -16.13 KCAL/MOL
REMARK 923 INTER-LIGAND FREE ENERGY PREDICTED BY IDOCK:  -12.57 KCAL/MOL
REMARK 924 INTRA-LIGAND FREE ENERGY PREDICTED BY IDOCK:   -3.56 KCAL/MOL
REMARK 927      BINDING AFFINITY PREDICTED BY RF-SCORE:    0.00 PKD
ROOT
HETATM    1  C   UNL     1      -8.213   7.177  65.059  1.00  0.00    -0.095 C  
HETATM    2  C   UNL     1      -7.314   6.201  65.819  1.00  0.00    -0.080 C  
HETATM    3  C   UNL     1      -8.107   5.397  66.824  1.00  0.00    -0.105 A  
HETATM    4  C   UNL     1      -6.156   6.944  66.486  1.00  0.00    -0.034 C  
HETATM    5  N   UNL     1      -8.849   5.893  67.797  1.00  0.00    -0.110 NA 
HETATM    6  C   UNL     1      -9.440   4.863  68.537  1.00  0.00    -0.143 A  
HETATM    7  C   UNL     1      -9.119   3.594  68.094  1.00  0.00    -0.149 A  
HETATM    8  S   UNL     1      -8.078   3.676  66.740  1.00  0.00    -0.096 SA 
ENDROOT
BRANCH   6   9
HETATM    9  C   UNL     1     -10.273   5.182  69.754  1.00  0.00    -0.287 C  
BRANCH   9  10
HETATM   10  N   UNL     1      -9.577   4.883  71.010  1.00  0.00    -0.164 N  
HETATM   11  C   UNL     1     -10.329   4.150  72.022  1.00  0.00    -0.075 C  
BRANCH  10  12
HETATM   12  C   UNL     1      -8.468   5.659  71.345  1.00  0.00    -0.128 C  
HETATM   13  O   UNL     1      -7.576   5.278  72.099  1.00  0.00    -0.094 OA 
BRANCH  12  14
HETATM   14  N   UNL     1      -8.397   6.859  70.700  1.00  0.00    -0.126 N  
HETATM   15  H   UNL     1      -8.275   6.838  69.688  1.00  0.00     0.000 HD 
BRANCH  14  16
HETATM   16  C   UNL     1      -8.480   8.184  71.339  1.00  0.00    -0.126 C  
BRANCH  16  17
HETATM   17  C   UNL     1      -7.016   8.652  71.502  1.00  0.00    -0.087 C  
HETATM   18  H   UNL     1      -5.637  10.109  71.219  1.00  0.00     0.000 HD 
HETATM   19  N   UNL     1      -6.562   9.800  70.921  1.00  0.00    -0.081 N  
HETATM   20  O   UNL     1      -6.229   8.013  72.212  1.00  0.00    -0.044 OA 
BRANCH  19  21
HETATM   21  C   UNL     1      -7.220  10.646  69.929  1.00  0.00    -0.102 C  
BRANCH  21  22
HETATM   22  C   UNL     1      -6.211  11.278  68.953  1.00  0.00    -0.052 C  
BRANCH  22  23
HETATM   23  C   UNL     1      -6.254  12.786  68.898  1.00  0.00    -0.085 A  
HETATM   24  C   UNL     1      -6.170  14.920  70.049  1.00  0.00    -0.156 A  
HETATM   25  C   UNL     1      -6.575  14.855  67.671  1.00  0.00    -0.189 A  
HETATM   26  C   UNL     1      -6.510  13.461  67.695  1.00  0.00    -0.169 A  
HETATM   27  C   UNL     1      -6.092  13.529  70.074  1.00  0.00    -0.129 A  
HETATM   28  C   UNL     1      -6.413  15.585  68.844  1.00  0.00    -0.110 A  
ENDBRANCH  22  23
ENDBRANCH  21  22
BRANCH  21  29
HETATM   29  C   UNL     1      -8.327   9.860  69.204  1.00  0.00    -0.145 C  
BRANCH  29  30
HETATM   30  C   UNL     1      -8.389  10.003  67.671  1.00  0.00    -0.114 C  
BRANCH  30  31
HETATM   31  C   UNL     1      -9.506  10.965  67.203  1.00  0.00    -0.160 C  
BRANCH  31  32
HETATM   32  C   UNL     1      -9.047  11.760  65.956  1.00  0.00    -0.159 C  
BRANCH  32  33
HETATM   33  C   UNL     1     -10.204  12.279  65.132  1.00  0.00    -0.305 A  
HETATM   34  C   UNL     1     -10.923  11.423  64.287  1.00  0.00    -0.390 A  
HETATM   35  C   UNL     1     -11.953  11.915  63.485  1.00  0.00    -0.567 A  
HETATM   36  C   UNL     1     -10.564  13.634  65.183  1.00  0.00    -0.371 A  
HETATM   37  C   UNL     1     -11.585  14.129  64.375  1.00  0.00    -0.377 A  
HETATM   38  C   UNL     1     -12.274  13.271  63.521  1.00  0.00    -0.513 A  
ENDBRANCH  32  33
ENDBRANCH  31  32
BRANCH  31  39
HETATM   39  N   UNL     1      -9.924  11.865  68.276  1.00  0.00    -0.198 N  
HETATM   40  C   UNL     1     -11.239  12.056  68.589  1.00  0.00    -0.258 C  
HETATM   41  H   UNL     1      -9.211  12.366  68.807  1.00  0.00     0.000 HD 
HETATM   42  O   UNL     1     -12.174  11.554  67.982  1.00  0.00    -0.582 OA 
BRANCH  40  43
HETATM   43  O   UNL     1     -11.351  12.847  69.681  1.00  0.00    -0.201 OA 
BRANCH  43  44
HETATM   44  C   UNL     1     -12.078  14.063  69.460  1.00  0.00    -0.347 C  
BRANCH  44  45
HETATM   45  C   UNL     1     -12.315  14.707  70.782  1.00  0.00    -0.328 A  
HETATM   46  N   UNL     1     -11.909  15.686  72.871  1.00  0.00    -0.452 NA 
HETATM   47  C   UNL     1     -11.397  15.242  71.666  1.00  0.00    -0.373 A  
HETATM   48  C   UNL     1     -13.210  15.499  72.880  1.00  0.00    -0.532 A  
HETATM   49  S   UNL     1     -13.887  14.805  71.465  1.00  0.00    -0.476 SA 
ENDBRANCH  44  45
ENDBRANCH  43  44
ENDBRANCH  40  43
ENDBRANCH  31  39
ENDBRANCH  30  31
ENDBRANCH  29  30
ENDBRANCH  21  29
ENDBRANCH  19  21
ENDBRANCH  16  17
BRANCH  16  50
HETATM   50  C   UNL     1      -9.113   8.071  72.735  1.00  0.00    -0.303 C  
BRANCH  50  51
HETATM   51  C   UNL     1     -10.634   8.164  72.686  1.00  0.00    -0.344 C  
BRANCH  51  52
HETATM   52  N   UNL     1     -11.197   8.476  71.356  1.00  0.00    -0.251 NA 
HETATM   53  O   UNL     1     -14.111   8.447  71.783  1.00  0.00    -0.396 OA 
HETATM   54  C   UNL     1     -13.359   7.226  71.778  1.00  0.00    -0.304 C  
HETATM   55  C   UNL     1     -12.073   7.349  70.933  1.00  0.00    -0.257 C  
HETATM   56  C   UNL     1     -13.310   9.561  72.203  1.00  0.00    -0.461 C  
HETATM   57  C   UNL     1     -12.041   9.693  71.344  1.00  0.00    -0.388 C  
ENDBRANCH  51  52
ENDBRANCH  50  51
ENDBRANCH  16  50
ENDBRANCH  14  16
ENDBRANCH  12  14
ENDBRANCH  10  12
ENDBRANCH   9  10
ENDBRANCH   6   9
TORSDOF 21
ENDMDL
MODEL        3
REMARK 921   NORMALIZED FREE ENERGY PREDICTED BY IDOCK:   -5.51 KCAL/MOL
REMARK 922        TOTAL FREE ENERGY PREDICTED BY IDOCK:  -15.80 KCAL/MOL
REMARK 923 INTER-LIGAND FREE ENERGY PREDICTED BY IDOCK:  -11.56 KCAL/MOL
REMARK 924 INTRA-LIGAND FREE ENERGY PREDICTED BY IDOCK:   -4.23 KCAL/MOL
REMARK 927      BINDING AFFINITY PREDICTED BY RF-SCORE:    0.00 PKD
ROOT
HETATM    1  C   UNL     1     -10.165   5.209  74.547  1.00  0.00    -0.303 C  
HETATM    2  C   UNL     1      -9.493   4.658  73.289  1.00  0.00    -0.136 C  
HETATM    3  C   UNL     1      -9.278   5.747  72.263  1.00  0.00    -0.145 A  
HETATM    4  C   UNL     1     -10.301   3.496  72.711  1.00  0.00    -0.239 C  
HETATM    5  N   UNL     1     -10.218   6.520  71.749  1.00  0.00    -0.188 NA 
HETATM    6  C   UNL     1      -9.666   7.417  70.828  1.00  0.00    -0.171 A  
HETATM    7  C   UNL     1      -8.299   7.291  70.668  1.00  0.00    -0.128 A  
HETATM    8  S   UNL     1      -7.688   6.052  71.675  1.00  0.00    -0.102 SA 
ENDROOT
BRANCH   6   9
HETATM    9  C   UNL     1     -10.558   8.352  70.050  1.00  0.00    -0.235 C  
BRANCH   9  10
HETATM   10  N   UNL     1     -10.838   7.868  68.693  1.00  0.00    -0.016 N  
HETATM   11  C   UNL     1     -11.159   6.453  68.551  1.00  0.00    -0.300 C  
BRANCH  10  12
HETATM   12  C   UNL     1     -10.364   8.620  67.619  1.00  0.00    -0.254 C  
HETATM   13  O   UNL     1     -10.792   9.735  67.330  1.00  0.00    -0.265 OA 
BRANCH  12  14
HETATM   14  N   UNL     1      -9.316   8.059  66.949  1.00  0.00    -0.154 N  
HETATM   15  H   UNL     1      -9.503   7.211  66.415  1.00  0.00     0.000 HD 
BRANCH  14  16
HETATM   16  C   UNL     1      -7.935   8.573  66.930  1.00  0.00    -0.095 C  
BRANCH  16  17
HETATM   17  C   UNL     1      -7.896   9.597  65.773  1.00  0.00    -0.106 C  
HETATM   18  H   UNL     1      -7.391  11.454  65.139  1.00  0.00     0.000 HD 
HETATM   19  N   UNL     1      -7.548  10.899  65.981  1.00  0.00    -0.129 N  
HETATM   20  O   UNL     1      -8.134   9.240  64.612  1.00  0.00    -0.121 OA 
BRANCH  19  21
HETATM   21  C   UNL     1      -7.371  11.608  67.245  1.00  0.00    -0.136 C  
BRANCH  21  22
HETATM   22  C   UNL     1      -5.984  12.272  67.342  1.00  0.00    -0.149 C  
BRANCH  22  23
HETATM   23  C   UNL     1      -5.870  13.330  68.412  1.00  0.00    -0.087 A  
HETATM   24  C   UNL     1      -5.342  15.612  69.044  1.00  0.00    -0.103 A  
HETATM   25  C   UNL     1      -5.942  14.005  70.742  1.00  0.00    -0.188 A  
HETATM   26  C   UNL     1      -6.082  13.020  69.764  1.00  0.00    -0.123 A  
HETATM   27  C   UNL     1      -5.492  14.632  68.064  1.00  0.00    -0.127 A  
HETATM   28  C   UNL     1      -5.566  15.297  70.387  1.00  0.00    -0.138 A  
ENDBRANCH  22  23
ENDBRANCH  21  22
BRANCH  21  29
HETATM   29  C   UNL     1      -8.519  12.610  67.465  1.00  0.00    -0.176 C  
BRANCH  29  30
HETATM   30  C   UNL     1      -8.995  13.400  66.231  1.00  0.00     0.109 C  
BRANCH  30  31
HETATM   31  C   UNL     1      -9.641  14.756  66.600  1.00  0.00    -0.272 C  
BRANCH  31  32
HETATM   32  C   UNL     1      -8.549  15.823  66.855  1.00  0.00    -0.279 C  
BRANCH  32  33
HETATM   33  C   UNL     1      -9.123  17.179  67.201  1.00  0.00    -0.237 A  
HETATM   34  C   UNL     1      -8.710  17.859  68.355  1.00  0.00    -0.296 A  
HETATM   35  C   UNL     1      -9.283  19.083  68.703  1.00  0.00    -0.414 A  
HETATM   36  C   UNL     1     -10.096  17.772  66.382  1.00  0.00    -0.357 A  
HETATM   37  C   UNL     1     -10.676  18.988  66.734  1.00  0.00    -0.450 A  
HETATM   38  C   UNL     1     -10.275  19.640  67.897  1.00  0.00    -0.574 A  
ENDBRANCH  32  33
ENDBRANCH  31  32
BRANCH  31  39
HETATM   39  N   UNL     1     -10.533  14.630  67.752  1.00  0.00    -0.244 N  
HETATM   40  C   UNL     1     -11.827  14.214  67.624  1.00  0.00    -0.392 C  
HETATM   41  H   UNL     1     -10.176  14.860  68.680  1.00  0.00     0.000 HD 
HETATM   42  O   UNL     1     -12.371  13.969  66.557  1.00  0.00    -0.457 OA 
BRANCH  40  43
HETATM   43  O   UNL     1     -12.399  14.081  68.842  1.00  0.00    -0.299 OA 
BRANCH  43  44
HETATM   44  C   UNL     1     -11.514  14.328  69.943  1.00  0.00    -0.243 C  
BRANCH  44  45
HETATM   45  C   UNL     1     -12.341  14.663  71.135  1.00  0.00    -0.335 A  
HETATM   46  N   UNL     1     -14.126  14.694  72.653  1.00  0.00    -0.495 NA 
HETATM   47  C   UNL     1     -13.535  14.104  71.550  1.00  0.00    -0.344 A  
HETATM   48  C   UNL     1     -13.366  15.682  73.070  1.00  0.00    -0.570 A  
HETATM   49  S   UNL     1     -11.917  15.948  72.192  1.00  0.00    -0.561 SA 
ENDBRANCH  44  45
ENDBRANCH  43  44
ENDBRANCH  40  43
ENDBRANCH  31  39
ENDBRANCH  30  31
ENDBRANCH  29  30
ENDBRANCH  21  29
ENDBRANCH  19  21
ENDBRANCH  16  17
BRANCH  16  50
HETATM   50  C   UNL     1      -6.943   7.442  66.612  1.00  0.00    -0.070 C  
BRANCH  50  51
HETATM   51  C   UNL     1      -7.647   6.182  66.122  1.00  0.00    -0.090 C  
BRANCH  51  52
HETATM   52  N   UNL     1      -7.913   5.169  67.164  1.00  0.00    -0.100 NA 
HETATM   53  O   UNL     1      -6.268   2.861  66.360  1.00  0.00    -0.024 OA 
HETATM   54  C   UNL     1      -7.453   3.206  65.630  1.00  0.00    -0.073 C  
HETATM   55  C   UNL     1      -8.474   3.953  66.515  1.00  0.00    -0.105 C  
HETATM   56  C   UNL     1      -5.680   4.009  66.989  1.00  0.00    -0.022 C  
HETATM   57  C   UNL     1      -6.695   4.735  67.887  1.00  0.00    -0.054 C  
ENDBRANCH  51  52
ENDBRANCH  50  51
ENDBRANCH  16  50
ENDBRANCH  14  16
ENDBRANCH  12  14
ENDBRANCH  10  12
ENDBRANCH   9  10
ENDBRANCH   6   9
TORSDOF 21
ENDMDL
MODEL        4
REMARK 921   NORMALIZED FREE ENERGY PREDICTED BY IDOCK:   -5.48 KCAL/MOL
REMARK 922        TOTAL FREE ENERGY PREDICTED BY IDOCK:  -15.74 KCAL/MOL
REMARK 923 INTER-LIGAND FREE ENERGY PREDICTED BY IDOCK:  -12.99 KCAL/MOL
REMARK 924 INTRA-LIGAND FREE ENERGY PREDICTED BY IDOCK:   -2.75 KCAL/MOL
REMARK 927      BINDING AFFINITY PREDICTED BY RF-SCORE:    0.00 PKD
ROOT
HETATM    1  C   UNL     1     -10.611   4.959  73.935  1.00  0.00    -0.342 C  
HETATM    2  C   UNL     1      -9.267   5.005  73.208  1.00  0.00    -0.131 C  
HETATM    3  C   UNL     1      -8.937   6.411  72.759  1.00  0.00    -0.124 A  
HETATM    4  C   UNL     1      -9.255   4.026  72.034  1.00  0.00    -0.174 C  
HETATM    5  N   UNL     1      -9.688   7.169  71.982  1.00  0.00    -0.158 NA 
HETATM    6  C   UNL     1      -9.076   8.409  71.767  1.00  0.00    -0.218 A  
HETATM    7  C   UNL     1      -7.855   8.552  72.398  1.00  0.00    -0.052 A  
HETATM    8  S   UNL     1      -7.462   7.137  73.274  1.00  0.00    -0.072 SA 
ENDROOT
BRANCH   6   9
HETATM    9  C   UNL     1      -9.710   9.420  70.845  1.00  0.00    -0.250 C  
BRANCH   9  10
HETATM   10  N   UNL     1     -11.141   9.610  71.112  1.00  0.00    -0.359 N  
HETATM   11  C   UNL     1     -11.854   8.489  71.712  1.00  0.00    -0.331 C  
BRANCH  10  12
HETATM   12  C   UNL     1     -11.812  10.607  70.404  1.00  0.00    -0.349 C  
HETATM   13  O   UNL     1     -13.018  10.578  70.170  1.00  0.00    -0.218 OA 
BRANCH  12  14
HETATM   14  N   UNL     1     -11.040  11.677  70.057  1.00  0.00    -0.461 N  
HETATM   15  H   UNL     1     -10.363  12.007  70.745  1.00  0.00     0.000 HD 
BRANCH  14  16
HETATM   16  C   UNL     1     -11.099  12.399  68.774  1.00  0.00    -0.262 C  
BRANCH  16  17
HETATM   17  C   UNL     1      -9.674  12.301  68.184  1.00  0.00    -0.213 C  
HETATM   18  H   UNL     1      -8.483  12.394  66.548  1.00  0.00     0.000 HD 
HETATM   19  N   UNL     1      -9.456  12.294  66.837  1.00  0.00    -0.211 N  
HETATM   20  O   UNL     1      -8.687  12.277  68.930  1.00  0.00     0.071 OA 
BRANCH  19  21
HETATM   21  C   UNL     1     -10.425  12.162  65.754  1.00  0.00    -0.253 C  
BRANCH  21  22
HETATM   22  C   UNL     1     -11.157  10.807  65.798  1.00  0.00     0.138 C  
BRANCH  22  23
HETATM   23  C   UNL     1     -10.247   9.607  65.890  1.00  0.00    -0.219 A  
HETATM   24  C   UNL     1      -8.386   8.326  65.006  1.00  0.00    -0.158 A  
HETATM   25  C   UNL     1      -9.617   7.496  66.908  1.00  0.00    -0.242 A  
HETATM   26  C   UNL     1     -10.452   8.613  66.858  1.00  0.00    -0.329 A  
HETATM   27  C   UNL     1      -9.211   9.448  64.961  1.00  0.00    -0.280 A  
HETATM   28  C   UNL     1      -8.591   7.346  65.981  1.00  0.00    -0.162 A  
ENDBRANCH  22  23
ENDBRANCH  21  22
BRANCH  21  29
HETATM   29  C   UNL     1     -11.398  13.355  65.756  1.00  0.00    -0.322 C  
BRANCH  29  30
HETATM   30  C   UNL     1     -10.945  14.621  65.004  1.00  0.00    -0.415 C  
BRANCH  30  31
HETATM   31  C   UNL     1     -10.290  15.669  65.933  1.00  0.00    -0.350 C  
BRANCH  31  32
HETATM   32  C   UNL     1     -10.634  17.102  65.458  1.00  0.00    -0.160 C  
BRANCH  32  33
HETATM   33  C   UNL     1     -10.180  18.168  66.430  1.00  0.00    -0.405 A  
HETATM   34  C   UNL     1      -9.206  19.106  66.062  1.00  0.00    -0.109 A  
HETATM   35  C   UNL     1      -8.747  20.052  66.978  1.00  0.00    -0.411 A  
HETATM   36  C   UNL     1     -10.712  18.224  67.727  1.00  0.00    -0.358 A  
HETATM   37  C   UNL     1     -10.248  19.161  68.646  1.00  0.00    -0.407 A  
HETATM   38  C   UNL     1      -9.260  20.070  68.274  1.00  0.00    -0.278 A  
ENDBRANCH  32  33
ENDBRANCH  31  32
BRANCH  31  39
HETATM   39  N   UNL     1      -8.844  15.478  66.023  1.00  0.00    -0.419 N  
HETATM   40  C   UNL     1      -8.193  15.437  67.222  1.00  0.00    -0.196 C  
HETATM   41  H   UNL     1      -8.305  15.373  65.164  1.00  0.00     0.000 HD 
HETATM   42  O   UNL     1      -8.731  15.609  68.307  1.00  0.00    -0.168 OA 
BRANCH  40  43
HETATM   43  O   UNL     1      -6.885  15.144  67.036  1.00  0.00    -0.230 OA 
BRANCH  43  44
HETATM   44  C   UNL     1      -6.024  15.576  68.099  1.00  0.00    -0.131 C  
BRANCH  44  45
HETATM   45  C   UNL     1      -5.746  14.402  68.973  1.00  0.00    -0.088 A  
HETATM   46  N   UNL     1      -5.142  12.243  69.653  1.00  0.00    -0.070 NA 
HETATM   47  C   UNL     1      -5.186  13.183  68.640  1.00  0.00    -0.069 A  
HETATM   48  C   UNL     1      -5.655  12.764  70.745  1.00  0.00    -0.173 A  
HETATM   49  S   UNL     1      -6.196  14.388  70.629  1.00  0.00    -0.069 SA 
ENDBRANCH  44  45
ENDBRANCH  43  44
ENDBRANCH  40  43
ENDBRANCH  31  39
ENDBRANCH  30  31
ENDBRANCH  29  30
ENDBRANCH  21  29
ENDBRANCH  19  21
ENDBRANCH  16  17
BRANCH  16  50
HETATM   50  C   UNL     1     -11.429  13.883  69.004  1.00  0.00    -0.341 C  
BRANCH  50  51
HETATM   51  C   UNL     1     -12.600  14.068  69.963  1.00  0.00    -0.194 C  
BRANCH  51  52
HETATM   52  N   UNL     1     -12.293  13.800  71.383  1.00  0.00    -0.308 NA 
HETATM   53  O   UNL     1     -13.557  16.034  72.828  1.00  0.00    -0.521 OA 
HETATM   54  C   UNL     1     -12.370  16.242  72.049  1.00  0.00    -0.286 C  
HETATM   55  C   UNL     1     -11.529  14.953  71.932  1.00  0.00    -0.172 C  
HETATM   56  C   UNL     1     -14.336  14.940  72.323  1.00  0.00    -0.429 C  
HETATM   57  C   UNL     1     -13.500  13.654  72.229  1.00  0.00    -0.555 C  
ENDBRANCH  51  52
ENDBRANCH  50  51
ENDBRANCH  16  50
ENDBRANCH  14  16
ENDBRANCH  12  14
ENDBRANCH  10  12
ENDBRANCH   9  10
ENDBRANCH   6   9
TORSDOF 21
ENDMDL
MODEL        5
REMARK 921   NORMALIZED FREE ENERGY PREDICTED BY IDOCK:   -5.37 KCAL/MOL
REMARK 922        TOTAL FREE ENERGY PREDICTED BY IDOCK:  -15.50 KCAL/MOL
REMARK 923 INTER-LIGAND FREE ENERGY PREDICTED BY IDOCK:  -11.83 KCAL/MOL
REMARK 924 INTRA-LIGAND FREE ENERGY PREDICTED BY IDOCK:   -3.67 KCAL/MOL
REMARK 927      BINDING AFFINITY PREDICTED BY RF-SCORE:    0.00 PKD
ROOT
HETATM    1  C   UNL     1      -9.935   6.154  74.563  1.00  0.00    -0.343 C  
HETATM    2  C   UNL     1     -10.022   5.126  73.435  1.00  0.00    -0.185 C  
HETATM    3  C   UNL     1      -9.476   5.687  72.141  1.00  0.00    -0.149 A  
HETATM    4  C   UNL     1     -11.459   4.631  73.267  1.00  0.00    -0.346 C  
HETATM    5  N   UNL     1      -9.895   6.785  71.538  1.00  0.00    -0.171 NA 
HETATM    6  C   UNL     1      -9.169   7.006  70.362  1.00  0.00    -0.156 A  
HETATM    7  C   UNL     1      -8.206   6.048  70.106  1.00  0.00    -0.119 A  
HETATM    8  S   UNL     1      -8.194   4.863  71.338  1.00  0.00    -0.114 SA 
ENDROOT
BRANCH   6   9
HETATM    9  C   UNL     1      -9.520   8.161  69.458  1.00  0.00    -0.156 C  
BRANCH   9  10
HETATM   10  N   UNL     1     -10.453   7.780  68.390  1.00  0.00    -0.192 N  
HETATM   11  C   UNL     1     -11.024   6.441  68.461  1.00  0.00    -0.319 C  
BRANCH  10  12
HETATM   12  C   UNL     1     -10.398   8.487  67.190  1.00  0.00    -0.307 C  
HETATM   13  O   UNL     1     -11.008   9.535  66.992  1.00  0.00    -0.138 OA 
BRANCH  12  14
HETATM   14  N   UNL     1      -9.538   7.972  66.264  1.00  0.00    -0.380 N  
HETATM   15  H   UNL     1      -9.933   7.356  65.554  1.00  0.00     0.000 HD 
BRANCH  14  16
HETATM   16  C   UNL     1      -8.089   8.230  66.200  1.00  0.00    -0.111 C  
BRANCH  16  17
HETATM   17  C   UNL     1      -7.945   9.566  65.437  1.00  0.00    -0.113 C  
HETATM   18  H   UNL     1      -7.367  11.508  65.468  1.00  0.00     0.000 HD 
HETATM   19  N   UNL     1      -7.599  10.721  66.075  1.00  0.00    -0.148 N  
HETATM   20  O   UNL     1      -8.093   9.605  64.209  1.00  0.00    -0.129 OA 
BRANCH  19  21
HETATM   21  C   UNL     1      -7.515  10.985  67.508  1.00  0.00    -0.102 C  
BRANCH  21  22
HETATM   22  C   UNL     1      -6.100  11.423  67.930  1.00  0.00    -0.050 C  
BRANCH  22  23
HETATM   23  C   UNL     1      -6.026  12.808  68.525  1.00  0.00    -0.062 A  
HETATM   24  C   UNL     1      -6.073  14.247  70.478  1.00  0.00    -0.180 A  
HETATM   25  C   UNL     1      -5.901  15.219  68.276  1.00  0.00    -0.121 A  
HETATM   26  C   UNL     1      -5.939  13.946  67.708  1.00  0.00    -0.117 A  
HETATM   27  C   UNL     1      -6.100  12.973  69.914  1.00  0.00    -0.125 A  
HETATM   28  C   UNL     1      -5.975  15.373  69.656  1.00  0.00    -0.130 A  
ENDBRANCH  22  23
ENDBRANCH  21  22
BRANCH  21  29
HETATM   29  C   UNL     1      -8.595  11.997  67.932  1.00  0.00    -0.165 C  
BRANCH  29  30
HETATM   30  C   UNL     1      -9.310  12.762  66.802  1.00  0.00    -0.241 C  
BRANCH  30  31
HETATM   31  C   UNL     1     -10.139  13.960  67.321  1.00  0.00    -0.242 C  
BRANCH  31  32
HETATM   32  C   UNL     1     -11.628  13.560  67.473  1.00  0.00    -0.385 C  
BRANCH  32  33
HETATM   33  C   UNL     1     -11.967  13.082  68.867  1.00  0.00    -0.303 A  
HETATM   34  C   UNL     1     -11.972  11.715  69.174  1.00  0.00    -0.378 A  
HETATM   35  C   UNL     1     -12.341  11.272  70.445  1.00  0.00    -0.415 A  
HETATM   36  C   UNL     1     -12.304  14.000  69.874  1.00  0.00    -0.367 A  
HETATM   37  C   UNL     1     -12.682  13.559  71.139  1.00  0.00    -0.425 A  
HETATM   38  C   UNL     1     -12.709  12.196  71.423  1.00  0.00    -0.368 A  
ENDBRANCH  32  33
ENDBRANCH  31  32
BRANCH  31  39
HETATM   39  N   UNL     1      -9.995  15.128  66.455  1.00  0.00    -0.258 N  
HETATM   40  C   UNL     1     -10.363  16.379  66.859  1.00  0.00    -0.300 C  
HETATM   41  H   UNL     1      -9.607  15.005  65.519  1.00  0.00     0.000 HD 
HETATM   42  O   UNL     1     -10.890  16.631  67.933  1.00  0.00    -0.347 OA 
BRANCH  40  43
HETATM   43  O   UNL     1     -10.029  17.293  65.919  1.00  0.00    -0.490 OA 
BRANCH  43  44
HETATM   44  C   UNL     1     -10.397  18.640  66.245  1.00  0.00    -0.444 C  
BRANCH  44  45
HETATM   45  C   UNL     1      -9.157  19.385  66.597  1.00  0.00    -0.346 A  
HETATM   46  N   UNL     1      -7.739  21.059  67.422  1.00  0.00    -0.296 NA 
HETATM   47  C   UNL     1      -9.018  20.539  67.345  1.00  0.00    -0.297 A  
HETATM   48  C   UNL     1      -6.920  20.285  66.745  1.00  0.00    -0.251 A  
HETATM   49  S   UNL     1      -7.620  18.906  66.002  1.00  0.00    -0.181 SA 
ENDBRANCH  44  45
ENDBRANCH  43  44
ENDBRANCH  40  43
ENDBRANCH  31  39
ENDBRANCH  30  31
ENDBRANCH  29  30
ENDBRANCH  21  29
ENDBRANCH  19  21
ENDBRANCH  16  17
BRANCH  16  50
HETATM   50  C   UNL     1      -7.381   7.129  65.393  1.00  0.00    -0.080 C  
BRANCH  50  51
HETATM   51  C   UNL     1      -8.301   5.948  65.103  1.00  0.00    -0.143 C  
BRANCH  51  52
HETATM   52  N   UNL     1      -8.588   5.081  66.263  1.00  0.00    -0.112 NA 
HETATM   53  O   UNL     1      -7.827   2.384  65.352  1.00  0.00    -0.076 OA 
HETATM   54  C   UNL     1      -9.010   3.022  64.849  1.00  0.00    -0.132 C  
HETATM   55  C   UNL     1      -9.578   4.048  65.853  1.00  0.00    -0.193 C  
HETATM   56  C   UNL     1      -6.834   3.344  65.744  1.00  0.00    -0.052 C  
HETATM   57  C   UNL     1      -7.399   4.350  66.760  1.00  0.00    -0.080 C  
ENDBRANCH  51  52
ENDBRANCH  50  51
ENDBRANCH  16  50
ENDBRANCH  14  16
ENDBRANCH  12  14
ENDBRANCH  10  12
ENDBRANCH   9  10
ENDBRANCH   6   9
TORSDOF 21
ENDMDL
MODEL        6
REMARK 921   NORMALIZED FREE ENERGY PREDICTED BY IDOCK:   -5.32 KCAL/MOL
REMARK 922        TOTAL FREE ENERGY PREDICTED BY IDOCK:  -15.37 KCAL/MOL
REMARK 923 INTER-LIGAND FREE ENERGY PREDICTED BY IDOCK:  -12.00 KCAL/MOL
REMARK 924 INTRA-LIGAND FREE ENERGY PREDICTED BY IDOCK:   -3.37 KCAL/MOL
REMARK 927      BINDING AFFINITY PREDICTED BY RF-SCORE:    0.00 PKD
ROOT
HETATM    1  C   UNL     1     -13.664   8.647  71.716  1.00  0.00    -0.456 C  
HETATM    2  C   UNL     1     -13.201   9.944  71.053  1.00  0.00    -0.375 C  
HETATM    3  C   UNL     1     -11.807   9.801  70.486  1.00  0.00    -0.240 A  
HETATM    4  C   UNL     1     -13.288  11.112  72.036  1.00  0.00    -0.384 C  
HETATM    5  N   UNL     1     -10.730   9.447  71.164  1.00  0.00    -0.324 NA 
HETATM    6  C   UNL     1      -9.610   9.419  70.326  1.00  0.00    -0.249 A  
HETATM    7  C   UNL     1      -9.878   9.761  69.014  1.00  0.00    -0.181 A  
HETATM    8  S   UNL     1     -11.539  10.117  68.814  1.00  0.00     0.153 SA 
ENDROOT
BRANCH   6   9
HETATM    9  C   UNL     1      -8.245   9.116  70.892  1.00  0.00    -0.177 C  
BRANCH   9  10
HETATM   10  N   UNL     1      -7.158   9.661  70.070  1.00  0.00    -0.087 N  
HETATM   11  C   UNL     1      -6.093   8.740  69.691  1.00  0.00    -0.032 C  
BRANCH  10  12
HETATM   12  C   UNL     1      -6.961  11.041  70.076  1.00  0.00     0.038 C  
HETATM   13  O   UNL     1      -6.194  11.614  70.845  1.00  0.00    -0.276 OA 
BRANCH  12  14
HETATM   14  N   UNL     1      -7.627  11.716  69.094  1.00  0.00    -0.319 N  
HETATM   15  H   UNL     1      -8.483  12.202  69.360  1.00  0.00     0.000 HD 
BRANCH  14  16
HETATM   16  C   UNL     1      -7.217  11.804  67.681  1.00  0.00    -0.111 C  
BRANCH  16  17
HETATM   17  C   UNL     1      -6.367  13.091  67.582  1.00  0.00    -0.161 C  
HETATM   18  H   UNL     1      -6.231  15.087  67.899  1.00  0.00     0.000 HD 
HETATM   19  N   UNL     1      -6.902  14.322  67.826  1.00  0.00    -0.164 N  
HETATM   20  O   UNL     1      -5.159  13.026  67.324  1.00  0.00    -0.325 OA 
BRANCH  19  21
HETATM   21  C   UNL     1      -8.303  14.693  67.998  1.00  0.00    -0.146 C  
BRANCH  21  22
HETATM   22  C   UNL     1      -8.646  14.975  69.473  1.00  0.00    -0.069 C  
BRANCH  22  23
HETATM   23  C   UNL     1     -10.097  14.764  69.829  1.00  0.00     0.059 A  
HETATM   24  C   UNL     1     -11.952  15.149  71.346  1.00  0.00    -0.408 A  
HETATM   25  C   UNL     1     -12.251  13.722  69.423  1.00  0.00    -0.325 A  
HETATM   26  C   UNL     1     -10.920  13.928  69.060  1.00  0.00    -0.281 A  
HETATM   27  C   UNL     1     -10.625  15.365  70.979  1.00  0.00     0.077 A  
HETATM   28  C   UNL     1     -12.767  14.324  70.566  1.00  0.00    -0.391 A  
ENDBRANCH  22  23
ENDBRANCH  21  22
BRANCH  21  29
HETATM   29  C   UNL     1      -8.663  15.872  67.076  1.00  0.00    -0.248 C  
BRANCH  29  30
HETATM   30  C   UNL     1      -9.529  15.548  65.843  1.00  0.00    -0.377 C  
BRANCH  30  31
HETATM   31  C   UNL     1     -10.811  16.410  65.768  1.00  0.00    -0.145 C  
BRANCH  31  32
HETATM   32  C   UNL     1     -11.740  15.898  64.640  1.00  0.00    -0.117 C  
BRANCH  32  33
HETATM   33  C   UNL     1     -11.806  14.389  64.572  1.00  0.00    -0.463 A  
HETATM   34  C   UNL     1     -11.805  13.726  63.338  1.00  0.00     0.037 A  
HETATM   35  C   UNL     1     -11.923  12.337  63.276  1.00  0.00    -0.499 A  
HETATM   36  C   UNL     1     -11.889  13.626  65.747  1.00  0.00    -0.397 A  
HETATM   37  C   UNL     1     -12.018  12.241  65.686  1.00  0.00    -0.373 A  
HETATM   38  C   UNL     1     -12.042  11.597  64.451  1.00  0.00    -0.085 A  
ENDBRANCH  32  33
ENDBRANCH  31  32
BRANCH  31  39
HETATM   39  N   UNL     1     -10.496  17.826  65.588  1.00  0.00    -0.246 N  
HETATM   40  C   UNL     1     -10.653  18.736  66.593  1.00  0.00    -0.383 C  
HETATM   41  H   UNL     1     -10.149  18.144  64.682  1.00  0.00     0.000 HD 
HETATM   42  O   UNL     1     -11.115  18.475  67.695  1.00  0.00    -0.260 OA 
BRANCH  40  43
HETATM   43  O   UNL     1     -10.193  19.948  66.205  1.00  0.00    -0.446 OA 
BRANCH  43  44
HETATM   44  C   UNL     1      -9.465  20.657  67.217  1.00  0.00    -0.379 C  
BRANCH  44  45
HETATM   45  C   UNL     1      -8.211  19.904  67.496  1.00  0.00    -0.322 A  
HETATM   46  N   UNL     1      -6.633  18.558  68.588  1.00  0.00    -0.238 NA 
HETATM   47  C   UNL     1      -7.930  19.036  68.535  1.00  0.00    -0.346 A  
HETATM   48  C   UNL     1      -5.951  19.056  67.581  1.00  0.00    -0.199 A  
HETATM   49  S   UNL     1      -6.811  20.095  66.521  1.00  0.00    -0.235 SA 
ENDBRANCH  44  45
ENDBRANCH  43  44
ENDBRANCH  40  43
ENDBRANCH  31  39
ENDBRANCH  30  31
ENDBRANCH  29  30
ENDBRANCH  21  29
ENDBRANCH  19  21
ENDBRANCH  16  17
BRANCH  16  50
HETATM   50  C   UNL     1      -8.447  11.961  66.772  1.00  0.00    -0.167 C  
BRANCH  50  51
HETATM   51  C   UNL     1      -8.636  10.761  65.850  1.00  0.00    -0.179 C  
BRANCH  51  52
HETATM   52  N   UNL     1      -7.399  10.255  65.222  1.00  0.00    -0.145 NA 
HETATM   53  O   UNL     1      -8.252   7.808  63.820  1.00  0.00    -0.094 OA 
HETATM   54  C   UNL     1      -8.157   7.838  65.252  1.00  0.00    -0.133 C  
HETATM   55  C   UNL     1      -7.130   8.884  65.735  1.00  0.00    -0.084 C  
HETATM   56  C   UNL     1      -8.530   9.109  63.281  1.00  0.00    -0.195 C  
HETATM   57  C   UNL     1      -7.491  10.141  63.748  1.00  0.00    -0.126 C  
ENDBRANCH  51  52
ENDBRANCH  50  51
ENDBRANCH  16  50
ENDBRANCH  14  16
ENDBRANCH  12  14
ENDBRANCH  10  12
ENDBRANCH   9  10
ENDBRANCH   6   9
TORSDOF 21
ENDMDL
MODEL        7
REMARK 921   NORMALIZED FREE ENERGY PREDICTED BY IDOCK:   -5.20 KCAL/MOL
REMARK 922        TOTAL FREE ENERGY PREDICTED BY IDOCK:  -15.10 KCAL/MOL
REMARK 923 INTER-LIGAND FREE ENERGY PREDICTED BY IDOCK:  -11.94 KCAL/MOL
REMARK 924 INTRA-LIGAND FREE ENERGY PREDICTED BY IDOCK:   -3.17 KCAL/MOL
REMARK 927      BINDING AFFINITY PREDICTED BY RF-SCORE:    0.00 PKD
ROOT
HETATM    1  C   UNL     1      -9.718   6.697  74.059  1.00  0.00    -0.287 C  
HETATM    2  C   UNL     1      -9.970   5.446  73.217  1.00  0.00    -0.188 C  
HETATM    3  C   UNL     1      -9.223   5.511  71.904  1.00  0.00    -0.141 A  
HETATM    4  C   UNL     1     -11.468   5.236  72.999  1.00  0.00    -0.340 C  
HETATM    5  N   UNL     1      -9.331   6.468  71.001  1.00  0.00    -0.160 NA 
HETATM    6  C   UNL     1      -8.498   6.208  69.908  1.00  0.00    -0.129 A  
HETATM    7  C   UNL     1      -7.772   5.037  70.018  1.00  0.00    -0.063 A  
HETATM    8  S   UNL     1      -8.120   4.252  71.497  1.00  0.00    -0.088 SA 
ENDROOT
BRANCH   6   9
HETATM    9  C   UNL     1      -8.508   7.124  68.709  1.00  0.00    -0.126 C  
BRANCH   9  10
HETATM   10  N   UNL     1      -9.836   7.240  68.097  1.00  0.00    -0.145 N  
HETATM   11  C   UNL     1     -10.714   6.081  68.202  1.00  0.00    -0.278 C  
BRANCH  10  12
HETATM   12  C   UNL     1     -10.019   8.206  67.108  1.00  0.00    -0.236 C  
HETATM   13  O   UNL     1     -10.699   9.216  67.264  1.00  0.00    -0.262 OA 
BRANCH  12  14
HETATM   14  N   UNL     1      -9.308   7.990  65.962  1.00  0.00    -0.378 N  
HETATM   15  H   UNL     1      -9.791   7.525  65.195  1.00  0.00     0.000 HD 
BRANCH  14  16
HETATM   16  C   UNL     1      -7.903   8.372  65.739  1.00  0.00    -0.101 C  
BRANCH  16  17
HETATM   17  C   UNL     1      -7.942   9.867  65.351  1.00  0.00    -0.134 C  
HETATM   18  H   UNL     1      -7.535  11.785  65.861  1.00  0.00     0.000 HD 
HETATM   19  N   UNL     1      -7.643  10.849  66.250  1.00  0.00    -0.145 N  
HETATM   20  O   UNL     1      -8.201  10.207  64.189  1.00  0.00    -0.156 OA 
BRANCH  19  21
HETATM   21  C   UNL     1      -7.456  10.740  67.694  1.00  0.00    -0.095 C  
BRANCH  21  22
HETATM   22  C   UNL     1      -6.004  11.044  68.110  1.00  0.00    -0.049 C  
BRANCH  22  23
HETATM   23  C   UNL     1      -5.807  12.396  68.750  1.00  0.00    -0.063 A  
HETATM   24  C   UNL     1      -5.575  13.743  70.755  1.00  0.00    -0.180 A  
HETATM   25  C   UNL     1      -5.615  14.810  68.591  1.00  0.00    -0.093 A  
HETATM   26  C   UNL     1      -5.768  13.567  67.978  1.00  0.00    -0.124 A  
HETATM   27  C   UNL     1      -5.716  12.498  70.144  1.00  0.00    -0.155 A  
HETATM   28  C   UNL     1      -5.525  14.902  69.976  1.00  0.00    -0.113 A  
ENDBRANCH  22  23
ENDBRANCH  21  22
BRANCH  21  29
HETATM   29  C   UNL     1      -8.477  11.622  68.435  1.00  0.00    -0.157 C  
BRANCH  29  30
HETATM   30  C   UNL     1      -9.251  12.648  67.587  1.00  0.00    -0.191 C  
BRANCH  30  31
HETATM   31  C   UNL     1     -10.569  13.107  68.256  1.00  0.00    -0.248 C  
BRANCH  31  32
HETATM   32  C   UNL     1     -11.782  12.411  67.592  1.00  0.00    -0.412 C  
BRANCH  32  33
HETATM   33  C   UNL     1     -11.848  12.642  66.099  1.00  0.00    -0.477 A  
HETATM   34  C   UNL     1     -12.416  13.813  65.580  1.00  0.00    -0.548 A  
HETATM   35  C   UNL     1     -12.527  13.999  64.202  1.00  0.00    -0.279 A  
HETATM   36  C   UNL     1     -11.358  11.678  65.206  1.00  0.00    -0.220 A  
HETATM   37  C   UNL     1     -11.479  11.857  63.830  1.00  0.00    -0.511 A  
HETATM   38  C   UNL     1     -12.070  13.014  63.328  1.00  0.00    -0.499 A  
ENDBRANCH  32  33
ENDBRANCH  31  32
BRANCH  31  39
HETATM   39  N   UNL     1     -10.712  14.560  68.219  1.00  0.00    -0.236 N  
HETATM   40  C   UNL     1     -11.240  15.263  69.264  1.00  0.00    -0.284 C  
HETATM   41  H   UNL     1     -10.407  15.066  67.387  1.00  0.00     0.000 HD 
HETATM   42  O   UNL     1     -11.688  14.754  70.281  1.00  0.00    -0.268 OA 
BRANCH  40  43
HETATM   43  O   UNL     1     -11.163  16.592  69.023  1.00  0.00    -0.305 OA 
BRANCH  43  44
HETATM   44  C   UNL     1      -9.829  17.082  68.829  1.00  0.00    -0.278 C  
BRANCH  44  45
HETATM   45  C   UNL     1      -9.895  18.247  67.905  1.00  0.00    -0.317 A  
HETATM   46  N   UNL     1      -9.886  20.457  67.124  1.00  0.00    -0.457 NA 
HETATM   47  C   UNL     1      -9.647  19.581  68.168  1.00  0.00    -0.368 A  
HETATM   48  C   UNL     1     -10.297  19.775  66.078  1.00  0.00    -0.511 A  
HETATM   49  S   UNL     1     -10.404  18.074  66.275  1.00  0.00    -0.334 SA 
ENDBRANCH  44  45
ENDBRANCH  43  44
ENDBRANCH  40  43
ENDBRANCH  31  39
ENDBRANCH  30  31
ENDBRANCH  29  30
ENDBRANCH  21  29
ENDBRANCH  19  21
ENDBRANCH  16  17
BRANCH  16  50
HETATM   50  C   UNL     1      -7.310   7.579  64.562  1.00  0.00    -0.087 C  
BRANCH  50  51
HETATM   51  C   UNL     1      -8.254   6.487  64.072  1.00  0.00     0.043 C  
BRANCH  51  52
HETATM   52  N   UNL     1      -7.838   5.108  64.403  1.00  0.00    -0.091 NA 
HETATM   53  O   UNL     1     -10.204   3.471  63.769  1.00  0.00    -0.181 OA 
HETATM   54  C   UNL     1     -10.192   4.329  64.919  1.00  0.00    -0.175 C  
HETATM   55  C   UNL     1      -8.759   4.568  65.440  1.00  0.00    -0.129 C  
HETATM   56  C   UNL     1      -9.342   3.964  62.733  1.00  0.00    -0.113 C  
HETATM   57  C   UNL     1      -7.911   4.179  63.251  1.00  0.00    -0.074 C  
ENDBRANCH  51  52
ENDBRANCH  50  51
ENDBRANCH  16  50
ENDBRANCH  14  16
ENDBRANCH  12  14
ENDBRANCH  10  12
ENDBRANCH   9  10
ENDBRANCH   6   9
TORSDOF 21
ENDMDL
MODEL        8
REMARK 921   NORMALIZED FREE ENERGY PREDICTED BY IDOCK:   -5.08 KCAL/MOL
REMARK 922        TOTAL FREE ENERGY PREDICTED BY IDOCK:  -14.85 KCAL/MOL
REMARK 923 INTER-LIGAND FREE ENERGY PREDICTED BY IDOCK:  -12.70 KCAL/MOL
REMARK 924 INTRA-LIGAND FREE ENERGY PREDICTED BY IDOCK:   -2.15 KCAL/MOL
REMARK 927      BINDING AFFINITY PREDICTED BY RF-SCORE:    0.00 PKD
ROOT
HETATM    1  C   UNL     1      -7.434   5.207  70.133  1.00  0.00    -0.063 C  
HETATM    2  C   UNL     1      -7.350   5.280  71.658  1.00  0.00    -0.085 C  
HETATM    3  C   UNL     1      -8.653   5.762  72.253  1.00  0.00    -0.125 A  
HETATM    4  C   UNL     1      -6.178   6.160  72.091  1.00  0.00    -0.042 C  
HETATM    5  N   UNL     1      -9.262   6.897  71.963  1.00  0.00    -0.141 NA 
HETATM    6  C   UNL     1     -10.444   7.023  72.701  1.00  0.00    -0.226 A  
HETATM    7  C   UNL     1     -10.697   5.959  73.546  1.00  0.00    -0.259 A  
HETATM    8  S   UNL     1      -9.460   4.785  73.421  1.00  0.00    -0.121 SA 
ENDROOT
BRANCH   6   9
HETATM    9  C   UNL     1     -11.275   8.278  72.597  1.00  0.00    -0.340 C  
BRANCH   9  10
HETATM   10  N   UNL     1     -11.958   8.398  71.304  1.00  0.00    -0.288 N  
HETATM   11  C   UNL     1     -12.470   7.168  70.712  1.00  0.00    -0.187 C  
BRANCH  10  12
HETATM   12  C   UNL     1     -11.699   9.528  70.529  1.00  0.00    -0.222 C  
HETATM   13  O   UNL     1     -11.913  10.676  70.910  1.00  0.00    -0.332 OA 
BRANCH  12  14
HETATM   14  N   UNL     1     -11.100   9.271  69.330  1.00  0.00    -0.434 N  
HETATM   15  H   UNL     1     -11.290   8.367  68.898  1.00  0.00     0.000 HD 
BRANCH  14  16
HETATM   16  C   UNL     1     -10.202  10.186  68.604  1.00  0.00    -0.176 C  
BRANCH  16  17
HETATM   17  C   UNL     1      -8.850  10.108  69.348  1.00  0.00    -0.185 C  
HETATM   18  H   UNL     1      -6.899  10.648  69.426  1.00  0.00     0.000 HD 
HETATM   19  N   UNL     1      -7.701  10.595  68.797  1.00  0.00    -0.108 N  
HETATM   20  O   UNL     1      -8.791   9.642  70.492  1.00  0.00    -0.225 OA 
BRANCH  19  21
HETATM   21  C   UNL     1      -7.462  11.049  67.430  1.00  0.00    -0.106 C  
BRANCH  21  22
HETATM   22  C   UNL     1      -8.290  10.251  66.406  1.00  0.00    -0.132 C  
BRANCH  22  23
HETATM   23  C   UNL     1      -7.754   8.872  66.106  1.00  0.00    -0.098 A  
HETATM   24  C   UNL     1      -8.137   6.487  65.884  1.00  0.00    -0.125 A  
HETATM   25  C   UNL     1      -5.908   7.374  65.622  1.00  0.00    -0.037 A  
HETATM   26  C   UNL     1      -6.388   8.660  65.868  1.00  0.00    -0.056 A  
HETATM   27  C   UNL     1      -8.621   7.772  66.119  1.00  0.00    -0.164 A  
HETATM   28  C   UNL     1      -6.776   6.287  65.636  1.00  0.00    -0.048 A  
ENDBRANCH  22  23
ENDBRANCH  21  22
BRANCH  21  29
HETATM   29  C   UNL     1      -7.697  12.567  67.321  1.00  0.00    -0.146 C  
BRANCH  29  30
HETATM   30  C   UNL     1      -7.397  13.407  68.576  1.00  0.00    -0.111 C  
BRANCH  30  31
HETATM   31  C   UNL     1      -7.861  14.876  68.440  1.00  0.00    -0.121 C  
BRANCH  31  32
HETATM   32  C   UNL     1      -6.717  15.843  68.828  1.00  0.00    -0.125 C  
BRANCH  32  33
HETATM   33  C   UNL     1      -6.724  17.119  68.015  1.00  0.00    -0.166 A  
HETATM   34  C   UNL     1      -7.015  18.351  68.617  1.00  0.00    -0.281 A  
HETATM   35  C   UNL     1      -7.077  19.517  67.855  1.00  0.00    -0.295 A  
HETATM   36  C   UNL     1      -6.459  17.088  66.638  1.00  0.00    -0.262 A  
HETATM   37  C   UNL     1      -6.531  18.250  65.875  1.00  0.00    -0.294 A  
HETATM   38  C   UNL     1      -6.848  19.463  66.481  1.00  0.00    -0.203 A  
ENDBRANCH  32  33
ENDBRANCH  31  32
BRANCH  31  39
HETATM   39  N   UNL     1      -9.061  15.135  69.233  1.00  0.00    -0.313 N  
HETATM   40  C   UNL     1      -9.996  16.054  68.852  1.00  0.00    -0.232 C  
HETATM   41  H   UNL     1      -9.204  14.613  70.098  1.00  0.00     0.000 HD 
HETATM   42  O   UNL     1      -9.897  16.774  67.868  1.00  0.00    -0.247 OA 
BRANCH  40  43
HETATM   43  O   UNL     1     -11.053  16.026  69.696  1.00  0.00    -0.282 OA 
BRANCH  43  44
HETATM   44  C   UNL     1     -11.741  14.768  69.741  1.00  0.00    -0.310 C  
BRANCH  44  45
HETATM   45  C   UNL     1     -12.253  14.572  71.126  1.00  0.00    -0.345 A  
HETATM   46  N   UNL     1     -13.546  13.791  72.918  1.00  0.00    -0.632 NA 
HETATM   47  C   UNL     1     -13.198  13.673  71.584  1.00  0.00    -0.367 A  
HETATM   48  C   UNL     1     -12.849  14.766  73.458  1.00  0.00    -0.404 A  
HETATM   49  S   UNL     1     -11.746  15.574  72.423  1.00  0.00    -0.465 SA 
ENDBRANCH  44  45
ENDBRANCH  43  44
ENDBRANCH  40  43
ENDBRANCH  31  39
ENDBRANCH  30  31
ENDBRANCH  29  30
ENDBRANCH  21  29
ENDBRANCH  19  21
ENDBRANCH  16  17
BRANCH  16  50
HETATM   50  C   UNL     1     -10.722  11.631  68.689  1.00  0.00    -0.246 C  
BRANCH  50  51
HETATM   51  C   UNL     1     -11.578  12.005  67.484  1.00  0.00    -0.330 C  
BRANCH  51  52
HETATM   52  N   UNL     1     -10.859  12.704  66.399  1.00  0.00    -0.264 NA 
HETATM   53  O   UNL     1     -12.995  13.609  64.585  1.00  0.00    -0.661 OA 
HETATM   54  C   UNL     1     -12.638  12.222  64.663  1.00  0.00    -0.289 C  
HETATM   55  C   UNL     1     -11.173  12.032  65.109  1.00  0.00    -0.315 C  
HETATM   56  C   UNL     1     -12.726  14.295  65.816  1.00  0.00    -0.340 C  
HETATM   57  C   UNL     1     -11.260  14.121  66.245  1.00  0.00    -0.329 C  
ENDBRANCH  51  52
ENDBRANCH  50  51
ENDBRANCH  16  50
ENDBRANCH  14  16
ENDBRANCH  12  14
ENDBRANCH  10  12
ENDBRANCH   9  10
ENDBRANCH   6   9
TORSDOF 21
ENDMDL
MODEL        9
REMARK 921   NORMALIZED FREE ENERGY PREDICTED BY IDOCK:   -4.91 KCAL/MOL
REMARK 922        TOTAL FREE ENERGY PREDICTED BY IDOCK:  -14.46 KCAL/MOL
REMARK 923 INTER-LIGAND FREE ENERGY PREDICTED BY IDOCK:  -10.23 KCAL/MOL
REMARK 924 INTRA-LIGAND FREE ENERGY PREDICTED BY IDOCK:   -4.23 KCAL/MOL
REMARK 927      BINDING AFFINITY PREDICTED BY RF-SCORE:    0.00 PKD
ROOT
HETATM    1  C   UNL     1     -14.379   8.307  71.382  1.00  0.00    -0.461 C  
HETATM    2  C   UNL     1     -13.379   9.175  72.147  1.00  0.00    -0.525 C  
HETATM    3  C   UNL     1     -13.048  10.434  71.376  1.00  0.00    -0.413 A  
HETATM    4  C   UNL     1     -12.119   8.378  72.482  1.00  0.00    -0.403 C  
HETATM    5  N   UNL     1     -12.564  10.483  70.149  1.00  0.00    -0.251 NA 
HETATM    6  C   UNL     1     -12.375  11.810  69.749  1.00  0.00    -0.111 A  
HETATM    7  C   UNL     1     -12.727  12.743  70.706  1.00  0.00    -0.136 A  
HETATM    8  S   UNL     1     -13.305  11.968  72.117  1.00  0.00    -0.040 SA 
ENDROOT
BRANCH   6   9
HETATM    9  C   UNL     1     -11.755  12.120  68.409  1.00  0.00    -0.332 C  
BRANCH   9  10
HETATM   10  N   UNL     1     -11.565  13.559  68.192  1.00  0.00    -0.311 N  
HETATM   11  C   UNL     1     -12.280  14.156  67.071  1.00  0.00    -0.339 C  
BRANCH  10  12
HETATM   12  C   UNL     1     -10.430  14.158  68.737  1.00  0.00    -0.247 C  
HETATM   13  O   UNL     1     -10.469  15.137  69.478  1.00  0.00    -0.244 OA 
BRANCH  12  14
HETATM   14  N   UNL     1      -9.257  13.520  68.455  1.00  0.00    -0.272 N  
HETATM   15  H   UNL     1      -8.858  12.932  69.187  1.00  0.00     0.000 HD 
BRANCH  14  16
HETATM   16  C   UNL     1      -8.516  13.605  67.184  1.00  0.00    -0.174 C  
BRANCH  16  17
HETATM   17  C   UNL     1      -9.043  12.434  66.324  1.00  0.00    -0.097 C  
HETATM   18  H   UNL     1      -9.434  10.452  66.177  1.00  0.00     0.000 HD 
HETATM   19  N   UNL     1      -8.912  11.137  66.724  1.00  0.00    -0.160 N  
HETATM   20  O   UNL     1      -9.645  12.655  65.266  1.00  0.00    -0.089 OA 
BRANCH  19  21
HETATM   21  C   UNL     1      -8.128  10.595  67.830  1.00  0.00    -0.111 C  
BRANCH  21  22
HETATM   22  C   UNL     1      -9.013  10.221  69.034  1.00  0.00    -0.175 C  
BRANCH  22  23
HETATM   23  C   UNL     1      -8.272   9.579  70.181  1.00  0.00    -0.192 A  
HETATM   24  C   UNL     1      -8.319   8.298  72.241  1.00  0.00    -0.229 A  
HETATM   25  C   UNL     1      -6.222   9.156  71.409  1.00  0.00    -0.078 A  
HETATM   26  C   UNL     1      -6.885   9.733  70.325  1.00  0.00    -0.123 A  
HETATM   27  C   UNL     1      -8.982   8.863  71.153  1.00  0.00    -0.305 A  
HETATM   28  C   UNL     1      -6.935   8.446  72.370  1.00  0.00    -0.108 A  
ENDBRANCH  22  23
ENDBRANCH  21  22
BRANCH  21  29
HETATM   29  C   UNL     1      -7.264   9.416  67.348  1.00  0.00    -0.087 C  
BRANCH  29  30
HETATM   30  C   UNL     1      -7.679   8.747  66.024  1.00  0.00    -0.097 C  
BRANCH  30  31
HETATM   31  C   UNL     1      -8.444   7.420  66.236  1.00  0.00    -0.137 C  
BRANCH  31  32
HETATM   32  C   UNL     1      -7.858   6.645  67.441  1.00  0.00    -0.113 C  
BRANCH  32  33
HETATM   33  C   UNL     1      -8.908   6.264  68.461  1.00  0.00    -0.114 A  
HETATM   34  C   UNL     1     -10.233   6.698  68.322  1.00  0.00    -0.190 A  
HETATM   35  C   UNL     1     -11.187   6.393  69.293  1.00  0.00    -0.440 A  
HETATM   36  C   UNL     1      -8.568   5.485  69.577  1.00  0.00    -0.105 A  
HETATM   37  C   UNL     1      -9.517   5.188  70.552  1.00  0.00    -0.229 A  
HETATM   38  C   UNL     1     -10.824   5.649  70.414  1.00  0.00    -0.326 A  
ENDBRANCH  32  33
ENDBRANCH  31  32
BRANCH  31  39
HETATM   39  N   UNL     1      -8.436   6.597  65.028  1.00  0.00    -0.322 N  
HETATM   40  C   UNL     1      -7.279   6.114  64.488  1.00  0.00    -0.064 C  
HETATM   41  H   UNL     1      -9.323   6.377  64.575  1.00  0.00     0.000 HD 
HETATM   42  O   UNL     1      -6.161   6.364  64.915  1.00  0.00    -0.029 OA 
BRANCH  40  43
HETATM   43  O   UNL     1      -7.553   5.299  63.444  1.00  0.00    -0.058 OA 
BRANCH  43  44
HETATM   44  C   UNL     1      -7.500   3.900  63.755  1.00  0.00    -0.055 C  
BRANCH  44  45
HETATM   45  C   UNL     1      -8.816   3.298  63.401  1.00  0.00    -0.092 A  
HETATM   46  N   UNL     1     -10.986   3.066  62.549  1.00  0.00    -0.153 NA 
HETATM   47  C   UNL     1      -9.829   3.821  62.620  1.00  0.00    -0.137 A  
HETATM   48  C   UNL     1     -10.831   1.974  63.263  1.00  0.00    -0.215 A  
HETATM   49  S   UNL     1      -9.311   1.782  64.036  1.00  0.00    -0.126 SA 
ENDBRANCH  44  45
ENDBRANCH  43  44
ENDBRANCH  40  43
ENDBRANCH  31  39
ENDBRANCH  30  31
ENDBRANCH  29  30
ENDBRANCH  21  29
ENDBRANCH  19  21
ENDBRANCH  16  17
BRANCH  16  50
HETATM   50  C   UNL     1      -7.011  13.396  67.422  1.00  0.00    -0.098 C  
BRANCH  50  51
HETATM   51  C   UNL     1      -6.313  14.681  67.852  1.00  0.00    -0.159 C  
BRANCH  51  52
HETATM   52  N   UNL     1      -7.196  15.698  68.460  1.00  0.00    -0.117 NA 
HETATM   53  O   UNL     1      -5.702  18.219  68.165  1.00  0.00    -0.163 OA 
HETATM   54  C   UNL     1      -5.286  17.227  69.115  1.00  0.00    -0.155 C  
HETATM   55  C   UNL     1      -6.468  16.351  69.582  1.00  0.00    -0.201 C  
HETATM   56  C   UNL     1      -6.394  17.631  67.054  1.00  0.00    -0.161 C  
HETATM   57  C   UNL     1      -7.583  16.778  67.524  1.00  0.00    -0.158 C  
ENDBRANCH  51  52
ENDBRANCH  50  51
ENDBRANCH  16  50
ENDBRANCH  14  16
ENDBRANCH  12  14
ENDBRANCH  10  12
ENDBRANCH   9  10
ENDBRANCH   6   9
TORSDOF 21
ENDMDL
MODEL       10
REMARK 921   NORMALIZED FREE ENERGY PREDICTED BY IDOCK:   -4.73 KCAL/MOL
REMARK 922        TOTAL FREE ENERGY PREDICTED BY IDOCK:  -14.06 KCAL/MOL
REMARK 923 INTER-LIGAND FREE ENERGY PREDICTED BY IDOCK:  -10.79 KCAL/MOL
REMARK 924 INTRA-LIGAND FREE ENERGY PREDICTED BY IDOCK:   -3.28 KCAL/MOL
REMARK 927      BINDING AFFINITY PREDICTED BY RF-SCORE:    0.00 PKD
ROOT
HETATM    1  C   UNL     1     -10.577   5.225  66.399  1.00  0.00    -0.338 C  
HETATM    2  C   UNL     1      -9.266   4.579  66.849  1.00  0.00    -0.142 C  
HETATM    3  C   UNL     1      -9.394   3.992  68.236  1.00  0.00    -0.160 A  
HETATM    4  C   UNL     1      -8.116   5.582  66.770  1.00  0.00    -0.105 C  
HETATM    5  N   UNL     1      -9.756   4.651  69.322  1.00  0.00    -0.186 NA 
HETATM    6  C   UNL     1      -9.766   3.798  70.432  1.00  0.00    -0.154 A  
HETATM    7  C   UNL     1      -9.403   2.496  70.146  1.00  0.00    -0.117 A  
HETATM    8  S   UNL     1      -9.050   2.322  68.482  1.00  0.00    -0.174 SA 
ENDROOT
BRANCH   6   9
HETATM    9  C   UNL     1     -10.073   4.342  71.805  1.00  0.00    -0.157 C  
BRANCH   9  10
HETATM   10  N   UNL     1      -8.916   4.290  72.706  1.00  0.00    -0.106 N  
HETATM   11  C   UNL     1      -8.900   3.223  73.699  1.00  0.00    -0.076 C  
BRANCH  10  12
HETATM   12  C   UNL     1      -8.163   5.452  72.872  1.00  0.00    -0.109 C  
HETATM   13  O   UNL     1      -7.600   5.752  73.922  1.00  0.00    -0.096 OA 
BRANCH  12  14
HETATM   14  N   UNL     1      -8.021   6.205  71.742  1.00  0.00    -0.102 N  
HETATM   15  H   UNL     1      -7.751   5.718  70.888  1.00  0.00     0.000 HD 
BRANCH  14  16
HETATM   16  C   UNL     1      -8.224   7.661  71.650  1.00  0.00    -0.107 C  
BRANCH  16  17
HETATM   17  C   UNL     1      -6.804   8.271  71.617  1.00  0.00    -0.069 C  
HETATM   18  H   UNL     1      -5.618   9.837  71.122  1.00  0.00     0.000 HD 
HETATM   19  N   UNL     1      -6.537   9.430  70.949  1.00  0.00    -0.094 N  
HETATM   20  O   UNL     1      -5.880   7.740  72.246  1.00  0.00    -0.039 OA 
BRANCH  19  21
HETATM   21  C   UNL     1      -7.388  10.166  70.019  1.00  0.00    -0.165 C  
BRANCH  21  22
HETATM   22  C   UNL     1      -6.569  10.849  68.907  1.00  0.00    -0.056 C  
BRANCH  22  23
HETATM   23  C   UNL     1      -6.430  12.344  69.060  1.00  0.00    -0.097 A  
HETATM   24  C   UNL     1      -6.422  14.553  68.057  1.00  0.00    -0.158 A  
HETATM   25  C   UNL     1      -5.936  14.300  70.408  1.00  0.00    -0.171 A  
HETATM   26  C   UNL     1      -6.089  12.919  70.294  1.00  0.00    -0.068 A  
HETATM   27  C   UNL     1      -6.587  13.174  67.943  1.00  0.00    -0.137 A  
HETATM   28  C   UNL     1      -6.094  15.117  69.293  1.00  0.00    -0.109 A  
ENDBRANCH  22  23
ENDBRANCH  21  22
BRANCH  21  29
HETATM   29  C   UNL     1      -8.490   9.249  69.459  1.00  0.00    -0.144 C  
BRANCH  29  30
HETATM   30  C   UNL     1      -8.539   9.079  67.929  1.00  0.00    -0.125 C  
BRANCH  30  31
HETATM   31  C   UNL     1      -9.567  10.015  67.253  1.00  0.00    -0.156 C  
BRANCH  31  32
HETATM   32  C   UNL     1      -8.865  10.940  66.229  1.00  0.00    -0.187 C  
BRANCH  32  33
HETATM   33  C   UNL     1      -7.959  10.186  65.281  1.00  0.00    -0.145 A  
HETATM   34  C   UNL     1      -8.454   9.127  64.507  1.00  0.00    -0.195 A  
HETATM   35  C   UNL     1      -7.604   8.396  63.676  1.00  0.00    -0.132 A  
HETATM   36  C   UNL     1      -6.601  10.521  65.175  1.00  0.00    -0.037 A  
HETATM   37  C   UNL     1      -5.750   9.786  64.354  1.00  0.00    -0.089 A  
HETATM   38  C   UNL     1      -6.250   8.719  63.610  1.00  0.00    -0.081 A  
ENDBRANCH  32  33
ENDBRANCH  31  32
BRANCH  31  39
HETATM   39  N   UNL     1     -10.314  10.794  68.239  1.00  0.00    -0.165 N  
HETATM   40  C   UNL     1     -11.353  11.605  67.885  1.00  0.00    -0.299 C  
HETATM   41  H   UNL     1     -10.050  10.729  69.223  1.00  0.00     0.000 HD 
HETATM   42  O   UNL     1     -11.715  11.801  66.734  1.00  0.00    -0.555 OA 
BRANCH  40  43
HETATM   43  O   UNL     1     -11.939  12.125  68.988  1.00  0.00    -0.297 OA 
BRANCH  43  44
HETATM   44  C   UNL     1     -11.372  13.366  69.430  1.00  0.00    -0.226 C  
BRANCH  44  45
HETATM   45  C   UNL     1     -12.370  14.045  70.303  1.00  0.00    -0.358 A  
HETATM   46  N   UNL     1     -13.611  15.737  71.346  1.00  0.00    -0.491 NA 
HETATM   47  C   UNL     1     -12.713  15.383  70.355  1.00  0.00    -0.362 A  
HETATM   48  C   UNL     1     -13.952  14.662  72.021  1.00  0.00    -0.485 A  
HETATM   49  S   UNL     1     -13.239  13.187  71.509  1.00  0.00    -0.214 SA 
ENDBRANCH  44  45
ENDBRANCH  43  44
ENDBRANCH  40  43
ENDBRANCH  31  39
ENDBRANCH  30  31
ENDBRANCH  29  30
ENDBRANCH  21  29
ENDBRANCH  19  21
ENDBRANCH  16  17
BRANCH  16  50
HETATM   50  C   UNL     1      -8.950   8.186  72.900  1.00  0.00    -0.328 C  
BRANCH  50  51
HETATM   51  C   UNL     1     -10.465   8.089  72.766  1.00  0.00    -0.345 C  
BRANCH  51  52
HETATM   52  N   UNL     1     -11.011   8.571  71.480  1.00  0.00    -0.250 NA 
HETATM   53  O   UNL     1     -13.892   7.981  71.653  1.00  0.00    -0.366 OA 
HETATM   54  C   UNL     1     -12.936   6.926  71.473  1.00  0.00    -0.306 C  
HETATM   55  C   UNL     1     -11.654   7.428  70.776  1.00  0.00    -0.290 C  
HETATM   56  C   UNL     1     -13.319   9.100  72.346  1.00  0.00    -0.463 C  
HETATM   57  C   UNL     1     -12.055   9.610  71.636  1.00  0.00    -0.402 C  
ENDBRANCH  51  52
ENDBRANCH  50  51
ENDBRANCH  16  50
ENDBRANCH  14  16
ENDBRANCH  12  14
ENDBRANCH  10  12
ENDBRANCH   9  10
ENDBRANCH   6   9
TORSDOF 21
ENDMDL
MODEL       11
REMARK 921   NORMALIZED FREE ENERGY PREDICTED BY IDOCK:   -4.62 KCAL/MOL
REMARK 922        TOTAL FREE ENERGY PREDICTED BY IDOCK:  -13.81 KCAL/MOL
REMARK 923 INTER-LIGAND FREE ENERGY PREDICTED BY IDOCK:  -11.23 KCAL/MOL
REMARK 924 INTRA-LIGAND FREE ENERGY PREDICTED BY IDOCK:   -2.58 KCAL/MOL
REMARK 927      BINDING AFFINITY PREDICTED BY RF-SCORE:    0.00 PKD
ROOT
HETATM    1  C   UNL     1      -8.703   5.371  73.545  1.00  0.00    -0.114 C  
HETATM    2  C   UNL     1      -9.803   4.663  72.754  1.00  0.00    -0.186 C  
HETATM    3  C   UNL     1      -9.508   4.683  71.271  1.00  0.00    -0.158 A  
HETATM    4  C   UNL     1     -11.168   5.278  73.061  1.00  0.00    -0.387 C  
HETATM    5  N   UNL     1      -9.303   5.762  70.539  1.00  0.00    -0.159 NA 
HETATM    6  C   UNL     1      -9.061   5.413  69.206  1.00  0.00    -0.108 A  
HETATM    7  C   UNL     1      -9.093   4.052  68.965  1.00  0.00    -0.133 A  
HETATM    8  S   UNL     1      -9.421   3.194  70.408  1.00  0.00    -0.125 SA 
ENDROOT
BRANCH   6   9
HETATM    9  C   UNL     1      -8.875   6.484  68.161  1.00  0.00    -0.115 C  
BRANCH   9  10
HETATM   10  N   UNL     1     -10.058   6.655  67.309  1.00  0.00    -0.153 N  
HETATM   11  C   UNL     1     -10.638   5.447  66.735  1.00  0.00    -0.271 C  
BRANCH  10  12
HETATM   12  C   UNL     1     -10.284   7.911  66.747  1.00  0.00    -0.287 C  
HETATM   13  O   UNL     1     -11.092   8.721  67.196  1.00  0.00     0.046 OA 
BRANCH  12  14
HETATM   14  N   UNL     1      -9.470   8.219  65.696  1.00  0.00    -0.430 N  
HETATM   15  H   UNL     1      -9.862   8.123  64.759  1.00  0.00     0.000 HD 
BRANCH  14  16
HETATM   16  C   UNL     1      -8.074   8.679  65.796  1.00  0.00    -0.114 C  
BRANCH  16  17
HETATM   17  C   UNL     1      -8.099  10.160  65.358  1.00  0.00    -0.149 C  
HETATM   18  H   UNL     1      -8.134  12.112  65.901  1.00  0.00     0.000 HD 
HETATM   19  N   UNL     1      -8.299  11.169  66.254  1.00  0.00    -0.170 N  
HETATM   20  O   UNL     1      -7.885  10.469  64.178  1.00  0.00    -0.096 OA 
BRANCH  19  21
HETATM   21  C   UNL     1      -8.718  11.082  67.650  1.00  0.00    -0.128 C  
BRANCH  21  22
HETATM   22  C   UNL     1      -7.686  10.334  68.514  1.00  0.00    -0.091 C  
BRANCH  22  23
HETATM   23  C   UNL     1      -8.247   9.735  69.781  1.00  0.00    -0.182 A  
HETATM   24  C   UNL     1     -10.164   9.223  71.177  1.00  0.00    -0.387 A  
HETATM   25  C   UNL     1      -7.940   8.702  71.955  1.00  0.00    -0.115 A  
HETATM   26  C   UNL     1      -7.403   9.225  70.778  1.00  0.00    -0.134 A  
HETATM   27  C   UNL     1      -9.631   9.735  69.996  1.00  0.00    -0.282 A  
HETATM   28  C   UNL     1      -9.316   8.706  72.160  1.00  0.00    -0.343 A  
ENDBRANCH  22  23
ENDBRANCH  21  22
BRANCH  21  29
HETATM   29  C   UNL     1      -9.042  12.482  68.202  1.00  0.00    -0.204 C  
BRANCH  29  30
HETATM   30  C   UNL     1      -9.334  13.585  67.166  1.00  0.00    -0.240 C  
BRANCH  30  31
HETATM   31  C   UNL     1      -9.327  15.003  67.783  1.00  0.00    -0.186 C  
BRANCH  31  32
HETATM   32  C   UNL     1     -10.642  15.747  67.441  1.00  0.00    -0.313 C  
BRANCH  32  33
HETATM   33  C   UNL     1     -10.473  17.250  67.400  1.00  0.00    -0.338 A  
HETATM   34  C   UNL     1     -10.341  17.923  66.178  1.00  0.00    -0.352 A  
HETATM   35  C   UNL     1     -10.128  19.301  66.145  1.00  0.00    -0.517 A  
HETATM   36  C   UNL     1     -10.424  17.994  68.588  1.00  0.00    -0.236 A  
HETATM   37  C   UNL     1     -10.201  19.368  68.557  1.00  0.00    -0.492 A  
HETATM   38  C   UNL     1     -10.045  20.021  67.336  1.00  0.00    -0.568 A  
ENDBRANCH  32  33
ENDBRANCH  31  32
BRANCH  31  39
HETATM   39  N   UNL     1      -8.162  15.771  67.350  1.00  0.00    -0.161 N  
HETATM   40  C   UNL     1      -7.165  16.124  68.215  1.00  0.00    -0.135 C  
HETATM   41  H   UNL     1      -8.090  16.052  66.372  1.00  0.00     0.000 HD 
HETATM   42  O   UNL     1      -7.178  15.890  69.415  1.00  0.00    -0.205 OA 
BRANCH  40  43
HETATM   43  O   UNL     1      -6.158  16.731  67.547  1.00  0.00    -0.129 OA 
BRANCH  43  44
HETATM   44  C   UNL     1      -6.589  17.668  66.550  1.00  0.00    -0.227 C  
BRANCH  44  45
HETATM   45  C   UNL     1      -6.380  19.042  67.085  1.00  0.00    -0.187 A  
HETATM   46  N   UNL     1      -6.289  21.380  67.207  1.00  0.00    -0.529 NA 
HETATM   47  C   UNL     1      -6.696  20.257  66.509  1.00  0.00    -0.231 A  
HETATM   48  C   UNL     1      -5.685  21.003  68.312  1.00  0.00    -0.340 A  
HETATM   49  S   UNL     1      -5.583  19.312  68.582  1.00  0.00    -0.204 SA 
ENDBRANCH  44  45
ENDBRANCH  43  44
ENDBRANCH  40  43
ENDBRANCH  31  39
ENDBRANCH  30  31
ENDBRANCH  29  30
ENDBRANCH  21  29
ENDBRANCH  19  21
ENDBRANCH  16  17
BRANCH  16  50
HETATM   50  C   UNL     1      -7.178   7.898  64.820  1.00  0.00    -0.074 C  
BRANCH  50  51
HETATM   51  C   UNL     1      -7.626   6.449  64.664  1.00  0.00    -0.099 C  
BRANCH  51  52
HETATM   52  N   UNL     1      -7.242   5.811  63.388  1.00  0.00    -0.053 NA 
HETATM   53  O   UNL     1      -8.476   3.139  63.519  1.00  0.00    -0.089 OA 
HETATM   54  C   UNL     1      -7.335   3.460  64.327  1.00  0.00    -0.063 C  
HETATM   55  C   UNL     1      -6.474   4.571  63.687  1.00  0.00    -0.030 C  
HETATM   56  C   UNL     1      -9.258   4.305  63.220  1.00  0.00    -0.139 C  
HETATM   57  C   UNL     1      -8.401   5.399  62.563  1.00  0.00    -0.114 C  
ENDBRANCH  51  52
ENDBRANCH  50  51
ENDBRANCH  16  50
ENDBRANCH  14  16
ENDBRANCH  12  14
ENDBRANCH  10  12
ENDBRANCH   9  10
ENDBRANCH   6   9
TORSDOF 21
ENDMDL
MODEL       12
REMARK 921   NORMALIZED FREE ENERGY PREDICTED BY IDOCK:   -4.53 KCAL/MOL
REMARK 922        TOTAL FREE ENERGY PREDICTED BY IDOCK:  -13.62 KCAL/MOL
REMARK 923 INTER-LIGAND FREE ENERGY PREDICTED BY IDOCK:  -11.32 KCAL/MOL
REMARK 924 INTRA-LIGAND FREE ENERGY PREDICTED BY IDOCK:   -2.30 KCAL/MOL
REMARK 927      BINDING AFFINITY PREDICTED BY RF-SCORE:    0.00 PKD
ROOT
HETATM    1  C   UNL     1      -9.542  19.288  68.704  1.00  0.00    -0.479 C  
HETATM    2  C   UNL     1     -10.553  18.397  67.982  1.00  0.00    -0.346 C  
HETATM    3  C   UNL     1     -10.380  16.947  68.372  1.00  0.00    -0.338 A  
HETATM    4  C   UNL     1     -10.451  18.584  66.468  1.00  0.00    -0.435 C  
HETATM    5  N   UNL     1      -9.269  16.243  68.254  1.00  0.00    -0.193 NA 
HETATM    6  C   UNL     1      -9.467  14.934  68.710  1.00  0.00    -0.214 A  
HETATM    7  C   UNL     1     -10.747  14.683  69.165  1.00  0.00    -0.255 A  
HETATM    8  S   UNL     1     -11.718  16.085  69.034  1.00  0.00    -0.232 SA 
ENDROOT
BRANCH   6   9
HETATM    9  C   UNL     1      -8.359  13.916  68.603  1.00  0.00    -0.088 C  
BRANCH   9  10
HETATM   10  N   UNL     1      -8.314  13.265  67.288  1.00  0.00    -0.187 N  
HETATM   11  C   UNL     1      -9.202  13.794  66.260  1.00  0.00    -0.071 C  
BRANCH  10  12
HETATM   12  C   UNL     1      -7.805  11.969  67.216  1.00  0.00    -0.170 C  
HETATM   13  O   UNL     1      -6.605  11.713  67.169  1.00  0.00    -0.108 OA 
BRANCH  12  14
HETATM   14  N   UNL     1      -8.746  10.983  67.289  1.00  0.00    -0.129 N  
HETATM   15  H   UNL     1      -8.607  10.258  67.992  1.00  0.00     0.000 HD 
BRANCH  14  16
HETATM   16  C   UNL     1      -9.946  10.875  66.441  1.00  0.00    -0.221 C  
BRANCH  16  17
HETATM   17  C   UNL     1     -11.135  10.793  67.424  1.00  0.00    -0.296 C  
HETATM   18  H   UNL     1     -11.916   9.989  69.112  1.00  0.00     0.000 HD 
HETATM   19  N   UNL     1     -11.179   9.859  68.418  1.00  0.00    -0.141 N  
HETATM   20  O   UNL     1     -12.059  11.613  67.360  1.00  0.00    -0.605 OA 
BRANCH  19  21
HETATM   21  C   UNL     1     -10.316   8.700  68.623  1.00  0.00    -0.193 C  
BRANCH  21  22
HETATM   22  C   UNL     1     -10.250   8.287  70.106  1.00  0.00    -0.199 C  
BRANCH  22  23
HETATM   23  C   UNL     1     -11.529   8.512  70.875  1.00  0.00    -0.302 A  
HETATM   24  C   UNL     1     -13.604   7.636  71.777  1.00  0.00    -0.392 A  
HETATM   25  C   UNL     1     -13.093   9.984  72.004  1.00  0.00    -0.541 A  
HETATM   26  C   UNL     1     -11.893   9.792  71.321  1.00  0.00    -0.481 A  
HETATM   27  C   UNL     1     -12.400   7.439  71.104  1.00  0.00    -0.349 A  
HETATM   28  C   UNL     1     -13.952   8.913  72.227  1.00  0.00    -0.531 A  
ENDBRANCH  22  23
ENDBRANCH  21  22
BRANCH  21  29
HETATM   29  C   UNL     1     -10.748   7.540  67.709  1.00  0.00    -0.233 C  
BRANCH  29  30
HETATM   30  C   UNL     1     -10.675   6.122  68.306  1.00  0.00    -0.361 C  
BRANCH  30  31
HETATM   31  C   UNL     1      -9.278   5.477  68.150  1.00  0.00    -0.109 C  
BRANCH  31  32
HETATM   32  C   UNL     1      -9.412   3.990  67.739  1.00  0.00    -0.228 C  
BRANCH  32  33
HETATM   33  C   UNL     1      -8.947   3.728  66.324  1.00  0.00    -0.136 A  
HETATM   34  C   UNL     1      -9.853   3.752  65.255  1.00  0.00    -0.146 A  
HETATM   35  C   UNL     1      -9.432   3.454  63.959  1.00  0.00    -0.136 A  
HETATM   36  C   UNL     1      -7.600   3.435  66.059  1.00  0.00    -0.081 A  
HETATM   37  C   UNL     1      -7.181   3.127  64.768  1.00  0.00    -0.066 A  
HETATM   38  C   UNL     1      -8.098   3.128  63.719  1.00  0.00    -0.082 A  
ENDBRANCH  32  33
ENDBRANCH  31  32
BRANCH  31  39
HETATM   39  N   UNL     1      -8.484   5.615  69.369  1.00  0.00    -0.106 N  
HETATM   40  C   UNL     1      -7.146   5.884  69.335  1.00  0.00    -0.065 C  
HETATM   41  H   UNL     1      -8.944   5.508  70.274  1.00  0.00     0.000 HD 
HETATM   42  O   UNL     1      -6.486   5.974  68.310  1.00  0.00    -0.042 OA 
BRANCH  40  43
HETATM   43  O   UNL     1      -6.672   6.068  70.589  1.00  0.00    -0.049 OA 
BRANCH  43  44
HETATM   44  C   UNL     1      -7.606   5.747  71.628  1.00  0.00    -0.099 C  
BRANCH  44  45
HETATM   45  C   UNL     1      -7.475   6.773  72.700  1.00  0.00    -0.091 A  
HETATM   46  N   UNL     1      -8.025   8.471  74.218  1.00  0.00    -0.376 NA 
HETATM   47  C   UNL     1      -8.463   7.515  73.319  1.00  0.00    -0.137 A  
HETATM   48  C   UNL     1      -6.713   8.432  74.282  1.00  0.00    -0.140 A  
HETATM   49  S   UNL     1      -5.941   7.258  73.297  1.00  0.00    -0.056 SA 
ENDBRANCH  44  45
ENDBRANCH  43  44
ENDBRANCH  40  43
ENDBRANCH  31  39
ENDBRANCH  30  31
ENDBRANCH  29  30
ENDBRANCH  21  29
ENDBRANCH  19  21
ENDBRANCH  16  17
BRANCH  16  50
HETATM   50  C   UNL     1      -9.907   9.579  65.614  1.00  0.00    -0.343 C  
BRANCH  50  51
HETATM   51  C   UNL     1      -8.866   9.639  64.501  1.00  0.00    -0.223 C  
BRANCH  51  52
HETATM   52  N   UNL     1      -7.485   9.326  64.920  1.00  0.00    -0.104 NA 
HETATM   53  O   UNL     1      -6.855   6.819  63.506  1.00  0.00    -0.050 OA 
HETATM   54  C   UNL     1      -7.766   6.827  64.614  1.00  0.00    -0.112 C  
HETATM   55  C   UNL     1      -7.478   7.993  65.584  1.00  0.00    -0.081 C  
HETATM   56  C   UNL     1      -6.842   8.081  62.823  1.00  0.00    -0.085 C  
HETATM   57  C   UNL     1      -6.533   9.237  63.789  1.00  0.00    -0.091 C  
ENDBRANCH  51  52
ENDBRANCH  50  51
ENDBRANCH  16  50
ENDBRANCH  14  16
ENDBRANCH  12  14
ENDBRANCH  10  12
ENDBRANCH   9  10
ENDBRANCH   6   9
TORSDOF 21
ENDMDL
MODEL       13
REMARK 921   NORMALIZED FREE ENERGY PREDICTED BY IDOCK:   -4.42 KCAL/MOL
REMARK 922        TOTAL FREE ENERGY PREDICTED BY IDOCK:  -13.36 KCAL/MOL
REMARK 923 INTER-LIGAND FREE ENERGY PREDICTED BY IDOCK:   -9.75 KCAL/MOL
REMARK 924 INTRA-LIGAND FREE ENERGY PREDICTED BY IDOCK:   -3.62 KCAL/MOL
REMARK 927      BINDING AFFINITY PREDICTED BY RF-SCORE:    0.00 PKD
ROOT
HETATM    1  C   UNL     1     -13.441   7.793  71.440  1.00  0.00    -0.317 C  
HETATM    2  C   UNL     1     -12.625   8.877  72.145  1.00  0.00    -0.467 C  
HETATM    3  C   UNL     1     -12.530  10.127  71.299  1.00  0.00    -0.406 A  
HETATM    4  C   UNL     1     -11.241   8.350  72.522  1.00  0.00    -0.406 C  
HETATM    5  N   UNL     1     -12.055  10.191  70.069  1.00  0.00    -0.153 NA 
HETATM    6  C   UNL     1     -12.114  11.505  69.588  1.00  0.00    -0.296 A  
HETATM    7  C   UNL     1     -12.639  12.411  70.489  1.00  0.00    -0.089 A  
HETATM    8  S   UNL     1     -13.072  11.628  71.947  1.00  0.00    -0.235 SA 
ENDROOT
BRANCH   6   9
HETATM    9  C   UNL     1     -11.554  11.843  68.229  1.00  0.00    -0.327 C  
BRANCH   9  10
HETATM   10  N   UNL     1     -11.421  13.289  68.016  1.00  0.00    -0.289 N  
HETATM   11  C   UNL     1     -12.160  13.860  66.896  1.00  0.00    -0.430 C  
BRANCH  10  12
HETATM   12  C   UNL     1     -10.311  13.932  68.562  1.00  0.00    -0.244 C  
HETATM   13  O   UNL     1     -10.381  14.970  69.215  1.00  0.00    -0.234 OA 
BRANCH  12  14
HETATM   14  N   UNL     1      -9.129  13.272  68.390  1.00  0.00    -0.301 N  
HETATM   15  H   UNL     1      -8.778  12.731  69.180  1.00  0.00     0.000 HD 
BRANCH  14  16
HETATM   16  C   UNL     1      -8.314  13.273  67.163  1.00  0.00    -0.135 C  
BRANCH  16  17
HETATM   17  C   UNL     1      -8.729  11.996  66.396  1.00  0.00    -0.088 C  
HETATM   18  H   UNL     1      -8.881   9.976  66.380  1.00  0.00     0.000 HD 
HETATM   19  N   UNL     1      -8.425  10.751  66.862  1.00  0.00    -0.128 N  
HETATM   20  O   UNL     1      -9.396  12.078  65.357  1.00  0.00    -0.131 OA 
BRANCH  19  21
HETATM   21  C   UNL     1      -7.537  10.376  67.958  1.00  0.00    -0.091 C  
BRANCH  21  22
HETATM   22  C   UNL     1      -8.303  10.190  69.281  1.00  0.00    -0.160 C  
BRANCH  22  23
HETATM   23  C   UNL     1      -7.439   9.795  70.455  1.00  0.00    -0.161 A  
HETATM   24  C   UNL     1      -5.391  10.071  71.725  1.00  0.00    -0.024 A  
HETATM   25  C   UNL     1      -6.981   8.373  72.367  1.00  0.00    -0.108 A  
HETATM   26  C   UNL     1      -7.807   8.742  71.305  1.00  0.00    -0.167 A  
HETATM   27  C   UNL     1      -6.220  10.450  70.671  1.00  0.00    -0.083 A  
HETATM   28  C   UNL     1      -5.772   9.029  72.575  1.00  0.00    -0.068 A  
ENDBRANCH  22  23
ENDBRANCH  21  22
BRANCH  21  29
HETATM   29  C   UNL     1      -6.710   9.134  67.578  1.00  0.00    -0.069 C  
BRANCH  29  30
HETATM   30  C   UNL     1      -7.194   8.325  66.360  1.00  0.00    -0.075 C  
BRANCH  30  31
HETATM   31  C   UNL     1      -7.638   6.891  66.730  1.00  0.00    -0.090 C  
BRANCH  31  32
HETATM   32  C   UNL     1      -8.484   6.276  65.589  1.00  0.00    -0.148 C  
BRANCH  32  33
HETATM   33  C   UNL     1      -8.286   4.782  65.450  1.00  0.00    -0.118 A  
HETATM   34  C   UNL     1      -7.011   4.214  65.579  1.00  0.00    -0.062 A  
HETATM   35  C   UNL     1      -6.822   2.844  65.394  1.00  0.00    -0.048 A  
HETATM   36  C   UNL     1      -9.373   3.942  65.169  1.00  0.00    -0.158 A  
HETATM   37  C   UNL     1      -9.184   2.577  64.974  1.00  0.00    -0.128 A  
HETATM   38  C   UNL     1      -7.908   2.028  65.078  1.00  0.00    -0.073 A  
ENDBRANCH  32  33
ENDBRANCH  31  32
BRANCH  31  39
HETATM   39  N   UNL     1      -8.366   6.864  67.997  1.00  0.00    -0.121 N  
HETATM   40  C   UNL     1      -9.666   7.270  68.094  1.00  0.00    -0.145 C  
HETATM   41  H   UNL     1      -7.888   6.532  68.835  1.00  0.00     0.000 HD 
HETATM   42  O   UNL     1     -10.314   7.739  67.169  1.00  0.00    -0.259 OA 
BRANCH  40  43
HETATM   43  O   UNL     1     -10.135   7.046  69.343  1.00  0.00    -0.163 OA 
BRANCH  43  44
HETATM   44  C   UNL     1     -10.919   5.853  69.476  1.00  0.00    -0.368 C  
BRANCH  44  45
HETATM   45  C   UNL     1     -10.104   4.843  70.207  1.00  0.00    -0.252 A  
HETATM   46  N   UNL     1      -8.775   2.961  70.636  1.00  0.00    -0.067 NA 
HETATM   47  C   UNL     1      -9.350   3.802  69.699  1.00  0.00    -0.175 A  
HETATM   48  C   UNL     1      -9.086   3.385  71.840  1.00  0.00    -0.109 A  
HETATM   49  S   UNL     1     -10.055   4.798  71.922  1.00  0.00    -0.195 SA 
ENDBRANCH  44  45
ENDBRANCH  43  44
ENDBRANCH  40  43
ENDBRANCH  31  39
ENDBRANCH  30  31
ENDBRANCH  29  30
ENDBRANCH  21  29
ENDBRANCH  19  21
ENDBRANCH  16  17
BRANCH  16  50
HETATM   50  C   UNL     1      -6.819  13.169  67.508  1.00  0.00    -0.156 C  
BRANCH  50  51
HETATM   51  C   UNL     1      -6.214  14.526  67.851  1.00  0.00    -0.155 C  
BRANCH  51  52
HETATM   52  N   UNL     1      -7.163  15.658  67.820  1.00  0.00    -0.140 NA 
HETATM   53  O   UNL     1      -5.492  18.012  68.409  1.00  0.00    -0.157 OA 
HETATM   54  C   UNL     1      -5.814  17.066  69.438  1.00  0.00    -0.202 C  
HETATM   55  C   UNL     1      -7.142  16.333  69.147  1.00  0.00    -0.214 C  
HETATM   56  C   UNL     1      -5.482  17.400  67.111  1.00  0.00    -0.140 C  
HETATM   57  C   UNL     1      -6.814  16.691  66.817  1.00  0.00    -0.217 C  
ENDBRANCH  51  52
ENDBRANCH  50  51
ENDBRANCH  16  50
ENDBRANCH  14  16
ENDBRANCH  12  14
ENDBRANCH  10  12
ENDBRANCH   9  10
ENDBRANCH   6   9
TORSDOF 21
ENDMDL
MODEL       14
REMARK 921   NORMALIZED FREE ENERGY PREDICTED BY IDOCK:   -3.90 KCAL/MOL
REMARK 922        TOTAL FREE ENERGY PREDICTED BY IDOCK:  -12.21 KCAL/MOL
REMARK 923 INTER-LIGAND FREE ENERGY PREDICTED BY IDOCK:   -9.35 KCAL/MOL
REMARK 924 INTRA-LIGAND FREE ENERGY PREDICTED BY IDOCK:   -2.86 KCAL/MOL
REMARK 927      BINDING AFFINITY PREDICTED BY RF-SCORE:    0.00 PKD
ROOT
HETATM    1  C   UNL     1     -10.976   3.403  74.188  1.00  0.00    -0.133 C  
HETATM    2  C   UNL     1      -9.905   3.630  73.121  1.00  0.00    -0.183 C  
HETATM    3  C   UNL     1     -10.053   4.992  72.480  1.00  0.00    -0.183 A  
HETATM    4  C   UNL     1      -9.939   2.515  72.077  1.00  0.00    -0.228 C  
HETATM    5  N   UNL     1     -11.136   5.447  71.877  1.00  0.00    -0.165 NA 
HETATM    6  C   UNL     1     -10.921   6.745  71.398  1.00  0.00    -0.242 A  
HETATM    7  C   UNL     1      -9.657   7.240  71.657  1.00  0.00    -0.151 A  
HETATM    8  S   UNL     1      -8.724   6.088  72.510  1.00  0.00    -0.121 SA 
ENDROOT
BRANCH   6   9
HETATM    9  C   UNL     1     -11.992   7.448  70.601  1.00  0.00    -0.176 C  
BRANCH   9  10
HETATM   10  N   UNL     1     -12.907   8.224  71.445  1.00  0.00    -0.284 N  
HETATM   11  C   UNL     1     -14.071   7.523  71.975  1.00  0.00    -0.224 C  
BRANCH  10  12
HETATM   12  C   UNL     1     -12.882   9.614  71.333  1.00  0.00    -0.379 C  
HETATM   13  O   UNL     1     -13.755  10.348  71.789  1.00  0.00    -0.185 OA 
BRANCH  12  14
HETATM   14  N   UNL     1     -11.758  10.117  70.745  1.00  0.00    -0.329 N  
HETATM   15  H   UNL     1     -10.941  10.252  71.341  1.00  0.00     0.000 HD 
BRANCH  14  16
HETATM   16  C   UNL     1     -11.621  10.484  69.325  1.00  0.00    -0.236 C  
BRANCH  16  17
HETATM   17  C   UNL     1     -10.150  10.930  69.158  1.00  0.00    -0.177 C  
HETATM   18  H   UNL     1      -8.708  11.671  67.944  1.00  0.00     0.000 HD 
HETATM   19  N   UNL     1      -9.628  11.230  67.934  1.00  0.00    -0.173 N  
HETATM   20  O   UNL     1      -9.423  11.073  70.148  1.00  0.00     0.912 OA 
BRANCH  19  21
HETATM   21  C   UNL     1     -10.206  11.006  66.613  1.00  0.00    -0.235 C  
BRANCH  21  22
HETATM   22  C   UNL     1     -10.904   9.637  66.515  1.00  0.00     0.074 C  
BRANCH  22  23
HETATM   23  C   UNL     1      -9.964   8.456  66.485  1.00  0.00    -0.335 A  
HETATM   24  C   UNL     1      -9.276   6.312  67.388  1.00  0.00    -0.116 A  
HETATM   25  C   UNL     1      -7.986   7.342  65.627  1.00  0.00    -0.123 A  
HETATM   26  C   UNL     1      -8.861   8.429  65.619  1.00  0.00    -0.196 A  
HETATM   27  C   UNL     1     -10.158   7.391  67.373  1.00  0.00    -0.274 A  
HETATM   28  C   UNL     1      -8.187   6.288  66.513  1.00  0.00    -0.112 A  
ENDBRANCH  22  23
ENDBRANCH  21  22
BRANCH  21  29
HETATM   29  C   UNL     1     -11.140  12.169  66.231  1.00  0.00    -0.353 C  
BRANCH  29  30
HETATM   30  C   UNL     1     -10.520  13.316  65.411  1.00  0.00    -0.306 C  
BRANCH  30  31
HETATM   31  C   UNL     1      -9.976  14.461  66.297  1.00  0.00    -0.306 C  
BRANCH  31  32
HETATM   32  C   UNL     1     -10.232  15.833  65.626  1.00  0.00    -0.407 C  
BRANCH  32  33
HETATM   33  C   UNL     1     -10.162  16.987  66.601  1.00  0.00    -0.310 A  
HETATM   34  C   UNL     1     -10.398  16.785  67.968  1.00  0.00    -0.317 A  
HETATM   35  C   UNL     1     -10.389  17.860  68.857  1.00  0.00    -0.272 A  
HETATM   36  C   UNL     1      -9.880  18.285  66.150  1.00  0.00    -0.264 A  
HETATM   37  C   UNL     1      -9.881  19.360  67.035  1.00  0.00    -0.440 A  
HETATM   38  C   UNL     1     -10.143  19.149  68.387  1.00  0.00    -0.498 A  
ENDBRANCH  32  33
ENDBRANCH  31  32
BRANCH  31  39
HETATM   39  N   UNL     1      -8.557  14.280  66.598  1.00  0.00    -0.435 N  
HETATM   40  C   UNL     1      -8.089  14.228  67.879  1.00  0.00    -0.151 C  
HETATM   41  H   UNL     1      -7.896  14.189  65.826  1.00  0.00     0.000 HD 
HETATM   42  O   UNL     1      -8.783  14.383  68.875  1.00  0.00    -0.154 OA 
BRANCH  40  43
HETATM   43  O   UNL     1      -6.766  13.947  67.885  1.00  0.00    -0.125 OA 
BRANCH  43  44
HETATM   44  C   UNL     1      -6.329  13.172  69.009  1.00  0.00    -0.099 C  
BRANCH  44  45
HETATM   45  C   UNL     1      -6.028  11.794  68.530  1.00  0.00    -0.049 A  
HETATM   46  N   UNL     1      -5.743   9.961  67.098  1.00  0.00    -0.046 NA 
HETATM   47  C   UNL     1      -5.945  11.323  67.233  1.00  0.00    -0.072 A  
HETATM   48  C   UNL     1      -5.660   9.419  68.293  1.00  0.00    -0.037 A  
HETATM   49  S   UNL     1      -5.800  10.491  69.624  1.00  0.00    -0.053 SA 
ENDBRANCH  44  45
ENDBRANCH  43  44
ENDBRANCH  40  43
ENDBRANCH  31  39
ENDBRANCH  30  31
ENDBRANCH  29  30
ENDBRANCH  21  29
ENDBRANCH  19  21
ENDBRANCH  16  17
BRANCH  16  50
HETATM   50  C   UNL     1     -12.532  11.674  68.985  1.00  0.00     0.271 C  
BRANCH  50  51
HETATM   51  C   UNL     1     -11.986  12.989  69.530  1.00  0.00    -0.289 C  
BRANCH  51  52
HETATM   52  N   UNL     1     -12.102  13.154  70.994  1.00  0.00    -0.165 NA 
HETATM   53  O   UNL     1     -13.333  15.810  71.325  1.00  0.00    -0.532 OA 
HETATM   54  C   UNL     1     -11.968  15.681  70.902  1.00  0.00    -0.397 C  
HETATM   55  C   UNL     1     -11.336  14.364  71.400  1.00  0.00     0.453 C  
HETATM   56  C   UNL     1     -14.116  14.671  70.938  1.00  0.00     0.104 C  
HETATM   57  C   UNL     1     -13.494  13.363  71.455  1.00  0.00    -0.122 C  
ENDBRANCH  51  52
ENDBRANCH  50  51
ENDBRANCH  16  50
ENDBRANCH  14  16
ENDBRANCH  12  14
ENDBRANCH  10  12
ENDBRANCH   9  10
ENDBRANCH   6   9
TORSDOF 21
ENDMDL
MODEL       15
REMARK 921   NORMALIZED FREE ENERGY PREDICTED BY IDOCK:   -3.55 KCAL/MOL
REMARK 922        TOTAL FREE ENERGY PREDICTED BY IDOCK:  -11.44 KCAL/MOL
REMARK 923 INTER-LIGAND FREE ENERGY PREDICTED BY IDOCK:   -9.27 KCAL/MOL
REMARK 924 INTRA-LIGAND FREE ENERGY PREDICTED BY IDOCK:   -2.18 KCAL/MOL
REMARK 927      BINDING AFFINITY PREDICTED BY RF-SCORE:    0.00 PKD
ROOT
HETATM    1  C   UNL     1      -6.960   4.594  70.096  1.00  0.00    -0.048 C  
HETATM    2  C   UNL     1      -7.402   4.418  71.549  1.00  0.00    -0.056 C  
HETATM    3  C   UNL     1      -8.699   5.148  71.816  1.00  0.00    -0.130 A  
HETATM    4  C   UNL     1      -6.299   4.868  72.506  1.00  0.00    -0.034 C  
HETATM    5  N   UNL     1      -8.914   6.436  71.624  1.00  0.00    -0.144 NA 
HETATM    6  C   UNL     1     -10.225   6.774  71.979  1.00  0.00    -0.191 A  
HETATM    7  C   UNL     1     -10.976   5.709  72.440  1.00  0.00    -0.259 A  
HETATM    8  S   UNL     1     -10.050   4.271  72.428  1.00  0.00    -0.175 SA 
ENDROOT
BRANCH   6   9
HETATM    9  C   UNL     1     -10.683   8.210  71.919  1.00  0.00    -0.265 C  
BRANCH   9  10
HETATM   10  N   UNL     1     -11.223   8.577  70.605  1.00  0.00    -0.254 N  
HETATM   11  C   UNL     1     -11.023   7.625  69.520  1.00  0.00    -0.097 C  
BRANCH  10  12
HETATM   12  C   UNL     1     -11.475   9.926  70.355  1.00  0.00    -0.301 C  
HETATM   13  O   UNL     1     -12.541  10.477  70.618  1.00  0.00    -0.332 OA 
BRANCH  12  14
HETATM   14  N   UNL     1     -10.408  10.624  69.868  1.00  0.00    -0.444 N  
HETATM   15  H   UNL     1      -9.672  10.870  70.529  1.00  0.00     0.000 HD 
BRANCH  14  16
HETATM   16  C   UNL     1     -10.228  11.054  68.471  1.00  0.00    -0.192 C  
BRANCH  16  17
HETATM   17  C   UNL     1      -9.808  12.539  68.551  1.00  0.00    -0.149 C  
HETATM   18  H   UNL     1      -8.479  13.978  68.035  1.00  0.00     0.000 HD 
HETATM   19  N   UNL     1      -8.597  12.966  68.091  1.00  0.00    -0.184 N  
HETATM   20  O   UNL     1     -10.591  13.389  68.994  1.00  0.00    -0.187 OA 
BRANCH  19  21
HETATM   21  C   UNL     1      -7.447  12.172  67.669  1.00  0.00    -0.129 C  
BRANCH  21  22
HETATM   22  C   UNL     1      -7.770  11.301  66.441  1.00  0.00    -0.089 C  
BRANCH  22  23
HETATM   23  C   UNL     1      -7.243   9.889  66.519  1.00  0.00    -0.095 A  
HETATM   24  C   UNL     1      -5.820   8.139  65.624  1.00  0.00    -0.041 A  
HETATM   25  C   UNL     1      -7.256   7.672  67.508  1.00  0.00    -0.087 A  
HETATM   26  C   UNL     1      -7.734   8.982  67.471  1.00  0.00    -0.096 A  
HETATM   27  C   UNL     1      -6.288   9.451  65.593  1.00  0.00    -0.068 A  
HETATM   28  C   UNL     1      -6.307   7.247  66.584  1.00  0.00    -0.051 A  
ENDBRANCH  22  23
ENDBRANCH  21  22
BRANCH  21  29
HETATM   29  C   UNL     1      -6.223  13.078  67.441  1.00  0.00    -0.082 C  
BRANCH  29  30
HETATM   30  C   UNL     1      -5.934  14.137  68.521  1.00  0.00    -0.092 C  
BRANCH  30  31
HETATM   31  C   UNL     1      -5.979  15.582  67.972  1.00  0.00    -0.139 C  
BRANCH  31  32
HETATM   32  C   UNL     1      -5.152  16.529  68.876  1.00  0.00    -0.117 C  
BRANCH  32  33
HETATM   33  C   UNL     1      -5.475  17.989  68.647  1.00  0.00    -0.163 A  
HETATM   34  C   UNL     1      -5.886  18.807  69.708  1.00  0.00    -0.258 A  
HETATM   35  C   UNL     1      -6.238  20.139  69.485  1.00  0.00    -0.370 A  
HETATM   36  C   UNL     1      -5.388  18.546  67.362  1.00  0.00    -0.140 A  
HETATM   37  C   UNL     1      -5.750  19.871  67.136  1.00  0.00    -0.180 A  
HETATM   38  C   UNL     1      -6.182  20.666  68.195  1.00  0.00    -0.350 A  
ENDBRANCH  32  33
ENDBRANCH  31  32
BRANCH  31  39
HETATM   39  N   UNL     1      -7.353  16.059  67.828  1.00  0.00    -0.130 N  
HETATM   40  C   UNL     1      -8.261  15.969  68.844  1.00  0.00    -0.223 C  
HETATM   41  H   UNL     1      -7.642  16.473  66.942  1.00  0.00     0.000 HD 
HETATM   42  O   UNL     1      -8.039  15.441  69.924  1.00  0.00    -0.137 OA 
BRANCH  40  43
HETATM   43  O   UNL     1      -9.418  16.575  68.493  1.00  0.00    -0.219 OA 
BRANCH  43  44
HETATM   44  C   UNL     1     -10.048  17.307  69.553  1.00  0.00     0.012 C  
BRANCH  44  45
HETATM   45  C   UNL     1     -11.168  16.480  70.083  1.00  0.00    -0.138 A  
HETATM   46  N   UNL     1     -13.211  15.339  70.208  1.00  0.00    -0.122 NA 
HETATM   47  C   UNL     1     -12.285  16.003  69.424  1.00  0.00     0.036 A  
HETATM   48  C   UNL     1     -12.778  15.306  71.448  1.00  0.00    -0.392 A  
HETATM   49  S   UNL     1     -11.256  16.042  71.741  1.00  0.00     0.155 SA 
ENDBRANCH  44  45
ENDBRANCH  43  44
ENDBRANCH  40  43
ENDBRANCH  31  39
ENDBRANCH  30  31
ENDBRANCH  29  30
ENDBRANCH  21  29
ENDBRANCH  19  21
ENDBRANCH  16  17
BRANCH  16  50
HETATM   50  C   UNL     1     -11.558  10.965  67.704  1.00  0.00    -0.171 C  
BRANCH  50  51
HETATM   51  C   UNL     1     -11.436  11.495  66.280  1.00  0.00    -0.049 C  
BRANCH  51  52
HETATM   52  N   UNL     1     -12.608  12.251  65.792  1.00  0.00    -0.252 NA 
HETATM   53  O   UNL     1     -11.443  14.444  64.208  1.00  0.00    -0.317 OA 
HETATM   54  C   UNL     1     -11.357  14.447  65.640  1.00  0.00    -0.330 C  
HETATM   55  C   UNL     1     -12.512  13.652  66.285  1.00  0.00    -0.366 C  
HETATM   56  C   UNL     1     -11.520  13.110  63.685  1.00  0.00    -0.323 C  
HETATM   57  C   UNL     1     -12.685  12.329  64.315  1.00  0.00    -0.315 C  
ENDBRANCH  51  52
ENDBRANCH  50  51
ENDBRANCH  16  50
ENDBRANCH  14  16
ENDBRANCH  12  14
ENDBRANCH  10  12
ENDBRANCH   9  10
ENDBRANCH   6   9
TORSDOF 21
ENDMDL
MODEL       16
REMARK 921   NORMALIZED FREE ENERGY PREDICTED BY IDOCK:   -3.43 KCAL/MOL
REMARK 922        TOTAL FREE ENERGY PREDICTED BY IDOCK:  -11.16 KCAL/MOL
REMARK 923 INTER-LIGAND FREE ENERGY PREDICTED BY IDOCK:  -10.55 KCAL/MOL
REMARK 924 INTRA-LIGAND FREE ENERGY PREDICTED BY IDOCK:   -0.61 KCAL/MOL
REMARK 927      BINDING AFFINITY PREDICTED BY RF-SCORE:    0.00 PKD
ROOT
HETATM    1  C   UNL     1      -6.567   5.176  68.654  1.00  0.00    -0.048 C  
HETATM    2  C   UNL     1      -6.813   4.654  70.070  1.00  0.00    -0.044 C  
HETATM    3  C   UNL     1      -8.093   5.216  70.645  1.00  0.00    -0.106 A  
HETATM    4  C   UNL     1      -5.615   4.955  70.971  1.00  0.00    -0.012 C  
HETATM    5  N   UNL     1      -8.382   6.497  70.778  1.00  0.00    -0.128 NA 
HETATM    6  C   UNL     1      -9.650   6.658  71.349  1.00  0.00    -0.168 A  
HETATM    7  C   UNL     1     -10.292   5.468  71.638  1.00  0.00    -0.219 A  
HETATM    8  S   UNL     1      -9.318   4.135  71.193  1.00  0.00    -0.163 SA 
ENDROOT
BRANCH   6   9
HETATM    9  C   UNL     1     -10.170   8.036  71.671  1.00  0.00    -0.202 C  
BRANCH   9  10
HETATM   10  N   UNL     1     -11.078   8.554  70.642  1.00  0.00    -0.251 N  
HETATM   11  C   UNL     1     -11.536   7.608  69.631  1.00  0.00     0.243 C  
BRANCH  10  12
HETATM   12  C   UNL     1     -11.095   9.929  70.415  1.00  0.00    -0.319 C  
HETATM   13  O   UNL     1     -11.978  10.675  70.832  1.00  0.00    -0.332 OA 
BRANCH  12  14
HETATM   14  N   UNL     1     -10.000  10.412  69.759  1.00  0.00    -0.405 N  
HETATM   15  H   UNL     1      -9.096  10.302  70.217  1.00  0.00     0.000 HD 
BRANCH  14  16
HETATM   16  C   UNL     1     -10.010  11.079  68.445  1.00  0.00    -0.186 C  
BRANCH  16  17
HETATM   17  C   UNL     1      -9.746  12.572  68.744  1.00  0.00     0.057 C  
HETATM   18  H   UNL     1      -8.489  14.155  68.606  1.00  0.00     0.000 HD 
HETATM   19  N   UNL     1      -8.521  13.138  68.540  1.00  0.00    -0.110 N  
HETATM   20  O   UNL     1     -10.665  13.306  69.130  1.00  0.00    -0.172 OA 
BRANCH  19  21
HETATM   21  C   UNL     1      -7.250  12.484  68.241  1.00  0.00    -0.111 C  
BRANCH  21  22
HETATM   22  C   UNL     1      -7.448  11.032  67.767  1.00  0.00    -0.094 C  
BRANCH  22  23
HETATM   23  C   UNL     1      -6.950  10.756  66.370  1.00  0.00    -0.134 A  
HETATM   24  C   UNL     1      -5.131  10.761  64.763  1.00  0.00    -0.135 A  
HETATM   25  C   UNL     1      -7.350  10.119  64.063  1.00  0.00    -0.110 A  
HETATM   26  C   UNL     1      -7.825  10.340  65.356  1.00  0.00    -0.149 A  
HETATM   27  C   UNL     1      -5.601  10.972  66.058  1.00  0.00    -0.143 A  
HETATM   28  C   UNL     1      -6.009  10.335  63.763  1.00  0.00    -0.138 A  
ENDBRANCH  22  23
ENDBRANCH  21  22
BRANCH  21  29
HETATM   29  C   UNL     1      -6.438  13.324  67.239  1.00  0.00     0.118 C  
BRANCH  29  30
HETATM   30  C   UNL     1      -5.742  14.582  67.792  1.00  0.00    -0.074 C  
BRANCH  30  31
HETATM   31  C   UNL     1      -6.193  15.879  67.081  1.00  0.00     0.021 C  
BRANCH  31  32
HETATM   32  C   UNL     1      -5.196  17.028  67.367  1.00  0.00    -0.152 C  
BRANCH  32  33
HETATM   33  C   UNL     1      -5.623  18.343  66.755  1.00  0.00    -0.161 A  
HETATM   34  C   UNL     1      -5.925  18.434  65.389  1.00  0.00    -0.261 A  
HETATM   35  C   UNL     1      -6.263  19.659  64.816  1.00  0.00    -0.318 A  
HETATM   36  C   UNL     1      -5.706  19.502  67.541  1.00  0.00    -0.189 A  
HETATM   37  C   UNL     1      -6.033  20.728  66.968  1.00  0.00    -0.276 A  
HETATM   38  C   UNL     1      -6.304  20.809  65.604  1.00  0.00    -0.264 A  
ENDBRANCH  32  33
ENDBRANCH  31  32
BRANCH  31  39
HETATM   39  N   UNL     1      -7.553  16.256  67.463  1.00  0.00    -0.136 N  
HETATM   40  C   UNL     1      -7.960  16.273  68.765  1.00  0.00    -0.221 C  
HETATM   41  H   UNL     1      -8.218  16.514  66.733  1.00  0.00     0.000 HD 
HETATM   42  O   UNL     1      -7.266  15.928  69.711  1.00  0.00    -0.154 OA 
BRANCH  40  43
HETATM   43  O   UNL     1      -9.220  16.757  68.856  1.00  0.00    -0.252 OA 
BRANCH  43  44
HETATM   44  C   UNL     1      -9.881  16.931  67.595  1.00  0.00    -0.259 C  
BRANCH  44  45
HETATM   45  C   UNL     1     -10.020  18.393  67.345  1.00  0.00    -0.334 A  
HETATM   46  N   UNL     1     -10.328  20.426  66.223  1.00  0.00    -0.258 NA 
HETATM   47  C   UNL     1     -10.380  19.045  66.181  1.00  0.00    -0.468 A  
HETATM   48  C   UNL     1      -9.945  20.805  67.421  1.00  0.00    -0.214 A  
HETATM   49  S   UNL     1      -9.645  19.552  68.553  1.00  0.00    -0.404 SA 
ENDBRANCH  44  45
ENDBRANCH  43  44
ENDBRANCH  40  43
ENDBRANCH  31  39
ENDBRANCH  30  31
ENDBRANCH  29  30
ENDBRANCH  21  29
ENDBRANCH  19  21
ENDBRANCH  16  17
BRANCH  16  50
HETATM   50  C   UNL     1     -11.393  10.951  67.786  1.00  0.00    -0.366 C  
BRANCH  50  51
HETATM   51  C   UNL     1     -11.354  11.291  66.300  1.00  0.00     0.018 C  
BRANCH  51  52
HETATM   52  N   UNL     1     -12.377  12.259  65.854  1.00  0.00    -0.519 NA 
HETATM   53  O   UNL     1     -10.870  14.202  64.232  1.00  0.00    -0.276 OA 
HETATM   54  C   UNL     1     -10.736  14.178  65.661  1.00  0.00    -0.313 C  
HETATM   55  C   UNL     1     -11.998  13.612  66.345  1.00  0.00    -0.426 C  
HETATM   56  C   UNL     1     -11.217  12.911  63.712  1.00  0.00    -0.402 C  
HETATM   57  C   UNL     1     -12.488  12.361  64.381  1.00  0.00    -0.433 C  
ENDBRANCH  51  52
ENDBRANCH  50  51
ENDBRANCH  16  50
ENDBRANCH  14  16
ENDBRANCH  12  14
ENDBRANCH  10  12
ENDBRANCH   9  10
ENDBRANCH   6   9
TORSDOF 21
ENDMDL
MODEL       17
REMARK 921   NORMALIZED FREE ENERGY PREDICTED BY IDOCK:   -3.37 KCAL/MOL
REMARK 922        TOTAL FREE ENERGY PREDICTED BY IDOCK:  -11.04 KCAL/MOL
REMARK 923 INTER-LIGAND FREE ENERGY PREDICTED BY IDOCK:  -10.23 KCAL/MOL
REMARK 924 INTRA-LIGAND FREE ENERGY PREDICTED BY IDOCK:   -0.81 KCAL/MOL
REMARK 927      BINDING AFFINITY PREDICTED BY RF-SCORE:    0.00 PKD
ROOT
HETATM    1  C   UNL     1      -9.960  19.349  68.731  1.00  0.00    -0.522 C  
HETATM    2  C   UNL     1     -10.669  18.344  67.822  1.00  0.00    -0.371 C  
HETATM    3  C   UNL     1     -10.432  16.925  68.288  1.00  0.00    -0.352 A  
HETATM    4  C   UNL     1     -10.237  18.535  66.369  1.00  0.00    -0.449 C  
HETATM    5  N   UNL     1      -9.253  16.354  68.454  1.00  0.00    -0.211 NA 
HETATM    6  C   UNL     1      -9.405  15.033  68.892  1.00  0.00    -0.208 A  
HETATM    7  C   UNL     1     -10.721  14.638  69.045  1.00  0.00    -0.249 A  
HETATM    8  S   UNL     1     -11.783  15.919  68.648  1.00  0.00    -0.211 SA 
ENDROOT
BRANCH   6   9
HETATM    9  C   UNL     1      -8.197  14.150  69.077  1.00  0.00     0.070 C  
BRANCH   9  10
HETATM   10  N   UNL     1      -7.815  13.449  67.846  1.00  0.00    -0.136 N  
HETATM   11  C   UNL     1      -8.055  14.146  66.588  1.00  0.00     0.479 C  
BRANCH  10  12
HETATM   12  C   UNL     1      -7.682  12.062  67.896  1.00  0.00    -0.134 C  
HETATM   13  O   UNL     1      -6.693  11.491  68.350  1.00  0.00    -0.061 OA 
BRANCH  12  14
HETATM   14  N   UNL     1      -8.781  11.368  67.479  1.00  0.00    -0.137 N  
HETATM   15  H   UNL     1      -8.888  10.414  67.822  1.00  0.00     0.000 HD 
BRANCH  14  16
HETATM   16  C   UNL     1      -9.826  11.878  66.574  1.00  0.00    -0.206 C  
BRANCH  16  17
HETATM   17  C   UNL     1     -11.162  11.383  67.173  1.00  0.00    -0.296 C  
HETATM   18  H   UNL     1     -12.121  10.060  68.372  1.00  0.00     0.000 HD 
HETATM   19  N   UNL     1     -11.242  10.218  67.879  1.00  0.00    -0.283 N  
HETATM   20  O   UNL     1     -12.188  12.065  67.066  1.00  0.00    -0.516 OA 
BRANCH  19  21
HETATM   21  C   UNL     1     -10.240   9.166  68.025  1.00  0.00    -0.211 C  
BRANCH  21  22
HETATM   22  C   UNL     1      -9.941   8.858  69.504  1.00  0.00    -0.191 C  
BRANCH  22  23
HETATM   23  C   UNL     1     -11.118   9.038  70.431  1.00  0.00    -0.279 A  
HETATM   24  C   UNL     1     -12.913   8.062  71.739  1.00  0.00    -0.354 A  
HETATM   25  C   UNL     1     -12.690  10.462  71.611  1.00  0.00    -0.560 A  
HETATM   26  C   UNL     1     -11.581  10.316  70.776  1.00  0.00    -0.446 A  
HETATM   27  C   UNL     1     -11.800   7.914  70.915  1.00  0.00    -0.242 A  
HETATM   28  C   UNL     1     -13.360   9.340  72.087  1.00  0.00    -0.537 A  
ENDBRANCH  22  23
ENDBRANCH  21  22
BRANCH  21  29
HETATM   29  C   UNL     1     -10.660   7.912  67.236  1.00  0.00    -0.365 C  
BRANCH  29  30
HETATM   30  C   UNL     1     -10.614   6.570  67.991  1.00  0.00    -0.310 C  
BRANCH  30  31
HETATM   31  C   UNL     1      -9.392   5.705  67.605  1.00  0.00    -0.110 C  
BRANCH  31  32
HETATM   32  C   UNL     1      -9.854   4.343  67.032  1.00  0.00    -0.227 C  
BRANCH  32  33
HETATM   33  C   UNL     1      -9.214   4.018  65.701  1.00  0.00    -0.150 A  
HETATM   34  C   UNL     1      -8.937   5.030  64.772  1.00  0.00    -0.095 A  
HETATM   35  C   UNL     1      -8.400   4.722  63.522  1.00  0.00    -0.117 A  
HETATM   36  C   UNL     1      -8.904   2.692  65.364  1.00  0.00    -0.129 A  
HETATM   37  C   UNL     1      -8.377   2.381  64.113  1.00  0.00    -0.082 A  
HETATM   38  C   UNL     1      -8.132   3.394  63.189  1.00  0.00    -0.077 A  
ENDBRANCH  32  33
ENDBRANCH  31  32
BRANCH  31  39
HETATM   39  N   UNL     1      -8.486   5.520  68.736  1.00  0.00    -0.101 N  
HETATM   40  C   UNL     1      -8.903   4.978  69.917  1.00  0.00    -0.102 C  
HETATM   41  H   UNL     1      -7.510   5.804  68.639  1.00  0.00     0.000 HD 
HETATM   42  O   UNL     1     -10.058   4.658  70.160  1.00  0.00    -0.246 OA 
BRANCH  40  43
HETATM   43  O   UNL     1      -7.854   4.818  70.757  1.00  0.00    -0.070 OA 
BRANCH  43  44
HETATM   44  C   UNL     1      -8.143   5.115  72.129  1.00  0.00    -0.113 C  
BRANCH  44  45
HETATM   45  C   UNL     1      -8.040   3.849  72.907  1.00  0.00    -0.091 A  
HETATM   46  N   UNL     1      -7.119   2.028  74.059  1.00  0.00    -0.027 NA 
HETATM   47  C   UNL     1      -6.922   3.266  73.475  1.00  0.00    -0.040 A  
HETATM   48  C   UNL     1      -8.384   1.694  73.942  1.00  0.00    -0.046 A  
HETATM   49  S   UNL     1      -9.399   2.831  73.153  1.00  0.00    -0.090 SA 
ENDBRANCH  44  45
ENDBRANCH  43  44
ENDBRANCH  40  43
ENDBRANCH  31  39
ENDBRANCH  30  31
ENDBRANCH  29  30
ENDBRANCH  21  29
ENDBRANCH  19  21
ENDBRANCH  16  17
BRANCH  16  50
HETATM   50  C   UNL     1      -9.667  11.271  65.171  1.00  0.00    -0.285 C  
BRANCH  50  51
HETATM   51  C   UNL     1      -8.321  10.578  64.994  1.00  0.00    -0.140 C  
BRANCH  51  52
HETATM   52  N   UNL     1      -8.358   9.337  64.193  1.00  0.00    -0.166 NA 
HETATM   53  O   UNL     1      -5.566   8.397  64.191  1.00  0.00    -0.061 OA 
HETATM   54  C   UNL     1      -5.954   9.546  63.424  1.00  0.00    -0.093 C  
HETATM   55  C   UNL     1      -7.445   9.493  63.028  1.00  0.00    -0.108 C  
HETATM   56  C   UNL     1      -6.410   8.217  65.338  1.00  0.00    -0.048 C  
HETATM   57  C   UNL     1      -7.891   8.143  64.936  1.00  0.00    -0.128 C  
ENDBRANCH  51  52
ENDBRANCH  50  51
ENDBRANCH  16  50
ENDBRANCH  14  16
ENDBRANCH  12  14
ENDBRANCH  10  12
ENDBRANCH   9  10
ENDBRANCH   6   9
TORSDOF 21
ENDMDL
MODEL       18
REMARK 921   NORMALIZED FREE ENERGY PREDICTED BY IDOCK:   -3.30 KCAL/MOL
REMARK 922        TOTAL FREE ENERGY PREDICTED BY IDOCK:  -10.88 KCAL/MOL
REMARK 923 INTER-LIGAND FREE ENERGY PREDICTED BY IDOCK:   -9.44 KCAL/MOL
REMARK 924 INTRA-LIGAND FREE ENERGY PREDICTED BY IDOCK:   -1.44 KCAL/MOL
REMARK 927      BINDING AFFINITY PREDICTED BY RF-SCORE:    0.00 PKD
ROOT
HETATM    1  C   UNL     1      -9.050   4.380  73.738  1.00  0.00    -0.104 C  
HETATM    2  C   UNL     1      -9.896   3.627  72.712  1.00  0.00    -0.204 C  
HETATM    3  C   UNL     1      -9.442   3.929  71.302  1.00  0.00    -0.159 A  
HETATM    4  C   UNL     1     -11.380   3.943  72.902  1.00  0.00     0.072 C  
HETATM    5  N   UNL     1      -9.364   5.130  70.757  1.00  0.00    -0.154 NA 
HETATM    6  C   UNL     1      -8.908   5.040  69.436  1.00  0.00    -0.091 A  
HETATM    7  C   UNL     1      -8.653   3.749  69.015  1.00  0.00    -0.080 A  
HETATM    8  S   UNL     1      -8.975   2.632  70.269  1.00  0.00    -0.109 SA 
ENDROOT
BRANCH   6   9
HETATM    9  C   UNL     1      -8.810   6.278  68.580  1.00  0.00    -0.119 C  
BRANCH   9  10
HETATM   10  N   UNL     1     -10.005   6.491  67.756  1.00  0.00    -0.126 N  
HETATM   11  C   UNL     1     -10.761   5.304  67.371  1.00  0.00    -0.005 C  
BRANCH  10  12
HETATM   12  C   UNL     1     -10.101   7.681  67.036  1.00  0.00    -0.268 C  
HETATM   13  O   UNL     1     -10.961   8.533  67.245  1.00  0.00    -0.117 OA 
BRANCH  12  14
HETATM   14  N   UNL     1      -9.104   7.878  66.125  1.00  0.00    -0.232 N  
HETATM   15  H   UNL     1      -9.382   8.128  65.176  1.00  0.00     0.000 HD 
BRANCH  14  16
HETATM   16  C   UNL     1      -7.660   7.760  66.392  1.00  0.00    -0.092 C  
BRANCH  16  17
HETATM   17  C   UNL     1      -7.062   9.135  66.017  1.00  0.00    -0.090 C  
HETATM   18  H   UNL     1      -6.629  11.031  66.583  1.00  0.00     0.000 HD 
HETATM   19  N   UNL     1      -7.195  10.220  66.833  1.00  0.00    -0.091 N  
HETATM   20  O   UNL     1      -6.399   9.268  64.981  1.00  0.00    -0.065 OA 
BRANCH  19  21
HETATM   21  C   UNL     1      -8.037  10.378  68.015  1.00  0.00    -0.110 C  
BRANCH  21  22
HETATM   22  C   UNL     1      -7.367   9.806  69.279  1.00  0.00    -0.082 C  
BRANCH  22  23
HETATM   23  C   UNL     1      -8.330   9.340  70.342  1.00  0.00    -0.224 A  
HETATM   24  C   UNL     1      -8.721   8.228  72.463  1.00  0.00    -0.284 A  
HETATM   25  C   UNL     1     -10.592   9.019  71.161  1.00  0.00    -0.361 A  
HETATM   26  C   UNL     1      -9.716   9.484  70.180  1.00  0.00    -0.289 A  
HETATM   27  C   UNL     1      -7.843   8.701  71.490  1.00  0.00    -0.163 A  
HETATM   28  C   UNL     1     -10.099   8.386  72.298  1.00  0.00    -0.382 A  
ENDBRANCH  22  23
ENDBRANCH  21  22
BRANCH  21  29
HETATM   29  C   UNL     1      -8.452  11.850  68.186  1.00  0.00    -0.163 C  
BRANCH  29  30
HETATM   30  C   UNL     1      -8.504  12.708  66.908  1.00  0.00    -0.118 C  
BRANCH  30  31
HETATM   31  C   UNL     1      -9.042  14.135  67.165  1.00  0.00    -0.232 C  
BRANCH  31  32
HETATM   32  C   UNL     1      -9.631  14.733  65.864  1.00  0.00    -0.320 C  
BRANCH  32  33
HETATM   33  C   UNL     1     -10.715  13.869  65.259  1.00  0.00    -0.352 A  
HETATM   34  C   UNL     1     -10.451  13.065  64.142  1.00  0.00    -0.395 A  
HETATM   35  C   UNL     1     -11.466  12.312  63.551  1.00  0.00    -0.558 A  
HETATM   36  C   UNL     1     -12.012  13.874  65.794  1.00  0.00    -0.419 A  
HETATM   37  C   UNL     1     -13.029  13.132  65.198  1.00  0.00    -0.199 A  
HETATM   38  C   UNL     1     -12.758  12.357  64.073  1.00  0.00    -0.450 A  
ENDBRANCH  32  33
ENDBRANCH  31  32
BRANCH  31  39
HETATM   39  N   UNL     1      -8.009  15.006  67.723  1.00  0.00    -0.131 N  
HETATM   40  C   UNL     1      -8.020  15.397  69.031  1.00  0.00    -0.202 C  
HETATM   41  H   UNL     1      -7.256  15.331  67.116  1.00  0.00     0.000 HD 
HETATM   42  O   UNL     1      -8.903  15.114  69.828  1.00  0.00    -0.145 OA 
BRANCH  40  43
HETATM   43  O   UNL     1      -6.905  16.106  69.318  1.00  0.00    -0.183 OA 
BRANCH  43  44
HETATM   44  C   UNL     1      -6.547  17.076  68.324  1.00  0.00    -0.156 C  
BRANCH  44  45
HETATM   45  C   UNL     1      -6.160  18.333  69.023  1.00  0.00    -0.228 A  
HETATM   46  N   UNL     1      -5.737  19.870  70.740  1.00  0.00    -0.274 NA 
HETATM   47  C   UNL     1      -6.012  18.564  70.378  1.00  0.00    -0.032 A  
HETATM   48  C   UNL     1      -5.664  20.610  69.657  1.00  0.00    -0.357 A  
HETATM   49  S   UNL     1      -5.901  19.796  68.165  1.00  0.00    -0.225 SA 
ENDBRANCH  44  45
ENDBRANCH  43  44
ENDBRANCH  40  43
ENDBRANCH  31  39
ENDBRANCH  30  31
ENDBRANCH  29  30
ENDBRANCH  21  29
ENDBRANCH  19  21
ENDBRANCH  16  17
BRANCH  16  50
HETATM   50  C   UNL     1      -7.029   6.691  65.485  1.00  0.00    -0.060 C  
BRANCH  50  51
HETATM   51  C   UNL     1      -6.210   5.677  66.275  1.00  0.00    -0.034 C  
BRANCH  51  52
HETATM   52  N   UNL     1      -6.607   4.267  66.084  1.00  0.00    -0.041 NA 
HETATM   53  O   UNL     1      -6.805   3.965  63.160  1.00  0.00    -0.037 OA 
HETATM   54  C   UNL     1      -7.792   4.710  63.890  1.00  0.00    -0.087 C  
HETATM   55  C   UNL     1      -7.903   4.232  65.353  1.00  0.00    -0.086 C  
HETATM   56  C   UNL     1      -5.531   3.987  63.821  1.00  0.00    -0.013 C  
HETATM   57  C   UNL     1      -5.644   3.489  65.271  1.00  0.00    -0.014 C  
ENDBRANCH  51  52
ENDBRANCH  50  51
ENDBRANCH  16  50
ENDBRANCH  14  16
ENDBRANCH  12  14
ENDBRANCH  10  12
ENDBRANCH   9  10
ENDBRANCH   6   9
TORSDOF 21
ENDMDL
MODEL       19
REMARK 921   NORMALIZED FREE ENERGY PREDICTED BY IDOCK:   -2.89 KCAL/MOL
REMARK 922        TOTAL FREE ENERGY PREDICTED BY IDOCK:   -9.96 KCAL/MOL
REMARK 923 INTER-LIGAND FREE ENERGY PREDICTED BY IDOCK:   -7.97 KCAL/MOL
REMARK 924 INTRA-LIGAND FREE ENERGY PREDICTED BY IDOCK:   -1.99 KCAL/MOL
REMARK 927      BINDING AFFINITY PREDICTED BY RF-SCORE:    0.00 PKD
ROOT
HETATM    1  C   UNL     1     -10.867  15.486  70.744  1.00  0.00    -0.298 C  
HETATM    2  C   UNL     1     -12.326  15.031  70.771  1.00  0.00    -0.400 C  
HETATM    3  C   UNL     1     -12.427  13.523  70.832  1.00  0.00    -0.369 A  
HETATM    4  C   UNL     1     -13.088  15.594  69.571  1.00  0.00     0.893 C  
HETATM    5  N   UNL     1     -11.898  12.678  69.966  1.00  0.00    -0.319 NA 
HETATM    6  C   UNL     1     -12.190  11.358  70.328  1.00  0.00    -0.349 A  
HETATM    7  C   UNL     1     -12.948  11.243  71.478  1.00  0.00    -0.415 A  
HETATM    8  S   UNL     1     -13.299  12.788  72.124  1.00  0.00    -0.384 SA 
ENDROOT
BRANCH   6   9
HETATM    9  C   UNL     1     -11.757  10.214  69.446  1.00  0.00    -0.028 C  
BRANCH   9  10
HETATM   10  N   UNL     1     -11.194   9.094  70.208  1.00  0.00    -0.240 N  
HETATM   11  C   UNL     1     -10.983   9.307  71.634  1.00  0.00    -0.363 C  
BRANCH  10  12
HETATM   12  C   UNL     1     -10.500   8.108  69.507  1.00  0.00    -0.227 C  
HETATM   13  O   UNL     1     -11.005   7.423  68.621  1.00  0.00    -0.092 OA 
BRANCH  12  14
HETATM   14  N   UNL     1      -9.175   8.013  69.819  1.00  0.00    -0.149 N  
HETATM   15  H   UNL     1      -8.938   7.661  70.746  1.00  0.00     0.000 HD 
BRANCH  14  16
HETATM   16  C   UNL     1      -8.055   8.374  68.932  1.00  0.00    -0.114 C  
BRANCH  16  17
HETATM   17  C   UNL     1      -7.075   9.176  69.818  1.00  0.00    -0.061 C  
HETATM   18  H   UNL     1      -5.289   9.250  70.771  1.00  0.00     0.000 HD 
HETATM   19  N   UNL     1      -5.953   8.605  70.343  1.00  0.00    -0.027 N  
HETATM   20  O   UNL     1      -7.264  10.381  70.031  1.00  0.00    -0.154 OA 
BRANCH  19  21
HETATM   21  C   UNL     1      -5.574   7.196  70.376  1.00  0.00    -0.024 C  
BRANCH  21  22
HETATM   22  C   UNL     1      -5.188   6.737  71.794  1.00  0.00    -0.028 C  
BRANCH  22  23
HETATM   23  C   UNL     1      -6.329   6.733  72.782  1.00  0.00    -0.054 A  
HETATM   24  C   UNL     1      -7.912   5.491  74.138  1.00  0.00    -0.102 A  
HETATM   25  C   UNL     1      -8.008   7.902  74.087  1.00  0.00    -0.276 A  
HETATM   26  C   UNL     1      -6.935   7.928  73.196  1.00  0.00    -0.108 A  
HETATM   27  C   UNL     1      -6.833   5.515  73.257  1.00  0.00    -0.079 A  
HETATM   28  C   UNL     1      -8.502   6.688  74.553  1.00  0.00    -0.169 A  
ENDBRANCH  22  23
ENDBRANCH  21  22
BRANCH  21  29
HETATM   29  C   UNL     1      -6.684   6.327  69.758  1.00  0.00    -0.056 C  
BRANCH  29  30
HETATM   30  C   UNL     1      -6.641   4.819  70.073  1.00  0.00    -0.036 C  
BRANCH  30  31
HETATM   31  C   UNL     1      -7.846   4.049  69.485  1.00  0.00    -0.052 C  
BRANCH  31  32
HETATM   32  C   UNL     1      -8.428   3.072  70.535  1.00  0.00    -0.096 C  
BRANCH  32  33
HETATM   33  C   UNL     1      -9.446   3.725  71.444  1.00  0.00    -0.225 A  
HETATM   34  C   UNL     1      -9.987   3.027  72.532  1.00  0.00    -0.229 A  
HETATM   35  C   UNL     1     -10.967   3.610  73.335  1.00  0.00    -0.312 A  
HETATM   36  C   UNL     1      -9.882   5.036  71.201  1.00  0.00    -0.254 A  
HETATM   37  C   UNL     1     -10.868   5.615  71.995  1.00  0.00    -0.300 A  
HETATM   38  C   UNL     1     -11.416   4.901  73.057  1.00  0.00    -0.327 A  
ENDBRANCH  32  33
ENDBRANCH  31  32
BRANCH  31  39
HETATM   39  N   UNL     1      -7.485   3.345  68.256  1.00  0.00    -0.053 N  
HETATM   40  C   UNL     1      -8.399   3.083  67.276  1.00  0.00    -0.086 C  
HETATM   41  H   UNL     1      -6.520   3.040  68.126  1.00  0.00     0.000 HD 
HETATM   42  O   UNL     1      -9.589   3.351  67.353  1.00  0.00    -0.208 OA 
BRANCH  40  43
HETATM   43  O   UNL     1      -7.791   2.522  66.206  1.00  0.00    -0.078 OA 
BRANCH  43  44
HETATM   44  C   UNL     1      -8.571   2.545  65.002  1.00  0.00    -0.102 C  
BRANCH  44  45
HETATM   45  C   UNL     1      -8.125   3.707  64.185  1.00  0.00    -0.089 A  
HETATM   46  N   UNL     1      -8.171   5.731  63.004  1.00  0.00    -0.108 NA 
HETATM   47  C   UNL     1      -8.812   4.865  63.872  1.00  0.00    -0.077 A  
HETATM   48  C   UNL     1      -7.000   5.228  62.683  1.00  0.00    -0.033 A  
HETATM   49  S   UNL     1      -6.599   3.722  63.400  1.00  0.00    -0.035 SA 
ENDBRANCH  44  45
ENDBRANCH  43  44
ENDBRANCH  40  43
ENDBRANCH  31  39
ENDBRANCH  30  31
ENDBRANCH  29  30
ENDBRANCH  21  29
ENDBRANCH  19  21
ENDBRANCH  16  17
BRANCH  16  50
HETATM   50  C   UNL     1      -8.541   9.287  67.794  1.00  0.00    -0.117 C  
BRANCH  50  51
HETATM   51  C   UNL     1      -7.907   8.924  66.456  1.00  0.00    -0.100 C  
BRANCH  51  52
HETATM   52  N   UNL     1      -7.541  10.075  65.606  1.00  0.00    -0.130 NA 
HETATM   53  O   UNL     1      -9.607  10.105  63.506  1.00  0.00    -0.293 OA 
HETATM   54  C   UNL     1      -8.586   9.096  63.517  1.00  0.00    -0.165 C  
HETATM   55  C   UNL     1      -7.303   9.588  64.220  1.00  0.00    -0.118 C  
HETATM   56  C   UNL     1      -9.883  10.593  64.827  1.00  0.00    -0.310 C  
HETATM   57  C   UNL     1      -8.606  11.101  65.514  1.00  0.00    -0.045 C  
ENDBRANCH  51  52
ENDBRANCH  50  51
ENDBRANCH  16  50
ENDBRANCH  14  16
ENDBRANCH  12  14
ENDBRANCH  10  12
ENDBRANCH   9  10
ENDBRANCH   6   9
TORSDOF 21
ENDMDL
MODEL       20
REMARK 921   NORMALIZED FREE ENERGY PREDICTED BY IDOCK:   -2.75 KCAL/MOL
REMARK 922        TOTAL FREE ENERGY PREDICTED BY IDOCK:   -9.65 KCAL/MOL
REMARK 923 INTER-LIGAND FREE ENERGY PREDICTED BY IDOCK:   -9.16 KCAL/MOL
REMARK 924 INTRA-LIGAND FREE ENERGY PREDICTED BY IDOCK:   -0.50 KCAL/MOL
REMARK 927      BINDING AFFINITY PREDICTED BY RF-SCORE:    0.00 PKD
ROOT
HETATM    1  C   UNL     1     -11.745  15.212  69.634  1.00  0.00    -0.353 C  
HETATM    2  C   UNL     1     -11.642  15.630  68.167  1.00  0.00    -0.290 C  
HETATM    3  C   UNL     1     -11.370  14.438  67.278  1.00  0.00    -0.342 A  
HETATM    4  C   UNL     1     -10.579  16.715  67.990  1.00  0.00    -0.338 C  
HETATM    5  N   UNL     1     -10.351  13.606  67.392  1.00  0.00    -0.243 NA 
HETATM    6  C   UNL     1     -10.409  12.620  66.401  1.00  0.00    -0.249 A  
HETATM    7  C   UNL     1     -11.490  12.741  65.548  1.00  0.00    -0.337 A  
HETATM    8  S   UNL     1     -12.451  14.088  65.983  1.00  0.00    -0.390 SA 
ENDROOT
BRANCH   6   9
HETATM    9  C   UNL     1      -9.307  11.598  66.280  1.00  0.00    -0.216 C  
BRANCH   9  10
HETATM   10  N   UNL     1      -9.426  10.518  67.266  1.00  0.00    -0.157 N  
HETATM   11  C   UNL     1     -10.665   9.751  67.257  1.00  0.00    -0.227 C  
BRANCH  10  12
HETATM   12  C   UNL     1      -8.606  10.567  68.393  1.00  0.00    -0.132 C  
HETATM   13  O   UNL     1      -7.933  11.548  68.700  1.00  0.00    -0.140 OA 
BRANCH  12  14
HETATM   14  N   UNL     1      -8.670   9.463  69.193  1.00  0.00    -0.136 N  
HETATM   15  H   UNL     1      -9.020   8.602  68.772  1.00  0.00     0.000 HD 
BRANCH  14  16
HETATM   16  C   UNL     1      -8.278   9.406  70.612  1.00  0.00    -0.168 C  
BRANCH  16  17
HETATM   17  C   UNL     1      -6.865   8.781  70.621  1.00  0.00    -0.050 C  
HETATM   18  H   UNL     1      -5.657   7.259  70.048  1.00  0.00     0.000 HD 
HETATM   19  N   UNL     1      -6.638   7.519  70.155  1.00  0.00    -0.041 N  
HETATM   20  O   UNL     1      -5.891   9.438  71.009  1.00  0.00    -0.052 OA 
BRANCH  19  21
HETATM   21  C   UNL     1      -7.607   6.490  69.789  1.00  0.00    -0.097 C  
BRANCH  21  22
HETATM   22  C   UNL     1      -8.473   6.064  70.990  1.00  0.00    -0.124 C  
BRANCH  22  23
HETATM   23  C   UNL     1      -8.809   4.593  71.028  1.00  0.00    -0.149 A  
HETATM   24  C   UNL     1      -8.702   2.400  69.997  1.00  0.00    -0.121 A  
HETATM   25  C   UNL     1      -9.930   2.700  72.052  1.00  0.00    -0.224 A  
HETATM   26  C   UNL     1      -9.606   4.057  72.051  1.00  0.00    -0.206 A  
HETATM   27  C   UNL     1      -8.367   3.753  69.999  1.00  0.00    -0.081 A  
HETATM   28  C   UNL     1      -9.487   1.873  71.026  1.00  0.00    -0.206 A  
ENDBRANCH  22  23
ENDBRANCH  21  22
BRANCH  21  29
HETATM   29  C   UNL     1      -8.453   6.952  68.589  1.00  0.00    -0.121 C  
BRANCH  29  30
HETATM   30  C   UNL     1      -7.705   7.187  67.263  1.00  0.00    -0.109 C  
BRANCH  30  31
HETATM   31  C   UNL     1      -6.870   5.963  66.821  1.00  0.00    -0.059 C  
BRANCH  31  32
HETATM   32  C   UNL     1      -5.920   6.348  65.660  1.00  0.00    -0.029 C  
BRANCH  32  33
HETATM   33  C   UNL     1      -6.420   7.531  64.860  1.00  0.00    -0.037 A  
HETATM   34  C   UNL     1      -5.923   8.819  65.100  1.00  0.00    -0.055 A  
HETATM   35  C   UNL     1      -6.425   9.917  64.402  1.00  0.00    -0.125 A  
HETATM   36  C   UNL     1      -7.406   7.362  63.877  1.00  0.00    -0.089 A  
HETATM   37  C   UNL     1      -7.917   8.458  63.187  1.00  0.00    -0.161 A  
HETATM   38  C   UNL     1      -7.432   9.737  63.454  1.00  0.00    -0.124 A  
ENDBRANCH  32  33
ENDBRANCH  31  32
BRANCH  31  39
HETATM   39  N   UNL     1      -7.723   4.836  66.450  1.00  0.00    -0.091 N  
HETATM   40  C   UNL     1      -7.268   3.549  66.462  1.00  0.00    -0.067 C  
HETATM   41  H   UNL     1      -8.689   5.017  66.174  1.00  0.00     0.000 HD 
HETATM   42  O   UNL     1      -6.117   3.225  66.719  1.00  0.00    -0.023 OA 
BRANCH  40  43
HETATM   43  O   UNL     1      -8.278   2.692  66.184  1.00  0.00    -0.082 OA 
BRANCH  43  44
HETATM   44  C   UNL     1      -8.149   2.011  64.928  1.00  0.00    -0.078 C  
BRANCH  44  45
HETATM   45  C   UNL     1      -9.294   2.413  64.066  1.00  0.00    -0.120 A  
HETATM   46  N   UNL     1     -11.223   2.276  62.742  1.00  0.00    -0.220 NA 
HETATM   47  C   UNL     1     -10.356   1.649  63.618  1.00  0.00    -0.101 A  
HETATM   48  C   UNL     1     -10.818   3.511  62.548  1.00  0.00    -0.136 A  
HETATM   49  S   UNL     1      -9.409   3.991  63.401  1.00  0.00    -0.139 SA 
ENDBRANCH  44  45
ENDBRANCH  43  44
ENDBRANCH  40  43
ENDBRANCH  31  39
ENDBRANCH  30  31
ENDBRANCH  29  30
ENDBRANCH  21  29
ENDBRANCH  19  21
ENDBRANCH  16  17
BRANCH  16  50
HETATM   50  C   UNL     1      -9.225   8.482  71.396  1.00  0.00    -0.272 C  
BRANCH  50  51
HETATM   51  C   UNL     1     -10.519   9.185  71.788  1.00  0.00    -0.291 C  
BRANCH  51  52
HETATM   52  N   UNL     1     -11.586   9.143  70.767  1.00  0.00    -0.281 NA 
HETATM   53  O   UNL     1     -13.505   7.166  71.811  1.00  0.00    -0.355 OA 
HETATM   54  C   UNL     1     -12.237   6.750  71.283  1.00  0.00    -0.364 C  
HETATM   55  C   UNL     1     -11.692   7.754  70.244  1.00  0.00     0.047 C  
HETATM   56  C   UNL     1     -13.445   8.497  72.344  1.00  0.00    -0.277 C  
HETATM   57  C   UNL     1     -12.923   9.496  71.299  1.00  0.00    -0.328 C  
ENDBRANCH  51  52
ENDBRANCH  50  51
ENDBRANCH  16  50
ENDBRANCH  14  16
ENDBRANCH  12  14
ENDBRANCH  10  12
ENDBRANCH   9  10
ENDBRANCH   6   9
TORSDOF 21
ENDMDL
MODEL       21
REMARK 921   NORMALIZED FREE ENERGY PREDICTED BY IDOCK:   -2.75 KCAL/MOL
REMARK 922        TOTAL FREE ENERGY PREDICTED BY IDOCK:   -9.64 KCAL/MOL
REMARK 923 INTER-LIGAND FREE ENERGY PREDICTED BY IDOCK:   -8.34 KCAL/MOL
REMARK 924 INTRA-LIGAND FREE ENERGY PREDICTED BY IDOCK:   -1.30 KCAL/MOL
REMARK 927      BINDING AFFINITY PREDICTED BY RF-SCORE:    0.00 PKD
ROOT
HETATM    1  C   UNL     1     -13.302   9.024  72.436  1.00  0.00    -0.516 C  
HETATM    2  C   UNL     1     -12.899   9.974  71.309  1.00  0.00    -0.500 C  
HETATM    3  C   UNL     1     -11.534   9.624  70.761  1.00  0.00    -0.328 A  
HETATM    4  C   UNL     1     -12.955  11.426  71.783  1.00  0.00    -0.519 C  
HETATM    5  N   UNL     1     -10.417   9.548  71.461  1.00  0.00    -0.229 NA 
HETATM    6  C   UNL     1      -9.342   9.202  70.635  1.00  0.00    -0.258 A  
HETATM    7  C   UNL     1      -9.685   9.025  69.308  1.00  0.00    -0.168 A  
HETATM    8  S   UNL     1     -11.360   9.284  69.080  1.00  0.00     0.378 SA 
ENDROOT
BRANCH   6   9
HETATM    9  C   UNL     1      -7.944   9.131  71.196  1.00  0.00    -0.075 C  
BRANCH   9  10
HETATM   10  N   UNL     1      -6.935   9.661  70.271  1.00  0.00    -0.103 N  
HETATM   11  C   UNL     1      -5.901   8.736  69.823  1.00  0.00    -0.028 C  
BRANCH  10  12
HETATM   12  C   UNL     1      -6.748  11.042  70.229  1.00  0.00     0.090 C  
HETATM   13  O   UNL     1      -6.000  11.649  70.992  1.00  0.00    -0.374 OA 
BRANCH  12  14
HETATM   14  N   UNL     1      -7.397  11.674  69.208  1.00  0.00    -0.315 N  
HETATM   15  H   UNL     1      -8.199  12.253  69.454  1.00  0.00     0.000 HD 
BRANCH  14  16
HETATM   16  C   UNL     1      -7.040  11.593  67.781  1.00  0.00    -0.092 C  
BRANCH  16  17
HETATM   17  C   UNL     1      -6.355  12.939  67.454  1.00  0.00    -0.113 C  
HETATM   18  H   UNL     1      -6.394  14.961  67.579  1.00  0.00     0.000 HD 
HETATM   19  N   UNL     1      -6.982  14.132  67.667  1.00  0.00    -0.179 N  
HETATM   20  O   UNL     1      -5.191  12.964  67.035  1.00  0.00    -0.334 OA 
BRANCH  19  21
HETATM   21  C   UNL     1      -8.380  14.383  68.003  1.00  0.00    -0.157 C  
BRANCH  21  22
HETATM   22  C   UNL     1      -8.523  15.165  69.322  1.00  0.00    -0.209 C  
BRANCH  22  23
HETATM   23  C   UNL     1      -8.206  16.637  69.214  1.00  0.00    -0.027 A  
HETATM   24  C   UNL     1      -6.564  18.423  69.209  1.00  0.00    -0.257 A  
HETATM   25  C   UNL     1      -8.913  18.952  69.051  1.00  0.00    -0.182 A  
HETATM   26  C   UNL     1      -9.226  17.594  69.120  1.00  0.00     0.070 A  
HETATM   27  C   UNL     1      -6.873  17.066  69.266  1.00  0.00    -0.219 A  
HETATM   28  C   UNL     1      -7.587  19.369  69.103  1.00  0.00    -0.316 A  
ENDBRANCH  22  23
ENDBRANCH  21  22
BRANCH  21  29
HETATM   29  C   UNL     1      -9.098  15.074  66.829  1.00  0.00    -0.287 C  
BRANCH  29  30
HETATM   30  C   UNL     1     -10.513  14.568  66.488  1.00  0.00    -0.285 C  
BRANCH  30  31
HETATM   31  C   UNL     1     -11.395  15.654  65.827  1.00  0.00     0.023 C  
BRANCH  31  32
HETATM   32  C   UNL     1     -12.267  15.034  64.708  1.00  0.00    -0.223 C  
BRANCH  32  33
HETATM   33  C   UNL     1     -11.835  13.634  64.335  1.00  0.00    -0.460 A  
HETATM   34  C   UNL     1     -10.539  13.385  63.862  1.00  0.00     0.061 A  
HETATM   35  C   UNL     1     -10.161  12.103  63.464  1.00  0.00    -0.453 A  
HETATM   36  C   UNL     1     -12.733  12.560  64.435  1.00  0.00    -0.447 A  
HETATM   37  C   UNL     1     -12.360  11.282  64.028  1.00  0.00     0.631 A  
HETATM   38  C   UNL     1     -11.077  11.054  63.536  1.00  0.00     0.107 A  
ENDBRANCH  32  33
ENDBRANCH  31  32
BRANCH  31  39
HETATM   39  N   UNL     1     -10.590  16.761  65.315  1.00  0.00    -0.259 N  
HETATM   40  C   UNL     1     -10.479  17.946  65.983  1.00  0.00    -0.293 C  
HETATM   41  H   UNL     1     -10.095  16.644  64.430  1.00  0.00     0.000 HD 
HETATM   42  O   UNL     1     -11.073  18.213  67.018  1.00  0.00    -0.091 OA 
BRANCH  40  43
HETATM   43  O   UNL     1      -9.597  18.758  65.355  1.00  0.00     0.075 OA 
BRANCH  43  44
HETATM   44  C   UNL     1      -9.395  20.023  65.999  1.00  0.00    -0.265 C  
BRANCH  44  45
HETATM   45  C   UNL     1      -7.928  20.250  66.120  1.00  0.00    -0.141 A  
HETATM   46  N   UNL     1      -5.880  21.295  66.572  1.00  0.00    -0.274 NA 
HETATM   47  C   UNL     1      -7.257  21.311  66.698  1.00  0.00     0.198 A  
HETATM   48  C   UNL     1      -5.522  20.214  65.915  1.00  0.00    -0.164 A  
HETATM   49  S   UNL     1      -6.790  19.165  65.432  1.00  0.00    -0.122 SA 
ENDBRANCH  44  45
ENDBRANCH  43  44
ENDBRANCH  40  43
ENDBRANCH  31  39
ENDBRANCH  30  31
ENDBRANCH  29  30
ENDBRANCH  21  29
ENDBRANCH  19  21
ENDBRANCH  16  17
BRANCH  16  50
HETATM   50  C   UNL     1      -8.304  11.467  66.915  1.00  0.00    -0.166 C  
BRANCH  50  51
HETATM   51  C   UNL     1      -8.250  10.255  65.993  1.00  0.00    -0.141 C  
BRANCH  51  52
HETATM   52  N   UNL     1      -7.294   9.204  66.398  1.00  0.00    -0.091 NA 
HETATM   53  O   UNL     1      -7.492   7.187  64.260  1.00  0.00    -0.083 OA 
HETATM   54  C   UNL     1      -8.551   7.351  65.215  1.00  0.00     0.004 C  
HETATM   55  C   UNL     1      -8.033   7.921  66.552  1.00  0.00    -0.102 C  
HETATM   56  C   UNL     1      -6.762   8.407  64.066  1.00  0.00    -0.075 C  
HETATM   57  C   UNL     1      -6.230   8.959  65.398  1.00  0.00    -0.063 C  
ENDBRANCH  51  52
ENDBRANCH  50  51
ENDBRANCH  16  50
ENDBRANCH  14  16
ENDBRANCH  12  14
ENDBRANCH  10  12
ENDBRANCH   9  10
ENDBRANCH   6   9
TORSDOF 21
ENDMDL
MODEL       22
REMARK 921   NORMALIZED FREE ENERGY PREDICTED BY IDOCK:   -2.51 KCAL/MOL
REMARK 922        TOTAL FREE ENERGY PREDICTED BY IDOCK:   -9.12 KCAL/MOL
REMARK 923 INTER-LIGAND FREE ENERGY PREDICTED BY IDOCK:   -8.58 KCAL/MOL
REMARK 924 INTRA-LIGAND FREE ENERGY PREDICTED BY IDOCK:   -0.53 KCAL/MOL
REMARK 927      BINDING AFFINITY PREDICTED BY RF-SCORE:    0.00 PKD
ROOT
HETATM    1  C   UNL     1      -6.950   6.431  67.183  1.00  0.00    -0.071 C  
HETATM    2  C   UNL     1      -7.134   5.477  68.363  1.00  0.00    -0.070 C  
HETATM    3  C   UNL     1      -8.461   5.709  69.051  1.00  0.00    -0.102 A  
HETATM    4  C   UNL     1      -5.968   5.601  69.343  1.00  0.00    -0.020 C  
HETATM    5  N   UNL     1      -8.876   6.853  69.564  1.00  0.00    -0.133 NA 
HETATM    6  C   UNL     1     -10.150   6.706  70.124  1.00  0.00    -0.178 A  
HETATM    7  C   UNL     1     -10.668   5.429  70.019  1.00  0.00    -0.226 A  
HETATM    8  S   UNL     1      -9.569   4.399  69.210  1.00  0.00    -0.185 SA 
ENDROOT
BRANCH   6   9
HETATM    9  C   UNL     1     -10.802   7.861  70.842  1.00  0.00    -0.234 C  
BRANCH   9  10
HETATM   10  N   UNL     1     -11.340   8.868  69.920  1.00  0.00    -0.068 N  
HETATM   11  C   UNL     1     -11.329   8.535  68.501  1.00  0.00     0.804 C  
BRANCH  10  12
HETATM   12  C   UNL     1     -11.404  10.190  70.359  1.00  0.00    -0.326 C  
HETATM   13  O   UNL     1     -12.255  10.605  71.141  1.00  0.00    -0.349 OA 
BRANCH  12  14
HETATM   14  N   UNL     1     -10.387  10.986  69.918  1.00  0.00    -0.389 N  
HETATM   15  H   UNL     1      -9.561  11.059  70.512  1.00  0.00     0.000 HD 
BRANCH  14  16
HETATM   16  C   UNL     1     -10.378  11.751  68.659  1.00  0.00    -0.214 C  
BRANCH  16  17
HETATM   17  C   UNL     1     -10.045  13.204  69.066  1.00  0.00     0.164 C  
HETATM   18  H   UNL     1      -8.742  14.754  68.989  1.00  0.00     0.000 HD 
HETATM   19  N   UNL     1      -8.814  13.747  68.840  1.00  0.00     0.055 N  
HETATM   20  O   UNL     1     -10.914  13.930  69.566  1.00  0.00    -0.181 OA 
BRANCH  19  21
HETATM   21  C   UNL     1      -7.586  13.084  68.414  1.00  0.00    -0.133 C  
BRANCH  21  22
HETATM   22  C   UNL     1      -7.825  11.604  68.060  1.00  0.00    -0.128 C  
BRANCH  22  23
HETATM   23  C   UNL     1      -6.966  10.630  68.828  1.00  0.00    -0.068 A  
HETATM   24  C   UNL     1      -5.143   9.028  68.860  1.00  0.00    -0.033 A  
HETATM   25  C   UNL     1      -6.441   9.408  70.859  1.00  0.00    -0.096 A  
HETATM   26  C   UNL     1      -7.228  10.335  70.174  1.00  0.00    -0.138 A  
HETATM   27  C   UNL     1      -5.921   9.962  68.177  1.00  0.00    -0.043 A  
HETATM   28  C   UNL     1      -5.405   8.750  70.204  1.00  0.00    -0.028 A  
ENDBRANCH  22  23
ENDBRANCH  21  22
BRANCH  21  29
HETATM   29  C   UNL     1      -6.925  13.864  67.264  1.00  0.00     0.108 C  
BRANCH  29  30
HETATM   30  C   UNL     1      -6.229  15.187  67.633  1.00  0.00    -0.145 C  
BRANCH  30  31
HETATM   31  C   UNL     1      -6.652  16.363  66.721  1.00  0.00    -0.060 C  
BRANCH  31  32
HETATM   32  C   UNL     1      -6.289  17.716  67.380  1.00  0.00    -0.166 C  
BRANCH  32  33
HETATM   33  C   UNL     1      -5.940  18.786  66.370  1.00  0.00    -0.185 A  
HETATM   34  C   UNL     1      -5.892  20.136  66.744  1.00  0.00    -0.194 A  
HETATM   35  C   UNL     1      -5.627  21.127  65.798  1.00  0.00    -0.266 A  
HETATM   36  C   UNL     1      -5.679  18.448  65.034  1.00  0.00    -0.199 A  
HETATM   37  C   UNL     1      -5.424  19.436  64.087  1.00  0.00    -0.292 A  
HETATM   38  C   UNL     1      -5.406  20.776  64.467  1.00  0.00    -0.234 A  
ENDBRANCH  32  33
ENDBRANCH  31  32
BRANCH  31  39
HETATM   39  N   UNL     1      -8.075  16.303  66.393  1.00  0.00    -0.309 N  
HETATM   40  C   UNL     1      -9.044  16.529  67.328  1.00  0.00    -0.204 C  
HETATM   41  H   UNL     1      -8.353  16.085  65.436  1.00  0.00     0.000 HD 
HETATM   42  O   UNL     1      -8.824  16.739  68.513  1.00  0.00    -0.230 OA 
BRANCH  40  43
HETATM   43  O   UNL     1     -10.266  16.520  66.749  1.00  0.00    -0.281 OA 
BRANCH  43  44
HETATM   44  C   UNL     1     -10.549  17.674  65.946  1.00  0.00    -0.203 C  
BRANCH  44  45
HETATM   45  C   UNL     1     -10.312  18.885  66.779  1.00  0.00    -0.414 A  
HETATM   46  N   UNL     1     -10.511  20.460  68.503  1.00  0.00    -0.121 NA 
HETATM   47  C   UNL     1     -10.841  19.209  68.014  1.00  0.00    -0.099 A  
HETATM   48  C   UNL     1      -9.723  21.063  67.641  1.00  0.00    -0.034 A  
HETATM   49  S   UNL     1      -9.327  20.178  66.226  1.00  0.00    -0.252 SA 
ENDBRANCH  44  45
ENDBRANCH  43  44
ENDBRANCH  40  43
ENDBRANCH  31  39
ENDBRANCH  30  31
ENDBRANCH  29  30
ENDBRANCH  21  29
ENDBRANCH  19  21
ENDBRANCH  16  17
BRANCH  16  50
HETATM   50  C   UNL     1     -11.770  11.734  68.008  1.00  0.00    -0.363 C  
BRANCH  50  51
HETATM   51  C   UNL     1     -11.692  11.720  66.486  1.00  0.00    -0.069 C  
BRANCH  51  52
HETATM   52  N   UNL     1     -10.716  12.662  65.901  1.00  0.00    -0.262 NA 
HETATM   53  O   UNL     1     -11.717  13.136  63.171  1.00  0.00    -0.382 OA 
HETATM   54  C   UNL     1     -11.113  11.883  63.524  1.00  0.00    -0.428 C  
HETATM   55  C   UNL     1     -10.115  12.038  64.692  1.00  0.00    -0.264 C  
HETATM   56  C   UNL     1     -12.327  13.767  64.307  1.00  0.00    -0.337 C  
HETATM   57  C   UNL     1     -11.323  13.939  65.458  1.00  0.00    -0.308 C  
ENDBRANCH  51  52
ENDBRANCH  50  51
ENDBRANCH  16  50
ENDBRANCH  14  16
ENDBRANCH  12  14
ENDBRANCH  10  12
ENDBRANCH   9  10
ENDBRANCH   6   9
TORSDOF 21
ENDMDL
MODEL       23
REMARK 921   NORMALIZED FREE ENERGY PREDICTED BY IDOCK:   -2.13 KCAL/MOL
REMARK 922        TOTAL FREE ENERGY PREDICTED BY IDOCK:   -8.26 KCAL/MOL
REMARK 923 INTER-LIGAND FREE ENERGY PREDICTED BY IDOCK:   -8.04 KCAL/MOL
REMARK 924 INTRA-LIGAND FREE ENERGY PREDICTED BY IDOCK:   -0.23 KCAL/MOL
REMARK 927      BINDING AFFINITY PREDICTED BY RF-SCORE:    0.00 PKD
ROOT
HETATM    1  C   UNL     1      -8.395  15.615  69.728  1.00  0.00     0.069 C  
HETATM    2  C   UNL     1      -9.805  16.203  69.798  1.00  0.00    -0.057 C  
HETATM    3  C   UNL     1     -10.829  15.132  70.096  1.00  0.00    -0.241 A  
HETATM    4  C   UNL     1     -10.140  16.954  68.510  1.00  0.00    -0.297 C  
HETATM    5  N   UNL     1     -11.030  14.037  69.386  1.00  0.00    -0.201 NA 
HETATM    6  C   UNL     1     -12.057  13.270  69.948  1.00  0.00    -0.308 A  
HETATM    7  C   UNL     1     -12.615  13.821  71.086  1.00  0.00    -0.373 A  
HETATM    8  S   UNL     1     -11.854  15.303  71.471  1.00  0.00    -0.419 SA 
ENDROOT
BRANCH   6   9
HETATM    9  C   UNL     1     -12.522  12.007  69.267  1.00  0.00     0.280 C  
BRANCH   9  10
HETATM   10  N   UNL     1     -11.577  10.896  69.430  1.00  0.00    -0.289 N  
HETATM   11  C   UNL     1     -10.836  10.840  70.684  1.00  0.00     0.485 C  
BRANCH  10  12
HETATM   12  C   UNL     1     -11.117  10.254  68.281  1.00  0.00    -0.254 C  
HETATM   13  O   UNL     1     -11.777  10.151  67.250  1.00  0.00     0.178 OA 
BRANCH  12  14
HETATM   14  N   UNL     1      -9.826   9.815  68.351  1.00  0.00    -0.149 N  
HETATM   15  H   UNL     1      -9.630   9.047  68.993  1.00  0.00     0.000 HD 
BRANCH  14  16
HETATM   16  C   UNL     1      -8.692  10.354  67.582  1.00  0.00    -0.118 C  
BRANCH  16  17
HETATM   17  C   UNL     1      -7.546  10.519  68.605  1.00  0.00    -0.099 C  
HETATM   18  H   UNL     1      -5.772   9.849  69.320  1.00  0.00     0.000 HD 
HETATM   19  N   UNL     1      -6.569   9.577  68.744  1.00  0.00    -0.051 N  
HETATM   20  O   UNL     1      -7.461  11.545  69.292  1.00  0.00    -0.073 OA 
BRANCH  19  21
HETATM   21  C   UNL     1      -6.509   8.231  68.181  1.00  0.00    -0.056 C  
BRANCH  21  22
HETATM   22  C   UNL     1      -6.405   7.154  69.277  1.00  0.00    -0.035 C  
BRANCH  22  23
HETATM   23  C   UNL     1      -6.790   7.626  70.658  1.00  0.00    -0.046 A  
HETATM   24  C   UNL     1      -6.157   8.641  72.768  1.00  0.00    -0.078 A  
HETATM   25  C   UNL     1      -8.409   7.832  72.454  1.00  0.00    -0.164 A  
HETATM   26  C   UNL     1      -8.081   7.415  71.163  1.00  0.00    -0.101 A  
HETATM   27  C   UNL     1      -5.831   8.236  71.476  1.00  0.00    -0.037 A  
HETATM   28  C   UNL     1      -7.450   8.438  73.259  1.00  0.00    -0.111 A  
ENDBRANCH  22  23
ENDBRANCH  21  22
BRANCH  21  29
HETATM   29  C   UNL     1      -7.699   7.993  67.234  1.00  0.00    -0.101 C  
BRANCH  29  30
HETATM   30  C   UNL     1      -8.206   6.544  67.108  1.00  0.00    -0.113 C  
BRANCH  30  31
HETATM   31  C   UNL     1      -9.358   6.397  66.087  1.00  0.00    -0.076 C  
BRANCH  31  32
HETATM   32  C   UNL     1     -10.428   5.412  66.616  1.00  0.00    -0.356 C  
BRANCH  32  33
HETATM   33  C   UNL     1     -10.160   4.961  68.035  1.00  0.00    -0.141 A  
HETATM   34  C   UNL     1     -10.746   5.627  69.121  1.00  0.00    -0.325 A  
HETATM   35  C   UNL     1     -10.453   5.246  70.431  1.00  0.00    -0.322 A  
HETATM   36  C   UNL     1      -9.303   3.881  68.291  1.00  0.00    -0.221 A  
HETATM   37  C   UNL     1      -9.001   3.507  69.598  1.00  0.00    -0.174 A  
HETATM   38  C   UNL     1      -9.570   4.194  70.668  1.00  0.00    -0.264 A  
ENDBRANCH  32  33
ENDBRANCH  31  32
BRANCH  31  39
HETATM   39  N   UNL     1      -8.863   5.982  64.776  1.00  0.00    -0.363 N  
HETATM   40  C   UNL     1      -7.817   6.610  64.164  1.00  0.00    -0.108 C  
HETATM   41  H   UNL     1      -9.315   5.198  64.303  1.00  0.00     0.000 HD 
HETATM   42  O   UNL     1      -7.243   7.592  64.613  1.00  0.00    -0.068 OA 
BRANCH  40  43
HETATM   43  O   UNL     1      -7.490   5.969  63.018  1.00  0.00    -0.054 OA 
BRANCH  43  44
HETATM   44  C   UNL     1      -6.133   5.510  62.962  1.00  0.00    -0.021 C  
BRANCH  44  45
HETATM   45  C   UNL     1      -6.137   4.034  63.158  1.00  0.00    -0.018 A  
HETATM   46  N   UNL     1      -5.500   1.782  63.031  1.00  0.00    -0.007 NA 
HETATM   47  C   UNL     1      -5.172   3.108  62.810  1.00  0.00    -0.005 A  
HETATM   48  C   UNL     1      -6.702   1.720  63.559  1.00  0.00    -0.026 A  
HETATM   49  S   UNL     1      -7.490   3.219  63.830  1.00  0.00    -0.068 SA 
ENDBRANCH  44  45
ENDBRANCH  43  44
ENDBRANCH  40  43
ENDBRANCH  31  39
ENDBRANCH  30  31
ENDBRANCH  29  30
ENDBRANCH  21  29
ENDBRANCH  19  21
ENDBRANCH  16  17
BRANCH  16  50
HETATM   50  C   UNL     1      -9.038  11.739  67.010  1.00  0.00    -0.187 C  
BRANCH  50  51
HETATM   51  C   UNL     1      -9.497  11.663  65.559  1.00  0.00    -0.195 C  
BRANCH  51  52
HETATM   52  N   UNL     1      -9.843  12.962  64.945  1.00  0.00    -0.098 NA 
HETATM   53  O   UNL     1     -12.788  12.957  64.861  1.00  0.00    -0.701 OA 
HETATM   54  C   UNL     1     -12.027  12.126  63.973  1.00  0.00    -0.440 C  
HETATM   55  C   UNL     1     -10.624  12.709  63.703  1.00  0.00    -0.342 C  
HETATM   56  C   UNL     1     -12.080  13.213  66.083  1.00  0.00    -0.417 C  
HETATM   57  C   UNL     1     -10.691  13.815  65.809  1.00  0.00    -0.281 C  
ENDBRANCH  51  52
ENDBRANCH  50  51
ENDBRANCH  16  50
ENDBRANCH  14  16
ENDBRANCH  12  14
ENDBRANCH  10  12
ENDBRANCH   9  10
ENDBRANCH   6   9
TORSDOF 21
ENDMDL
MODEL       24
REMARK 921   NORMALIZED FREE ENERGY PREDICTED BY IDOCK:   -1.99 KCAL/MOL
REMARK 922        TOTAL FREE ENERGY PREDICTED BY IDOCK:   -7.95 KCAL/MOL
REMARK 923 INTER-LIGAND FREE ENERGY PREDICTED BY IDOCK:   -7.59 KCAL/MOL
REMARK 924 INTRA-LIGAND FREE ENERGY PREDICTED BY IDOCK:   -0.36 KCAL/MOL
REMARK 927      BINDING AFFINITY PREDICTED BY RF-SCORE:    0.00 PKD
ROOT
HETATM    1  C   UNL     1     -11.432   6.680  71.122  1.00  0.00    -0.370 C  
HETATM    2  C   UNL     1     -11.356   7.920  72.012  1.00  0.00    -0.343 C  
HETATM    3  C   UNL     1     -11.766   9.163  71.254  1.00  0.00    -0.326 A  
HETATM    4  C   UNL     1      -9.958   8.067  72.612  1.00  0.00    -0.358 C  
HETATM    5  N   UNL     1     -11.218   9.600  70.135  1.00  0.00    -0.253 NA 
HETATM    6  C   UNL     1     -11.842  10.778  69.711  1.00  0.00    -0.335 A  
HETATM    7  C   UNL     1     -12.863  11.206  70.540  1.00  0.00    -0.132 A  
HETATM    8  S   UNL     1     -13.056  10.132  71.858  1.00  0.00    -0.440 SA 
ENDROOT
BRANCH   6   9
HETATM    9  C   UNL     1     -11.337  11.511  68.494  1.00  0.00    -0.277 C  
BRANCH   9  10
HETATM   10  N   UNL     1     -11.830  12.891  68.418  1.00  0.00    -0.330 N  
HETATM   11  C   UNL     1     -12.430  13.308  67.157  1.00  0.00     0.108 C  
BRANCH  10  12
HETATM   12  C   UNL     1     -11.322  13.819  69.326  1.00  0.00    -0.273 C  
HETATM   13  O   UNL     1     -12.007  14.383  70.176  1.00  0.00    -0.283 OA 
BRANCH  12  14
HETATM   14  N   UNL     1      -9.970  13.997  69.262  1.00  0.00    -0.422 N  
HETATM   15  H   UNL     1      -9.388  13.341  69.782  1.00  0.00     0.000 HD 
BRANCH  14  16
HETATM   16  C   UNL     1      -9.278  15.056  68.507  1.00  0.00    -0.192 C  
BRANCH  16  17
HETATM   17  C   UNL     1      -9.179  14.527  67.058  1.00  0.00    -0.240 C  
HETATM   18  H   UNL     1      -8.505  13.092  65.797  1.00  0.00     0.000 HD 
HETATM   19  N   UNL     1      -8.378  13.470  66.736  1.00  0.00     0.015 N  
HETATM   20  O   UNL     1      -9.869  15.025  66.160  1.00  0.00    -0.264 OA 
BRANCH  19  21
HETATM   21  C   UNL     1      -7.365  12.808  67.551  1.00  0.00    -0.153 C  
BRANCH  21  22
HETATM   22  C   UNL     1      -7.973  12.158  68.808  1.00  0.00     0.007 C  
BRANCH  22  23
HETATM   23  C   UNL     1      -6.959  11.668  69.813  1.00  0.00     0.132 A  
HETATM   24  C   UNL     1      -5.808   9.822  70.886  1.00  0.00    -0.084 A  
HETATM   25  C   UNL     1      -5.385  12.085  71.612  1.00  0.00     0.161 A  
HETATM   26  C   UNL     1      -6.297  12.560  70.670  1.00  0.00     0.611 A  
HETATM   27  C   UNL     1      -6.711  10.296  69.936  1.00  0.00    -0.125 A  
HETATM   28  C   UNL     1      -5.144  10.719  71.727  1.00  0.00     0.001 A  
ENDBRANCH  22  23
ENDBRANCH  21  22
BRANCH  21  29
HETATM   29  C   UNL     1      -6.562  11.806  66.701  1.00  0.00     0.010 C  
BRANCH  29  30
HETATM   30  C   UNL     1      -7.314  10.554  66.212  1.00  0.00    -0.133 C  
BRANCH  30  31
HETATM   31  C   UNL     1      -6.650   9.236  66.677  1.00  0.00    -0.068 C  
BRANCH  31  32
HETATM   32  C   UNL     1      -5.987   8.513  65.479  1.00  0.00    -0.045 C  
BRANCH  32  33
HETATM   33  C   UNL     1      -6.035   7.007  65.603  1.00  0.00    -0.036 A  
HETATM   34  C   UNL     1      -5.618   6.371  66.781  1.00  0.00    -0.013 A  
HETATM   35  C   UNL     1      -5.609   4.979  66.872  1.00  0.00    -0.013 A  
HETATM   36  C   UNL     1      -6.478   6.217  64.532  1.00  0.00    -0.034 A  
HETATM   37  C   UNL     1      -6.460   4.827  64.618  1.00  0.00    -0.039 A  
HETATM   38  C   UNL     1      -6.018   4.208  65.785  1.00  0.00    -0.023 A  
ENDBRANCH  32  33
ENDBRANCH  31  32
BRANCH  31  39
HETATM   39  N   UNL     1      -7.607   8.363  67.354  1.00  0.00    -0.096 N  
HETATM   40  C   UNL     1      -8.844   8.106  66.838  1.00  0.00    -0.131 C  
HETATM   41  H   UNL     1      -7.341   7.932  68.240  1.00  0.00     0.000 HD 
HETATM   42  O   UNL     1      -9.285   8.613  65.816  1.00  0.00    -0.212 OA 
BRANCH  40  43
HETATM   43  O   UNL     1      -9.488   7.190  67.597  1.00  0.00    -0.126 OA 
BRANCH  43  44
HETATM   44  C   UNL     1     -10.590   6.547  66.941  1.00  0.00    -0.305 C  
BRANCH  44  45
HETATM   45  C   UNL     1     -10.119   5.227  66.436  1.00  0.00    -0.226 A  
HETATM   46  N   UNL     1      -9.846   3.357  65.051  1.00  0.00    -0.118 NA 
HETATM   47  C   UNL     1     -10.327   4.645  65.199  1.00  0.00    -0.029 A  
HETATM   48  C   UNL     1      -9.267   2.983  66.170  1.00  0.00    -0.110 A  
HETATM   49  S   UNL     1      -9.250   4.138  67.438  1.00  0.00    -0.171 SA 
ENDBRANCH  44  45
ENDBRANCH  43  44
ENDBRANCH  40  43
ENDBRANCH  31  39
ENDBRANCH  30  31
ENDBRANCH  29  30
ENDBRANCH  21  29
ENDBRANCH  19  21
ENDBRANCH  16  17
BRANCH  16  50
HETATM   50  C   UNL     1      -7.854  15.262  69.049  1.00  0.00    -0.184 C  
BRANCH  50  51
HETATM   51  C   UNL     1      -7.473  16.737  69.117  1.00  0.00    -0.196 C  
BRANCH  51  52
HETATM   52  N   UNL     1      -6.021  17.008  69.105  1.00  0.00    -0.174 NA 
HETATM   53  O   UNL     1      -5.738  19.335  67.321  1.00  0.00    -0.171 OA 
HETATM   54  C   UNL     1      -6.049  18.039  66.792  1.00  0.00    -0.158 C  
HETATM   55  C   UNL     1      -5.529  16.907  67.704  1.00  0.00    -0.132 C  
HETATM   56  C   UNL     1      -6.211  19.484  68.668  1.00  0.00    -0.244 C  
HETATM   57  C   UNL     1      -5.672  18.368  69.577  1.00  0.00    -0.244 C  
ENDBRANCH  51  52
ENDBRANCH  50  51
ENDBRANCH  16  50
ENDBRANCH  14  16
ENDBRANCH  12  14
ENDBRANCH  10  12
ENDBRANCH   9  10
ENDBRANCH   6   9
TORSDOF 21
ENDMDL
MODEL       25
REMARK 921   NORMALIZED FREE ENERGY PREDICTED BY IDOCK:   -1.83 KCAL/MOL
REMARK 922        TOTAL FREE ENERGY PREDICTED BY IDOCK:   -7.60 KCAL/MOL
REMARK 923 INTER-LIGAND FREE ENERGY PREDICTED BY IDOCK:   -8.45 KCAL/MOL
REMARK 924 INTRA-LIGAND FREE ENERGY PREDICTED BY IDOCK:    0.86 KCAL/MOL
REMARK 927      BINDING AFFINITY PREDICTED BY RF-SCORE:    0.00 PKD
ROOT
HETATM    1  C   UNL     1     -11.261   4.815  65.376  1.00  0.00     0.278 C  
HETATM    2  C   UNL     1      -9.863   4.311  65.015  1.00  0.00    -0.198 C  
HETATM    3  C   UNL     1      -9.309   3.413  66.098  1.00  0.00    -0.143 A  
HETATM    4  C   UNL     1      -8.926   5.484  64.727  1.00  0.00     0.087 C  
HETATM    5  N   UNL     1      -9.157   3.739  67.368  1.00  0.00    -0.148 NA 
HETATM    6  C   UNL     1      -8.615   2.669  68.088  1.00  0.00    -0.090 A  
HETATM    7  C   UNL     1      -8.367   1.544  67.324  1.00  0.00    -0.077 A  
HETATM    8  S   UNL     1      -8.816   1.812  65.696  1.00  0.00    -0.114 SA 
ENDROOT
BRANCH   6   9
HETATM    9  C   UNL     1      -8.276   2.829  69.549  1.00  0.00    -0.050 C  
BRANCH   9  10
HETATM   10  N   UNL     1      -6.844   3.055  69.776  1.00  0.00    -0.034 N  
HETATM   11  C   UNL     1      -6.125   2.029  70.523  1.00  0.00    -0.019 C  
BRANCH  10  12
HETATM   12  C   UNL     1      -6.364   4.360  69.684  1.00  0.00    -0.028 C  
HETATM   13  O   UNL     1      -5.190   4.667  69.871  1.00  0.00     0.000 OA 
BRANCH  12  14
HETATM   14  N   UNL     1      -7.289   5.280  69.281  1.00  0.00    -0.057 N  
HETATM   15  H   UNL     1      -7.731   5.131  68.374  1.00  0.00     0.000 HD 
BRANCH  14  16
HETATM   16  C   UNL     1      -7.706   6.471  70.043  1.00  0.00    -0.102 C  
BRANCH  16  17
HETATM   17  C   UNL     1      -6.432   7.336  70.177  1.00  0.00    -0.042 C  
HETATM   18  H   UNL     1      -5.577   9.167  70.036  1.00  0.00     0.000 HD 
HETATM   19  N   UNL     1      -6.399   8.633  69.756  1.00  0.00    -0.035 N  
HETATM   20  O   UNL     1      -5.419   6.879  70.722  1.00  0.00    -0.023 OA 
BRANCH  19  21
HETATM   21  C   UNL     1      -7.382   9.360  68.958  1.00  0.00    -0.072 C  
BRANCH  21  22
HETATM   22  C   UNL     1      -6.713  10.321  67.957  1.00  0.00    -0.066 C  
BRANCH  22  23
HETATM   23  C   UNL     1      -6.982  11.783  68.218  1.00  0.00    -0.075 A  
HETATM   24  C   UNL     1      -6.533  13.791  69.503  1.00  0.00    -0.105 A  
HETATM   25  C   UNL     1      -8.231  13.819  67.787  1.00  0.00    -0.174 A  
HETATM   26  C   UNL     1      -7.976  12.475  67.511  1.00  0.00    -0.175 A  
HETATM   27  C   UNL     1      -6.270  12.452  69.221  1.00  0.00    -0.101 A  
HETATM   28  C   UNL     1      -7.517  14.476  68.784  1.00  0.00    -0.132 A  
ENDBRANCH  22  23
ENDBRANCH  21  22
BRANCH  21  29
HETATM   29  C   UNL     1      -8.349   8.378  68.272  1.00  0.00    -0.131 C  
BRANCH  29  30
HETATM   30  C   UNL     1      -8.474   8.483  66.740  1.00  0.00    -0.111 C  
BRANCH  30  31
HETATM   31  C   UNL     1      -9.877   8.945  66.283  1.00  0.00    -0.285 C  
BRANCH  31  32
HETATM   32  C   UNL     1      -9.762   9.925  65.090  1.00  0.00    -0.376 C  
BRANCH  32  33
HETATM   33  C   UNL     1      -8.502   9.717  64.279  1.00  0.00    -0.184 A  
HETATM   34  C   UNL     1      -8.543   9.045  63.050  1.00  0.00    -0.166 A  
HETATM   35  C   UNL     1      -7.372   8.804  62.332  1.00  0.00    -0.100 A  
HETATM   36  C   UNL     1      -7.265  10.177  64.754  1.00  0.00    -0.130 A  
HETATM   37  C   UNL     1      -6.094   9.928  64.043  1.00  0.00    -0.123 A  
HETATM   38  C   UNL     1      -6.145   9.235  62.836  1.00  0.00    -0.093 A  
ENDBRANCH  32  33
ENDBRANCH  31  32
BRANCH  31  39
HETATM   39  N   UNL     1     -10.631   9.542  67.383  1.00  0.00    -0.279 N  
HETATM   40  C   UNL     1     -11.194  10.782  67.285  1.00  0.00    -0.197 C  
HETATM   41  H   UNL     1     -10.740   9.016  68.251  1.00  0.00     0.000 HD 
HETATM   42  O   UNL     1     -11.077  11.520  66.317  1.00  0.00    -0.302 OA 
BRANCH  40  43
HETATM   43  O   UNL     1     -11.922  11.055  68.393  1.00  0.00    -0.565 OA 
BRANCH  43  44
HETATM   44  C   UNL     1     -11.806  12.406  68.860  1.00  0.00    -0.301 C  
BRANCH  44  45
HETATM   45  C   UNL     1     -12.382  12.471  70.231  1.00  0.00    -0.190 A  
HETATM   46  N   UNL     1     -13.348  11.808  72.261  1.00  0.00    -0.303 NA 
HETATM   47  C   UNL     1     -12.741  11.437  71.075  1.00  0.00    -0.349 A  
HETATM   48  C   UNL     1     -13.428  13.118  72.310  1.00  0.00    -0.568 A  
HETATM   49  S   UNL     1     -12.779  13.969  70.970  1.00  0.00    -0.360 SA 
ENDBRANCH  44  45
ENDBRANCH  43  44
ENDBRANCH  40  43
ENDBRANCH  31  39
ENDBRANCH  30  31
ENDBRANCH  29  30
ENDBRANCH  21  29
ENDBRANCH  19  21
ENDBRANCH  16  17
BRANCH  16  50
HETATM   50  C   UNL     1      -8.174   6.072  71.452  1.00  0.00    -0.123 C  
BRANCH  50  51
HETATM   51  C   UNL     1      -9.278   5.021  71.414  1.00  0.00    -0.146 C  
BRANCH  51  52
HETATM   52  N   UNL     1     -10.654   5.560  71.425  1.00  0.00    -0.250 NA 
HETATM   53  O   UNL     1     -10.767   7.199  73.870  1.00  0.00    -0.314 OA 
HETATM   54  C   UNL     1     -10.747   5.766  73.948  1.00  0.00    -0.167 C  
HETATM   55  C   UNL     1     -11.330   5.116  72.674  1.00  0.00    -0.184 C  
HETATM   56  C   UNL     1     -10.108   7.674  72.687  1.00  0.00    -0.242 C  
HETATM   57  C   UNL     1     -10.706   7.040  71.421  1.00  0.00    -0.219 C  
ENDBRANCH  51  52
ENDBRANCH  50  51
ENDBRANCH  16  50
ENDBRANCH  14  16
ENDBRANCH  12  14
ENDBRANCH  10  12
ENDBRANCH   9  10
ENDBRANCH   6   9
TORSDOF 21
ENDMDL
MODEL       26
REMARK 921   NORMALIZED FREE ENERGY PREDICTED BY IDOCK:   -1.43 KCAL/MOL
REMARK 922        TOTAL FREE ENERGY PREDICTED BY IDOCK:   -6.71 KCAL/MOL
REMARK 923 INTER-LIGAND FREE ENERGY PREDICTED BY IDOCK:   -7.30 KCAL/MOL
REMARK 924 INTRA-LIGAND FREE ENERGY PREDICTED BY IDOCK:    0.59 KCAL/MOL
REMARK 927      BINDING AFFINITY PREDICTED BY RF-SCORE:    0.00 PKD
ROOT
HETATM    1  C   UNL     1     -10.679  17.474  68.151  1.00  0.00    -0.330 C  
HETATM    2  C   UNL     1     -10.959  16.832  66.792  1.00  0.00     0.109 C  
HETATM    3  C   UNL     1     -10.656  15.351  66.815  1.00  0.00    -0.309 A  
HETATM    4  C   UNL     1     -10.180  17.546  65.688  1.00  0.00    -0.093 C  
HETATM    5  N   UNL     1      -9.497  14.805  67.136  1.00  0.00    -0.220 NA 
HETATM    6  C   UNL     1      -9.570  13.410  67.048  1.00  0.00    -0.244 A  
HETATM    7  C   UNL     1     -10.806  12.934  66.652  1.00  0.00    -0.267 A  
HETATM    8  S   UNL     1     -11.893  14.229  66.392  1.00  0.00    -0.405 SA 
ENDROOT
BRANCH   6   9
HETATM    9  C   UNL     1      -8.343  12.568  67.293  1.00  0.00    -0.185 C  
BRANCH   9  10
HETATM   10  N   UNL     1      -8.558  11.541  68.319  1.00  0.00    -0.155 N  
HETATM   11  C   UNL     1      -9.937  11.286  68.717  1.00  0.00    -0.193 C  
BRANCH  10  12
HETATM   12  C   UNL     1      -7.486  11.206  69.145  1.00  0.00    -0.109 C  
HETATM   13  O   UNL     1      -6.649  12.018  69.532  1.00  0.00    -0.116 OA 
BRANCH  12  14
HETATM   14  N   UNL     1      -7.477   9.909  69.571  1.00  0.00    -0.097 N  
HETATM   15  H   UNL     1      -7.346   9.187  68.863  1.00  0.00     0.000 HD 
BRANCH  14  16
HETATM   16  C   UNL     1      -7.642   9.462  70.965  1.00  0.00     0.004 C  
BRANCH  16  17
HETATM   17  C   UNL     1      -6.245   8.966  71.402  1.00  0.00    -0.064 C  
HETATM   18  H   UNL     1      -4.628   7.812  71.000  1.00  0.00     0.000 HD 
HETATM   19  N   UNL     1      -5.606   7.955  70.745  1.00  0.00    -0.030 N  
HETATM   20  O   UNL     1      -5.649   9.515  72.337  1.00  0.00    -0.196 OA 
BRANCH  19  21
HETATM   21  C   UNL     1      -6.131   7.050  69.727  1.00  0.00    -0.027 C  
BRANCH  21  22
HETATM   22  C   UNL     1      -7.300   6.201  70.260  1.00  0.00    -0.088 C  
BRANCH  22  23
HETATM   23  C   UNL     1      -6.897   5.121  71.234  1.00  0.00    -0.047 A  
HETATM   24  C   UNL     1      -7.331   3.880  73.273  1.00  0.00    -0.069 A  
HETATM   25  C   UNL     1      -5.321   3.446  72.009  1.00  0.00     0.000 A  
HETATM   26  C   UNL     1      -5.691   4.421  71.082  1.00  0.00    -0.016 A  
HETATM   27  C   UNL     1      -7.708   4.846  72.342  1.00  0.00    -0.092 A  
HETATM   28  C   UNL     1      -6.134   3.179  73.107  1.00  0.00    -0.008 A  
ENDBRANCH  22  23
ENDBRANCH  21  22
BRANCH  21  29
HETATM   29  C   UNL     1      -6.505   7.832  68.455  1.00  0.00    -0.053 C  
BRANCH  29  30
HETATM   30  C   UNL     1      -5.491   7.796  67.295  1.00  0.00    -0.035 C  
BRANCH  30  31
HETATM   31  C   UNL     1      -5.715   6.600  66.341  1.00  0.00    -0.018 C  
BRANCH  31  32
HETATM   32  C   UNL     1      -6.243   7.092  64.971  1.00  0.00    -0.037 C  
BRANCH  32  33
HETATM   33  C   UNL     1      -7.385   8.076  65.102  1.00  0.00    -0.074 A  
HETATM   34  C   UNL     1      -8.555   7.728  65.789  1.00  0.00    -0.162 A  
HETATM   35  C   UNL     1      -9.629   8.616  65.859  1.00  0.00    -0.210 A  
HETATM   36  C   UNL     1      -7.299   9.349  64.517  1.00  0.00    -0.105 A  
HETATM   37  C   UNL     1      -8.374  10.231  64.577  1.00  0.00    -0.168 A  
HETATM   38  C   UNL     1      -9.542   9.863  65.242  1.00  0.00    -0.361 A  
ENDBRANCH  32  33
ENDBRANCH  31  32
BRANCH  31  39
HETATM   39  N   UNL     1      -6.614   5.607  66.925  1.00  0.00    -0.054 N  
HETATM   40  C   UNL     1      -6.373   4.267  66.830  1.00  0.00    -0.040 C  
HETATM   41  H   UNL     1      -7.448   5.926  67.419  1.00  0.00     0.000 HD 
HETATM   42  O   UNL     1      -5.438   3.775  66.214  1.00  0.00    -0.012 OA 
BRANCH  40  43
HETATM   43  O   UNL     1      -7.292   3.573  67.541  1.00  0.00    -0.058 OA 
BRANCH  43  44
HETATM   44  C   UNL     1      -7.868   2.463  66.841  1.00  0.00    -0.071 C  
BRANCH  44  45
HETATM   45  C   UNL     1      -8.894   2.992  65.900  1.00  0.00    -0.141 A  
HETATM   46  N   UNL     1     -10.086   3.397  63.923  1.00  0.00    -0.178 NA 
HETATM   47  C   UNL     1      -9.114   2.660  64.576  1.00  0.00    -0.127 A  
HETATM   48  C   UNL     1     -10.601   4.267  64.763  1.00  0.00    -0.120 A  
HETATM   49  S   UNL     1      -9.975   4.244  66.359  1.00  0.00    -0.146 SA 
ENDBRANCH  44  45
ENDBRANCH  43  44
ENDBRANCH  40  43
ENDBRANCH  31  39
ENDBRANCH  30  31
ENDBRANCH  29  30
ENDBRANCH  21  29
ENDBRANCH  19  21
ENDBRANCH  16  17
BRANCH  16  50
HETATM   50  C   UNL     1      -8.623   8.280  71.039  1.00  0.00    -0.165 C  
BRANCH  50  51
HETATM   51  C   UNL     1      -9.893   8.636  71.803  1.00  0.00    -0.295 C  
BRANCH  51  52
HETATM   52  N   UNL     1     -11.044   9.016  70.957  1.00  0.00    -0.266 NA 
HETATM   53  O   UNL     1     -12.826   6.672  71.073  1.00  0.00    -0.213 OA 
HETATM   54  C   UNL     1     -11.601   6.626  70.327  1.00  0.00    -0.395 C  
HETATM   55  C   UNL     1     -11.168   8.029  69.850  1.00  0.00    -0.038 C  
HETATM   56  C   UNL     1     -12.746   7.600  72.165  1.00  0.00    -0.161 C  
HETATM   57  C   UNL     1     -12.337   9.000  71.681  1.00  0.00    -0.347 C  
ENDBRANCH  51  52
ENDBRANCH  50  51
ENDBRANCH  16  50
ENDBRANCH  14  16
ENDBRANCH  12  14
ENDBRANCH  10  12
ENDBRANCH   9  10
ENDBRANCH   6   9
TORSDOF 21
ENDMDL
MODEL       27
REMARK 921   NORMALIZED FREE ENERGY PREDICTED BY IDOCK:   -1.16 KCAL/MOL
REMARK 922        TOTAL FREE ENERGY PREDICTED BY IDOCK:   -6.11 KCAL/MOL
REMARK 923 INTER-LIGAND FREE ENERGY PREDICTED BY IDOCK:  -10.65 KCAL/MOL
REMARK 924 INTRA-LIGAND FREE ENERGY PREDICTED BY IDOCK:    4.54 KCAL/MOL
REMARK 927      BINDING AFFINITY PREDICTED BY RF-SCORE:    0.00 PKD
ROOT
HETATM    1  C   UNL     1      -8.148   7.968  73.732  1.00  0.00    -0.279 C  
HETATM    2  C   UNL     1      -9.085   6.827  73.333  1.00  0.00    -0.152 C  
HETATM    3  C   UNL     1      -8.819   6.371  71.916  1.00  0.00    -0.138 A  
HETATM    4  C   UNL     1     -10.545   7.237  73.524  1.00  0.00    -0.408 C  
HETATM    5  N   UNL     1      -8.854   7.136  70.840  1.00  0.00    -0.149 NA 
HETATM    6  C   UNL     1      -8.560   6.386  69.695  1.00  0.00    -0.134 A  
HETATM    7  C   UNL     1      -8.309   5.050  69.946  1.00  0.00    -0.081 A  
HETATM    8  S   UNL     1      -8.432   4.719  71.619  1.00  0.00    -0.119 SA 
ENDROOT
BRANCH   6   9
HETATM    9  C   UNL     1      -8.616   7.027  68.332  1.00  0.00    -0.126 C  
BRANCH   9  10
HETATM   10  N   UNL     1      -9.986   7.152  67.821  1.00  0.00    -0.148 N  
HETATM   11  C   UNL     1     -10.835   5.971  67.916  1.00  0.00    -0.290 C  
BRANCH  10  12
HETATM   12  C   UNL     1     -10.254   8.171  66.907  1.00  0.00    -0.316 C  
HETATM   13  O   UNL     1     -11.378   8.626  66.708  1.00  0.00     0.810 OA 
BRANCH  12  14
HETATM   14  N   UNL     1      -9.150   8.697  66.300  1.00  0.00    -0.173 N  
HETATM   15  H   UNL     1      -9.307   9.391  65.570  1.00  0.00     0.000 HD 
BRANCH  14  16
HETATM   16  C   UNL     1      -7.752   8.349  66.608  1.00  0.00    -0.090 C  
BRANCH  16  17
HETATM   17  C   UNL     1      -6.932   9.614  66.269  1.00  0.00    -0.092 C  
HETATM   18  H   UNL     1      -6.538  11.561  66.664  1.00  0.00     0.000 HD 
HETATM   19  N   UNL     1      -7.230  10.828  66.816  1.00  0.00    -0.121 N  
HETATM   20  O   UNL     1      -5.946   9.541  65.525  1.00  0.00    -0.060 OA 
BRANCH  19  21
HETATM   21  C   UNL     1      -8.405  11.220  67.588  1.00  0.00    -0.123 C  
BRANCH  21  22
HETATM   22  C   UNL     1      -8.721  10.209  68.707  1.00  0.00    -0.138 C  
BRANCH  22  23
HETATM   23  C   UNL     1     -10.078  10.384  69.344  1.00  0.00    -0.251 A  
HETATM   24  C   UNL     1     -11.625   9.858  71.137  1.00  0.00    -0.468 A  
HETATM   25  C   UNL     1     -12.341  11.260  69.308  1.00  0.00    -0.172 A  
HETATM   26  C   UNL     1     -11.083  11.135  68.717  1.00  0.00    -0.291 A  
HETATM   27  C   UNL     1     -10.365   9.741  70.555  1.00  0.00    -0.348 A  
HETATM   28  C   UNL     1     -12.616  10.619  70.511  1.00  0.00    -0.433 A  
ENDBRANCH  22  23
ENDBRANCH  21  22
BRANCH  21  29
HETATM   29  C   UNL     1      -8.244  12.655  68.121  1.00  0.00    -0.170 C  
BRANCH  29  30
HETATM   30  C   UNL     1      -7.877  13.740  67.091  1.00  0.00    -0.030 C  
BRANCH  30  31
HETATM   31  C   UNL     1      -8.803  14.976  67.168  1.00  0.00    -0.213 C  
BRANCH  31  32
HETATM   32  C   UNL     1      -9.442  15.259  65.786  1.00  0.00    -0.310 C  
BRANCH  32  33
HETATM   33  C   UNL     1     -10.490  14.237  65.403  1.00  0.00    -0.382 A  
HETATM   34  C   UNL     1     -10.306  13.404  64.292  1.00  0.00    -0.249 A  
HETATM   35  C   UNL     1     -11.299  12.502  63.908  1.00  0.00    -0.504 A  
HETATM   36  C   UNL     1     -11.676  14.121  66.144  1.00  0.00    -0.402 A  
HETATM   37  C   UNL     1     -12.672  13.229  65.755  1.00  0.00    -0.300 A  
HETATM   38  C   UNL     1     -12.487  12.425  64.633  1.00  0.00    -0.500 A  
ENDBRANCH  32  33
ENDBRANCH  31  32
BRANCH  31  39
HETATM   39  N   UNL     1      -8.091  16.150  67.667  1.00  0.00    -0.144 N  
HETATM   40  C   UNL     1      -7.775  16.298  68.987  1.00  0.00    -0.224 C  
HETATM   41  H   UNL     1      -7.821  16.882  67.009  1.00  0.00     0.000 HD 
HETATM   42  O   UNL     1      -8.099  15.514  69.867  1.00  0.00    -0.114 OA 
BRANCH  40  43
HETATM   43  O   UNL     1      -7.028  17.411  69.169  1.00  0.00    -0.237 OA 
BRANCH  43  44
HETATM   44  C   UNL     1      -6.972  18.280  68.029  1.00  0.00    -0.221 C  
BRANCH  44  45
HETATM   45  C   UNL     1      -8.307  18.921  67.871  1.00  0.00    -0.281 A  
HETATM   46  N   UNL     1     -10.436  19.755  68.382  1.00  0.00    -0.381 NA 
HETATM   47  C   UNL     1      -9.231  19.256  68.843  1.00  0.00    -0.333 A  
HETATM   48  C   UNL     1     -10.406  19.807  67.070  1.00  0.00    -0.465 A  
HETATM   49  S   UNL     1      -8.952  19.285  66.323  1.00  0.00    -0.273 SA 
ENDBRANCH  44  45
ENDBRANCH  43  44
ENDBRANCH  40  43
ENDBRANCH  31  39
ENDBRANCH  30  31
ENDBRANCH  29  30
ENDBRANCH  21  29
ENDBRANCH  19  21
ENDBRANCH  16  17
BRANCH  16  50
HETATM   50  C   UNL     1      -7.271   7.201  65.705  1.00  0.00    -0.073 C  
BRANCH  50  51
HETATM   51  C   UNL     1      -6.378   6.218  66.453  1.00  0.00    -0.042 C  
BRANCH  51  52
HETATM   52  N   UNL     1      -6.554   4.801  66.073  1.00  0.00    -0.044 NA 
HETATM   53  O   UNL     1      -8.607   4.870  63.962  1.00  0.00    -0.134 OA 
HETATM   54  C   UNL     1      -8.956   5.109  65.333  1.00  0.00    -0.156 C  
HETATM   55  C   UNL     1      -7.974   4.418  66.303  1.00  0.00    -0.099 C  
HETATM   56  C   UNL     1      -7.248   5.243  63.689  1.00  0.00    -0.050 C  
HETATM   57  C   UNL     1      -6.272   4.535  64.644  1.00  0.00    -0.030 C  
ENDBRANCH  51  52
ENDBRANCH  50  51
ENDBRANCH  16  50
ENDBRANCH  14  16
ENDBRANCH  12  14
ENDBRANCH  10  12
ENDBRANCH   9  10
ENDBRANCH   6   9
TORSDOF 21
ENDMDL
MODEL       28
REMARK 921   NORMALIZED FREE ENERGY PREDICTED BY IDOCK:   -0.00 KCAL/MOL
REMARK 922        TOTAL FREE ENERGY PREDICTED BY IDOCK:   -3.53 KCAL/MOL
REMARK 923 INTER-LIGAND FREE ENERGY PREDICTED BY IDOCK:   -5.95 KCAL/MOL
REMARK 924 INTRA-LIGAND FREE ENERGY PREDICTED BY IDOCK:    2.42 KCAL/MOL
REMARK 927      BINDING AFFINITY PREDICTED BY RF-SCORE:    0.00 PKD
ROOT
HETATM    1  C   UNL     1     -10.456   6.618  72.604  1.00  0.00    -0.237 C  
HETATM    2  C   UNL     1     -10.317   8.113  72.890  1.00  0.00    -0.333 C  
HETATM    3  C   UNL     1     -10.737   8.939  71.695  1.00  0.00    -0.347 A  
HETATM    4  C   UNL     1      -8.891   8.448  73.328  1.00  0.00    -0.196 C  
HETATM    5  N   UNL     1     -10.231   8.850  70.479  1.00  0.00    -0.193 NA 
HETATM    6  C   UNL     1     -10.852   9.765  69.621  1.00  0.00    -0.250 A  
HETATM    7  C   UNL     1     -11.826  10.535  70.227  1.00  0.00    -0.331 A  
HETATM    8  S   UNL     1     -11.980  10.118  71.879  1.00  0.00     0.340 SA 
ENDROOT
BRANCH   6   9
HETATM    9  C   UNL     1     -10.387   9.905  68.193  1.00  0.00    -0.195 C  
BRANCH   9  10
HETATM   10  N   UNL     1     -11.205  10.846  67.420  1.00  0.00    -0.313 N  
HETATM   11  C   UNL     1     -11.409  10.540  66.010  1.00  0.00     0.766 C  
BRANCH  10  12
HETATM   12  C   UNL     1     -11.355  12.142  67.914  1.00  0.00    -0.300 C  
HETATM   13  O   UNL     1     -12.390  12.557  68.428  1.00  0.00    -0.089 OA 
BRANCH  12  14
HETATM   14  N   UNL     1     -10.224  12.904  67.864  1.00  0.00    -0.227 N  
HETATM   15  H   UNL     1      -9.553  12.795  68.625  1.00  0.00     0.000 HD 
BRANCH  14  16
HETATM   16  C   UNL     1      -9.887  13.873  66.807  1.00  0.00    -0.274 C  
BRANCH  16  17
HETATM   17  C   UNL     1      -9.468  13.019  65.589  1.00  0.00     0.100 C  
HETATM   18  H   UNL     1      -8.311  11.527  64.854  1.00  0.00     0.000 HD 
HETATM   19  N   UNL     1      -8.407  12.163  65.645  1.00  0.00     0.698 N  
HETATM   20  O   UNL     1     -10.124  13.058  64.540  1.00  0.00    -0.317 OA 
BRANCH  19  21
HETATM   21  C   UNL     1      -7.390  12.035  66.685  1.00  0.00     0.131 C  
BRANCH  21  22
HETATM   22  C   UNL     1      -8.011  11.978  68.093  1.00  0.00    -0.152 C  
BRANCH  22  23
HETATM   23  C   UNL     1      -7.007  11.956  69.220  1.00  0.00    -0.046 A  
HETATM   24  C   UNL     1      -5.906  10.744  71.010  1.00  0.00     0.030 A  
HETATM   25  C   UNL     1      -5.413  13.081  70.662  1.00  0.00    -0.169 A  
HETATM   26  C   UNL     1      -6.315  13.115  69.599  1.00  0.00    -0.086 A  
HETATM   27  C   UNL     1      -6.799  10.773  69.941  1.00  0.00    -0.146 A  
HETATM   28  C   UNL     1      -5.212  11.901  71.373  1.00  0.00    -0.035 A  
ENDBRANCH  22  23
ENDBRANCH  21  22
BRANCH  21  29
HETATM   29  C   UNL     1      -6.477  10.830  66.396  1.00  0.00    -0.125 C  
BRANCH  29  30
HETATM   30  C   UNL     1      -7.061   9.433  66.681  1.00  0.00    -0.085 C  
BRANCH  30  31
HETATM   31  C   UNL     1      -6.239   8.295  66.033  1.00  0.00    -0.049 C  
BRANCH  31  32
HETATM   32  C   UNL     1      -6.920   7.811  64.729  1.00  0.00    -0.055 C  
BRANCH  32  33
HETATM   33  C   UNL     1      -7.404   8.952  63.861  1.00  0.00    -0.098 A  
HETATM   34  C   UNL     1      -6.494   9.836  63.267  1.00  0.00    -0.117 A  
HETATM   35  C   UNL     1      -6.945  10.920  62.513  1.00  0.00     0.019 A  
HETATM   36  C   UNL     1      -8.776   9.156  63.653  1.00  0.00    -0.148 A  
HETATM   37  C   UNL     1      -9.228  10.244  62.911  1.00  0.00    -0.316 A  
HETATM   38  C   UNL     1      -8.313  11.131  62.347  1.00  0.00    -0.247 A  
ENDBRANCH  32  33
ENDBRANCH  31  32
BRANCH  31  39
HETATM   39  N   UNL     1      -6.032   7.186  66.961  1.00  0.00    -0.032 N  
HETATM   40  C   UNL     1      -5.974   5.889  66.538  1.00  0.00    -0.022 C  
HETATM   41  H   UNL     1      -5.927   7.386  67.956  1.00  0.00     0.000 HD 
HETATM   42  O   UNL     1      -6.144   5.532  65.381  1.00  0.00    -0.025 OA 
BRANCH  40  43
HETATM   43  O   UNL     1      -5.670   5.071  67.572  1.00  0.00    -0.016 OA 
BRANCH  43  44
HETATM   44  C   UNL     1      -6.590   5.136  68.670  1.00  0.00    -0.048 C  
BRANCH  44  45
HETATM   45  C   UNL     1      -7.522   3.979  68.559  1.00  0.00    -0.059 A  
HETATM   46  N   UNL     1      -8.694   2.159  67.663  1.00  0.00    -0.099 NA 
HETATM   47  C   UNL     1      -7.670   3.077  67.522  1.00  0.00    -0.069 A  
HETATM   48  C   UNL     1      -9.300   2.364  68.811  1.00  0.00    -0.163 A  
HETATM   49  S   UNL     1      -8.679   3.637  69.780  1.00  0.00    -0.083 SA 
ENDBRANCH  44  45
ENDBRANCH  43  44
ENDBRANCH  40  43
ENDBRANCH  31  39
ENDBRANCH  30  31
ENDBRANCH  29  30
ENDBRANCH  21  29
ENDBRANCH  19  21
ENDBRANCH  16  17
BRANCH  16  50
HETATM   50  C   UNL     1      -8.688  14.738  67.230  1.00  0.00    -0.226 C  
BRANCH  50  51
HETATM   51  C   UNL     1      -8.667  16.081  66.508  1.00  0.00    -0.303 C  
BRANCH  51  52
HETATM   52  N   UNL     1      -9.091  17.236  67.326  1.00  0.00    -0.225 NA 
HETATM   53  O   UNL     1      -6.563  18.534  68.105  1.00  0.00    -0.213 OA 
HETATM   54  C   UNL     1      -6.957  17.285  68.690  1.00  0.00    -0.220 C  
HETATM   55  C   UNL     1      -8.490  17.107  68.682  1.00  0.00    -0.258 C  
HETATM   56  C   UNL     1      -7.105  18.695  66.785  1.00  0.00    -0.214 C  
HETATM   57  C   UNL     1      -8.635  18.538  66.787  1.00  0.00    -0.284 C  
ENDBRANCH  51  52
ENDBRANCH  50  51
ENDBRANCH  16  50
ENDBRANCH  14  16
ENDBRANCH  12  14
ENDBRANCH  10  12
ENDBRANCH   9  10
ENDBRANCH   6   9
TORSDOF 21
ENDMDL
MODEL       29
REMARK 921   NORMALIZED FREE ENERGY PREDICTED BY IDOCK:    0.17 KCAL/MOL
REMARK 922        TOTAL FREE ENERGY PREDICTED BY IDOCK:   -3.15 KCAL/MOL
REMARK 923 INTER-LIGAND FREE ENERGY PREDICTED BY IDOCK:   -6.49 KCAL/MOL
REMARK 924 INTRA-LIGAND FREE ENERGY PREDICTED BY IDOCK:    3.35 KCAL/MOL
REMARK 927      BINDING AFFINITY PREDICTED BY RF-SCORE:    0.00 PKD
ROOT
HETATM    1  C   UNL     1     -11.123  16.919  66.581  1.00  0.00     0.308 C  
HETATM    2  C   UNL     1     -11.602  15.828  65.624  1.00  0.00     0.329 C  
HETATM    3  C   UNL     1     -11.268  14.452  66.154  1.00  0.00    -0.336 A  
HETATM    4  C   UNL     1     -11.023  16.044  64.226  1.00  0.00     0.224 C  
HETATM    5  N   UNL     1     -10.062  14.019  66.473  1.00  0.00    -0.278 NA 
HETATM    6  C   UNL     1     -10.120  12.696  66.928  1.00  0.00    -0.230 A  
HETATM    7  C   UNL     1     -11.393  12.158  66.937  1.00  0.00    -0.343 A  
HETATM    8  S   UNL     1     -12.534  13.305  66.382  1.00  0.00    -0.009 SA 
ENDROOT
BRANCH   6   9
HETATM    9  C   UNL     1      -8.853  11.957  67.278  1.00  0.00    -0.179 C  
BRANCH   9  10
HETATM   10  N   UNL     1      -9.022  11.053  68.422  1.00  0.00    -0.152 N  
HETATM   11  C   UNL     1     -10.275  11.155  69.161  1.00  0.00    -0.141 C  
BRANCH  10  12
HETATM   12  C   UNL     1      -7.878  10.504  68.997  1.00  0.00    -0.129 C  
HETATM   13  O   UNL     1      -6.790  11.074  69.022  1.00  0.00    -0.068 OA 
BRANCH  12  14
HETATM   14  N   UNL     1      -8.072   9.303  69.617  1.00  0.00    -0.106 N  
HETATM   15  H   UNL     1      -8.334   8.512  69.030  1.00  0.00     0.000 HD 
BRANCH  14  16
HETATM   16  C   UNL     1      -7.935   9.051  71.062  1.00  0.00    -0.150 C  
BRANCH  16  17
HETATM   17  C   UNL     1      -6.434   8.755  71.285  1.00  0.00    -0.071 C  
HETATM   18  H   UNL     1      -4.807   7.660  70.780  1.00  0.00     0.000 HD 
HETATM   19  N   UNL     1      -5.824   7.678  70.711  1.00  0.00    -0.030 N  
HETATM   20  O   UNL     1      -5.736   9.526  71.955  1.00  0.00    -0.171 OA 
BRANCH  19  21
HETATM   21  C   UNL     1      -6.430   6.547  70.013  1.00  0.00    -0.040 C  
BRANCH  21  22
HETATM   22  C   UNL     1      -7.456   5.811  70.894  1.00  0.00    -0.090 C  
BRANCH  22  23
HETATM   23  C   UNL     1      -7.657   4.358  70.540  1.00  0.00    -0.052 A  
HETATM   24  C   UNL     1      -6.775   2.290  69.627  1.00  0.00    -0.033 A  
HETATM   25  C   UNL     1      -9.082   2.405  70.327  1.00  0.00    -0.177 A  
HETATM   26  C   UNL     1      -8.908   3.741  70.689  1.00  0.00    -0.135 A  
HETATM   27  C   UNL     1      -6.596   3.622  69.998  1.00  0.00    -0.033 A  
HETATM   28  C   UNL     1      -8.022   1.681  69.791  1.00  0.00    -0.052 A  
ENDBRANCH  22  23
ENDBRANCH  21  22
BRANCH  21  29
HETATM   29  C   UNL     1      -7.028   7.004  68.671  1.00  0.00    -0.079 C  
BRANCH  29  30
HETATM   30  C   UNL     1      -6.053   7.622  67.651  1.00  0.00    -0.048 C  
BRANCH  30  31
HETATM   31  C   UNL     1      -5.920   6.779  66.361  1.00  0.00    -0.029 C  
BRANCH  31  32
HETATM   32  C   UNL     1      -7.080   7.095  65.387  1.00  0.00    -0.064 C  
BRANCH  32  33
HETATM   33  C   UNL     1      -8.442   6.972  66.035  1.00  0.00    -0.141 A  
HETATM   34  C   UNL     1      -9.030   5.716  66.233  1.00  0.00    -0.141 A  
HETATM   35  C   UNL     1     -10.310   5.608  66.778  1.00  0.00    -0.316 A  
HETATM   36  C   UNL     1      -9.148   8.117  66.431  1.00  0.00    -0.226 A  
HETATM   37  C   UNL     1     -10.430   8.012  66.966  1.00  0.00    -0.410 A  
HETATM   38  C   UNL     1     -11.014   6.758  67.132  1.00  0.00    -0.458 A  
ENDBRANCH  32  33
ENDBRANCH  31  32
BRANCH  31  39
HETATM   39  N   UNL     1      -5.857   5.349  66.658  1.00  0.00    -0.018 N  
HETATM   40  C   UNL     1      -5.621   4.417  65.689  1.00  0.00    -0.017 C  
HETATM   41  H   UNL     1      -5.995   5.038  67.620  1.00  0.00     0.000 HD 
HETATM   42  O   UNL     1      -5.501   4.674  64.499  1.00  0.00    -0.013 OA 
BRANCH  40  43
HETATM   43  O   UNL     1      -5.507   3.187  66.238  1.00  0.00    -0.015 OA 
BRANCH  43  44
HETATM   44  C   UNL     1      -5.507   2.112  65.289  1.00  0.00    -0.008 C  
BRANCH  44  45
HETATM   45  C   UNL     1      -6.840   2.080  64.627  1.00  0.00    -0.038 A  
HETATM   46  N   UNL     1      -8.484   1.902  62.966  1.00  0.00    -0.072 NA 
HETATM   47  C   UNL     1      -7.158   1.741  63.325  1.00  0.00    -0.035 A  
HETATM   48  C   UNL     1      -9.159   2.344  64.003  1.00  0.00    -0.107 A  
HETATM   49  S   UNL     1      -8.264   2.576  65.449  1.00  0.00    -0.092 SA 
ENDBRANCH  44  45
ENDBRANCH  43  44
ENDBRANCH  40  43
ENDBRANCH  31  39
ENDBRANCH  30  31
ENDBRANCH  29  30
ENDBRANCH  21  29
ENDBRANCH  19  21
ENDBRANCH  16  17
BRANCH  16  50
HETATM   50  C   UNL     1      -8.742   7.807  71.471  1.00  0.00    -0.140 C  
BRANCH  50  51
HETATM   51  C   UNL     1      -8.709   7.571  72.976  1.00  0.00    -0.149 C  
BRANCH  51  52
HETATM   52  N   UNL     1     -10.015   7.691  73.656  1.00  0.00    -0.295 NA 
HETATM   53  O   UNL     1     -11.611   5.477  72.548  1.00  0.00    -0.283 OA 
HETATM   54  C   UNL     1     -11.307   6.632  71.753  1.00  0.00    -0.279 C  
HETATM   55  C   UNL     1     -11.072   7.883  72.627  1.00  0.00    -0.385 C  
HETATM   56  C   UNL     1     -10.606   5.242  73.545  1.00  0.00    -0.270 C  
HETATM   57  C   UNL     1     -10.391   6.483  74.427  1.00  0.00    -0.219 C  
ENDBRANCH  51  52
ENDBRANCH  50  51
ENDBRANCH  16  50
ENDBRANCH  14  16
ENDBRANCH  12  14
ENDBRANCH  10  12
ENDBRANCH   9  10
ENDBRANCH   6   9
TORSDOF 21
ENDMDL
MODEL       30
REMARK 921   NORMALIZED FREE ENERGY PREDICTED BY IDOCK:    0.33 KCAL/MOL
REMARK 922        TOTAL FREE ENERGY PREDICTED BY IDOCK:   -2.79 KCAL/MOL
REMARK 923 INTER-LIGAND FREE ENERGY PREDICTED BY IDOCK:   -4.65 KCAL/MOL
REMARK 924 INTRA-LIGAND FREE ENERGY PREDICTED BY IDOCK:    1.86 KCAL/MOL
REMARK 927      BINDING AFFINITY PREDICTED BY RF-SCORE:    0.00 PKD
ROOT
HETATM    1  C   UNL     1     -11.035  16.945  66.642  1.00  0.00     0.151 C  
HETATM    2  C   UNL     1     -11.556  15.980  65.576  1.00  0.00     0.451 C  
HETATM    3  C   UNL     1     -11.192  14.551  65.908  1.00  0.00    -0.331 A  
HETATM    4  C   UNL     1     -11.045  16.380  64.192  1.00  0.00     0.541 C  
HETATM    5  N   UNL     1      -9.970  14.092  66.111  1.00  0.00    -0.303 NA 
HETATM    6  C   UNL     1     -10.001  12.722  66.394  1.00  0.00    -0.265 A  
HETATM    7  C   UNL     1     -11.270  12.175  66.393  1.00  0.00    -0.331 A  
HETATM    8  S   UNL     1     -12.441  13.372  66.044  1.00  0.00    -0.295 SA 
ENDROOT
BRANCH   6   9
HETATM    9  C   UNL     1      -8.716  11.957  66.586  1.00  0.00    -0.185 C  
BRANCH   9  10
HETATM   10  N   UNL     1      -8.741  11.097  67.775  1.00  0.00    -0.130 N  
HETATM   11  C   UNL     1      -9.905  11.212  68.646  1.00  0.00    -0.202 C  
BRANCH  10  12
HETATM   12  C   UNL     1      -7.530  10.586  68.239  1.00  0.00    -0.090 C  
HETATM   13  O   UNL     1      -6.455  11.165  68.111  1.00  0.00    -0.056 OA 
BRANCH  12  14
HETATM   14  N   UNL     1      -7.635   9.415  68.933  1.00  0.00    -0.074 N  
HETATM   15  H   UNL     1      -7.912   8.585  68.409  1.00  0.00     0.000 HD 
BRANCH  14  16
HETATM   16  C   UNL     1      -7.383   9.245  70.375  1.00  0.00    -0.111 C  
BRANCH  16  17
HETATM   17  C   UNL     1      -5.860   9.010  70.498  1.00  0.00    -0.036 C  
HETATM   18  H   UNL     1      -4.217   8.021  69.845  1.00  0.00     0.000 HD 
HETATM   19  N   UNL     1      -5.237   7.994  69.834  1.00  0.00    -0.023 N  
HETATM   20  O   UNL     1      -5.160   9.777  71.171  1.00  0.00    -0.038 OA 
BRANCH  19  21
HETATM   21  C   UNL     1      -5.830   6.875  69.108  1.00  0.00    -0.019 C  
BRANCH  21  22
HETATM   22  C   UNL     1      -6.620   5.939  70.043  1.00  0.00    -0.047 C  
BRANCH  22  23
HETATM   23  C   UNL     1      -6.298   4.474  69.879  1.00  0.00    -0.027 A  
HETATM   24  C   UNL     1      -6.161   2.513  68.457  1.00  0.00    -0.025 A  
HETATM   25  C   UNL     1      -5.670   2.324  70.813  1.00  0.00    -0.016 A  
HETATM   26  C   UNL     1      -5.935   3.683  70.979  1.00  0.00    -0.014 A  
HETATM   27  C   UNL     1      -6.415   3.873  68.619  1.00  0.00    -0.037 A  
HETATM   28  C   UNL     1      -5.789   1.736  69.557  1.00  0.00    -0.022 A  
ENDBRANCH  22  23
ENDBRANCH  21  22
BRANCH  21  29
HETATM   29  C   UNL     1      -6.682   7.388  67.933  1.00  0.00    -0.062 C  
BRANCH  29  30
HETATM   30  C   UNL     1      -5.922   7.989  66.736  1.00  0.00    -0.052 C  
BRANCH  30  31
HETATM   31  C   UNL     1      -6.205   7.244  65.411  1.00  0.00    -0.038 C  
BRANCH  31  32
HETATM   32  C   UNL     1      -7.676   7.454  64.976  1.00  0.00    -0.114 C  
BRANCH  32  33
HETATM   33  C   UNL     1      -7.849   8.631  64.042  1.00  0.00    -0.146 A  
HETATM   34  C   UNL     1      -6.743   9.210  63.405  1.00  0.00    -0.090 A  
HETATM   35  C   UNL     1      -6.898  10.331  62.589  1.00  0.00    -0.139 A  
HETATM   36  C   UNL     1      -9.121   9.178  63.812  1.00  0.00     0.135 A  
HETATM   37  C   UNL     1      -9.275  10.303  63.006  1.00  0.00    -0.312 A  
HETATM   38  C   UNL     1      -8.163  10.884  62.401  1.00  0.00    -0.264 A  
ENDBRANCH  32  33
ENDBRANCH  31  32
BRANCH  31  39
HETATM   39  N   UNL     1      -5.887   5.821  65.516  1.00  0.00    -0.020 N  
HETATM   40  C   UNL     1      -6.244   4.926  64.549  1.00  0.00    -0.030 C  
HETATM   41  H   UNL     1      -5.382   5.487  66.337  1.00  0.00     0.000 HD 
HETATM   42  O   UNL     1      -6.899   5.207  63.556  1.00  0.00    -0.040 OA 
BRANCH  40  43
HETATM   43  O   UNL     1      -5.740   3.703  64.834  1.00  0.00    -0.016 OA 
BRANCH  43  44
HETATM   44  C   UNL     1      -6.333   2.630  64.088  1.00  0.00    -0.022 C  
BRANCH  44  45
HETATM   45  C   UNL     1      -7.676   2.352  64.668  1.00  0.00    -0.073 A  
HETATM   46  N   UNL     1      -9.341   1.580  66.125  1.00  0.00     0.048 NA 
HETATM   47  C   UNL     1      -7.997   1.816  65.901  1.00  0.00    -0.077 A  
HETATM   48  C   UNL     1     -10.025   1.954  65.066  1.00  0.00     0.475 A  
HETATM   49  S   UNL     1      -9.115   2.613  63.770  1.00  0.00    -0.102 SA 
ENDBRANCH  44  45
ENDBRANCH  43  44
ENDBRANCH  40  43
ENDBRANCH  31  39
ENDBRANCH  30  31
ENDBRANCH  29  30
ENDBRANCH  21  29
ENDBRANCH  19  21
ENDBRANCH  16  17
BRANCH  16  50
HETATM   50  C   UNL     1      -8.112   8.000  70.907  1.00  0.00    -0.102 C  
BRANCH  50  51
HETATM   51  C   UNL     1      -9.458   8.348  71.533  1.00  0.00    -0.203 C  
BRANCH  51  52
HETATM   52  N   UNL     1     -10.127   7.232  72.233  1.00  0.00    -0.186 NA 
HETATM   53  O   UNL     1     -12.741   7.005  70.894  1.00  0.00    -0.334 OA 
HETATM   54  C   UNL     1     -12.461   8.104  71.773  1.00  0.00    -0.330 C  
HETATM   55  C   UNL     1     -11.396   7.735  72.828  1.00  0.00    -0.389 C  
HETATM   56  C   UNL     1     -11.546   6.498  70.282  1.00  0.00    -0.409 C  
HETATM   57  C   UNL     1     -10.498   6.112  71.338  1.00  0.00    -0.225 C  
ENDBRANCH  51  52
ENDBRANCH  50  51
ENDBRANCH  16  50
ENDBRANCH  14  16
ENDBRANCH  12  14
ENDBRANCH  10  12
ENDBRANCH   9  10
ENDBRANCH   6   9
TORSDOF 21
ENDMDL
MODEL       31
REMARK 921   NORMALIZED FREE ENERGY PREDICTED BY IDOCK:    4.11 KCAL/MOL
REMARK 922        TOTAL FREE ENERGY PREDICTED BY IDOCK:    5.63 KCAL/MOL
REMARK 923 INTER-LIGAND FREE ENERGY PREDICTED BY IDOCK:   -1.68 KCAL/MOL
REMARK 924 INTRA-LIGAND FREE ENERGY PREDICTED BY IDOCK:    7.32 KCAL/MOL
REMARK 927      BINDING AFFINITY PREDICTED BY RF-SCORE:    0.00 PKD
ROOT
HETATM    1  C   UNL     1     -10.467   3.811  74.411  1.00  0.00    -0.262 C  
HETATM    2  C   UNL     1      -9.637   4.111  73.163  1.00  0.00    -0.147 C  
HETATM    3  C   UNL     1     -10.014   5.447  72.564  1.00  0.00    -0.168 A  
HETATM    4  C   UNL     1      -9.773   2.982  72.141  1.00  0.00    -0.231 C  
HETATM    5  N   UNL     1     -11.224   5.805  72.175  1.00  0.00    -0.276 NA 
HETATM    6  C   UNL     1     -11.210   7.109  71.667  1.00  0.00    -0.244 A  
HETATM    7  C   UNL     1      -9.965   7.709  71.686  1.00  0.00    -0.176 A  
HETATM    8  S   UNL     1      -8.797   6.648  72.346  1.00  0.00    -0.131 SA 
ENDROOT
BRANCH   6   9
HETATM    9  C   UNL     1     -12.465   7.712  71.086  1.00  0.00    -0.247 C  
BRANCH   9  10
HETATM   10  N   UNL     1     -13.179   8.564  72.044  1.00  0.00    -0.355 N  
HETATM   11  C   UNL     1     -14.304   7.961  72.750  1.00  0.00     0.376 C  
BRANCH  10  12
HETATM   12  C   UNL     1     -13.060   9.946  71.907  1.00  0.00    -0.459 C  
HETATM   13  O   UNL     1     -13.852  10.748  72.395  1.00  0.00     0.058 OA 
BRANCH  12  14
HETATM   14  N   UNL     1     -11.935  10.358  71.253  1.00  0.00    -0.354 N  
HETATM   15  H   UNL     1     -11.053  10.304  71.762  1.00  0.00     0.000 HD 
BRANCH  14  16
HETATM   16  C   UNL     1     -11.883  10.875  69.874  1.00  0.00    -0.349 C  
BRANCH  16  17
HETATM   17  C   UNL     1     -10.584  11.710  69.799  1.00  0.00     0.431 C  
HETATM   18  H   UNL     1      -9.578  13.248  68.947  1.00  0.00     0.000 HD 
HETATM   19  N   UNL     1     -10.384  12.636  68.818  1.00  0.00    -0.166 N  
HETATM   20  O   UNL     1      -9.711  11.589  70.667  1.00  0.00     3.118 OA 
BRANCH  19  21
HETATM   21  C   UNL     1     -11.167  12.871  67.608  1.00  0.00    -0.278 C  
BRANCH  21  22
HETATM   22  C   UNL     1     -11.378  11.577  66.800  1.00  0.00    -0.309 C  
BRANCH  22  23
HETATM   23  C   UNL     1     -10.104  10.891  66.373  1.00  0.00    -0.280 A  
HETATM   24  C   UNL     1      -7.698  10.961  66.061  1.00  0.00    -0.107 A  
HETATM   25  C   UNL     1      -8.939   9.002  65.390  1.00  0.00    -0.249 A  
HETATM   26  C   UNL     1     -10.125   9.608  65.807  1.00  0.00    -0.274 A  
HETATM   27  C   UNL     1      -8.880  11.563  66.488  1.00  0.00    -0.190 A  
HETATM   28  C   UNL     1      -7.728   9.677  65.509  1.00  0.00    -0.112 A  
ENDBRANCH  22  23
ENDBRANCH  21  22
BRANCH  21  29
HETATM   29  C   UNL     1     -12.494  13.571  67.954  1.00  0.00     0.284 C  
BRANCH  29  30
HETATM   30  C   UNL     1     -12.484  15.111  67.961  1.00  0.00     0.626 C  
BRANCH  30  31
HETATM   31  C   UNL     1     -11.091  15.704  67.646  1.00  0.00    -0.305 C  
BRANCH  31  32
HETATM   32  C   UNL     1     -11.035  17.197  68.053  1.00  0.00    -0.229 C  
BRANCH  32  33
HETATM   33  C   UNL     1      -9.866  17.930  67.434  1.00  0.00    -0.305 A  
HETATM   34  C   UNL     1      -8.555  17.462  67.603  1.00  0.00    -0.217 A  
HETATM   35  C   UNL     1      -7.474  18.172  67.079  1.00  0.00    -0.227 A  
HETATM   36  C   UNL     1     -10.071  19.105  66.696  1.00  0.00    -0.469 A  
HETATM   37  C   UNL     1      -8.992  19.820  66.182  1.00  0.00    -0.387 A  
HETATM   38  C   UNL     1      -7.693  19.358  66.380  1.00  0.00    -0.297 A  
ENDBRANCH  32  33
ENDBRANCH  31  32
BRANCH  31  39
HETATM   39  N   UNL     1     -10.739  15.529  66.239  1.00  0.00    -0.310 N  
HETATM   40  C   UNL     1      -9.616  14.855  65.851  1.00  0.00    -0.308 C  
HETATM   41  H   UNL     1     -11.351  15.922  65.523  1.00  0.00     0.000 HD 
HETATM   42  O   UNL     1      -8.786  14.396  66.623  1.00  0.00    -0.232 OA 
BRANCH  40  43
HETATM   43  O   UNL     1      -9.578  14.743  64.504  1.00  0.00     0.430 OA 
BRANCH  43  44
HETATM   44  C   UNL     1      -9.541  13.392  64.023  1.00  0.00     1.681 C  
BRANCH  44  45
HETATM   45  C   UNL     1     -10.935  12.977  63.705  1.00  0.00    -0.278 A  
HETATM   46  N   UNL     1     -13.278  12.933  63.667  1.00  0.00     0.045 NA 
HETATM   47  C   UNL     1     -12.123  13.614  64.009  1.00  0.00    -0.425 A  
HETATM   48  C   UNL     1     -12.952  11.797  63.094  1.00  0.00     0.208 A  
HETATM   49  S   UNL     1     -11.273  11.488  62.920  1.00  0.00     0.655 SA 
ENDBRANCH  44  45
ENDBRANCH  43  44
ENDBRANCH  40  43
ENDBRANCH  31  39
ENDBRANCH  30  31
ENDBRANCH  29  30
ENDBRANCH  21  29
ENDBRANCH  19  21
ENDBRANCH  16  17
BRANCH  16  50
HETATM   50  C   UNL     1     -13.076  11.807  69.603  1.00  0.00     1.235 C  
BRANCH  50  51
HETATM   51  C   UNL     1     -12.832  13.219  70.123  1.00  0.00     0.238 C  
BRANCH  51  52
HETATM   52  N   UNL     1     -12.350  13.296  71.518  1.00  0.00    -0.116 NA 
HETATM   53  O   UNL     1     -13.434  15.847  72.514  1.00  0.00    -0.476 OA 
HETATM   54  C   UNL     1     -12.354  15.828  71.570  1.00  0.00    -0.455 C  
HETATM   55  C   UNL     1     -11.529  14.527  71.671  1.00  0.00     0.246 C  
HETATM   56  C   UNL     1     -14.266  14.684  72.390  1.00  0.00    -0.380 C  
HETATM   57  C   UNL     1     -13.442  13.392  72.514  1.00  0.00    -0.536 C  
ENDBRANCH  51  52
ENDBRANCH  50  51
ENDBRANCH  16  50
ENDBRANCH  14  16
ENDBRANCH  12  14
ENDBRANCH  10  12
ENDBRANCH   9  10
ENDBRANCH   6   9
TORSDOF 21
ENDMDL
MODEL       32
REMARK 921   NORMALIZED FREE ENERGY PREDICTED BY IDOCK:    5.35 KCAL/MOL
REMARK 922        TOTAL FREE ENERGY PREDICTED BY IDOCK:    8.39 KCAL/MOL
REMARK 923 INTER-LIGAND FREE ENERGY PREDICTED BY IDOCK:    4.86 KCAL/MOL
REMARK 924 INTRA-LIGAND FREE ENERGY PREDICTED BY IDOCK:    3.53 KCAL/MOL
REMARK 927      BINDING AFFINITY PREDICTED BY RF-SCORE:    0.00 PKD
ROOT
HETATM    1  C   UNL     1     -12.675   4.713  65.418  1.00  0.00     6.785 C  
HETATM    2  C   UNL     1     -11.270   4.746  64.816  1.00  0.00     0.574 C  
HETATM    3  C   UNL     1     -10.362   3.745  65.494  1.00  0.00     0.182 A  
HETATM    4  C   UNL     1     -10.690   6.159  64.879  1.00  0.00     3.898 C  
HETATM    5  N   UNL     1     -10.100   3.692  66.787  1.00  0.00     0.255 NA 
HETATM    6  C   UNL     1      -9.218   2.642  67.067  1.00  0.00    -0.113 A  
HETATM    7  C   UNL     1      -8.831   1.920  65.954  1.00  0.00    -0.122 A  
HETATM    8  S   UNL     1      -9.572   2.544  64.544  1.00  0.00    -0.060 SA 
ENDROOT
BRANCH   6   9
HETATM    9  C   UNL     1      -8.708   2.430  68.470  1.00  0.00    -0.091 C  
BRANCH   9  10
HETATM   10  N   UNL     1      -7.334   2.911  68.652  1.00  0.00    -0.048 N  
HETATM   11  C   UNL     1      -6.307   1.901  68.879  1.00  0.00    -0.025 C  
BRANCH  10  12
HETATM   12  C   UNL     1      -7.150   4.238  69.038  1.00  0.00    -0.051 C  
HETATM   13  O   UNL     1      -6.056   4.714  69.332  1.00  0.00    -0.024 OA 
BRANCH  12  14
HETATM   14  N   UNL     1      -8.275   5.008  68.983  1.00  0.00    -0.086 N  
HETATM   15  H   UNL     1      -8.805   4.999  68.112  1.00  0.00     0.000 HD 
BRANCH  14  16
HETATM   16  C   UNL     1      -8.793   5.853  70.074  1.00  0.00    -0.137 C  
BRANCH  16  17
HETATM   17  C   UNL     1      -7.600   6.733  70.510  1.00  0.00    -0.091 C  
HETATM   18  H   UNL     1      -6.911   8.578  70.988  1.00  0.00     0.000 HD 
HETATM   19  N   UNL     1      -7.685   8.095  70.531  1.00  0.00    -0.082 N  
HETATM   20  O   UNL     1      -6.547   6.214  70.900  1.00  0.00    -0.049 OA 
BRANCH  19  21
HETATM   21  C   UNL     1      -8.733   8.954  69.990  1.00  0.00    -0.147 C  
BRANCH  21  22
HETATM   22  C   UNL     1      -8.152  10.172  69.247  1.00  0.00    -0.149 C  
BRANCH  22  23
HETATM   23  C   UNL     1      -7.086  10.920  70.010  1.00  0.00     0.038 A  
HETATM   24  C   UNL     1      -5.411  10.955  71.764  1.00  0.00     0.168 A  
HETATM   25  C   UNL     1      -5.864  12.959  70.498  1.00  0.00    -0.138 A  
HETATM   26  C   UNL     1      -6.834  12.277  69.762  1.00  0.00     0.214 A  
HETATM   27  C   UNL     1      -6.370  10.269  71.023  1.00  0.00     0.116 A  
HETATM   28  C   UNL     1      -5.158  12.304  71.502  1.00  0.00    -0.078 A  
ENDBRANCH  22  23
ENDBRANCH  21  22
BRANCH  21  29
HETATM   29  C   UNL     1      -9.698   8.136  69.113  1.00  0.00    -0.163 C  
BRANCH  29  30
HETATM   30  C   UNL     1      -9.450   8.169  67.593  1.00  0.00    -0.172 C  
BRANCH  30  31
HETATM   31  C   UNL     1     -10.446   9.083  66.842  1.00  0.00    -0.223 C  
BRANCH  31  32
HETATM   32  C   UNL     1      -9.693  10.002  65.849  1.00  0.00    -0.309 C  
BRANCH  32  33
HETATM   33  C   UNL     1      -8.321   9.477  65.488  1.00  0.00    -0.137 A  
HETATM   34  C   UNL     1      -8.178   8.301  64.738  1.00  0.00    -0.147 A  
HETATM   35  C   UNL     1      -6.913   7.787  64.455  1.00  0.00    -0.060 A  
HETATM   36  C   UNL     1      -7.166  10.148  65.914  1.00  0.00    -0.121 A  
HETATM   37  C   UNL     1      -5.902   9.631  65.641  1.00  0.00    -0.060 A  
HETATM   38  C   UNL     1      -5.775   8.447  64.919  1.00  0.00    -0.044 A  
ENDBRANCH  32  33
ENDBRANCH  31  32
BRANCH  31  39
HETATM   39  N   UNL     1     -11.260   9.866  67.769  1.00  0.00    -0.479 N  
HETATM   40  C   UNL     1     -11.163  11.226  67.847  1.00  0.00    -0.290 C  
HETATM   41  H   UNL     1     -11.922   9.382  68.376  1.00  0.00     0.000 HD 
HETATM   42  O   UNL     1     -10.366  11.899  67.210  1.00  0.00    -0.202 OA 
BRANCH  40  43
HETATM   43  O   UNL     1     -12.094  11.714  68.699  1.00  0.00    -0.449 OA 
BRANCH  43  44
HETATM   44  C   UNL     1     -11.792  13.015  69.223  1.00  0.00    -0.316 C  
BRANCH  44  45
HETATM   45  C   UNL     1     -12.579  13.202  70.474  1.00  0.00    -0.165 A  
HETATM   46  N   UNL     1     -13.735  12.721  72.455  1.00  0.00    -0.488 NA 
HETATM   47  C   UNL     1     -12.900  12.274  71.446  1.00  0.00    -0.271 A  
HETATM   48  C   UNL     1     -14.023  13.986  72.244  1.00  0.00    -0.553 A  
HETATM   49  S   UNL     1     -13.312  14.705  70.859  1.00  0.00    -0.218 SA 
ENDBRANCH  44  45
ENDBRANCH  43  44
ENDBRANCH  40  43
ENDBRANCH  31  39
ENDBRANCH  30  31
ENDBRANCH  29  30
ENDBRANCH  21  29
ENDBRANCH  19  21
ENDBRANCH  16  17
BRANCH  16  50
HETATM   50  C   UNL     1      -9.220   4.986  71.270  1.00  0.00    -0.186 C  
BRANCH  50  51
HETATM   51  C   UNL     1      -9.062   5.720  72.597  1.00  0.00    -0.131 C  
BRANCH  51  52
HETATM   52  N   UNL     1      -8.965   4.848  73.785  1.00  0.00    -0.114 NA 
HETATM   53  O   UNL     1      -9.989   2.247  72.856  1.00  0.00    -0.103 OA 
HETATM   54  C   UNL     1     -10.879   3.353  73.069  1.00  0.00    -0.094 C  
HETATM   55  C   UNL     1     -10.324   4.341  74.117  1.00  0.00    -0.229 C  
HETATM   56  C   UNL     1      -8.667   2.690  72.514  1.00  0.00    -0.074 C  
HETATM   57  C   UNL     1      -8.111   3.657  73.573  1.00  0.00    -0.079 C  
ENDBRANCH  51  52
ENDBRANCH  50  51
ENDBRANCH  16  50
ENDBRANCH  14  16
ENDBRANCH  12  14
ENDBRANCH  10  12
ENDBRANCH   9  10
ENDBRANCH   6   9
TORSDOF 21
ENDMDL
MODEL       33
REMARK 921   NORMALIZED FREE ENERGY PREDICTED BY IDOCK:    7.22 KCAL/MOL
REMARK 922        TOTAL FREE ENERGY PREDICTED BY IDOCK:   12.57 KCAL/MOL
REMARK 923 INTER-LIGAND FREE ENERGY PREDICTED BY IDOCK:    3.15 KCAL/MOL
REMARK 924 INTRA-LIGAND FREE ENERGY PREDICTED BY IDOCK:    9.42 KCAL/MOL
REMARK 927      BINDING AFFINITY PREDICTED BY RF-SCORE:    0.00 PKD
ROOT
HETATM    1  C   UNL     1      -7.540  12.965  69.398  1.00  0.00     0.531 C  
HETATM    2  C   UNL     1      -8.963  13.370  69.783  1.00  0.00     2.096 C  
HETATM    3  C   UNL     1      -9.975  12.379  69.253  1.00  0.00     0.547 A  
HETATM    4  C   UNL     1      -9.268  14.789  69.304  1.00  0.00    -0.035 C  
HETATM    5  N   UNL     1     -10.127  12.031  67.989  1.00  0.00    -0.192 NA 
HETATM    6  C   UNL     1     -11.157  11.093  67.858  1.00  0.00    -0.273 A  
HETATM    7  C   UNL     1     -11.767  10.755  69.051  1.00  0.00    -0.286 A  
HETATM    8  S   UNL     1     -11.052  11.603  70.353  1.00  0.00     1.057 SA 
ENDROOT
BRANCH   6   9
HETATM    9  C   UNL     1     -11.570  10.603  66.492  1.00  0.00     0.975 C  
BRANCH   9  10
HETATM   10  N   UNL     1     -10.595   9.678  65.904  1.00  0.00     0.098 N  
HETATM   11  C   UNL     1      -9.992   8.699  66.801  1.00  0.00    -0.273 C  
BRANCH  10  12
HETATM   12  C   UNL     1      -9.981  10.047  64.708  1.00  0.00    -0.178 C  
HETATM   13  O   UNL     1     -10.571  10.606  63.787  1.00  0.00    -0.191 OA 
BRANCH  12  14
HETATM   14  N   UNL     1      -8.637   9.816  64.662  1.00  0.00    -0.169 N  
HETATM   15  H   UNL     1      -8.328   8.943  64.235  1.00  0.00     0.000 HD 
BRANCH  14  16
HETATM   16  C   UNL     1      -7.592  10.718  65.176  1.00  0.00     0.121 C  
BRANCH  16  17
HETATM   17  C   UNL     1      -7.614  10.536  66.711  1.00  0.00    -0.115 C  
HETATM   18  H   UNL     1      -6.792   9.673  68.349  1.00  0.00     0.000 HD 
HETATM   19  N   UNL     1      -6.833   9.606  67.332  1.00  0.00    -0.082 N  
HETATM   20  O   UNL     1      -8.310  11.273  67.419  1.00  0.00    -0.131 OA 
BRANCH  19  21
HETATM   21  C   UNL     1      -6.048   8.527  66.740  1.00  0.00    -0.054 C  
BRANCH  21  22
HETATM   22  C   UNL     1      -5.558   7.524  67.800  1.00  0.00    -0.034 C  
BRANCH  22  23
HETATM   23  C   UNL     1      -5.793   7.955  69.227  1.00  0.00    -0.030 A  
HETATM   24  C   UNL     1      -5.441   7.599  71.601  1.00  0.00    -0.035 A  
HETATM   25  C   UNL     1      -6.871   9.395  70.856  1.00  0.00    -0.100 A  
HETATM   26  C   UNL     1      -6.643   9.030  69.529  1.00  0.00    -0.043 A  
HETATM   27  C   UNL     1      -5.202   7.240  70.276  1.00  0.00    -0.023 A  
HETATM   28  C   UNL     1      -6.279   8.679  71.892  1.00  0.00    -0.071 A  
ENDBRANCH  22  23
ENDBRANCH  21  22
BRANCH  21  29
HETATM   29  C   UNL     1      -6.840   7.846  65.609  1.00  0.00    -0.052 C  
BRANCH  29  30
HETATM   30  C   UNL     1      -6.961   6.311  65.673  1.00  0.00    -0.057 C  
BRANCH  30  31
HETATM   31  C   UNL     1      -8.127   5.765  64.817  1.00  0.00    -0.132 C  
BRANCH  31  32
HETATM   32  C   UNL     1      -9.182   5.075  65.717  1.00  0.00    -0.159 C  
BRANCH  32  33
HETATM   33  C   UNL     1      -8.771   5.027  67.172  1.00  0.00    -0.103 A  
HETATM   34  C   UNL     1      -9.386   5.857  68.118  1.00  0.00    -0.117 A  
HETATM   35  C   UNL     1      -8.966   5.852  69.449  1.00  0.00    -0.122 A  
HETATM   36  C   UNL     1      -7.750   4.162  67.596  1.00  0.00    -0.079 A  
HETATM   37  C   UNL     1      -7.323   4.164  68.921  1.00  0.00    -0.055 A  
HETATM   38  C   UNL     1      -7.926   5.014  69.846  1.00  0.00    -0.074 A  
ENDBRANCH  32  33
ENDBRANCH  31  32
BRANCH  31  39
HETATM   39  N   UNL     1      -7.649   4.857  63.776  1.00  0.00    -0.063 N  
HETATM   40  C   UNL     1      -6.426   4.254  63.847  1.00  0.00    -0.038 C  
HETATM   41  H   UNL     1      -8.249   4.667  62.972  1.00  0.00     0.000 HD 
HETATM   42  O   UNL     1      -5.608   4.455  64.732  1.00  0.00    -0.013 OA 
BRANCH  40  43
HETATM   43  O   UNL     1      -6.272   3.386  62.821  1.00  0.00    -0.013 OA 
BRANCH  43  44
HETATM   44  C   UNL     1      -6.480   2.011  63.172  1.00  0.00    -0.014 C  
BRANCH  44  45
HETATM   45  C   UNL     1      -7.935   1.815  63.425  1.00  0.00    -0.061 A  
HETATM   46  N   UNL     1     -10.243   1.650  63.058  1.00  0.00    -0.107 NA 
HETATM   47  C   UNL     1      -8.974   1.738  62.517  1.00  0.00    -0.072 A  
HETATM   48  C   UNL     1     -10.152   1.645  64.369  1.00  0.00     0.166 A  
HETATM   49  S   UNL     1      -8.566   1.729  65.019  1.00  0.00    -0.107 SA 
ENDBRANCH  44  45
ENDBRANCH  43  44
ENDBRANCH  40  43
ENDBRANCH  31  39
ENDBRANCH  30  31
ENDBRANCH  29  30
ENDBRANCH  21  29
ENDBRANCH  19  21
ENDBRANCH  16  17
BRANCH  16  50
HETATM   50  C   UNL     1      -7.938  12.182  64.855  1.00  0.00     2.714 C  
BRANCH  50  51
HETATM   51  C   UNL     1      -9.434  12.453  64.956  1.00  0.00     0.202 C  
BRANCH  51  52
HETATM   52  N   UNL     1      -9.858  13.792  64.496  1.00  0.00    -0.038 NA 
HETATM   53  O   UNL     1     -11.856  14.638  66.489  1.00  0.00    -0.373 OA 
HETATM   54  C   UNL     1     -12.164  13.616  65.530  1.00  0.00    -0.443 C  
HETATM   55  C   UNL     1     -11.325  13.767  64.243  1.00  0.00    -0.326 C  
HETATM   56  C   UNL     1     -10.451  14.687  66.778  1.00  0.00    -0.277 C  
HETATM   57  C   UNL     1      -9.622  14.860  65.496  1.00  0.00    -0.145 C  
ENDBRANCH  51  52
ENDBRANCH  50  51
ENDBRANCH  16  50
ENDBRANCH  14  16
ENDBRANCH  12  14
ENDBRANCH  10  12
ENDBRANCH   9  10
ENDBRANCH   6   9
TORSDOF 21
ENDMDL
MODEL       34
REMARK 921   NORMALIZED FREE ENERGY PREDICTED BY IDOCK:    7.66 KCAL/MOL
REMARK 922        TOTAL FREE ENERGY PREDICTED BY IDOCK:   13.53 KCAL/MOL
REMARK 923 INTER-LIGAND FREE ENERGY PREDICTED BY IDOCK:    8.66 KCAL/MOL
REMARK 924 INTRA-LIGAND FREE ENERGY PREDICTED BY IDOCK:    4.88 KCAL/MOL
REMARK 927      BINDING AFFINITY PREDICTED BY RF-SCORE:    0.00 PKD
ROOT
HETATM    1  C   UNL     1     -12.858   4.723  65.397  1.00  0.00     7.171 C  
HETATM    2  C   UNL     1     -11.514   4.857  64.679  1.00  0.00     1.409 C  
HETATM    3  C   UNL     1     -10.532   3.812  65.159  1.00  0.00     0.080 A  
HETATM    4  C   UNL     1     -10.954   6.269  64.845  1.00  0.00     5.086 C  
HETATM    5  N   UNL     1     -10.151   3.627  66.410  1.00  0.00     0.171 NA 
HETATM    6  C   UNL     1      -9.231   2.576  66.492  1.00  0.00    -0.041 A  
HETATM    7  C   UNL     1      -8.937   1.988  65.277  1.00  0.00    -0.126 A  
HETATM    8  S   UNL     1      -9.814   2.741  64.016  1.00  0.00    -0.139 SA 
ENDROOT
BRANCH   6   9
HETATM    9  C   UNL     1      -8.592   2.227  67.813  1.00  0.00    -0.095 C  
BRANCH   9  10
HETATM   10  N   UNL     1      -7.241   2.784  67.952  1.00  0.00    -0.049 N  
HETATM   11  C   UNL     1      -6.141   1.831  68.030  1.00  0.00    -0.024 C  
BRANCH  10  12
HETATM   12  C   UNL     1      -7.116   4.084  68.439  1.00  0.00    -0.055 C  
HETATM   13  O   UNL     1      -6.045   4.583  68.776  1.00  0.00    -0.028 OA 
BRANCH  12  14
HETATM   14  N   UNL     1      -8.273   4.808  68.435  1.00  0.00    -0.084 N  
HETATM   15  H   UNL     1      -8.783   4.866  67.554  1.00  0.00     0.000 HD 
BRANCH  14  16
HETATM   16  C   UNL     1      -8.850   5.514  69.592  1.00  0.00    -0.111 C  
BRANCH  16  17
HETATM   17  C   UNL     1      -7.692   6.356  70.175  1.00  0.00    -0.098 C  
HETATM   18  H   UNL     1      -7.039   8.161  70.821  1.00  0.00     0.000 HD 
HETATM   19  N   UNL     1      -7.775   7.714  70.276  1.00  0.00    -0.089 N  
HETATM   20  O   UNL     1      -6.675   5.805  70.614  1.00  0.00    -0.048 OA 
BRANCH  19  21
HETATM   21  C   UNL     1      -8.776   8.614  69.709  1.00  0.00    -0.132 C  
BRANCH  21  22
HETATM   22  C   UNL     1      -8.130   9.834  69.027  1.00  0.00    -0.101 C  
BRANCH  22  23
HETATM   23  C   UNL     1      -7.082  10.534  69.857  1.00  0.00    -0.148 A  
HETATM   24  C   UNL     1      -5.285  10.417  71.483  1.00  0.00    -0.058 A  
HETATM   25  C   UNL     1      -6.024  12.564  70.664  1.00  0.00     0.026 A  
HETATM   26  C   UNL     1      -6.979  11.933  69.867  1.00  0.00     0.363 A  
HETATM   27  C   UNL     1      -6.231   9.784  70.679  1.00  0.00    -0.095 A  
HETATM   28  C   UNL     1      -5.182  11.810  71.476  1.00  0.00     0.027 A  
ENDBRANCH  22  23
ENDBRANCH  21  22
BRANCH  21  29
HETATM   29  C   UNL     1      -9.718   7.844  68.767  1.00  0.00    -0.159 C  
BRANCH  29  30
HETATM   30  C   UNL     1      -9.310   7.774  67.283  1.00  0.00    -0.175 C  
BRANCH  30  31
HETATM   31  C   UNL     1     -10.003   8.853  66.419  1.00  0.00    -0.284 C  
BRANCH  31  32
HETATM   32  C   UNL     1      -8.985   9.510  65.455  1.00  0.00    -0.236 C  
BRANCH  32  33
HETATM   33  C   UNL     1      -7.754   8.660  65.233  1.00  0.00    -0.092 A  
HETATM   34  C   UNL     1      -6.531   9.001  65.825  1.00  0.00    -0.064 A  
HETATM   35  C   UNL     1      -5.384   8.248  65.572  1.00  0.00    -0.032 A  
HETATM   36  C   UNL     1      -7.812   7.524  64.411  1.00  0.00    -0.128 A  
HETATM   37  C   UNL     1      -6.665   6.778  64.150  1.00  0.00    -0.045 A  
HETATM   38  C   UNL     1      -5.450   7.144  64.724  1.00  0.00    -0.032 A  
ENDBRANCH  32  33
ENDBRANCH  31  32
BRANCH  31  39
HETATM   39  N   UNL     1     -10.668   9.858  67.246  1.00  0.00    -0.260 N  
HETATM   40  C   UNL     1     -10.229  11.149  67.311  1.00  0.00    -0.193 C  
HETATM   41  H   UNL     1     -11.486   9.586  67.792  1.00  0.00     0.000 HD 
HETATM   42  O   UNL     1      -9.228  11.567  66.746  1.00  0.00    -0.172 OA 
BRANCH  40  43
HETATM   43  O   UNL     1     -11.075  11.896  68.056  1.00  0.00    -0.210 OA 
BRANCH  43  44
HETATM   44  C   UNL     1     -10.497  13.097  68.585  1.00  0.00    -0.227 C  
BRANCH  44  45
HETATM   45  C   UNL     1     -10.755  14.199  67.617  1.00  0.00    -0.257 A  
HETATM   46  N   UNL     1     -11.783  15.483  65.948  1.00  0.00     0.197 NA 
HETATM   47  C   UNL     1     -11.870  14.422  66.831  1.00  0.00    -0.410 A  
HETATM   48  C   UNL     1     -10.611  16.061  66.085  1.00  0.00    -0.297 A  
HETATM   49  S   UNL     1      -9.568  15.389  67.270  1.00  0.00    -0.212 SA 
ENDBRANCH  44  45
ENDBRANCH  43  44
ENDBRANCH  40  43
ENDBRANCH  31  39
ENDBRANCH  30  31
ENDBRANCH  29  30
ENDBRANCH  21  29
ENDBRANCH  19  21
ENDBRANCH  16  17
BRANCH  16  50
HETATM   50  C   UNL     1      -9.307   4.509  70.663  1.00  0.00    -0.223 C  
BRANCH  50  51
HETATM   51  C   UNL     1      -8.384   4.501  71.875  1.00  0.00    -0.108 C  
BRANCH  51  52
HETATM   52  N   UNL     1      -9.016   4.070  73.139  1.00  0.00    -0.107 NA 
HETATM   53  O   UNL     1     -11.422   5.756  73.352  1.00  0.00    -0.076 OA 
HETATM   54  C   UNL     1     -10.117   6.311  73.564  1.00  0.00    -0.217 C  
HETATM   55  C   UNL     1      -9.112   5.244  74.049  1.00  0.00    -0.118 C  
HETATM   56  C   UNL     1     -11.380   4.629  72.464  1.00  0.00     0.145 C  
HETATM   57  C   UNL     1     -10.395   3.560  72.963  1.00  0.00    -0.165 C  
ENDBRANCH  51  52
ENDBRANCH  50  51
ENDBRANCH  16  50
ENDBRANCH  14  16
ENDBRANCH  12  14
ENDBRANCH  10  12
ENDBRANCH   9  10
ENDBRANCH   6   9
TORSDOF 21
ENDMDL
MODEL       35
REMARK 921   NORMALIZED FREE ENERGY PREDICTED BY IDOCK:    8.13 KCAL/MOL
REMARK 922        TOTAL FREE ENERGY PREDICTED BY IDOCK:   14.59 KCAL/MOL
REMARK 923 INTER-LIGAND FREE ENERGY PREDICTED BY IDOCK:    4.75 KCAL/MOL
REMARK 924 INTRA-LIGAND FREE ENERGY PREDICTED BY IDOCK:    9.83 KCAL/MOL
REMARK 927      BINDING AFFINITY PREDICTED BY RF-SCORE:    0.00 PKD
ROOT
HETATM    1  C   UNL     1      -8.558   9.678  74.376  1.00  0.00     4.654 C  
HETATM    2  C   UNL     1      -7.767   8.608  73.624  1.00  0.00     0.033 C  
HETATM    3  C   UNL     1      -7.617   8.966  72.162  1.00  0.00     0.172 A  
HETATM    4  C   UNL     1      -8.415   7.235  73.801  1.00  0.00    -0.191 C  
HETATM    5  N   UNL     1      -8.606   9.208  71.322  1.00  0.00    -0.320 NA 
HETATM    6  C   UNL     1      -8.107   9.504  70.049  1.00  0.00    -0.167 A  
HETATM    7  C   UNL     1      -6.728   9.473  69.963  1.00  0.00    -0.070 A  
HETATM    8  S   UNL     1      -6.040   9.079  71.478  1.00  0.00    -0.068 SA 
ENDROOT
BRANCH   6   9
HETATM    9  C   UNL     1      -9.052   9.741  68.897  1.00  0.00    -0.148 C  
BRANCH   9  10
HETATM   10  N   UNL     1      -9.021  11.127  68.415  1.00  0.00    -0.159 N  
HETATM   11  C   UNL     1      -9.534  11.369  67.073  1.00  0.00    -0.173 C  
BRANCH  10  12
HETATM   12  C   UNL     1      -8.139  12.014  69.031  1.00  0.00     0.212 C  
HETATM   13  O   UNL     1      -8.089  12.189  70.246  1.00  0.00     2.428 OA 
BRANCH  12  14
HETATM   14  N   UNL     1      -7.259  12.624  68.183  1.00  0.00    -0.097 N  
HETATM   15  H   UNL     1      -7.649  13.252  67.481  1.00  0.00     0.000 HD 
BRANCH  14  16
HETATM   16  C   UNL     1      -5.796  12.452  68.193  1.00  0.00    -0.066 C  
BRANCH  16  17
HETATM   17  C   UNL     1      -5.564  10.925  68.251  1.00  0.00    -0.043 C  
HETATM   18  H   UNL     1      -5.436   9.168  67.251  1.00  0.00     0.000 HD 
HETATM   19  N   UNL     1      -5.773  10.127  67.164  1.00  0.00    -0.046 N  
HETATM   20  O   UNL     1      -5.132  10.396  69.283  1.00  0.00    -0.039 OA 
BRANCH  19  21
HETATM   21  C   UNL     1      -6.412  10.460  65.894  1.00  0.00    -0.123 C  
BRANCH  21  22
HETATM   22  C   UNL     1      -5.542  10.053  64.690  1.00  0.00    -0.099 C  
BRANCH  22  23
HETATM   23  C   UNL     1      -5.683   8.609  64.275  1.00  0.00    -0.065 A  
HETATM   24  C   UNL     1      -5.503   6.253  64.825  1.00  0.00    -0.018 A  
HETATM   25  C   UNL     1      -6.117   6.920  62.588  1.00  0.00    -0.040 A  
HETATM   26  C   UNL     1      -6.021   8.261  62.959  1.00  0.00    -0.077 A  
HETATM   27  C   UNL     1      -5.418   7.592  65.201  1.00  0.00    -0.033 A  
HETATM   28  C   UNL     1      -5.852   5.916  63.514  1.00  0.00    -0.021 A  
ENDBRANCH  22  23
ENDBRANCH  21  22
BRANCH  21  29
HETATM   29  C   UNL     1      -7.825   9.854  65.830  1.00  0.00    -0.116 C  
BRANCH  29  30
HETATM   30  C   UNL     1      -7.996   8.430  66.392  1.00  0.00    -0.099 C  
BRANCH  30  31
HETATM   31  C   UNL     1      -9.443   7.901  66.256  1.00  0.00    -0.151 C  
BRANCH  31  32
HETATM   32  C   UNL     1      -9.439   6.448  65.721  1.00  0.00     0.163 C  
BRANCH  32  33
HETATM   33  C   UNL     1      -9.198   5.423  66.807  1.00  0.00    -0.128 A  
HETATM   34  C   UNL     1      -8.523   4.227  66.526  1.00  0.00    -0.108 A  
HETATM   35  C   UNL     1      -8.351   3.258  67.515  1.00  0.00    -0.094 A  
HETATM   36  C   UNL     1      -9.664   5.643  68.112  1.00  0.00    -0.153 A  
HETATM   37  C   UNL     1      -9.503   4.672  69.097  1.00  0.00    -0.224 A  
HETATM   38  C   UNL     1      -8.854   3.477  68.797  1.00  0.00    -0.161 A  
ENDBRANCH  32  33
ENDBRANCH  31  32
BRANCH  31  39
HETATM   39  N   UNL     1     -10.256   8.771  65.409  1.00  0.00     0.372 N  
HETATM   40  C   UNL     1     -11.146   9.665  65.932  1.00  0.00     1.464 C  
HETATM   41  H   UNL     1     -10.154   8.709  64.396  1.00  0.00     0.000 HD 
HETATM   42  O   UNL     1     -11.388   9.781  67.124  1.00  0.00     0.063 OA 
BRANCH  40  43
HETATM   43  O   UNL     1     -11.688  10.418  64.947  1.00  0.00     1.826 OA 
BRANCH  43  44
HETATM   44  C   UNL     1     -10.780  11.353  64.349  1.00  0.00    -0.342 C  
BRANCH  44  45
HETATM   45  C   UNL     1     -11.456  12.679  64.289  1.00  0.00    -0.363 A  
HETATM   46  N   UNL     1     -12.619  14.535  63.457  1.00  0.00    -0.605 NA 
HETATM   47  C   UNL     1     -12.192  13.234  63.259  1.00  0.00    -0.313 A  
HETATM   48  C   UNL     1     -12.216  14.944  64.639  1.00  0.00    -0.341 A  
HETATM   49  S   UNL     1     -11.331  13.810  65.574  1.00  0.00    -0.314 SA 
ENDBRANCH  44  45
ENDBRANCH  43  44
ENDBRANCH  40  43
ENDBRANCH  31  39
ENDBRANCH  30  31
ENDBRANCH  29  30
ENDBRANCH  21  29
ENDBRANCH  19  21
ENDBRANCH  16  17
BRANCH  16  50
HETATM   50  C   UNL     1      -5.188  13.085  69.455  1.00  0.00    -0.077 C  
BRANCH  50  51
HETATM   51  C   UNL     1      -5.740  14.482  69.720  1.00  0.00    -0.104 C  
BRANCH  51  52
HETATM   52  N   UNL     1      -5.808  15.361  68.535  1.00  0.00    -0.092 NA 
HETATM   53  O   UNL     1      -7.405  17.665  69.438  1.00  0.00    -0.101 OA 
HETATM   54  C   UNL     1      -8.023  16.392  69.202  1.00  0.00    -0.204 C  
HETATM   55  C   UNL     1      -7.237  15.557  68.168  1.00  0.00    -0.117 C  
HETATM   56  C   UNL     1      -6.027  17.523  69.814  1.00  0.00    -0.245 C  
HETATM   57  C   UNL     1      -5.244  16.711  68.770  1.00  0.00    -0.122 C  
ENDBRANCH  51  52
ENDBRANCH  50  51
ENDBRANCH  16  50
ENDBRANCH  14  16
ENDBRANCH  12  14
ENDBRANCH  10  12
ENDBRANCH   9  10
ENDBRANCH   6   9
TORSDOF 21
ENDMDL
MODEL       36
REMARK 921   NORMALIZED FREE ENERGY PREDICTED BY IDOCK:    8.22 KCAL/MOL
REMARK 922        TOTAL FREE ENERGY PREDICTED BY IDOCK:   14.79 KCAL/MOL
REMARK 923 INTER-LIGAND FREE ENERGY PREDICTED BY IDOCK:   -7.45 KCAL/MOL
REMARK 924 INTRA-LIGAND FREE ENERGY PREDICTED BY IDOCK:   22.24 KCAL/MOL
REMARK 927      BINDING AFFINITY PREDICTED BY RF-SCORE:    0.00 PKD
ROOT
HETATM    1  C   UNL     1      -7.909   8.438  73.839  1.00  0.00    -0.197 C  
HETATM    2  C   UNL     1      -8.516   7.086  73.463  1.00  0.00    -0.153 C  
HETATM    3  C   UNL     1      -8.372   6.815  71.982  1.00  0.00    -0.111 A  
HETATM    4  C   UNL     1      -9.977   7.009  73.906  1.00  0.00    -0.370 C  
HETATM    5  N   UNL     1      -8.816   7.589  71.009  1.00  0.00    -0.145 NA 
HETATM    6  C   UNL     1      -8.511   7.033  69.762  1.00  0.00    -0.137 A  
HETATM    7  C   UNL     1      -7.834   5.830  69.831  1.00  0.00    -0.088 A  
HETATM    8  S   UNL     1      -7.565   5.385  71.460  1.00  0.00    -0.106 SA 
ENDROOT
BRANCH   6   9
HETATM    9  C   UNL     1      -8.988   7.699  68.495  1.00  0.00    -0.129 C  
BRANCH   9  10
HETATM   10  N   UNL     1     -10.404   8.081  68.555  1.00  0.00    -0.207 N  
HETATM   11  C   UNL     1     -11.304   7.166  69.245  1.00  0.00     0.086 C  
BRANCH  10  12
HETATM   12  C   UNL     1     -10.874   8.999  67.617  1.00  0.00    -0.063 C  
HETATM   13  O   UNL     1     -12.023   9.433  67.610  1.00  0.00     1.749 OA 
BRANCH  12  14
HETATM   14  N   UNL     1      -9.930   9.456  66.744  1.00  0.00    -0.220 N  
HETATM   15  H   UNL     1     -10.262   9.927  65.902  1.00  0.00     0.000 HD 
BRANCH  14  16
HETATM   16  C   UNL     1      -8.472   9.329  66.911  1.00  0.00    -0.127 C  
BRANCH  16  17
HETATM   17  C   UNL     1      -7.861  10.431  66.016  1.00  0.00    -0.142 C  
HETATM   18  H   UNL     1      -7.475  12.400  65.738  1.00  0.00     0.000 HD 
HETATM   19  N   UNL     1      -8.049  11.756  66.281  1.00  0.00     0.028 N  
HETATM   20  O   UNL     1      -7.138  10.130  65.057  1.00  0.00    -0.132 OA 
BRANCH  19  21
HETATM   21  C   UNL     1      -8.961  12.376  67.238  1.00  0.00    -0.190 C  
BRANCH  21  22
HETATM   22  C   UNL     1      -9.619  11.335  68.162  1.00  0.00    -0.186 C  
BRANCH  22  23
HETATM   23  C   UNL     1     -10.625  11.906  69.132  1.00  0.00    -0.085 A  
HETATM   24  C   UNL     1     -12.269  11.556  70.882  1.00  0.00    -0.425 A  
HETATM   25  C   UNL     1     -11.890  13.778  70.019  1.00  0.00    -0.377 A  
HETATM   26  C   UNL     1     -10.935  13.274  69.135  1.00  0.00    -0.208 A  
HETATM   27  C   UNL     1     -11.307  11.053  70.008  1.00  0.00    -0.358 A  
HETATM   28  C   UNL     1     -12.562  12.923  70.886  1.00  0.00    -0.355 A  
ENDBRANCH  22  23
ENDBRANCH  21  22
BRANCH  21  29
HETATM   29  C   UNL     1      -8.242  13.488  68.022  1.00  0.00    -0.163 C  
BRANCH  29  30
HETATM   30  C   UNL     1      -7.596  14.615  67.194  1.00  0.00    -0.078 C  
BRANCH  30  31
HETATM   31  C   UNL     1      -8.553  15.806  66.953  1.00  0.00    -0.247 C  
BRANCH  31  32
HETATM   32  C   UNL     1      -9.139  15.747  65.521  1.00  0.00     0.242 C  
BRANCH  32  33
HETATM   33  C   UNL     1     -10.170  14.653  65.353  1.00  0.00    -0.415 A  
HETATM   34  C   UNL     1      -9.878  13.502  64.609  1.00  0.00     0.062 A  
HETATM   35  C   UNL     1     -10.849  12.521  64.407  1.00  0.00    -0.375 A  
HETATM   36  C   UNL     1     -11.446  14.782  65.922  1.00  0.00    -0.319 A  
HETATM   37  C   UNL     1     -12.419  13.809  65.712  1.00  0.00    -0.527 A  
HETATM   38  C   UNL     1     -12.124  12.682  64.949  1.00  0.00    -0.494 A  
ENDBRANCH  32  33
ENDBRANCH  31  32
BRANCH  31  39
HETATM   39  N   UNL     1      -7.891  17.085  67.198  1.00  0.00    -0.166 N  
HETATM   40  C   UNL     1      -6.926  17.230  68.154  1.00  0.00    -0.181 C  
HETATM   41  H   UNL     1      -8.157  17.895  66.638  1.00  0.00     0.000 HD 
HETATM   42  O   UNL     1      -6.573  16.344  68.918  1.00  0.00    -0.145 OA 
BRANCH  40  43
HETATM   43  O   UNL     1      -6.401  18.476  68.105  1.00  0.00    -0.198 OA 
BRANCH  43  44
HETATM   44  C   UNL     1      -7.105  19.382  67.244  1.00  0.00    -0.200 C  
BRANCH  44  45
HETATM   45  C   UNL     1      -8.561  19.097  67.365  1.00  0.00    -0.286 A  
HETATM   46  N   UNL     1     -10.609  18.368  68.241  1.00  0.00    -0.286 NA 
HETATM   47  C   UNL     1      -9.270  18.635  68.458  1.00  0.00    -0.347 A  
HETATM   48  C   UNL     1     -10.904  18.646  66.990  1.00  0.00    -0.235 A  
HETATM   49  S   UNL     1      -9.621  19.247  66.023  1.00  0.00    -0.083 SA 
ENDBRANCH  44  45
ENDBRANCH  43  44
ENDBRANCH  40  43
ENDBRANCH  31  39
ENDBRANCH  30  31
ENDBRANCH  29  30
ENDBRANCH  21  29
ENDBRANCH  19  21
ENDBRANCH  16  17
BRANCH  16  50
HETATM   50  C   UNL     1      -7.988   7.962  66.399  1.00  0.00    -0.102 C  
BRANCH  50  51
HETATM   51  C   UNL     1      -6.853   8.096  65.390  1.00  0.00    -0.062 C  
BRANCH  51  52
HETATM   52  N   UNL     1      -5.494   7.996  65.962  1.00  0.00    -0.028 NA 
HETATM   53  O   UNL     1      -5.953   7.667  68.853  1.00  0.00    -0.029 OA 
HETATM   54  C   UNL     1      -6.177   8.932  68.214  1.00  0.00    -0.054 C  
HETATM   55  C   UNL     1      -5.309   9.095  66.948  1.00  0.00    -0.039 C  
HETATM   56  C   UNL     1      -6.138   6.573  67.943  1.00  0.00    -0.027 C  
HETATM   57  C   UNL     1      -5.256   6.730  66.694  1.00  0.00    -0.017 C  
ENDBRANCH  51  52
ENDBRANCH  50  51
ENDBRANCH  16  50
ENDBRANCH  14  16
ENDBRANCH  12  14
ENDBRANCH  10  12
ENDBRANCH   9  10
ENDBRANCH   6   9
TORSDOF 21
ENDMDL
MODEL       37
REMARK 921   NORMALIZED FREE ENERGY PREDICTED BY IDOCK:    8.74 KCAL/MOL
REMARK 922        TOTAL FREE ENERGY PREDICTED BY IDOCK:   15.95 KCAL/MOL
REMARK 923 INTER-LIGAND FREE ENERGY PREDICTED BY IDOCK:    0.17 KCAL/MOL
REMARK 924 INTRA-LIGAND FREE ENERGY PREDICTED BY IDOCK:   15.78 KCAL/MOL
REMARK 927      BINDING AFFINITY PREDICTED BY RF-SCORE:    0.00 PKD
ROOT
HETATM    1  C   UNL     1     -10.270   6.992  72.648  1.00  0.00    -0.218 C  
HETATM    2  C   UNL     1      -9.885   8.471  72.658  1.00  0.00    -0.281 C  
HETATM    3  C   UNL     1     -10.052   9.088  71.287  1.00  0.00    -0.314 A  
HETATM    4  C   UNL     1      -8.462   8.655  73.184  1.00  0.00     0.071 C  
HETATM    5  N   UNL     1      -9.475   8.667  70.176  1.00  0.00    -0.161 NA 
HETATM    6  C   UNL     1      -9.850   9.471  69.094  1.00  0.00    -0.176 A  
HETATM    7  C   UNL     1     -10.713  10.498  69.427  1.00  0.00    -0.241 A  
HETATM    8  S   UNL     1     -11.072  10.464  71.098  1.00  0.00     0.557 SA 
ENDROOT
BRANCH   6   9
HETATM    9  C   UNL     1      -9.255   9.234  67.728  1.00  0.00    -0.129 C  
BRANCH   9  10
HETATM   10  N   UNL     1     -10.117   9.717  66.644  1.00  0.00    -0.230 N  
HETATM   11  C   UNL     1      -9.689   9.425  65.281  1.00  0.00    -0.114 C  
BRANCH  10  12
HETATM   12  C   UNL     1     -10.999  10.760  66.924  1.00  0.00    -0.190 C  
HETATM   13  O   UNL     1     -12.196  10.597  67.145  1.00  0.00     1.006 OA 
BRANCH  12  14
HETATM   14  N   UNL     1     -10.413  11.990  67.021  1.00  0.00    -0.218 N  
HETATM   15  H   UNL     1     -10.146  12.306  67.953  1.00  0.00     0.000 HD 
BRANCH  14  16
HETATM   16  C   UNL     1     -10.134  12.900  65.897  1.00  0.00    -0.289 C  
BRANCH  16  17
HETATM   17  C   UNL     1      -9.446  12.026  64.824  1.00  0.00     0.111 C  
HETATM   18  H   UNL     1      -7.871  10.860  64.310  1.00  0.00     0.000 HD 
HETATM   19  N   UNL     1      -8.175  11.559  64.988  1.00  0.00     0.606 N  
HETATM   20  O   UNL     1     -10.060  11.685  63.805  1.00  0.00    -0.311 OA 
BRANCH  19  21
HETATM   21  C   UNL     1      -7.190  11.925  66.002  1.00  0.00     0.863 C  
BRANCH  21  22
HETATM   22  C   UNL     1      -7.842  12.159  67.378  1.00  0.00    -0.168 C  
BRANCH  22  23
HETATM   23  C   UNL     1      -7.054  13.059  68.298  1.00  0.00    -0.103 A  
HETATM   24  C   UNL     1      -6.774  14.083  70.480  1.00  0.00     0.272 A  
HETATM   25  C   UNL     1      -5.249  14.632  68.692  1.00  0.00    -0.095 A  
HETATM   26  C   UNL     1      -5.946  13.782  67.833  1.00  0.00    -0.145 A  
HETATM   27  C   UNL     1      -7.465  13.224  69.627  1.00  0.00     0.689 A  
HETATM   28  C   UNL     1      -5.663  14.789  70.011  1.00  0.00    -0.122 A  
ENDBRANCH  22  23
ENDBRANCH  21  22
BRANCH  21  29
HETATM   29  C   UNL     1      -6.062  10.879  66.057  1.00  0.00    -0.122 C  
BRANCH  29  30
HETATM   30  C   UNL     1      -6.428   9.494  66.623  1.00  0.00    -0.067 C  
BRANCH  30  31
HETATM   31  C   UNL     1      -5.528   8.363  66.071  1.00  0.00    -0.031 C  
BRANCH  31  32
HETATM   32  C   UNL     1      -5.832   8.112  64.574  1.00  0.00    -0.052 C  
BRANCH  32  33
HETATM   33  C   UNL     1      -6.899   7.062  64.359  1.00  0.00    -0.047 A  
HETATM   34  C   UNL     1      -8.171   7.206  64.929  1.00  0.00    -0.073 A  
HETATM   35  C   UNL     1      -9.135   6.210  64.778  1.00  0.00     0.525 A  
HETATM   36  C   UNL     1      -6.626   5.913  63.602  1.00  0.00    -0.036 A  
HETATM   37  C   UNL     1      -7.584   4.913  63.459  1.00  0.00    -0.062 A  
HETATM   38  C   UNL     1      -8.836   5.057  64.053  1.00  0.00    -0.039 A  
ENDBRANCH  32  33
ENDBRANCH  31  32
BRANCH  31  39
HETATM   39  N   UNL     1      -5.670   7.135  66.850  1.00  0.00    -0.022 N  
HETATM   40  C   UNL     1      -5.427   5.904  66.312  1.00  0.00    -0.013 C  
HETATM   41  H   UNL     1      -5.961   7.199  67.826  1.00  0.00     0.000 HD 
HETATM   42  O   UNL     1      -5.132   5.708  65.141  1.00  0.00    -0.009 OA 
BRANCH  40  43
HETATM   43  O   UNL     1      -5.526   4.948  67.263  1.00  0.00    -0.012 OA 
BRANCH  43  44
HETATM   44  C   UNL     1      -6.772   4.237  67.262  1.00  0.00    -0.047 C  
BRANCH  44  45
HETATM   45  C   UNL     1      -7.563   4.689  68.440  1.00  0.00    -0.069 A  
HETATM   46  N   UNL     1      -8.100   5.361  70.620  1.00  0.00    -0.107 NA 
HETATM   47  C   UNL     1      -7.117   5.087  69.686  1.00  0.00    -0.055 A  
HETATM   48  C   UNL     1      -9.279   5.183  70.066  1.00  0.00    -0.134 A  
HETATM   49  S   UNL     1      -9.279   4.701  68.420  1.00  0.00    -0.136 SA 
ENDBRANCH  44  45
ENDBRANCH  43  44
ENDBRANCH  40  43
ENDBRANCH  31  39
ENDBRANCH  30  31
ENDBRANCH  29  30
ENDBRANCH  21  29
ENDBRANCH  19  21
ENDBRANCH  16  17
BRANCH  16  50
HETATM   50  C   UNL     1      -9.154  14.003  66.327  1.00  0.00    -0.047 C  
BRANCH  50  51
HETATM   51  C   UNL     1      -9.262  15.244  65.447  1.00  0.00     0.433 C  
BRANCH  51  52
HETATM   52  N   UNL     1     -10.104  16.327  65.996  1.00  0.00    -0.336 NA 
HETATM   53  O   UNL     1     -12.785  15.123  66.198  1.00  0.00     0.568 OA 
HETATM   54  C   UNL     1     -12.230  15.466  64.921  1.00  0.00     0.140 C  
HETATM   55  C   UNL     1     -11.202  16.612  65.033  1.00  0.00    -0.027 C  
HETATM   56  C   UNL     1     -11.761  14.821  67.157  1.00  0.00    -0.334 C  
HETATM   57  C   UNL     1     -10.753  15.975  67.281  1.00  0.00    -0.295 C  
ENDBRANCH  51  52
ENDBRANCH  50  51
ENDBRANCH  16  50
ENDBRANCH  14  16
ENDBRANCH  12  14
ENDBRANCH  10  12
ENDBRANCH   9  10
ENDBRANCH   6   9
TORSDOF 21
ENDMDL
MODEL       38
REMARK 921   NORMALIZED FREE ENERGY PREDICTED BY IDOCK:    8.94 KCAL/MOL
REMARK 922        TOTAL FREE ENERGY PREDICTED BY IDOCK:   16.38 KCAL/MOL
REMARK 923 INTER-LIGAND FREE ENERGY PREDICTED BY IDOCK:   12.40 KCAL/MOL
REMARK 924 INTRA-LIGAND FREE ENERGY PREDICTED BY IDOCK:    3.98 KCAL/MOL
REMARK 927      BINDING AFFINITY PREDICTED BY RF-SCORE:    0.00 PKD
ROOT
HETATM    1  C   UNL     1     -13.031   4.766  65.386  1.00  0.00     7.933 C  
HETATM    2  C   UNL     1     -11.731   5.124  64.665  1.00  0.00     2.715 C  
HETATM    3  C   UNL     1     -10.647   4.111  64.959  1.00  0.00    -0.136 A  
HETATM    4  C   UNL     1     -11.286   6.541  65.028  1.00  0.00     6.772 C  
HETATM    5  N   UNL     1     -10.207   3.778  66.158  1.00  0.00     0.154 NA 
HETATM    6  C   UNL     1      -9.198   2.813  66.060  1.00  0.00    -0.076 A  
HETATM    7  C   UNL     1      -8.899   2.440  64.763  1.00  0.00    -0.117 A  
HETATM    8  S   UNL     1      -9.883   3.290  63.652  1.00  0.00    -0.164 SA 
ENDROOT
BRANCH   6   9
HETATM    9  C   UNL     1      -8.484   2.331  67.298  1.00  0.00    -0.092 C  
BRANCH   9  10
HETATM   10  N   UNL     1      -7.220   3.039  67.534  1.00  0.00    -0.053 N  
HETATM   11  C   UNL     1      -5.997   2.250  67.455  1.00  0.00    -0.020 C  
BRANCH  10  12
HETATM   12  C   UNL     1      -7.267   4.245  68.233  1.00  0.00    -0.060 C  
HETATM   13  O   UNL     1      -6.308   4.714  68.841  1.00  0.00    -0.030 OA 
BRANCH  12  14
HETATM   14  N   UNL     1      -8.446   4.923  68.122  1.00  0.00    -0.102 N  
HETATM   15  H   UNL     1      -8.719   5.236  67.191  1.00  0.00     0.000 HD 
BRANCH  14  16
HETATM   16  C   UNL     1      -9.361   5.241  69.232  1.00  0.00    -0.123 C  
BRANCH  16  17
HETATM   17  C   UNL     1      -8.448   5.626  70.418  1.00  0.00    -0.127 C  
HETATM   18  H   UNL     1      -7.981   6.968  71.862  1.00  0.00     0.000 HD 
HETATM   19  N   UNL     1      -8.497   6.864  70.988  1.00  0.00    -0.130 N  
HETATM   20  O   UNL     1      -7.678   4.792  70.912  1.00  0.00    -0.070 OA 
BRANCH  19  21
HETATM   21  C   UNL     1      -9.189   8.060  70.518  1.00  0.00    -0.154 C  
BRANCH  21  22
HETATM   22  C   UNL     1      -8.243   9.272  70.425  1.00  0.00    -0.199 C  
BRANCH  22  23
HETATM   23  C   UNL     1      -7.232   9.364  71.542  1.00  0.00     0.231 A  
HETATM   24  C   UNL     1      -5.129  10.230  72.387  1.00  0.00     0.043 A  
HETATM   25  C   UNL     1      -6.419   8.692  73.727  1.00  0.00    -0.082 A  
HETATM   26  C   UNL     1      -7.381   8.616  72.719  1.00  0.00     0.018 A  
HETATM   27  C   UNL     1      -6.094  10.165  71.384  1.00  0.00     0.196 A  
HETATM   28  C   UNL     1      -5.292   9.490  73.562  1.00  0.00    -0.017 A  
ENDBRANCH  22  23
ENDBRANCH  21  22
BRANCH  21  29
HETATM   29  C   UNL     1      -9.912   7.775  69.189  1.00  0.00    -0.182 C  
BRANCH  29  30
HETATM   30  C   UNL     1      -9.035   7.705  67.924  1.00  0.00    -0.128 C  
BRANCH  30  31
HETATM   31  C   UNL     1      -9.154   8.968  67.040  1.00  0.00    -0.130 C  
BRANCH  31  32
HETATM   32  C   UNL     1      -7.751   9.540  66.723  1.00  0.00    -0.098 C  
BRANCH  32  33
HETATM   33  C   UNL     1      -7.145   8.949  65.470  1.00  0.00    -0.080 A  
HETATM   34  C   UNL     1      -7.850   8.007  64.709  1.00  0.00    -0.131 A  
HETATM   35  C   UNL     1      -7.266   7.420  63.586  1.00  0.00    -0.072 A  
HETATM   36  C   UNL     1      -5.855   9.318  65.059  1.00  0.00    -0.063 A  
HETATM   37  C   UNL     1      -5.268   8.725  63.945  1.00  0.00    -0.056 A  
HETATM   38  C   UNL     1      -5.970   7.770  63.212  1.00  0.00    -0.059 A  
ENDBRANCH  32  33
ENDBRANCH  31  32
BRANCH  31  39
HETATM   39  N   UNL     1     -10.007   9.980  67.661  1.00  0.00    -0.169 N  
HETATM   40  C   UNL     1      -9.807  11.315  67.463  1.00  0.00    -0.178 C  
HETATM   41  H   UNL     1     -10.775   9.678  68.262  1.00  0.00     0.000 HD 
HETATM   42  O   UNL     1      -8.886  11.787  66.813  1.00  0.00    -0.180 OA 
BRANCH  40  43
HETATM   43  O   UNL     1     -10.790  12.030  68.058  1.00  0.00    -0.199 OA 
BRANCH  43  44
HETATM   44  C   UNL     1     -11.763  12.568  67.151  1.00  0.00    -0.355 C  
BRANCH  44  45
HETATM   45  C   UNL     1     -11.240  13.861  66.628  1.00  0.00    -0.320 A  
HETATM   46  N   UNL     1     -10.377  16.039  66.571  1.00  0.00    -0.292 NA 
HETATM   47  C   UNL     1     -10.683  14.919  67.323  1.00  0.00    -0.294 A  
HETATM   48  C   UNL     1     -10.689  15.812  65.315  1.00  0.00    -0.428 A  
HETATM   49  S   UNL     1     -11.343  14.265  64.963  1.00  0.00    -0.386 SA 
ENDBRANCH  44  45
ENDBRANCH  43  44
ENDBRANCH  40  43
ENDBRANCH  31  39
ENDBRANCH  30  31
ENDBRANCH  29  30
ENDBRANCH  21  29
ENDBRANCH  19  21
ENDBRANCH  16  17
BRANCH  16  50
HETATM   50  C   UNL     1     -10.179   4.001  69.630  1.00  0.00     0.472 C  
BRANCH  50  51
HETATM   51  C   UNL     1      -9.854   3.528  71.042  1.00  0.00    -0.085 C  
BRANCH  51  52
HETATM   52  N   UNL     1      -9.673   2.069  71.186  1.00  0.00    -0.136 NA 
HETATM   53  O   UNL     1      -8.200   1.773  73.720  1.00  0.00    -0.045 OA 
HETATM   54  C   UNL     1      -7.549   2.285  72.549  1.00  0.00    -0.051 C  
HETATM   55  C   UNL     1      -8.216   1.774  71.254  1.00  0.00    -0.046 C  
HETATM   56  C   UNL     1      -9.608   2.051  73.707  1.00  0.00    -0.078 C  
HETATM   57  C   UNL     1     -10.271   1.521  72.425  1.00  0.00    -0.147 C  
ENDBRANCH  51  52
ENDBRANCH  50  51
ENDBRANCH  16  50
ENDBRANCH  14  16
ENDBRANCH  12  14
ENDBRANCH  10  12
ENDBRANCH   9  10
ENDBRANCH   6   9
TORSDOF 21
ENDMDL
MODEL       39
REMARK 921   NORMALIZED FREE ENERGY PREDICTED BY IDOCK:   10.42 KCAL/MOL
REMARK 922        TOTAL FREE ENERGY PREDICTED BY IDOCK:   19.70 KCAL/MOL
REMARK 923 INTER-LIGAND FREE ENERGY PREDICTED BY IDOCK:    4.46 KCAL/MOL
REMARK 924 INTRA-LIGAND FREE ENERGY PREDICTED BY IDOCK:   15.24 KCAL/MOL
REMARK 927      BINDING AFFINITY PREDICTED BY RF-SCORE:    0.00 PKD
ROOT
HETATM    1  C   UNL     1      -8.421   9.574  74.266  1.00  0.00     3.497 C  
HETATM    2  C   UNL     1      -7.703   8.516  73.428  1.00  0.00    -0.053 C  
HETATM    3  C   UNL     1      -7.594   8.946  71.982  1.00  0.00     0.122 A  
HETATM    4  C   UNL     1      -8.399   7.161  73.557  1.00  0.00    -0.149 C  
HETATM    5  N   UNL     1      -8.603   9.272  71.196  1.00  0.00    -0.308 NA 
HETATM    6  C   UNL     1      -8.139   9.618  69.921  1.00  0.00    -0.171 A  
HETATM    7  C   UNL     1      -6.767   9.538  69.779  1.00  0.00    -0.057 A  
HETATM    8  S   UNL     1      -6.040   9.035  71.243  1.00  0.00    -0.066 SA 
ENDROOT
BRANCH   6   9
HETATM    9  C   UNL     1      -9.117   9.953  68.822  1.00  0.00    -0.147 C  
BRANCH   9  10
HETATM   10  N   UNL     1      -9.095  11.375  68.460  1.00  0.00    -0.178 N  
HETATM   11  C   UNL     1      -9.631  11.731  67.152  1.00  0.00    -0.181 C  
BRANCH  10  12
HETATM   12  C   UNL     1      -8.204  12.209  69.135  1.00  0.00     0.445 C  
HETATM   13  O   UNL     1      -8.107  12.250  70.359  1.00  0.00     2.998 OA 
BRANCH  12  14
HETATM   14  N   UNL     1      -7.371  12.926  68.325  1.00  0.00    -0.108 N  
HETATM   15  H   UNL     1      -7.791  13.666  67.763  1.00  0.00     0.000 HD 
BRANCH  14  16
HETATM   16  C   UNL     1      -5.918  12.725  68.193  1.00  0.00    -0.086 C  
BRANCH  16  17
HETATM   17  C   UNL     1      -5.726  11.196  68.071  1.00  0.00    -0.042 C  
HETATM   18  H   UNL     1      -5.839   9.539  66.912  1.00  0.00     0.000 HD 
HETATM   19  N   UNL     1      -6.156  10.506  66.976  1.00  0.00    -0.055 N  
HETATM   20  O   UNL     1      -5.127  10.567  68.953  1.00  0.00    -0.042 OA 
BRANCH  19  21
HETATM   21  C   UNL     1      -7.008  10.964  65.882  1.00  0.00    -0.029 C  
BRANCH  21  22
HETATM   22  C   UNL     1      -6.300  10.858  64.519  1.00  0.00     0.422 C  
BRANCH  22  23
HETATM   23  C   UNL     1      -6.286   9.470  63.927  1.00  0.00    -0.099 A  
HETATM   24  C   UNL     1      -7.341   7.782  62.539  1.00  0.00    -0.097 A  
HETATM   25  C   UNL     1      -5.312   7.256  63.735  1.00  0.00    -0.033 A  
HETATM   26  C   UNL     1      -5.290   8.544  64.270  1.00  0.00    -0.048 A  
HETATM   27  C   UNL     1      -7.315   9.073  63.063  1.00  0.00    -0.095 A  
HETATM   28  C   UNL     1      -6.337   6.871  62.877  1.00  0.00    -0.044 A  
ENDBRANCH  22  23
ENDBRANCH  21  22
BRANCH  21  29
HETATM   29  C   UNL     1      -8.356  10.221  65.904  1.00  0.00    -0.145 C  
BRANCH  29  30
HETATM   30  C   UNL     1      -8.324   8.739  66.323  1.00  0.00    -0.120 C  
BRANCH  30  31
HETATM   31  C   UNL     1      -9.661   8.011  66.055  1.00  0.00     0.068 C  
BRANCH  31  32
HETATM   32  C   UNL     1     -10.855   8.967  66.294  1.00  0.00     0.730 C  
BRANCH  32  33
HETATM   33  C   UNL     1     -10.855  10.154  65.356  1.00  0.00     0.530 A  
HETATM   34  C   UNL     1     -10.264  10.065  64.088  1.00  0.00     0.494 A  
HETATM   35  C   UNL     1     -10.214  11.176  63.247  1.00  0.00    -0.403 A  
HETATM   36  C   UNL     1     -11.428  11.372  65.748  1.00  0.00     0.034 A  
HETATM   37  C   UNL     1     -11.370  12.486  64.914  1.00  0.00    -0.351 A  
HETATM   38  C   UNL     1     -10.757  12.390  63.667  1.00  0.00    -0.497 A  
ENDBRANCH  32  33
ENDBRANCH  31  32
BRANCH  31  39
HETATM   39  N   UNL     1      -9.786   6.801  66.865  1.00  0.00    -0.160 N  
HETATM   40  C   UNL     1      -9.177   5.630  66.517  1.00  0.00    -0.144 C  
HETATM   41  H   UNL     1     -10.346   6.833  67.718  1.00  0.00     0.000 HD 
HETATM   42  O   UNL     1      -8.533   5.465  65.491  1.00  0.00    -0.130 OA 
BRANCH  40  43
HETATM   43  O   UNL     1      -9.360   4.701  67.483  1.00  0.00    -0.128 OA 
BRANCH  43  44
HETATM   44  C   UNL     1      -8.185   3.946  67.809  1.00  0.00    -0.093 C  
BRANCH  44  45
HETATM   45  C   UNL     1      -7.683   4.419  69.129  1.00  0.00    -0.055 A  
HETATM   46  N   UNL     1      -6.962   5.848  70.841  1.00  0.00    -0.065 NA 
HETATM   47  C   UNL     1      -7.556   5.713  69.599  1.00  0.00    -0.075 A  
HETATM   48  C   UNL     1      -6.661   4.656  71.305  1.00  0.00    -0.034 A  
HETATM   49  S   UNL     1      -7.078   3.325  70.306  1.00  0.00    -0.037 SA 
ENDBRANCH  44  45
ENDBRANCH  43  44
ENDBRANCH  40  43
ENDBRANCH  31  39
ENDBRANCH  30  31
ENDBRANCH  29  30
ENDBRANCH  21  29
ENDBRANCH  19  21
ENDBRANCH  16  17
BRANCH  16  50
HETATM   50  C   UNL     1      -5.189  13.207  69.459  1.00  0.00    -0.077 C  
BRANCH  50  51
HETATM   51  C   UNL     1      -6.043  14.164  70.283  1.00  0.00    -0.164 C  
BRANCH  51  52
HETATM   52  N   UNL     1      -5.804  15.598  70.021  1.00  0.00    -0.146 NA 
HETATM   53  O   UNL     1      -7.378  16.158  67.595  1.00  0.00    -0.123 OA 
HETATM   54  C   UNL     1      -6.170  15.388  67.524  1.00  0.00    -0.091 C  
HETATM   55  C   UNL     1      -5.198  15.741  68.670  1.00  0.00    -0.096 C  
HETATM   56  C   UNL     1      -8.009  16.035  68.878  1.00  0.00    -0.212 C  
HETATM   57  C   UNL     1      -7.044  16.409  70.014  1.00  0.00     0.552 C  
ENDBRANCH  51  52
ENDBRANCH  50  51
ENDBRANCH  16  50
ENDBRANCH  14  16
ENDBRANCH  12  14
ENDBRANCH  10  12
ENDBRANCH   9  10
ENDBRANCH   6   9
TORSDOF 21
ENDMDL
MODEL       40
REMARK 921   NORMALIZED FREE ENERGY PREDICTED BY IDOCK:   13.81 KCAL/MOL
REMARK 922        TOTAL FREE ENERGY PREDICTED BY IDOCK:   27.23 KCAL/MOL
REMARK 923 INTER-LIGAND FREE ENERGY PREDICTED BY IDOCK:    6.13 KCAL/MOL
REMARK 924 INTRA-LIGAND FREE ENERGY PREDICTED BY IDOCK:   21.10 KCAL/MOL
REMARK 927      BINDING AFFINITY PREDICTED BY RF-SCORE:    0.00 PKD
ROOT
HETATM    1  C   UNL     1      -8.448   9.579  74.269  1.00  0.00     3.497 C  
HETATM    2  C   UNL     1      -7.769   8.465  73.472  1.00  0.00    -0.140 C  
HETATM    3  C   UNL     1      -7.628   8.844  72.015  1.00  0.00     0.122 A  
HETATM    4  C   UNL     1      -8.525   7.147  73.637  1.00  0.00    -0.168 C  
HETATM    5  N   UNL     1      -8.615   9.189  71.208  1.00  0.00    -0.320 NA 
HETATM    6  C   UNL     1      -8.126   9.473  69.928  1.00  0.00    -0.157 A  
HETATM    7  C   UNL     1      -6.757   9.329  69.803  1.00  0.00    -0.051 A  
HETATM    8  S   UNL     1      -6.065   8.843  71.289  1.00  0.00    -0.063 SA 
ENDROOT
BRANCH   6   9
HETATM    9  C   UNL     1      -9.078   9.815  68.810  1.00  0.00    -0.136 C  
BRANCH   9  10
HETATM   10  N   UNL     1      -9.020  11.232  68.431  1.00  0.00    -0.162 N  
HETATM   11  C   UNL     1      -9.503  11.578  67.100  1.00  0.00    -0.177 C  
BRANCH  10  12
HETATM   12  C   UNL     1      -8.140  12.060  69.126  1.00  0.00     0.348 C  
HETATM   13  O   UNL     1      -8.171  12.213  70.344  1.00  0.00     3.113 OA 
BRANCH  12  14
HETATM   14  N   UNL     1      -7.169  12.633  68.357  1.00  0.00    -0.104 N  
HETATM   15  H   UNL     1      -7.460  13.358  67.702  1.00  0.00     0.000 HD 
BRANCH  14  16
HETATM   16  C   UNL     1      -5.735  12.294  68.390  1.00  0.00    -0.055 C  
BRANCH  16  17
HETATM   17  C   UNL     1      -5.672  10.762  68.201  1.00  0.00    -0.043 C  
HETATM   18  H   UNL     1      -5.859   9.176  66.954  1.00  0.00     0.000 HD 
HETATM   19  N   UNL     1      -6.093  10.164  67.049  1.00  0.00    -0.054 N  
HETATM   20  O   UNL     1      -5.188  10.041  69.083  1.00  0.00    -0.036 OA 
BRANCH  19  21
HETATM   21  C   UNL     1      -6.831  10.748  65.933  1.00  0.00    -0.084 C  
BRANCH  21  22
HETATM   22  C   UNL     1      -6.066  10.609  64.603  1.00  0.00     0.031 C  
BRANCH  22  23
HETATM   23  C   UNL     1      -6.083   9.221  64.013  1.00  0.00    -0.084 A  
HETATM   24  C   UNL     1      -5.155   6.981  63.918  1.00  0.00    -0.028 A  
HETATM   25  C   UNL     1      -6.931   7.608  62.410  1.00  0.00    -0.076 A  
HETATM   26  C   UNL     1      -6.952   8.889  62.962  1.00  0.00    -0.089 A  
HETATM   27  C   UNL     1      -5.181   8.257  64.479  1.00  0.00    -0.036 A  
HETATM   28  C   UNL     1      -6.032   6.657  62.879  1.00  0.00    -0.038 A  
ENDBRANCH  22  23
ENDBRANCH  21  22
BRANCH  21  29
HETATM   29  C   UNL     1      -8.250  10.156  65.859  1.00  0.00    -0.138 C  
BRANCH  29  30
HETATM   30  C   UNL     1      -8.360   8.619  65.856  1.00  0.00    -0.140 C  
BRANCH  30  31
HETATM   31  C   UNL     1      -9.821   8.123  65.960  1.00  0.00     0.108 C  
BRANCH  31  32
HETATM   32  C   UNL     1     -10.768   9.299  66.304  1.00  0.00     0.278 C  
BRANCH  32  33
HETATM   33  C   UNL     1     -10.871  10.315  65.189  1.00  0.00     0.499 A  
HETATM   34  C   UNL     1     -11.691  11.445  65.322  1.00  0.00     0.258 A  
HETATM   35  C   UNL     1     -11.828  12.351  64.270  1.00  0.00    -0.473 A  
HETATM   36  C   UNL     1     -10.164  10.134  63.991  1.00  0.00     0.320 A  
HETATM   37  C   UNL     1     -10.309  11.032  62.937  1.00  0.00    -0.052 A  
HETATM   38  C   UNL     1     -11.147  12.136  63.073  1.00  0.00    -0.036 A  
ENDBRANCH  32  33
ENDBRANCH  31  32
BRANCH  31  39
HETATM   39  N   UNL     1      -9.953   7.041  66.933  1.00  0.00    -0.203 N  
HETATM   40  C   UNL     1     -10.845   6.021  66.766  1.00  0.00    -0.279 C  
HETATM   41  H   UNL     1      -9.359   7.047  67.763  1.00  0.00     0.000 HD 
HETATM   42  O   UNL     1     -11.642   5.945  65.842  1.00  0.00     1.073 OA 
BRANCH  40  43
HETATM   43  O   UNL     1     -10.693   5.100  67.745  1.00  0.00    -0.049 OA 
BRANCH  43  44
HETATM   44  C   UNL     1      -9.434   4.415  67.724  1.00  0.00    -0.163 C  
BRANCH  44  45
HETATM   45  C   UNL     1      -9.340   3.660  66.443  1.00  0.00    -0.182 A  
HETATM   46  N   UNL     1      -9.610   3.085  64.188  1.00  0.00    -0.141 NA 
HETATM   47  C   UNL     1      -9.733   4.045  65.176  1.00  0.00    -0.196 A  
HETATM   48  C   UNL     1      -9.111   1.989  64.714  1.00  0.00    -0.130 A  
HETATM   49  S   UNL     1      -8.751   2.048  66.390  1.00  0.00    -0.116 SA 
ENDBRANCH  44  45
ENDBRANCH  43  44
ENDBRANCH  40  43
ENDBRANCH  31  39
ENDBRANCH  30  31
ENDBRANCH  29  30
ENDBRANCH  21  29
ENDBRANCH  19  21
ENDBRANCH  16  17
BRANCH  16  50
HETATM   50  C   UNL     1      -5.131  12.641  69.761  1.00  0.00    -0.076 C  
BRANCH  50  51
HETATM   51  C   UNL     1      -6.196  13.064  70.767  1.00  0.00     0.375 C  
BRANCH  51  52
HETATM   52  N   UNL     1      -6.271  14.518  71.022  1.00  0.00    -0.081 NA 
HETATM   53  O   UNL     1      -6.812  15.686  68.372  1.00  0.00    -0.110 OA 
HETATM   54  C   UNL     1      -5.519  15.149  68.687  1.00  0.00    -0.092 C  
HETATM   55  C   UNL     1      -5.233  15.200  70.203  1.00  0.00    -0.116 C  
HETATM   56  C   UNL     1      -7.850  15.043  69.126  1.00  0.00    -0.188 C  
HETATM   57  C   UNL     1      -7.571  15.116  70.636  1.00  0.00     1.168 C  
ENDBRANCH  51  52
ENDBRANCH  50  51
ENDBRANCH  16  50
ENDBRANCH  14  16
ENDBRANCH  12  14
ENDBRANCH  10  12
ENDBRANCH   9  10
ENDBRANCH   6   9
TORSDOF 21
ENDMDL
MODEL       41
REMARK 921   NORMALIZED FREE ENERGY PREDICTED BY IDOCK:   14.63 KCAL/MOL
REMARK 922        TOTAL FREE ENERGY PREDICTED BY IDOCK:   29.06 KCAL/MOL
REMARK 923 INTER-LIGAND FREE ENERGY PREDICTED BY IDOCK:   21.93 KCAL/MOL
REMARK 924 INTRA-LIGAND FREE ENERGY PREDICTED BY IDOCK:    7.13 KCAL/MOL
REMARK 927      BINDING AFFINITY PREDICTED BY RF-SCORE:    0.00 PKD
ROOT
HETATM    1  C   UNL     1     -12.555   9.116  69.116  1.00  0.00     3.132 C  
HETATM    2  C   UNL     1     -11.833  10.275  68.429  1.00  0.00     0.311 C  
HETATM    3  C   UNL     1     -10.332  10.110  68.513  1.00  0.00    -0.180 A  
HETATM    4  C   UNL     1     -12.282  11.613  69.014  1.00  0.00    -0.162 C  
HETATM    5  N   UNL     1      -9.632   9.978  69.624  1.00  0.00    -0.225 NA 
HETATM    6  C   UNL     1      -8.269   9.850  69.333  1.00  0.00    -0.146 A  
HETATM    7  C   UNL     1      -7.974   9.892  67.983  1.00  0.00    -0.100 A  
HETATM    8  S   UNL     1      -9.403  10.087  67.063  1.00  0.00    -0.157 SA 
ENDROOT
BRANCH   6   9
HETATM    9  C   UNL     1      -7.257   9.764  70.449  1.00  0.00    -0.142 C  
BRANCH   9  10
HETATM   10  N   UNL     1      -6.564  11.036  70.682  1.00  0.00     0.232 N  
HETATM   11  C   UNL     1      -5.316  10.977  71.433  1.00  0.00     0.013 C  
BRANCH  10  12
HETATM   12  C   UNL     1      -7.306  12.213  70.591  1.00  0.00     3.495 C  
HETATM   13  O   UNL     1      -7.791  12.786  71.563  1.00  0.00     7.845 OA 
BRANCH  12  14
HETATM   14  N   UNL     1      -7.385  12.740  69.334  1.00  0.00    -0.302 N  
HETATM   15  H   UNL     1      -8.258  12.600  68.825  1.00  0.00     0.000 HD 
BRANCH  14  16
HETATM   16  C   UNL     1      -6.321  13.493  68.649  1.00  0.00    -0.091 C  
BRANCH  16  17
HETATM   17  C   UNL     1      -6.283  14.872  69.346  1.00  0.00    -0.114 C  
HETATM   18  H   UNL     1      -7.209  16.215  70.547  1.00  0.00     0.000 HD 
HETATM   19  N   UNL     1      -7.377  15.384  69.980  1.00  0.00    -0.035 N  
HETATM   20  O   UNL     1      -5.233  15.525  69.386  1.00  0.00    -0.094 OA 
BRANCH  19  21
HETATM   21  C   UNL     1      -8.756  14.905  69.956  1.00  0.00     0.548 C  
BRANCH  21  22
HETATM   22  C   UNL     1      -9.340  14.767  71.374  1.00  0.00     3.637 C  
BRANCH  22  23
HETATM   23  C   UNL     1     -10.842  14.624  71.421  1.00  0.00     0.772 A  
HETATM   24  C   UNL     1     -13.017  15.586  71.901  1.00  0.00    -0.522 A  
HETATM   25  C   UNL     1     -12.851  13.279  71.211  1.00  0.00    -0.398 A  
HETATM   26  C   UNL     1     -11.464  13.400  71.133  1.00  0.00     1.290 A  
HETATM   27  C   UNL     1     -11.632  15.712  71.813  1.00  0.00    -0.531 A  
HETATM   28  C   UNL     1     -13.628  14.366  71.600  1.00  0.00    -0.463 A  
ENDBRANCH  22  23
ENDBRANCH  21  22
BRANCH  21  29
HETATM   29  C   UNL     1      -9.620  15.799  69.048  1.00  0.00    -0.243 C  
BRANCH  29  30
HETATM   30  C   UNL     1     -11.127  15.485  68.998  1.00  0.00    -0.267 C  
BRANCH  30  31
HETATM   31  C   UNL     1     -11.808  16.015  67.715  1.00  0.00     0.309 C  
BRANCH  31  32
HETATM   32  C   UNL     1     -12.866  15.005  67.209  1.00  0.00     1.828 C  
BRANCH  32  33
HETATM   33  C   UNL     1     -12.516  14.412  65.862  1.00  0.00    -0.319 A  
HETATM   34  C   UNL     1     -12.781  15.115  64.678  1.00  0.00     0.263 A  
HETATM   35  C   UNL     1     -12.509  14.542  63.436  1.00  0.00     0.826 A  
HETATM   36  C   UNL     1     -11.937  13.137  65.773  1.00  0.00    -0.473 A  
HETATM   37  C   UNL     1     -11.675  12.561  64.533  1.00  0.00    -0.423 A  
HETATM   38  C   UNL     1     -11.968  13.259  63.364  1.00  0.00    -0.491 A  
ENDBRANCH  32  33
ENDBRANCH  31  32
BRANCH  31  39
HETATM   39  N   UNL     1     -10.828  16.316  66.673  1.00  0.00    -0.189 N  
HETATM   40  C   UNL     1     -10.406  17.590  66.423  1.00  0.00    -0.334 C  
HETATM   41  H   UNL     1     -10.448  15.551  66.115  1.00  0.00     0.000 HD 
HETATM   42  O   UNL     1     -10.836  18.584  66.990  1.00  0.00    -0.364 OA 
BRANCH  40  43
HETATM   43  O   UNL     1      -9.425  17.585  65.491  1.00  0.00    -0.339 OA 
BRANCH  43  44
HETATM   44  C   UNL     1      -8.423  18.593  65.679  1.00  0.00     0.636 C  
BRANCH  44  45
HETATM   45  C   UNL     1      -8.006  18.567  67.109  1.00  0.00    -0.242 A  
HETATM   46  N   UNL     1      -8.065  18.825  69.437  1.00  0.00     0.129 NA 
HETATM   47  C   UNL     1      -8.756  18.833  68.239  1.00  0.00    -0.333 A  
HETATM   48  C   UNL     1      -6.804  18.537  69.204  1.00  0.00    -0.249 A  
HETATM   49  S   UNL     1      -6.382  18.249  67.566  1.00  0.00    -0.182 SA 
ENDBRANCH  44  45
ENDBRANCH  43  44
ENDBRANCH  40  43
ENDBRANCH  31  39
ENDBRANCH  30  31
ENDBRANCH  29  30
ENDBRANCH  21  29
ENDBRANCH  19  21
ENDBRANCH  16  17
BRANCH  16  50
HETATM   50  C   UNL     1      -6.677  13.705  67.169  1.00  0.00     0.427 C  
BRANCH  50  51
HETATM   51  C   UNL     1      -6.943  12.389  66.448  1.00  0.00     1.043 C  
BRANCH  51  52
HETATM   52  N   UNL     1      -5.858  11.936  65.554  1.00  0.00     1.098 NA 
HETATM   53  O   UNL     1      -6.593   9.165  64.874  1.00  0.00    -0.069 OA 
HETATM   54  C   UNL     1      -6.111   9.496  66.185  1.00  0.00    -0.063 C  
HETATM   55  C   UNL     1      -5.204  10.745  66.163  1.00  0.00    -0.098 C  
HETATM   56  C   UNL     1      -7.249  10.281  64.255  1.00  0.00    -0.063 C  
HETATM   57  C   UNL     1      -6.334  11.516  64.215  1.00  0.00     2.497 C  
ENDBRANCH  51  52
ENDBRANCH  50  51
ENDBRANCH  16  50
ENDBRANCH  14  16
ENDBRANCH  12  14
ENDBRANCH  10  12
ENDBRANCH   9  10
ENDBRANCH   6   9
TORSDOF 21
ENDMDL
MODEL       42
REMARK 921   NORMALIZED FREE ENERGY PREDICTED BY IDOCK:   15.01 KCAL/MOL
REMARK 922        TOTAL FREE ENERGY PREDICTED BY IDOCK:   29.90 KCAL/MOL
REMARK 923 INTER-LIGAND FREE ENERGY PREDICTED BY IDOCK:   11.81 KCAL/MOL
REMARK 924 INTRA-LIGAND FREE ENERGY PREDICTED BY IDOCK:   18.09 KCAL/MOL
REMARK 927      BINDING AFFINITY PREDICTED BY RF-SCORE:    0.00 PKD
ROOT
HETATM    1  C   UNL     1      -8.434   8.941  73.116  1.00  0.00     0.588 C  
HETATM    2  C   UNL     1      -9.658   8.063  72.856  1.00  0.00    -0.348 C  
HETATM    3  C   UNL     1      -9.943   7.949  71.375  1.00  0.00    -0.172 A  
HETATM    4  C   UNL     1     -10.872   8.591  73.620  1.00  0.00     2.363 C  
HETATM    5  N   UNL     1     -10.155   8.957  70.550  1.00  0.00    -0.194 NA 
HETATM    6  C   UNL     1     -10.389   8.488  69.252  1.00  0.00    -0.221 A  
HETATM    7  C   UNL     1     -10.348   7.112  69.134  1.00  0.00    -0.200 A  
HETATM    8  S   UNL     1     -10.010   6.389  70.646  1.00  0.00    -0.187 SA 
ENDROOT
BRANCH   6   9
HETATM    9  C   UNL     1     -10.734   9.453  68.146  1.00  0.00    -0.178 C  
BRANCH   9  10
HETATM   10  N   UNL     1     -11.982  10.184  68.401  1.00  0.00     0.523 N  
HETATM   11  C   UNL     1     -13.219   9.414  68.348  1.00  0.00     9.309 C  
BRANCH  10  12
HETATM   12  C   UNL     1     -11.975  11.568  68.234  1.00  0.00    -0.169 C  
HETATM   13  O   UNL     1     -12.905  12.296  68.572  1.00  0.00     0.808 OA 
BRANCH  12  14
HETATM   14  N   UNL     1     -10.809  12.077  67.740  1.00  0.00    -0.207 N  
HETATM   15  H   UNL     1     -10.781  13.079  67.553  1.00  0.00     0.000 HD 
BRANCH  14  16
HETATM   16  C   UNL     1      -9.588  11.305  67.452  1.00  0.00    -0.169 C  
BRANCH  16  17
HETATM   17  C   UNL     1      -8.995  11.940  66.174  1.00  0.00    -0.116 C  
HETATM   18  H   UNL     1      -7.800  13.357  65.357  1.00  0.00     0.000 HD 
HETATM   19  N   UNL     1      -8.289  13.107  66.216  1.00  0.00     0.572 N  
HETATM   20  O   UNL     1      -9.107  11.371  65.081  1.00  0.00    -0.163 OA 
BRANCH  19  21
HETATM   21  C   UNL     1      -8.139  14.046  67.324  1.00  0.00    -0.156 C  
BRANCH  21  22
HETATM   22  C   UNL     1      -8.027  13.323  68.679  1.00  0.00    -0.042 C  
BRANCH  22  23
HETATM   23  C   UNL     1      -7.051  12.171  68.696  1.00  0.00    -0.103 A  
HETATM   24  C   UNL     1      -5.998  10.345  69.896  1.00  0.00    -0.061 A  
HETATM   25  C   UNL     1      -5.308  10.854  67.640  1.00  0.00    -0.040 A  
HETATM   26  C   UNL     1      -6.225  11.904  67.594  1.00  0.00    -0.083 A  
HETATM   27  C   UNL     1      -6.923  11.386  69.849  1.00  0.00     0.119 A  
HETATM   28  C   UNL     1      -5.188  10.079  68.789  1.00  0.00    -0.035 A  
ENDBRANCH  22  23
ENDBRANCH  21  22
BRANCH  21  29
HETATM   29  C   UNL     1      -6.955  14.996  67.066  1.00  0.00     0.303 C  
BRANCH  29  30
HETATM   30  C   UNL     1      -7.174  16.109  66.024  1.00  0.00     1.287 C  
BRANCH  30  31
HETATM   31  C   UNL     1      -7.969  17.310  66.587  1.00  0.00    -0.261 C  
BRANCH  31  32
HETATM   32  C   UNL     1      -9.218  17.588  65.715  1.00  0.00     0.216 C  
BRANCH  32  33
HETATM   33  C   UNL     1     -10.264  16.501  65.823  1.00  0.00    -0.350 A  
HETATM   34  C   UNL     1     -10.682  16.031  67.076  1.00  0.00    -0.277 A  
HETATM   35  C   UNL     1     -11.604  14.989  67.172  1.00  0.00    -0.271 A  
HETATM   36  C   UNL     1     -10.819  15.929  64.669  1.00  0.00    -0.234 A  
HETATM   37  C   UNL     1     -11.732  14.882  64.764  1.00  0.00    -0.402 A  
HETATM   38  C   UNL     1     -12.119  14.406  66.015  1.00  0.00    -0.370 A  
ENDBRANCH  32  33
ENDBRANCH  31  32
BRANCH  31  39
HETATM   39  N   UNL     1      -7.131  18.502  66.701  1.00  0.00    -0.201 N  
HETATM   40  C   UNL     1      -5.774  18.449  66.569  1.00  0.00    -0.150 C  
HETATM   41  H   UNL     1      -7.575  19.403  66.885  1.00  0.00     0.000 HD 
HETATM   42  O   UNL     1      -5.136  17.418  66.405  1.00  0.00    -0.157 OA 
BRANCH  40  43
HETATM   43  O   UNL     1      -5.249  19.695  66.609  1.00  0.00    -0.164 OA 
BRANCH  43  44
HETATM   44  C   UNL     1      -6.040  20.648  67.332  1.00  0.00    -0.231 C  
BRANCH  44  45
HETATM   45  C   UNL     1      -6.541  19.988  68.570  1.00  0.00    -0.302 A  
HETATM   46  N   UNL     1      -7.993  18.988  70.113  1.00  0.00     1.111 NA 
HETATM   47  C   UNL     1      -7.787  19.449  68.825  1.00  0.00    -0.357 A  
HETATM   48  C   UNL     1      -6.896  19.168  70.814  1.00  0.00     1.047 A  
HETATM   49  S   UNL     1      -5.572  19.873  69.982  1.00  0.00    -0.282 SA 
ENDBRANCH  44  45
ENDBRANCH  43  44
ENDBRANCH  40  43
ENDBRANCH  31  39
ENDBRANCH  30  31
ENDBRANCH  29  30
ENDBRANCH  21  29
ENDBRANCH  19  21
ENDBRANCH  16  17
BRANCH  16  50
HETATM   50  C   UNL     1      -9.937   9.838  67.150  1.00  0.00    -0.252 C  
BRANCH  50  51
HETATM   51  C   UNL     1      -9.366   9.376  65.814  1.00  0.00    -0.239 C  
BRANCH  51  52
HETATM   52  N   UNL     1      -8.223   8.444  65.912  1.00  0.00    -0.116 NA 
HETATM   53  O   UNL     1      -9.263   5.914  64.817  1.00  0.00     0.276 OA 
HETATM   54  C   UNL     1      -9.687   6.386  66.105  1.00  0.00     0.052 C  
HETATM   55  C   UNL     1      -8.622   7.289  66.762  1.00  0.00    -0.127 C  
HETATM   56  C   UNL     1      -8.886   6.997  63.955  1.00  0.00     0.954 C  
HETATM   57  C   UNL     1      -7.809   7.881  64.605  1.00  0.00    -0.133 C  
ENDBRANCH  51  52
ENDBRANCH  50  51
ENDBRANCH  16  50
ENDBRANCH  14  16
ENDBRANCH  12  14
ENDBRANCH  10  12
ENDBRANCH   9  10
ENDBRANCH   6   9
TORSDOF 21
ENDMDL
MODEL       43
REMARK 921   NORMALIZED FREE ENERGY PREDICTED BY IDOCK:   17.60 KCAL/MOL
REMARK 922        TOTAL FREE ENERGY PREDICTED BY IDOCK:   35.68 KCAL/MOL
REMARK 923 INTER-LIGAND FREE ENERGY PREDICTED BY IDOCK:    5.69 KCAL/MOL
REMARK 924 INTRA-LIGAND FREE ENERGY PREDICTED BY IDOCK:   29.99 KCAL/MOL
REMARK 927      BINDING AFFINITY PREDICTED BY RF-SCORE:    0.00 PKD
ROOT
HETATM    1  C   UNL     1      -8.318   9.696  73.832  1.00  0.00     3.901 C  
HETATM    2  C   UNL     1      -7.623   8.556  73.086  1.00  0.00    -0.041 C  
HETATM    3  C   UNL     1      -7.505   8.862  71.610  1.00  0.00    -0.015 A  
HETATM    4  C   UNL     1      -8.348   7.233  73.327  1.00  0.00    -0.146 C  
HETATM    5  N   UNL     1      -8.508   9.142  70.797  1.00  0.00    -0.201 NA 
HETATM    6  C   UNL     1      -8.038   9.370  69.499  1.00  0.00    -0.114 A  
HETATM    7  C   UNL     1      -6.668   9.249  69.366  1.00  0.00    -0.048 A  
HETATM    8  S   UNL     1      -5.951   8.855  70.867  1.00  0.00    -0.047 SA 
ENDROOT
BRANCH   6   9
HETATM    9  C   UNL     1      -9.009   9.633  68.375  1.00  0.00    -0.123 C  
BRANCH   9  10
HETATM   10  N   UNL     1      -9.001  11.034  67.937  1.00  0.00    -0.140 N  
HETATM   11  C   UNL     1      -9.492  11.307  66.592  1.00  0.00    -0.186 C  
BRANCH  10  12
HETATM   12  C   UNL     1      -8.154  11.922  68.599  1.00  0.00    -0.086 C  
HETATM   13  O   UNL     1      -8.240  12.177  69.797  1.00  0.00     1.247 OA 
BRANCH  12  14
HETATM   14  N   UNL     1      -7.150  12.433  67.828  1.00  0.00    -0.107 N  
HETATM   15  H   UNL     1      -7.412  13.106  67.109  1.00  0.00     0.000 HD 
BRANCH  14  16
HETATM   16  C   UNL     1      -5.721  12.095  67.944  1.00  0.00    -0.069 C  
BRANCH  16  17
HETATM   17  C   UNL     1      -5.658  10.553  67.872  1.00  0.00    -0.040 C  
HETATM   18  H   UNL     1      -5.858   8.877  66.752  1.00  0.00     0.000 HD 
HETATM   19  N   UNL     1      -6.091   9.869  66.774  1.00  0.00    -0.059 N  
HETATM   20  O   UNL     1      -5.161   9.902  68.799  1.00  0.00    -0.037 OA 
BRANCH  19  21
HETATM   21  C   UNL     1      -6.845  10.365  65.626  1.00  0.00    -0.133 C  
BRANCH  21  22
HETATM   22  C   UNL     1      -6.156  10.019  64.293  1.00  0.00    -0.131 C  
BRANCH  22  23
HETATM   23  C   UNL     1      -6.151   8.548  63.954  1.00  0.00    -0.072 A  
HETATM   24  C   UNL     1      -5.900   6.243  64.668  1.00  0.00    -0.022 A  
HETATM   25  C   UNL     1      -6.252   6.745  62.334  1.00  0.00    -0.039 A  
HETATM   26  C   UNL     1      -6.289   8.108  62.630  1.00  0.00    -0.086 A  
HETATM   27  C   UNL     1      -5.949   7.603  64.968  1.00  0.00    -0.038 A  
HETATM   28  C   UNL     1      -6.052   5.813  63.347  1.00  0.00    -0.024 A  
ENDBRANCH  22  23
ENDBRANCH  21  22
BRANCH  21  29
HETATM   29  C   UNL     1      -8.300   9.866  65.682  1.00  0.00    -0.140 C  
BRANCH  29  30
HETATM   30  C   UNL     1      -8.507   8.346  65.812  1.00  0.00    -0.169 C  
BRANCH  30  31
HETATM   31  C   UNL     1      -9.984   7.960  66.062  1.00  0.00     0.312 C  
BRANCH  31  32
HETATM   32  C   UNL     1     -10.840   9.228  66.298  1.00  0.00     0.506 C  
BRANCH  32  33
HETATM   33  C   UNL     1     -10.951  10.100  65.067  1.00  0.00     1.202 A  
HETATM   34  C   UNL     1     -11.749  11.252  65.074  1.00  0.00     0.338 A  
HETATM   35  C   UNL     1     -11.896  12.023  63.920  1.00  0.00    -0.543 A  
HETATM   36  C   UNL     1     -10.272   9.758  63.888  1.00  0.00     1.318 A  
HETATM   37  C   UNL     1     -10.425  10.521  62.733  1.00  0.00     0.695 A  
HETATM   38  C   UNL     1     -11.243  11.649  62.747  1.00  0.00     0.517 A  
ENDBRANCH  32  33
ENDBRANCH  31  32
BRANCH  31  39
HETATM   39  N   UNL     1     -10.113   7.023  67.176  1.00  0.00    -0.195 N  
HETATM   40  C   UNL     1     -10.862   7.311  68.280  1.00  0.00    -0.058 C  
HETATM   41  H   UNL     1      -9.628   6.127  67.127  1.00  0.00     0.000 HD 
HETATM   42  O   UNL     1     -11.435   8.374  68.468  1.00  0.00     0.672 OA 
BRANCH  40  43
HETATM   43  O   UNL     1     -10.905   6.242  69.109  1.00  0.00    -0.268 OA 
BRANCH  43  44
HETATM   44  C   UNL     1      -9.914   6.257  70.146  1.00  0.00    -0.172 C  
BRANCH  44  45
HETATM   45  C   UNL     1     -10.508   5.636  71.362  1.00  0.00    -0.239 A  
HETATM   46  N   UNL     1     -11.940   5.249  73.176  1.00  0.00    -0.035 NA 
HETATM   47  C   UNL     1     -11.697   5.936  72.000  1.00  0.00    -0.193 A  
HETATM   48  C   UNL     1     -10.943   4.426  73.406  1.00  0.00    -0.290 A  
HETATM   49  S   UNL     1      -9.683   4.414  72.241  1.00  0.00    -0.172 SA 
ENDBRANCH  44  45
ENDBRANCH  43  44
ENDBRANCH  40  43
ENDBRANCH  31  39
ENDBRANCH  30  31
ENDBRANCH  29  30
ENDBRANCH  21  29
ENDBRANCH  19  21
ENDBRANCH  16  17
BRANCH  16  50
HETATM   50  C   UNL     1      -5.171  12.541  69.309  1.00  0.00    -0.069 C  
BRANCH  50  51
HETATM   51  C   UNL     1      -6.278  13.000  70.252  1.00  0.00     0.008 C  
BRANCH  51  52
HETATM   52  N   UNL     1      -6.341  14.459  70.478  1.00  0.00    -0.168 NA 
HETATM   53  O   UNL     1      -6.812  15.582  67.795  1.00  0.00    -0.130 OA 
HETATM   54  C   UNL     1      -5.532  15.037  68.148  1.00  0.00    -0.126 C  
HETATM   55  C   UNL     1      -5.277  15.113  69.669  1.00  0.00    -0.090 C  
HETATM   56  C   UNL     1      -7.873  14.966  68.539  1.00  0.00    -0.126 C  
HETATM   57  C   UNL     1      -7.625  15.064  70.053  1.00  0.00     0.155 C  
ENDBRANCH  51  52
ENDBRANCH  50  51
ENDBRANCH  16  50
ENDBRANCH  14  16
ENDBRANCH  12  14
ENDBRANCH  10  12
ENDBRANCH   9  10
ENDBRANCH   6   9
TORSDOF 21
ENDMDL
