MODEL        1
REMARK 921   NORMALIZED FREE ENERGY PREDICTED BY IDOCK:   -7.04 KCAL/MOL
REMARK 922        TOTAL FREE ENERGY PREDICTED BY IDOCK:  -10.91 KCAL/MOL
REMARK 923 INTER-LIGAND FREE ENERGY PREDICTED BY IDOCK:   -9.93 KCAL/MOL
REMARK 924 INTRA-LIGAND FREE ENERGY PREDICTED BY IDOCK:   -0.99 KCAL/MOL
REMARK 927      BINDING AFFINITY PREDICTED BY RF-SCORE:    0.00 PKD
ROOT
HETATM    1  C   UNL     1      -9.624  13.178  67.814  1.00  0.00    -0.208 C  
HETATM    2  C   UNL     1     -10.528  13.831  68.797  1.00  0.00    -0.214 C  
HETATM    3  C   UNL     1     -10.515  15.166  69.198  1.00  0.00    -0.252 C  
HETATM    4  C   UNL     1     -12.257  13.788  70.306  1.00  0.00    -0.359 C  
HETATM    5  S   UNL     1     -11.680  15.358  70.473  1.00  0.00    -0.362 SA 
HETATM    6  N   UNL     1     -11.560  13.104  69.407  1.00  0.00    -0.295 NA 
ENDROOT
BRANCH   3   7
HETATM    7  C   UNL     1      -9.695  16.376  68.715  1.00  0.00    -0.250 C  
BRANCH   7   8
HETATM    8  C   UNL     1     -10.280  16.912  67.401  1.00  0.00    -0.298 C  
BRANCH   8   9
HETATM    9  O   UNL     1     -11.258  16.160  66.718  1.00  0.00    -0.059 OA 
BRANCH   9  10
HETATM   10  P   UNL     1     -10.761  15.679  65.181  1.00  0.00    -0.339 P  
HETATM   11  O   UNL     1      -9.370  16.692  65.353  1.00  0.00    -0.370 OA 
HETATM   12  O   UNL     1     -11.302  16.736  64.197  1.00  0.00    -1.194 OA 
BRANCH  10  13
HETATM   13  O   UNL     1     -12.152  14.665  65.008  1.00  0.00    -0.386 OA 
HETATM   14  O   UNL     1     -10.375  13.078  64.141  1.00  0.00    -0.419 OA 
HETATM   15  P   UNL     1     -11.787  13.151  64.622  1.00  0.00    -0.425 P  
HETATM   16  O   UNL     1     -12.362  12.241  65.673  1.00  0.00    -0.619 OA 
HETATM   17  O   UNL     1     -12.782  12.952  63.373  1.00  0.00    -0.695 OA 
ENDBRANCH  10  13
ENDBRANCH   9  10
ENDBRANCH   8   9
ENDBRANCH   7   8
ENDBRANCH   3   7
BRANCH   6  18
HETATM   18  C   UNL     1     -12.012  11.743  69.069  1.00  0.00    -0.280 C  
BRANCH  18  19
HETATM   19  C   UNL     1     -11.720  10.747  70.148  1.00  0.00    -0.425 A  
HETATM   20  C   UNL     1     -12.678  10.445  71.091  1.00  0.00    -0.415 A  
HETATM   21  N   UNL     1     -12.562   9.456  71.988  1.00  0.00    -0.383 NA 
HETATM   22  C   UNL     1     -11.430   8.737  71.938  1.00  0.00    -0.358 A  
HETATM   23  N   UNL     1     -10.383   9.046  71.156  1.00  0.00    -0.264 NA 
HETATM   24  C   UNL     1     -11.360   7.503  72.783  1.00  0.00    -0.388 C  
HETATM   25  C   UNL     1     -10.528  10.070  70.310  1.00  0.00    -0.272 A  
HETATM   26  N   UNL     1      -9.362  10.448  69.638  1.00  0.00    -0.399 NA 
HETATM   27  H1  UNL     1      -8.481   9.948  69.757  1.00  0.00     0.000 HD 
HETATM   28  H2  UNL     1      -9.191  11.433  69.843  1.00  0.00     0.000 HD 
ENDBRANCH  18  19
ENDBRANCH   6  18
TORSDOF 7
ENDMDL
MODEL        2
REMARK 921   NORMALIZED FREE ENERGY PREDICTED BY IDOCK:   -6.72 KCAL/MOL
REMARK 922        TOTAL FREE ENERGY PREDICTED BY IDOCK:  -10.46 KCAL/MOL
REMARK 923 INTER-LIGAND FREE ENERGY PREDICTED BY IDOCK:   -9.98 KCAL/MOL
REMARK 924 INTRA-LIGAND FREE ENERGY PREDICTED BY IDOCK:   -0.47 KCAL/MOL
REMARK 927      BINDING AFFINITY PREDICTED BY RF-SCORE:    0.00 PKD
ROOT
HETATM    1  C   UNL     1     -13.291  13.282  72.108  1.00  0.00    -0.618 C  
HETATM    2  C   UNL     1     -12.690  12.542  70.968  1.00  0.00    -0.225 C  
HETATM    3  C   UNL     1     -12.019  13.082  69.871  1.00  0.00    -0.311 C  
HETATM    4  C   UNL     1     -12.207  10.608  69.830  1.00  0.00    -0.275 C  
HETATM    5  S   UNL     1     -11.659  11.789  68.768  1.00  0.00    -0.332 SA 
HETATM    6  N   UNL     1     -12.726  11.141  70.930  1.00  0.00    -0.357 NA 
ENDROOT
BRANCH   3   7
HETATM    7  C   UNL     1     -11.590  14.523  69.537  1.00  0.00    -0.350 C  
BRANCH   7   8
HETATM    8  C   UNL     1     -11.843  14.812  68.051  1.00  0.00    -0.294 C  
BRANCH   8   9
HETATM    9  O   UNL     1     -10.960  15.658  67.348  1.00  0.00    -0.314 OA 
BRANCH   9  10
HETATM   10  P   UNL     1     -10.298  14.927  65.981  1.00  0.00    -0.343 P  
HETATM   11  O   UNL     1      -8.725  15.177  66.654  1.00  0.00    -0.262 OA 
HETATM   12  O   UNL     1      -9.964  16.066  64.997  1.00  0.00    -0.406 OA 
BRANCH  10  13
HETATM   13  O   UNL     1     -11.872  14.676  65.308  1.00  0.00    -0.355 OA 
HETATM   14  O   UNL     1     -10.592  12.891  64.041  1.00  0.00    -0.405 OA 
HETATM   15  P   UNL     1     -11.965  13.363  64.391  1.00  0.00    -0.433 P  
HETATM   16  O   UNL     1     -13.040  12.470  64.948  1.00  0.00    -0.833 OA 
HETATM   17  O   UNL     1     -12.653  14.003  63.085  1.00  0.00    -0.733 OA 
ENDBRANCH  10  13
ENDBRANCH   9  10
ENDBRANCH   8   9
ENDBRANCH   7   8
ENDBRANCH   3   7
BRANCH   6  18
HETATM   18  C   UNL     1     -13.153  10.231  72.006  1.00  0.00    -0.425 C  
BRANCH  18  19
HETATM   19  C   UNL     1     -12.471   8.898  71.949  1.00  0.00    -0.445 A  
HETATM   20  C   UNL     1     -11.152   8.778  72.326  1.00  0.00    -0.270 A  
HETATM   21  N   UNL     1     -10.515   7.606  72.459  1.00  0.00    -0.243 NA 
HETATM   22  C   UNL     1     -11.234   6.504  72.198  1.00  0.00    -0.271 A  
HETATM   23  N   UNL     1     -12.476   6.526  71.686  1.00  0.00    -0.294 NA 
HETATM   24  C   UNL     1     -10.618   5.183  72.535  1.00  0.00    -0.275 C  
HETATM   25  C   UNL     1     -13.054   7.720  71.527  1.00  0.00    -0.320 A  
HETATM   26  N   UNL     1     -14.275   7.697  70.846  1.00  0.00    -0.592 NA 
HETATM   27  H1  UNL     1     -14.706   6.826  70.535  1.00  0.00     0.000 HD 
HETATM   28  H2  UNL     1     -14.189   8.309  70.035  1.00  0.00     0.000 HD 
ENDBRANCH  18  19
ENDBRANCH   6  18
TORSDOF 7
ENDMDL
MODEL        3
REMARK 921   NORMALIZED FREE ENERGY PREDICTED BY IDOCK:   -6.58 KCAL/MOL
REMARK 922        TOTAL FREE ENERGY PREDICTED BY IDOCK:  -10.25 KCAL/MOL
REMARK 923 INTER-LIGAND FREE ENERGY PREDICTED BY IDOCK:  -10.15 KCAL/MOL
REMARK 924 INTRA-LIGAND FREE ENERGY PREDICTED BY IDOCK:   -0.11 KCAL/MOL
REMARK 927      BINDING AFFINITY PREDICTED BY RF-SCORE:    0.00 PKD
ROOT
HETATM    1  C   UNL     1     -11.059  12.112  68.458  1.00  0.00    -0.295 C  
HETATM    2  C   UNL     1     -11.804  12.625  69.637  1.00  0.00    -0.311 C  
HETATM    3  C   UNL     1     -11.999  13.957  69.997  1.00  0.00    -0.336 C  
HETATM    4  C   UNL     1     -13.025  12.322  71.556  1.00  0.00    -0.289 C  
HETATM    5  S   UNL     1     -12.808  13.988  71.535  1.00  0.00    -0.374 SA 
HETATM    6  N   UNL     1     -12.445  11.739  70.515  1.00  0.00    -0.268 NA 
ENDROOT
BRANCH   3   7
HETATM    7  C   UNL     1     -11.638  15.276  69.290  1.00  0.00    -0.350 C  
BRANCH   7   8
HETATM    8  C   UNL     1     -11.209  14.994  67.844  1.00  0.00    -0.323 C  
BRANCH   8   9
HETATM    9  O   UNL     1     -11.283  16.023  66.884  1.00  0.00    -0.125 OA 
BRANCH   9  10
HETATM   10  P   UNL     1     -10.745  15.541  65.361  1.00  0.00    -0.413 P  
HETATM   11  O   UNL     1      -9.321  16.494  65.603  1.00  0.00    -0.490 OA 
HETATM   12  O   UNL     1     -11.201  16.632  64.371  1.00  0.00    -1.033 OA 
BRANCH  10  13
HETATM   13  O   UNL     1     -12.168  14.589  65.118  1.00  0.00    -0.386 OA 
HETATM   14  O   UNL     1     -10.451  13.035  64.085  1.00  0.00    -0.413 OA 
HETATM   15  P   UNL     1     -11.854  13.106  64.591  1.00  0.00    -0.425 P  
HETATM   16  O   UNL     1     -12.443  12.121  65.564  1.00  0.00    -0.517 OA 
HETATM   17  O   UNL     1     -12.870  13.050  63.344  1.00  0.00    -0.640 OA 
ENDBRANCH  10  13
ENDBRANCH   9  10
ENDBRANCH   8   9
ENDBRANCH   7   8
ENDBRANCH   3   7
BRANCH   6  18
HETATM   18  C   UNL     1     -12.639  10.290  70.335  1.00  0.00    -0.204 C  
BRANCH  18  19
HETATM   19  C   UNL     1     -11.663   9.468  71.120  1.00  0.00    -0.438 A  
HETATM   20  C   UNL     1     -10.312   9.573  70.873  1.00  0.00    -0.302 A  
HETATM   21  N   UNL     1      -9.366   9.002  71.631  1.00  0.00    -0.319 NA 
HETATM   22  C   UNL     1      -9.795   8.290  72.684  1.00  0.00    -0.287 A  
HETATM   23  N   UNL     1     -11.088   8.011  72.920  1.00  0.00    -0.383 NA 
HETATM   24  C   UNL     1      -8.765   7.815  73.661  1.00  0.00    -0.308 C  
HETATM   25  C   UNL     1     -11.994   8.565  72.110  1.00  0.00    -0.383 A  
HETATM   26  N   UNL     1     -13.305   8.117  72.300  1.00  0.00    -0.532 NA 
HETATM   27  H1  UNL     1     -13.549   7.450  73.031  1.00  0.00     0.000 HD 
HETATM   28  H2  UNL     1     -13.635   7.740  71.411  1.00  0.00     0.000 HD 
ENDBRANCH  18  19
ENDBRANCH   6  18
TORSDOF 7
ENDMDL
MODEL        4
REMARK 921   NORMALIZED FREE ENERGY PREDICTED BY IDOCK:   -6.43 KCAL/MOL
REMARK 922        TOTAL FREE ENERGY PREDICTED BY IDOCK:  -10.04 KCAL/MOL
REMARK 923 INTER-LIGAND FREE ENERGY PREDICTED BY IDOCK:   -9.15 KCAL/MOL
REMARK 924 INTRA-LIGAND FREE ENERGY PREDICTED BY IDOCK:   -0.90 KCAL/MOL
REMARK 927      BINDING AFFINITY PREDICTED BY RF-SCORE:    0.00 PKD
ROOT
HETATM    1  C   UNL     1     -11.928  12.282  68.377  1.00  0.00    -0.266 C  
HETATM    2  C   UNL     1     -11.303  11.959  67.068  1.00  0.00    -0.329 C  
HETATM    3  C   UNL     1     -10.639  10.784  66.717  1.00  0.00    -0.250 C  
HETATM    4  C   UNL     1     -10.726  12.482  64.909  1.00  0.00    -0.295 C  
HETATM    5  S   UNL     1      -9.975  10.995  65.125  1.00  0.00    -0.299 SA 
HETATM    6  N   UNL     1     -11.374  12.867  66.002  1.00  0.00    -0.304 NA 
ENDROOT
BRANCH   3   7
HETATM    7  C   UNL     1     -10.436   9.455  67.467  1.00  0.00    -0.343 C  
BRANCH   7   8
HETATM    8  C   UNL     1      -9.332   9.613  68.522  1.00  0.00    -0.137 C  
BRANCH   8   9
HETATM    9  O   UNL     1      -9.649  10.163  69.781  1.00  0.00    -0.222 OA 
BRANCH   9  10
HETATM   10  P   UNL     1      -9.787   8.996  70.991  1.00  0.00    -0.298 P  
HETATM   11  O   UNL     1      -8.096   9.177  71.307  1.00  0.00    -0.285 OA 
HETATM   12  O   UNL     1      -9.431   7.646  70.337  1.00  0.00    -0.164 OA 
BRANCH  10  13
HETATM   13  O   UNL     1     -11.477   8.816  70.675  1.00  0.00    -0.265 OA 
HETATM   14  O   UNL     1     -11.382   7.805  72.998  1.00  0.00    -0.399 OA 
HETATM   15  P   UNL     1     -12.312   8.336  71.958  1.00  0.00    -0.368 P  
HETATM   16  O   UNL     1     -13.384   9.354  72.235  1.00  0.00    -0.430 OA 
HETATM   17  O   UNL     1     -13.124   7.111  71.300  1.00  0.00    -0.384 OA 
ENDBRANCH  10  13
ENDBRANCH   9  10
ENDBRANCH   8   9
ENDBRANCH   7   8
ENDBRANCH   3   7
BRANCH   6  18
HETATM   18  C   UNL     1     -12.174  14.102  65.935  1.00  0.00    -0.439 C  
BRANCH  18  19
HETATM   19  C   UNL     1     -11.356  15.339  66.139  1.00  0.00    -0.160 A  
HETATM   20  C   UNL     1     -10.904  15.672  67.397  1.00  0.00    -0.315 A  
HETATM   21  N   UNL     1     -10.037  16.664  67.643  1.00  0.00    -0.265 NA 
HETATM   22  C   UNL     1      -9.606  17.357  66.579  1.00  0.00    -0.280 A  
HETATM   23  N   UNL     1     -10.099  17.203  65.338  1.00  0.00    -0.530 NA 
HETATM   24  C   UNL     1      -8.489  18.329  66.795  1.00  0.00    -0.272 C  
HETATM   25  C   UNL     1     -10.995  16.231  65.149  1.00  0.00    -0.274 A  
HETATM   26  N   UNL     1     -11.591  16.217  63.884  1.00  0.00    -1.573 NA 
HETATM   27  H1  UNL     1     -11.324  16.876  63.152  1.00  0.00     0.000 HD 
HETATM   28  H2  UNL     1     -12.600  16.290  64.015  1.00  0.00     0.000 HD 
ENDBRANCH  18  19
ENDBRANCH   6  18
TORSDOF 7
ENDMDL
MODEL        5
REMARK 921   NORMALIZED FREE ENERGY PREDICTED BY IDOCK:   -6.38 KCAL/MOL
REMARK 922        TOTAL FREE ENERGY PREDICTED BY IDOCK:   -9.98 KCAL/MOL
REMARK 923 INTER-LIGAND FREE ENERGY PREDICTED BY IDOCK:   -9.00 KCAL/MOL
REMARK 924 INTRA-LIGAND FREE ENERGY PREDICTED BY IDOCK:   -0.97 KCAL/MOL
REMARK 927      BINDING AFFINITY PREDICTED BY RF-SCORE:    0.00 PKD
ROOT
HETATM    1  C   UNL     1     -12.869  10.566  70.847  1.00  0.00    -0.485 C  
HETATM    2  C   UNL     1     -11.542  10.566  70.177  1.00  0.00    -0.326 C  
HETATM    3  C   UNL     1     -11.127  11.387  69.129  1.00  0.00    -0.258 C  
HETATM    4  C   UNL     1      -9.413   9.761  69.888  1.00  0.00    -0.231 C  
HETATM    5  S   UNL     1      -9.546  10.866  68.630  1.00  0.00    -0.192 SA 
HETATM    6  N   UNL     1     -10.527   9.701  70.608  1.00  0.00    -0.300 NA 
ENDROOT
BRANCH   3   7
HETATM    7  C   UNL     1     -11.804  12.578  68.426  1.00  0.00    -0.353 C  
BRANCH   7   8
HETATM    8  C   UNL     1     -11.428  12.588  66.938  1.00  0.00    -0.353 C  
BRANCH   8   9
HETATM    9  O   UNL     1     -12.395  12.959  65.981  1.00  0.00    -0.504 OA 
BRANCH   9  10
HETATM   10  P   UNL     1     -11.749  13.863  64.712  1.00  0.00    -0.431 P  
HETATM   11  O   UNL     1     -12.901  13.129  63.651  1.00  0.00    -0.656 OA 
HETATM   12  O   UNL     1     -10.689  12.971  64.037  1.00  0.00    -0.400 OA 
BRANCH  10  13
HETATM   13  O   UNL     1     -10.597  14.597  65.773  1.00  0.00    -0.292 OA 
HETATM   14  O   UNL     1     -11.164  16.603  64.329  1.00  0.00    -1.098 OA 
HETATM   15  P   UNL     1     -10.510  16.191  65.607  1.00  0.00    -0.298 P  
HETATM   16  O   UNL     1     -10.804  16.824  66.939  1.00  0.00    -0.189 OA 
HETATM   17  O   UNL     1      -8.916  16.353  65.461  1.00  0.00    -0.352 OA 
ENDBRANCH  10  13
ENDBRANCH   9  10
ENDBRANCH   8   9
ENDBRANCH   7   8
ENDBRANCH   3   7
BRANCH   6  18
HETATM   18  C   UNL     1     -10.529   8.855  71.813  1.00  0.00    -0.360 C  
BRANCH  18  19
HETATM   19  C   UNL     1     -10.251   7.414  71.515  1.00  0.00    -0.205 A  
HETATM   20  C   UNL     1      -9.086   6.826  71.959  1.00  0.00    -0.138 A  
HETATM   21  N   UNL     1      -8.832   5.513  71.879  1.00  0.00    -0.135 NA 
HETATM   22  C   UNL     1      -9.789   4.753  71.325  1.00  0.00    -0.187 A  
HETATM   23  N   UNL     1     -10.888   5.251  70.734  1.00  0.00    -0.125 NA 
HETATM   24  C   UNL     1      -9.624   3.268  71.408  1.00  0.00    -0.230 C  
HETATM   25  C   UNL     1     -11.077   6.572  70.799  1.00  0.00    -0.300 A  
HETATM   26  N   UNL     1     -12.146   7.052  70.036  1.00  0.00    -0.606 NA 
HETATM   27  H1  UNL     1     -12.756   6.429  69.506  1.00  0.00     0.000 HD 
HETATM   28  H2  UNL     1     -11.776   7.749  69.389  1.00  0.00     0.000 HD 
ENDBRANCH  18  19
ENDBRANCH   6  18
TORSDOF 7
ENDMDL
MODEL        6
REMARK 921   NORMALIZED FREE ENERGY PREDICTED BY IDOCK:   -6.33 KCAL/MOL
REMARK 922        TOTAL FREE ENERGY PREDICTED BY IDOCK:   -9.90 KCAL/MOL
REMARK 923 INTER-LIGAND FREE ENERGY PREDICTED BY IDOCK:   -8.95 KCAL/MOL
REMARK 924 INTRA-LIGAND FREE ENERGY PREDICTED BY IDOCK:   -0.95 KCAL/MOL
REMARK 927      BINDING AFFINITY PREDICTED BY RF-SCORE:    0.00 PKD
ROOT
HETATM    1  C   UNL     1     -11.414  12.432  68.813  1.00  0.00    -0.350 C  
HETATM    2  C   UNL     1     -12.131  12.784  70.066  1.00  0.00    -0.285 C  
HETATM    3  C   UNL     1     -12.354  14.060  70.580  1.00  0.00    -0.375 C  
HETATM    4  C   UNL     1     -13.269  12.226  71.979  1.00  0.00    -0.403 C  
HETATM    5  S   UNL     1     -13.105  13.890  72.138  1.00  0.00    -0.414 SA 
HETATM    6  N   UNL     1     -12.710  11.784  70.859  1.00  0.00    -0.283 NA 
ENDROOT
BRANCH   3   7
HETATM    7  C   UNL     1     -12.062  15.462  70.014  1.00  0.00    -0.388 C  
BRANCH   7   8
HETATM    8  C   UNL     1     -10.546  15.694  69.952  1.00  0.00    -0.321 C  
BRANCH   8   9
HETATM    9  O   UNL     1     -10.051  16.932  69.492  1.00  0.00    -0.200 OA 
BRANCH   9  10
HETATM   10  P   UNL     1      -9.091  16.786  68.115  1.00  0.00    -0.240 P  
HETATM   11  O   UNL     1      -7.694  16.770  69.135  1.00  0.00    -0.237 OA 
HETATM   12  O   UNL     1      -8.677  18.217  67.717  1.00  0.00    -0.249 OA 
BRANCH  10  13
HETATM   13  O   UNL     1     -10.488  16.802  67.095  1.00  0.00    -0.317 OA 
HETATM   14  O   UNL     1      -9.165  14.963  65.954  1.00  0.00    -0.254 OA 
HETATM   15  P   UNL     1     -10.519  15.587  66.046  1.00  0.00    -0.357 P  
HETATM   16  O   UNL     1     -11.787  14.807  66.260  1.00  0.00    -0.319 OA 
HETATM   17  O   UNL     1     -10.814  16.413  64.697  1.00  0.00    -0.717 OA 
ENDBRANCH  10  13
ENDBRANCH   9  10
ENDBRANCH   8   9
ENDBRANCH   7   8
ENDBRANCH   3   7
BRANCH   6  18
HETATM   18  C   UNL     1     -12.864  10.358  70.524  1.00  0.00    -0.254 C  
BRANCH  18  19
HETATM   19  C   UNL     1     -11.918   9.475  71.278  1.00  0.00    -0.445 A  
HETATM   20  C   UNL     1     -10.566   9.525  71.018  1.00  0.00    -0.322 A  
HETATM   21  N   UNL     1      -9.639   8.894  71.751  1.00  0.00    -0.298 NA 
HETATM   22  C   UNL     1     -10.088   8.177  72.792  1.00  0.00    -0.297 A  
HETATM   23  N   UNL     1     -11.389   7.951  73.037  1.00  0.00    -0.352 NA 
HETATM   24  C   UNL     1      -9.070   7.634  73.746  1.00  0.00    -0.332 C  
HETATM   25  C   UNL     1     -12.278   8.564  72.251  1.00  0.00    -0.389 A  
HETATM   26  N   UNL     1     -13.606   8.171  72.446  1.00  0.00    -0.557 NA 
HETATM   27  H1  UNL     1     -13.872   7.498  73.165  1.00  0.00     0.000 HD 
HETATM   28  H2  UNL     1     -13.962   7.830  71.553  1.00  0.00     0.000 HD 
ENDBRANCH  18  19
ENDBRANCH   6  18
TORSDOF 7
ENDMDL
MODEL        7
REMARK 921   NORMALIZED FREE ENERGY PREDICTED BY IDOCK:   -6.27 KCAL/MOL
REMARK 922        TOTAL FREE ENERGY PREDICTED BY IDOCK:   -9.82 KCAL/MOL
REMARK 923 INTER-LIGAND FREE ENERGY PREDICTED BY IDOCK:   -8.83 KCAL/MOL
REMARK 924 INTRA-LIGAND FREE ENERGY PREDICTED BY IDOCK:   -0.99 KCAL/MOL
REMARK 927      BINDING AFFINITY PREDICTED BY RF-SCORE:    0.00 PKD
ROOT
HETATM    1  C   UNL     1     -12.744  10.828  70.832  1.00  0.00    -0.478 C  
HETATM    2  C   UNL     1     -11.463  10.730  70.085  1.00  0.00    -0.331 C  
HETATM    3  C   UNL     1     -11.052  11.514  69.009  1.00  0.00    -0.245 C  
HETATM    4  C   UNL     1      -9.419   9.770  69.678  1.00  0.00    -0.219 C  
HETATM    5  S   UNL     1      -9.546  10.877  68.421  1.00  0.00    -0.183 SA 
HETATM    6  N   UNL     1     -10.490   9.794  70.462  1.00  0.00    -0.295 NA 
ENDROOT
BRANCH   3   7
HETATM    7  C   UNL     1     -11.681  12.748  68.337  1.00  0.00    -0.380 C  
BRANCH   7   8
HETATM    8  C   UNL     1     -10.586  13.756  67.962  1.00  0.00    -0.252 C  
BRANCH   8   9
HETATM    9  O   UNL     1     -10.930  14.923  67.250  1.00  0.00    -0.305 OA 
BRANCH   9  10
HETATM   10  P   UNL     1     -10.306  14.945  65.684  1.00  0.00    -0.407 P  
HETATM   11  O   UNL     1      -8.732  15.203  66.354  1.00  0.00    -0.277 OA 
HETATM   12  O   UNL     1     -10.268  16.424  65.251  1.00  0.00    -0.575 OA 
BRANCH  10  13
HETATM   13  O   UNL     1     -11.880  14.688  65.014  1.00  0.00    -0.371 OA 
HETATM   14  O   UNL     1     -10.657  12.735  63.956  1.00  0.00    -0.392 OA 
HETATM   15  P   UNL     1     -12.014  13.293  64.234  1.00  0.00    -0.445 P  
HETATM   16  O   UNL     1     -13.131  12.503  64.860  1.00  0.00    -0.833 OA 
HETATM   17  O   UNL     1     -12.660  13.823  62.858  1.00  0.00    -0.611 OA 
ENDBRANCH  10  13
ENDBRANCH   9  10
ENDBRANCH   8   9
ENDBRANCH   7   8
ENDBRANCH   3   7
BRANCH   6  18
HETATM   18  C   UNL     1     -10.481   8.955  71.673  1.00  0.00    -0.338 C  
BRANCH  18  19
HETATM   19  C   UNL     1     -10.183   7.516  71.383  1.00  0.00    -0.201 A  
HETATM   20  C   UNL     1      -8.966   6.976  71.735  1.00  0.00    -0.133 A  
HETATM   21  N   UNL     1      -8.677   5.669  71.662  1.00  0.00    -0.135 NA 
HETATM   22  C   UNL     1      -9.653   4.867  71.211  1.00  0.00    -0.168 A  
HETATM   23  N   UNL     1     -10.816   5.316  70.709  1.00  0.00    -0.125 NA 
HETATM   24  C   UNL     1      -9.434   3.390  71.312  1.00  0.00    -0.224 C  
HETATM   25  C   UNL     1     -11.041   6.632  70.761  1.00  0.00    -0.286 A  
HETATM   26  N   UNL     1     -12.188   7.060  70.084  1.00  0.00    -0.615 NA 
HETATM   27  H1  UNL     1     -12.822   6.406  69.625  1.00  0.00     0.000 HD 
HETATM   28  H2  UNL     1     -11.899   7.752  69.393  1.00  0.00     0.000 HD 
ENDBRANCH  18  19
ENDBRANCH   6  18
TORSDOF 7
ENDMDL
MODEL        8
REMARK 921   NORMALIZED FREE ENERGY PREDICTED BY IDOCK:   -6.26 KCAL/MOL
REMARK 922        TOTAL FREE ENERGY PREDICTED BY IDOCK:   -9.81 KCAL/MOL
REMARK 923 INTER-LIGAND FREE ENERGY PREDICTED BY IDOCK:   -8.98 KCAL/MOL
REMARK 924 INTRA-LIGAND FREE ENERGY PREDICTED BY IDOCK:   -0.83 KCAL/MOL
REMARK 927      BINDING AFFINITY PREDICTED BY RF-SCORE:    0.00 PKD
ROOT
HETATM    1  C   UNL     1      -8.276  10.997  67.361  1.00  0.00    -0.122 C  
HETATM    2  C   UNL     1      -9.586  11.502  67.848  1.00  0.00    -0.177 C  
HETATM    3  C   UNL     1     -10.028  12.825  67.862  1.00  0.00    -0.229 C  
HETATM    4  C   UNL     1     -11.658  11.197  68.787  1.00  0.00    -0.322 C  
HETATM    5  S   UNL     1     -11.564  12.871  68.673  1.00  0.00    -0.337 SA 
HETATM    6  N   UNL     1     -10.557  10.613  68.329  1.00  0.00    -0.180 NA 
ENDROOT
BRANCH   3   7
HETATM    7  C   UNL     1      -9.408  14.121  67.310  1.00  0.00    -0.225 C  
BRANCH   7   8
HETATM    8  C   UNL     1     -10.251  15.329  67.742  1.00  0.00    -0.237 C  
BRANCH   8   9
HETATM    9  O   UNL     1     -11.152  15.910  66.825  1.00  0.00    -0.217 OA 
BRANCH   9  10
HETATM   10  P   UNL     1     -10.684  15.698  65.220  1.00  0.00    -0.382 P  
HETATM   11  O   UNL     1      -9.260  16.623  65.551  1.00  0.00    -0.438 OA 
HETATM   12  O   UNL     1     -11.200  16.929  64.449  1.00  0.00    -1.159 OA 
BRANCH  10  13
HETATM   13  O   UNL     1     -12.107  14.772  64.888  1.00  0.00    -0.384 OA 
HETATM   14  O   UNL     1     -10.355  13.163  64.010  1.00  0.00    -0.396 OA 
HETATM   15  P   UNL     1     -11.789  13.274  64.410  1.00  0.00    -0.448 P  
HETATM   16  O   UNL     1     -12.471  12.320  65.352  1.00  0.00    -0.596 OA 
HETATM   17  O   UNL     1     -12.712  13.219  63.092  1.00  0.00    -0.604 OA 
ENDBRANCH  10  13
ENDBRANCH   9  10
ENDBRANCH   8   9
ENDBRANCH   7   8
ENDBRANCH   3   7
BRANCH   6  18
HETATM   18  C   UNL     1     -10.530   9.142  68.262  1.00  0.00    -0.208 C  
BRANCH  18  19
HETATM   19  C   UNL     1     -10.326   8.501  69.600  1.00  0.00    -0.218 A  
HETATM   20  C   UNL     1      -9.426   9.036  70.495  1.00  0.00    -0.221 A  
HETATM   21  N   UNL     1      -9.299   8.626  71.765  1.00  0.00    -0.251 NA 
HETATM   22  C   UNL     1     -10.110   7.631  72.154  1.00  0.00    -0.196 A  
HETATM   23  N   UNL     1     -10.912   6.951  71.318  1.00  0.00    -0.238 NA 
HETATM   24  C   UNL     1     -10.137   7.293  73.612  1.00  0.00    -0.387 C  
HETATM   25  C   UNL     1     -10.972   7.367  70.049  1.00  0.00    -0.248 A  
HETATM   26  N   UNL     1     -11.693   6.532  69.190  1.00  0.00    -0.565 NA 
HETATM   27  H1  UNL     1     -12.171   5.694  69.522  1.00  0.00     0.000 HD 
HETATM   28  H2  UNL     1     -11.070   6.255  68.432  1.00  0.00     0.000 HD 
ENDBRANCH  18  19
ENDBRANCH   6  18
TORSDOF 7
ENDMDL
MODEL        9
REMARK 921   NORMALIZED FREE ENERGY PREDICTED BY IDOCK:   -6.22 KCAL/MOL
REMARK 922        TOTAL FREE ENERGY PREDICTED BY IDOCK:   -9.75 KCAL/MOL
REMARK 923 INTER-LIGAND FREE ENERGY PREDICTED BY IDOCK:   -9.32 KCAL/MOL
REMARK 924 INTRA-LIGAND FREE ENERGY PREDICTED BY IDOCK:   -0.43 KCAL/MOL
REMARK 927      BINDING AFFINITY PREDICTED BY RF-SCORE:    0.00 PKD
ROOT
HETATM    1  C   UNL     1     -11.599  13.264  69.189  1.00  0.00    -0.370 C  
HETATM    2  C   UNL     1     -11.092  11.954  68.703  1.00  0.00    -0.246 C  
HETATM    3  C   UNL     1     -10.345  11.714  67.550  1.00  0.00    -0.197 C  
HETATM    4  C   UNL     1     -10.859   9.677  68.871  1.00  0.00    -0.174 C  
HETATM    5  S   UNL     1     -10.150   9.996  67.382  1.00  0.00    -0.222 SA 
HETATM    6  N   UNL     1     -11.312  10.786  69.444  1.00  0.00    -0.261 NA 
ENDROOT
BRANCH   3   7
HETATM    7  C   UNL     1      -9.726  12.666  66.510  1.00  0.00    -0.256 C  
BRANCH   7   8
HETATM    8  C   UNL     1     -10.403  12.463  65.148  1.00  0.00    -0.287 C  
BRANCH   8   9
HETATM    9  O   UNL     1     -10.615  13.574  64.305  1.00  0.00    -0.412 OA 
BRANCH   9  10
HETATM   10  P   UNL     1     -11.790  14.630  64.894  1.00  0.00    -0.359 P  
HETATM   11  O   UNL     1     -12.809  13.267  65.200  1.00  0.00    -0.670 OA 
HETATM   12  O   UNL     1     -12.722  14.950  63.707  1.00  0.00    -0.754 OA 
BRANCH  10  13
HETATM   13  O   UNL     1     -10.771  15.993  64.587  1.00  0.00    -0.601 OA 
HETATM   14  O   UNL     1     -10.949  16.170  67.110  1.00  0.00    -0.266 OA 
HETATM   15  P   UNL     1     -10.181  16.655  65.925  1.00  0.00    -0.239 P  
HETATM   16  O   UNL     1      -8.679  16.643  65.838  1.00  0.00    -0.483 OA 
HETATM   17  O   UNL     1     -10.557  18.194  65.644  1.00  0.00    -0.611 OA 
ENDBRANCH  10  13
ENDBRANCH   9  10
ENDBRANCH   8   9
ENDBRANCH   7   8
ENDBRANCH   3   7
BRANCH   6  18
HETATM   18  C   UNL     1     -11.865  10.685  70.806  1.00  0.00    -0.357 C  
BRANCH  18  19
HETATM   19  C   UNL     1     -11.570   9.371  71.461  1.00  0.00    -0.467 A  
HETATM   20  C   UNL     1     -10.280   9.052  71.823  1.00  0.00    -0.319 A  
HETATM   21  N   UNL     1      -9.951   7.977  72.553  1.00  0.00    -0.243 NA 
HETATM   22  C   UNL     1     -10.962   7.184  72.935  1.00  0.00    -0.320 A  
HETATM   23  N   UNL     1     -12.228   7.331  72.511  1.00  0.00    -0.057 NA 
HETATM   24  C   UNL     1     -10.654   6.098  73.918  1.00  0.00    -0.230 C  
HETATM   25  C   UNL     1     -12.501   8.393  71.746  1.00  0.00    -0.335 A  
HETATM   26  N   UNL     1     -13.789   8.412  71.203  1.00  0.00    -0.585 NA 
HETATM   27  H1  UNL     1     -14.477   7.689  71.414  1.00  0.00     0.000 HD 
HETATM   28  H2  UNL     1     -13.697   8.467  70.189  1.00  0.00     0.000 HD 
ENDBRANCH  18  19
ENDBRANCH   6  18
TORSDOF 7
ENDMDL
MODEL       10
REMARK 921   NORMALIZED FREE ENERGY PREDICTED BY IDOCK:   -6.16 KCAL/MOL
REMARK 922        TOTAL FREE ENERGY PREDICTED BY IDOCK:   -9.66 KCAL/MOL
REMARK 923 INTER-LIGAND FREE ENERGY PREDICTED BY IDOCK:   -8.93 KCAL/MOL
REMARK 924 INTRA-LIGAND FREE ENERGY PREDICTED BY IDOCK:   -0.73 KCAL/MOL
REMARK 927      BINDING AFFINITY PREDICTED BY RF-SCORE:    0.00 PKD
ROOT
HETATM    1  C   UNL     1     -11.949  11.555  70.060  1.00  0.00    -0.435 C  
HETATM    2  C   UNL     1     -11.215  10.559  69.236  1.00  0.00    -0.262 C  
HETATM    3  C   UNL     1     -11.015  10.589  67.857  1.00  0.00    -0.295 C  
HETATM    4  C   UNL     1     -10.024   8.614  68.986  1.00  0.00    -0.192 C  
HETATM    5  S   UNL     1     -10.228   9.111  67.394  1.00  0.00    -0.266 SA 
HETATM    6  N   UNL     1     -10.594   9.456  69.838  1.00  0.00    -0.222 NA 
ENDROOT
BRANCH   3   7
HETATM    7  C   UNL     1     -11.356  11.647  66.792  1.00  0.00    -0.354 C  
BRANCH   7   8
HETATM    8  C   UNL     1     -10.532  11.395  65.522  1.00  0.00    -0.268 C  
BRANCH   8   9
HETATM    9  O   UNL     1     -10.972  11.927  64.292  1.00  0.00    -0.310 OA 
BRANCH   9  10
HETATM   10  P   UNL     1     -11.962  13.279  64.477  1.00  0.00    -0.441 P  
HETATM   11  O   UNL     1     -13.334  12.227  64.486  1.00  0.00    -0.769 OA 
HETATM   12  O   UNL     1     -12.399  13.697  63.059  1.00  0.00    -0.672 OA 
BRANCH  10  13
HETATM   13  O   UNL     1     -10.589  14.332  64.468  1.00  0.00    -0.388 OA 
HETATM   14  O   UNL     1     -11.684  15.101  66.622  1.00  0.00    -0.215 OA 
HETATM   15  P   UNL     1     -10.418  15.159  65.832  1.00  0.00    -0.388 P  
HETATM   16  O   UNL     1      -9.060  14.857  66.404  1.00  0.00    -0.278 OA 
HETATM   17  O   UNL     1     -10.243  16.638  65.221  1.00  0.00    -0.600 OA 
ENDBRANCH  10  13
ENDBRANCH   9  10
ENDBRANCH   8   9
ENDBRANCH   7   8
ENDBRANCH   3   7
BRANCH   6  18
HETATM   18  C   UNL     1     -10.409   9.214  71.280  1.00  0.00    -0.334 C  
BRANCH  18  19
HETATM   19  C   UNL     1     -10.684   7.795  71.673  1.00  0.00    -0.257 A  
HETATM   20  C   UNL     1      -9.662   6.993  72.131  1.00  0.00    -0.147 A  
HETATM   21  N   UNL     1      -9.845   5.773  72.654  1.00  0.00    -0.164 NA 
HETATM   22  C   UNL     1     -11.111   5.335  72.716  1.00  0.00    -0.286 A  
HETATM   23  N   UNL     1     -12.152   5.980  72.165  1.00  0.00    -0.248 NA 
HETATM   24  C   UNL     1     -11.367   4.072  73.478  1.00  0.00    -0.280 C  
HETATM   25  C   UNL     1     -11.914   7.173  71.614  1.00  0.00    -0.318 A  
HETATM   26  N   UNL     1     -12.994   7.726  70.917  1.00  0.00    -0.540 NA 
HETATM   27  H1  UNL     1     -13.903   7.266  70.873  1.00  0.00     0.000 HD 
HETATM   28  H2  UNL     1     -12.687   7.901  69.960  1.00  0.00     0.000 HD 
ENDBRANCH  18  19
ENDBRANCH   6  18
TORSDOF 7
ENDMDL
MODEL       11
REMARK 921   NORMALIZED FREE ENERGY PREDICTED BY IDOCK:   -6.14 KCAL/MOL
REMARK 922        TOTAL FREE ENERGY PREDICTED BY IDOCK:   -9.64 KCAL/MOL
REMARK 923 INTER-LIGAND FREE ENERGY PREDICTED BY IDOCK:   -8.70 KCAL/MOL
REMARK 924 INTRA-LIGAND FREE ENERGY PREDICTED BY IDOCK:   -0.93 KCAL/MOL
REMARK 927      BINDING AFFINITY PREDICTED BY RF-SCORE:    0.00 PKD
ROOT
HETATM    1  C   UNL     1     -12.725  10.144  71.733  1.00  0.00    -0.534 C  
HETATM    2  C   UNL     1     -11.551   9.746  70.913  1.00  0.00    -0.361 C  
HETATM    3  C   UNL     1     -11.232  10.183  69.628  1.00  0.00    -0.261 C  
HETATM    4  C   UNL     1      -9.623   8.547  70.575  1.00  0.00    -0.170 C  
HETATM    5  S   UNL     1      -9.843   9.291  69.084  1.00  0.00    -0.173 SA 
HETATM    6  N   UNL     1     -10.589   8.866  71.428  1.00  0.00    -0.275 NA 
ENDROOT
BRANCH   3   7
HETATM    7  C   UNL     1     -11.873  11.244  68.715  1.00  0.00    -0.396 C  
BRANCH   7   8
HETATM    8  C   UNL     1     -11.730  12.634  69.349  1.00  0.00    -0.325 C  
BRANCH   8   9
HETATM    9  O   UNL     1     -12.195  13.767  68.651  1.00  0.00    -0.347 OA 
BRANCH   9  10
HETATM   10  P   UNL     1     -11.182  14.217  67.380  1.00  0.00    -0.351 P  
HETATM   11  O   UNL     1      -9.848  14.181  68.480  1.00  0.00    -0.226 OA 
HETATM   12  O   UNL     1     -11.073  15.753  67.433  1.00  0.00    -0.311 OA 
BRANCH  10  13
HETATM   13  O   UNL     1     -12.516  14.252  66.280  1.00  0.00    -0.445 OA 
HETATM   14  O   UNL     1     -10.694  13.483  64.693  1.00  0.00    -0.373 OA 
HETATM   15  P   UNL     1     -12.173  13.610  64.850  1.00  0.00    -0.418 P  
HETATM   16  O   UNL     1     -13.142  12.489  64.588  1.00  0.00    -0.845 OA 
HETATM   17  O   UNL     1     -12.707  14.792  63.897  1.00  0.00    -0.794 OA 
ENDBRANCH  10  13
ENDBRANCH   9  10
ENDBRANCH   8   9
ENDBRANCH   7   8
ENDBRANCH   3   7
BRANCH   6  18
HETATM   18  C   UNL     1     -10.478   8.377  72.813  1.00  0.00    -0.161 C  
BRANCH  18  19
HETATM   19  C   UNL     1     -10.566   6.886  72.915  1.00  0.00    -0.290 A  
HETATM   20  C   UNL     1      -9.458   6.149  73.273  1.00  0.00    -0.142 A  
HETATM   21  N   UNL     1      -9.486   4.837  73.544  1.00  0.00    -0.128 NA 
HETATM   22  C   UNL     1     -10.681   4.234  73.448  1.00  0.00    -0.231 A  
HETATM   23  N   UNL     1     -11.783   4.834  72.967  1.00  0.00    -0.194 NA 
HETATM   24  C   UNL     1     -10.784   2.825  73.941  1.00  0.00    -0.271 C  
HETATM   25  C   UNL     1     -11.695   6.132  72.667  1.00  0.00    -0.151 A  
HETATM   26  N   UNL     1     -12.817   6.665  72.024  1.00  0.00    -0.531 NA 
HETATM   27  H1  UNL     1     -13.652   6.109  71.841  1.00  0.00     0.000 HD 
HETATM   28  H2  UNL     1     -12.507   7.062  71.137  1.00  0.00     0.000 HD 
ENDBRANCH  18  19
ENDBRANCH   6  18
TORSDOF 7
ENDMDL
MODEL       12
REMARK 921   NORMALIZED FREE ENERGY PREDICTED BY IDOCK:   -6.13 KCAL/MOL
REMARK 922        TOTAL FREE ENERGY PREDICTED BY IDOCK:   -9.63 KCAL/MOL
REMARK 923 INTER-LIGAND FREE ENERGY PREDICTED BY IDOCK:   -8.50 KCAL/MOL
REMARK 924 INTRA-LIGAND FREE ENERGY PREDICTED BY IDOCK:   -1.13 KCAL/MOL
REMARK 927      BINDING AFFINITY PREDICTED BY RF-SCORE:    0.00 PKD
ROOT
HETATM    1  C   UNL     1     -11.854  11.002  68.253  1.00  0.00    -0.221 C  
HETATM    2  C   UNL     1     -10.485  10.672  68.727  1.00  0.00    -0.194 C  
HETATM    3  C   UNL     1      -9.276  11.031  68.132  1.00  0.00    -0.165 C  
HETATM    4  C   UNL     1      -9.030   9.675  70.196  1.00  0.00    -0.236 C  
HETATM    5  S   UNL     1      -7.991  10.259  69.012  1.00  0.00    -0.136 SA 
HETATM    6  N   UNL     1     -10.297   9.953  69.916  1.00  0.00    -0.241 NA 
ENDROOT
BRANCH   3   7
HETATM    7  C   UNL     1      -8.952  11.931  66.926  1.00  0.00    -0.196 C  
BRANCH   7   8
HETATM    8  C   UNL     1      -9.072  13.407  67.328  1.00  0.00    -0.222 C  
BRANCH   8   9
HETATM    9  O   UNL     1     -10.275  14.099  67.081  1.00  0.00    -0.254 OA 
BRANCH   9  10
HETATM   10  P   UNL     1     -10.165  15.164  65.778  1.00  0.00    -0.398 P  
HETATM   11  O   UNL     1      -8.576  15.593  66.312  1.00  0.00    -0.304 OA 
HETATM   12  O   UNL     1     -10.619  16.541  66.301  1.00  0.00    -0.294 OA 
BRANCH  10  13
HETATM   13  O   UNL     1     -11.753  14.734  65.245  1.00  0.00    -0.351 OA 
HETATM   14  O   UNL     1     -10.404  13.029  63.939  1.00  0.00    -0.382 OA 
HETATM   15  P   UNL     1     -11.786  13.381  64.384  1.00  0.00    -0.426 P  
HETATM   16  O   UNL     1     -12.720  12.413  65.056  1.00  0.00    -0.631 OA 
HETATM   17  O   UNL     1     -12.634  13.897  63.117  1.00  0.00    -0.775 OA 
ENDBRANCH  10  13
ENDBRANCH   9  10
ENDBRANCH   8   9
ENDBRANCH   7   8
ENDBRANCH   3   7
BRANCH   6  18
HETATM   18  C   UNL     1     -11.321   9.600  70.915  1.00  0.00    -0.360 C  
BRANCH  18  19
HETATM   19  C   UNL     1     -11.151   8.216  71.460  1.00  0.00    -0.302 A  
HETATM   20  C   UNL     1     -10.674   8.028  72.739  1.00  0.00    -0.362 A  
HETATM   21  N   UNL     1     -10.644   6.841  73.361  1.00  0.00    -0.305 NA 
HETATM   22  C   UNL     1     -11.110   5.793  72.666  1.00  0.00    -0.280 A  
HETATM   23  N   UNL     1     -11.458   5.851  71.370  1.00  0.00    -0.196 NA 
HETATM   24  C   UNL     1     -11.281   4.500  73.401  1.00  0.00    -0.404 C  
HETATM   25  C   UNL     1     -11.429   7.048  70.778  1.00  0.00    -0.318 A  
HETATM   26  N   UNL     1     -11.644   7.028  69.397  1.00  0.00    -0.546 NA 
HETATM   27  H1  UNL     1     -11.849   6.165  68.893  1.00  0.00     0.000 HD 
HETATM   28  H2  UNL     1     -10.836   7.463  68.951  1.00  0.00     0.000 HD 
ENDBRANCH  18  19
ENDBRANCH   6  18
TORSDOF 7
ENDMDL
MODEL       13
REMARK 921   NORMALIZED FREE ENERGY PREDICTED BY IDOCK:   -6.13 KCAL/MOL
REMARK 922        TOTAL FREE ENERGY PREDICTED BY IDOCK:   -9.62 KCAL/MOL
REMARK 923 INTER-LIGAND FREE ENERGY PREDICTED BY IDOCK:   -8.72 KCAL/MOL
REMARK 924 INTRA-LIGAND FREE ENERGY PREDICTED BY IDOCK:   -0.90 KCAL/MOL
REMARK 927      BINDING AFFINITY PREDICTED BY RF-SCORE:    0.00 PKD
ROOT
HETATM    1  C   UNL     1     -12.135  13.853  68.469  1.00  0.00    -0.331 C  
HETATM    2  C   UNL     1     -11.484  14.533  67.320  1.00  0.00    -0.365 C  
HETATM    3  C   UNL     1     -10.739  15.711  67.348  1.00  0.00    -0.309 C  
HETATM    4  C   UNL     1     -10.974  14.712  65.089  1.00  0.00    -0.386 C  
HETATM    5  S   UNL     1     -10.341  16.138  65.712  1.00  0.00    -0.377 SA 
HETATM    6  N   UNL     1     -11.546  13.976  66.035  1.00  0.00    -0.345 NA 
ENDROOT
BRANCH   3   7
HETATM    7  C   UNL     1     -10.262  16.597  68.514  1.00  0.00    -0.282 C  
BRANCH   7   8
HETATM    8  C   UNL     1     -10.243  18.068  68.079  1.00  0.00    -0.382 C  
BRANCH   8   9
HETATM    9  O   UNL     1      -9.008  18.723  67.895  1.00  0.00    -0.285 OA 
BRANCH   9  10
HETATM   10  P   UNL     1      -9.041  19.848  66.639  1.00  0.00    -0.373 P  
HETATM   11  O   UNL     1      -9.890  20.933  67.684  1.00  0.00    -0.364 OA 
HETATM   12  O   UNL     1     -10.382  19.643  65.906  1.00  0.00    -0.480 OA 
BRANCH  10  13
HETATM   13  O   UNL     1      -8.193  18.762  65.594  1.00  0.00    -0.397 OA 
HETATM   14  O   UNL     1      -6.217  19.973  66.623  1.00  0.00    -0.180 OA 
HETATM   15  P   UNL     1      -6.605  18.769  65.830  1.00  0.00    -0.265 P  
HETATM   16  O   UNL     1      -6.168  17.370  66.165  1.00  0.00    -0.215 OA 
HETATM   17  O   UNL     1      -6.116  18.958  64.308  1.00  0.00    -0.453 OA 
ENDBRANCH  10  13
ENDBRANCH   9  10
ENDBRANCH   8   9
ENDBRANCH   7   8
ENDBRANCH   3   7
BRANCH   6  18
HETATM   18  C   UNL     1     -12.054  12.644  65.664  1.00  0.00    -0.443 C  
BRANCH  18  19
HETATM   19  C   UNL     1     -10.963  11.633  65.485  1.00  0.00    -0.327 A  
HETATM   20  C   UNL     1     -10.302  11.126  66.582  1.00  0.00    -0.241 A  
HETATM   21  N   UNL     1      -9.433  10.107  66.528  1.00  0.00    -0.164 NA 
HETATM   22  C   UNL     1      -9.214   9.574  65.316  1.00  0.00    -0.247 A  
HETATM   23  N   UNL     1      -9.697  10.092  64.175  1.00  0.00    -0.291 NA 
HETATM   24  C   UNL     1      -8.413   8.312  65.253  1.00  0.00    -0.179 C  
HETATM   25  C   UNL     1     -10.524  11.137  64.275  1.00  0.00    -0.362 A  
HETATM   26  N   UNL     1     -10.869  11.734  63.058  1.00  0.00    -0.675 NA 
HETATM   27  H1  UNL     1     -10.544  11.367  62.163  1.00  0.00     0.000 HD 
HETATM   28  H2  UNL     1     -10.599  12.716  63.107  1.00  0.00     0.000 HD 
ENDBRANCH  18  19
ENDBRANCH   6  18
TORSDOF 7
ENDMDL
MODEL       14
REMARK 921   NORMALIZED FREE ENERGY PREDICTED BY IDOCK:   -6.13 KCAL/MOL
REMARK 922        TOTAL FREE ENERGY PREDICTED BY IDOCK:   -9.62 KCAL/MOL
REMARK 923 INTER-LIGAND FREE ENERGY PREDICTED BY IDOCK:   -8.88 KCAL/MOL
REMARK 924 INTRA-LIGAND FREE ENERGY PREDICTED BY IDOCK:   -0.74 KCAL/MOL
REMARK 927      BINDING AFFINITY PREDICTED BY RF-SCORE:    0.00 PKD
ROOT
HETATM    1  C   UNL     1     -10.480  15.525  65.338  1.00  0.00    -0.429 C  
HETATM    2  C   UNL     1     -10.957  15.208  66.709  1.00  0.00    -0.321 C  
HETATM    3  C   UNL     1     -10.764  15.964  67.865  1.00  0.00    -0.312 C  
HETATM    4  C   UNL     1     -12.035  13.862  68.224  1.00  0.00    -0.357 C  
HETATM    5  S   UNL     1     -11.393  15.062  69.210  1.00  0.00    -0.317 SA 
HETATM    6  N   UNL     1     -11.723  14.059  66.948  1.00  0.00    -0.388 NA 
ENDROOT
BRANCH   3   7
HETATM    7  C   UNL     1     -10.137  17.351  68.093  1.00  0.00    -0.328 C  
BRANCH   7   8
HETATM    8  C   UNL     1     -10.587  18.316  66.987  1.00  0.00    -0.349 C  
BRANCH   8   9
HETATM    9  O   UNL     1      -9.684  18.666  65.962  1.00  0.00    -0.487 OA 
BRANCH   9  10
HETATM   10  P   UNL     1      -8.179  19.148  66.549  1.00  0.00    -0.315 P  
HETATM   11  O   UNL     1      -8.940  20.526  67.265  1.00  0.00    -0.356 OA 
HETATM   12  O   UNL     1      -7.595  20.121  65.505  1.00  0.00    -0.294 OA 
BRANCH  10  13
HETATM   13  O   UNL     1      -7.417  17.770  65.832  1.00  0.00    -0.463 OA 
HETATM   14  O   UNL     1      -6.434  17.618  68.165  1.00  0.00    -0.170 OA 
HETATM   15  P   UNL     1      -6.631  16.859  66.894  1.00  0.00    -0.220 P  
HETATM   16  O   UNL     1      -7.191  15.465  66.831  1.00  0.00    -0.172 OA 
HETATM   17  O   UNL     1      -5.219  16.728  66.132  1.00  0.00    -0.287 OA 
ENDBRANCH  10  13
ENDBRANCH   9  10
ENDBRANCH   8   9
ENDBRANCH   7   8
ENDBRANCH   3   7
BRANCH   6  18
HETATM   18  C   UNL     1     -12.303  13.150  65.945  1.00  0.00    -0.398 C  
BRANCH  18  19
HETATM   19  C   UNL     1     -11.275  12.303  65.261  1.00  0.00    -0.372 A  
HETATM   20  C   UNL     1     -10.337  11.618  66.002  1.00  0.00    -0.243 A  
HETATM   21  N   UNL     1      -9.488  10.717  65.487  1.00  0.00    -0.200 NA 
HETATM   22  C   UNL     1      -9.583  10.494  64.168  1.00  0.00    -0.313 A  
HETATM   23  N   UNL     1     -10.362  11.214  63.343  1.00  0.00    -0.376 NA 
HETATM   24  C   UNL     1      -8.798   9.352  63.603  1.00  0.00    -0.198 C  
HETATM   25  C   UNL     1     -11.158  12.134  63.896  1.00  0.00    -0.404 A  
HETATM   26  N   UNL     1     -11.825  12.960  62.985  1.00  0.00    -0.807 NA 
HETATM   27  H1  UNL     1     -11.738  12.835  61.977  1.00  0.00     0.000 HD 
HETATM   28  H2  UNL     1     -11.575  13.925  63.202  1.00  0.00     0.000 HD 
ENDBRANCH  18  19
ENDBRANCH   6  18
TORSDOF 7
ENDMDL
MODEL       15
REMARK 921   NORMALIZED FREE ENERGY PREDICTED BY IDOCK:   -6.03 KCAL/MOL
REMARK 922        TOTAL FREE ENERGY PREDICTED BY IDOCK:   -9.48 KCAL/MOL
REMARK 923 INTER-LIGAND FREE ENERGY PREDICTED BY IDOCK:   -8.41 KCAL/MOL
REMARK 924 INTRA-LIGAND FREE ENERGY PREDICTED BY IDOCK:   -1.07 KCAL/MOL
REMARK 927      BINDING AFFINITY PREDICTED BY RF-SCORE:    0.00 PKD
ROOT
HETATM    1  C   UNL     1     -11.810  11.836  68.113  1.00  0.00    -0.324 C  
HETATM    2  C   UNL     1     -11.259  11.562  66.761  1.00  0.00    -0.285 C  
HETATM    3  C   UNL     1     -10.568  10.424  66.347  1.00  0.00    -0.127 C  
HETATM    4  C   UNL     1     -10.849  12.142  64.579  1.00  0.00    -0.312 C  
HETATM    5  S   UNL     1     -10.020  10.688  64.719  1.00  0.00    -0.345 SA 
HETATM    6  N   UNL     1     -11.440  12.481  65.719  1.00  0.00    -0.346 NA 
ENDROOT
BRANCH   3   7
HETATM    7  C   UNL     1     -10.258   9.094  67.059  1.00  0.00    -0.333 C  
BRANCH   7   8
HETATM    8  C   UNL     1      -8.771   9.036  67.432  1.00  0.00    -0.119 C  
BRANCH   8   9
HETATM    9  O   UNL     1      -8.389   8.515  68.686  1.00  0.00    -0.121 OA 
BRANCH   9  10
HETATM   10  P   UNL     1      -9.102   9.329  69.979  1.00  0.00    -0.244 P  
HETATM   11  O   UNL     1      -8.518  10.817  69.316  1.00  0.00    -0.135 OA 
HETATM   12  O   UNL     1      -8.008   9.480  71.055  1.00  0.00    -0.321 OA 
BRANCH  10  13
HETATM   13  O   UNL     1      -9.685   7.842  70.642  1.00  0.00    -0.177 OA 
HETATM   14  O   UNL     1     -11.789   9.241  70.853  1.00  0.00    -0.283 OA 
HETATM   15  P   UNL     1     -11.269   7.842  70.897  1.00  0.00    -0.271 P  
HETATM   16  O   UNL     1     -11.874   6.700  70.127  1.00  0.00    -0.389 OA 
HETATM   17  O   UNL     1     -11.290   7.317  72.418  1.00  0.00    -0.261 OA 
ENDBRANCH  10  13
ENDBRANCH   9  10
ENDBRANCH   8   9
ENDBRANCH   7   8
ENDBRANCH   3   7
BRANCH   6  18
HETATM   18  C   UNL     1     -12.296  13.679  65.725  1.00  0.00    -0.482 C  
BRANCH  18  19
HETATM   19  C   UNL     1     -11.522  14.949  65.908  1.00  0.00    -0.276 A  
HETATM   20  C   UNL     1     -10.974  15.257  67.133  1.00  0.00    -0.331 A  
HETATM   21  N   UNL     1     -10.137  16.282  67.343  1.00  0.00    -0.255 NA 
HETATM   22  C   UNL     1      -9.838  17.036  66.275  1.00  0.00    -0.294 A  
HETATM   23  N   UNL     1     -10.433  16.903  65.077  1.00  0.00    -0.610 NA 
HETATM   24  C   UNL     1      -8.753  18.055  66.431  1.00  0.00    -0.249 C  
HETATM   25  C   UNL     1     -11.296  15.894  64.928  1.00  0.00    -0.256 A  
HETATM   26  N   UNL     1     -12.003  15.898  63.721  1.00  0.00    -1.266 NA 
HETATM   27  H1  UNL     1     -11.835  16.597  62.997  1.00  0.00     0.000 HD 
HETATM   28  H2  UNL     1     -12.998  15.914  63.945  1.00  0.00     0.000 HD 
ENDBRANCH  18  19
ENDBRANCH   6  18
TORSDOF 7
ENDMDL
MODEL       16
REMARK 921   NORMALIZED FREE ENERGY PREDICTED BY IDOCK:   -5.94 KCAL/MOL
REMARK 922        TOTAL FREE ENERGY PREDICTED BY IDOCK:   -9.36 KCAL/MOL
REMARK 923 INTER-LIGAND FREE ENERGY PREDICTED BY IDOCK:   -8.40 KCAL/MOL
REMARK 924 INTRA-LIGAND FREE ENERGY PREDICTED BY IDOCK:   -0.96 KCAL/MOL
REMARK 927      BINDING AFFINITY PREDICTED BY RF-SCORE:    0.00 PKD
ROOT
HETATM    1  C   UNL     1     -12.298  10.923  69.643  1.00  0.00    -0.290 C  
HETATM    2  C   UNL     1     -10.890  10.461  69.756  1.00  0.00    -0.292 C  
HETATM    3  C   UNL     1      -9.813  10.832  68.952  1.00  0.00    -0.199 C  
HETATM    4  C   UNL     1      -9.238   9.203  70.734  1.00  0.00    -0.262 C  
HETATM    5  S   UNL     1      -8.435   9.884  69.424  1.00  0.00    -0.179 SA 
HETATM    6  N   UNL     1     -10.509   9.583  70.780  1.00  0.00    -0.296 NA 
ENDROOT
BRANCH   3   7
HETATM    7  C   UNL     1      -9.685  11.867  67.819  1.00  0.00    -0.189 C  
BRANCH   7   8
HETATM    8  C   UNL     1      -8.922  11.255  66.636  1.00  0.00    -0.176 C  
BRANCH   8   9
HETATM    9  O   UNL     1      -9.079  11.807  65.348  1.00  0.00    -0.089 OA 
BRANCH   9  10
HETATM   10  P   UNL     1     -10.353  11.115  64.487  1.00  0.00    -0.345 P  
HETATM   11  O   UNL     1     -10.018   9.611  65.273  1.00  0.00    -0.295 OA 
HETATM   12  O   UNL     1      -9.735  10.492  63.220  1.00  0.00    -0.314 OA 
BRANCH  10  13
HETATM   13  O   UNL     1     -10.688  12.620  63.702  1.00  0.00    -0.425 OA 
HETATM   14  O   UNL     1     -12.524  12.649  65.450  1.00  0.00    -0.601 OA 
HETATM   15  P   UNL     1     -11.790  13.499  64.466  1.00  0.00    -0.447 P  
HETATM   16  O   UNL     1     -11.184  14.834  64.802  1.00  0.00    -0.381 OA 
HETATM   17  O   UNL     1     -12.763  13.834  63.228  1.00  0.00    -0.783 OA 
ENDBRANCH  10  13
ENDBRANCH   9  10
ENDBRANCH   8   9
ENDBRANCH   7   8
ENDBRANCH   3   7
BRANCH   6  18
HETATM   18  C   UNL     1     -11.318   9.154  71.934  1.00  0.00    -0.346 C  
BRANCH  18  19
HETATM   19  C   UNL     1     -11.134   7.706  72.270  1.00  0.00    -0.336 A  
HETATM   20  C   UNL     1     -10.428   7.340  73.395  1.00  0.00    -0.377 A  
HETATM   21  N   UNL     1     -10.354   6.084  73.856  1.00  0.00    -0.263 NA 
HETATM   22  C   UNL     1     -11.015   5.151  73.155  1.00  0.00    -0.307 A  
HETATM   23  N   UNL     1     -11.606   5.386  71.972  1.00  0.00     0.006 NA 
HETATM   24  C   UNL     1     -11.121   3.784  73.755  1.00  0.00    -0.285 C  
HETATM   25  C   UNL     1     -11.616   6.646  71.529  1.00  0.00    -0.309 A  
HETATM   26  N   UNL     1     -12.100   6.809  70.227  1.00  0.00    -0.617 NA 
HETATM   27  H1  UNL     1     -12.456   6.026  69.679  1.00  0.00     0.000 HD 
HETATM   28  H2  UNL     1     -11.369   7.264  69.680  1.00  0.00     0.000 HD 
ENDBRANCH  18  19
ENDBRANCH   6  18
TORSDOF 7
ENDMDL
MODEL       17
REMARK 921   NORMALIZED FREE ENERGY PREDICTED BY IDOCK:   -5.94 KCAL/MOL
REMARK 922        TOTAL FREE ENERGY PREDICTED BY IDOCK:   -9.36 KCAL/MOL
REMARK 923 INTER-LIGAND FREE ENERGY PREDICTED BY IDOCK:   -8.64 KCAL/MOL
REMARK 924 INTRA-LIGAND FREE ENERGY PREDICTED BY IDOCK:   -0.72 KCAL/MOL
REMARK 927      BINDING AFFINITY PREDICTED BY RF-SCORE:    0.00 PKD
ROOT
HETATM    1  C   UNL     1      -9.806  12.487  67.437  1.00  0.00    -0.201 C  
HETATM    2  C   UNL     1      -9.691  11.071  67.002  1.00  0.00    -0.182 C  
HETATM    3  C   UNL     1      -9.577  10.597  65.696  1.00  0.00    -0.218 C  
HETATM    4  C   UNL     1      -9.603   8.817  67.425  1.00  0.00    -0.161 C  
HETATM    5  S   UNL     1      -9.628   8.861  65.746  1.00  0.00    -0.089 SA 
HETATM    6  N   UNL     1      -9.648  10.037  67.947  1.00  0.00    -0.144 NA 
ENDROOT
BRANCH   3   7
HETATM    7  C   UNL     1      -9.422  11.325  64.348  1.00  0.00    -0.206 C  
BRANCH   7   8
HETATM    8  C   UNL     1     -10.804  11.694  63.791  1.00  0.00    -0.424 C  
BRANCH   8   9
HETATM    9  O   UNL     1     -11.072  13.029  63.428  1.00  0.00    -0.266 OA 
BRANCH   9  10
HETATM   10  P   UNL     1     -11.761  13.925  64.679  1.00  0.00    -0.426 P  
HETATM   11  O   UNL     1     -12.946  12.680  64.869  1.00  0.00    -0.830 OA 
HETATM   12  O   UNL     1     -12.880  14.773  64.043  1.00  0.00    -0.697 OA 
BRANCH  10  13
HETATM   13  O   UNL     1     -10.576  15.170  64.489  1.00  0.00    -0.237 OA 
HETATM   14  O   UNL     1     -11.167  15.532  66.928  1.00  0.00    -0.276 OA 
HETATM   15  P   UNL     1     -10.163  15.866  65.875  1.00  0.00    -0.390 P  
HETATM   16  O   UNL     1      -8.677  15.717  66.057  1.00  0.00    -0.313 OA 
HETATM   17  O   UNL     1     -10.333  17.410  65.453  1.00  0.00    -0.631 OA 
ENDBRANCH  10  13
ENDBRANCH   9  10
ENDBRANCH   8   9
ENDBRANCH   7   8
ENDBRANCH   3   7
BRANCH   6  18
HETATM   18  C   UNL     1      -9.525  10.170  69.409  1.00  0.00    -0.224 C  
BRANCH  18  19
HETATM   19  C   UNL     1     -10.815   9.920  70.129  1.00  0.00    -0.356 A  
HETATM   20  C   UNL     1     -11.163   8.641  70.503  1.00  0.00    -0.241 A  
HETATM   21  N   UNL     1     -12.210   8.348  71.286  1.00  0.00    -0.296 NA 
HETATM   22  C   UNL     1     -12.945   9.387  71.711  1.00  0.00    -0.402 A  
HETATM   23  N   UNL     1     -12.772  10.649  71.283  1.00  0.00    -0.397 NA 
HETATM   24  C   UNL     1     -13.990   9.115  72.747  1.00  0.00    -0.240 C  
HETATM   25  C   UNL     1     -11.742  10.885  70.466  1.00  0.00    -0.342 A  
HETATM   26  N   UNL     1     -11.702  12.175  69.927  1.00  0.00    -0.454 NA 
HETATM   27  H1  UNL     1     -12.387  12.888  70.176  1.00  0.00     0.000 HD 
HETATM   28  H2  UNL     1     -11.702  12.086  68.911  1.00  0.00     0.000 HD 
ENDBRANCH  18  19
ENDBRANCH   6  18
TORSDOF 7
ENDMDL
MODEL       18
REMARK 921   NORMALIZED FREE ENERGY PREDICTED BY IDOCK:   -5.91 KCAL/MOL
REMARK 922        TOTAL FREE ENERGY PREDICTED BY IDOCK:   -9.31 KCAL/MOL
REMARK 923 INTER-LIGAND FREE ENERGY PREDICTED BY IDOCK:   -8.71 KCAL/MOL
REMARK 924 INTRA-LIGAND FREE ENERGY PREDICTED BY IDOCK:   -0.60 KCAL/MOL
REMARK 927      BINDING AFFINITY PREDICTED BY RF-SCORE:    0.00 PKD
ROOT
HETATM    1  C   UNL     1      -9.101  11.248  68.123  1.00  0.00    -0.166 C  
HETATM    2  C   UNL     1     -10.267  11.075  69.028  1.00  0.00    -0.200 C  
HETATM    3  C   UNL     1     -11.351  11.938  69.182  1.00  0.00    -0.279 C  
HETATM    4  C   UNL     1     -11.443   9.922  70.626  1.00  0.00    -0.334 C  
HETATM    5  S   UNL     1     -12.344  11.332  70.473  1.00  0.00    -0.344 SA 
HETATM    6  N   UNL     1     -10.387   9.926  69.822  1.00  0.00    -0.229 NA 
ENDROOT
BRANCH   3   7
HETATM    7  C   UNL     1     -11.753  13.225  68.439  1.00  0.00    -0.389 C  
BRANCH   7   8
HETATM    8  C   UNL     1     -11.830  12.955  66.930  1.00  0.00    -0.379 C  
BRANCH   8   9
HETATM    9  O   UNL     1     -12.458  13.895  66.088  1.00  0.00    -0.459 OA 
BRANCH   9  10
HETATM   10  P   UNL     1     -11.471  14.404  64.820  1.00  0.00    -0.393 P  
HETATM   11  O   UNL     1     -12.555  13.633  63.714  1.00  0.00    -0.705 OA 
HETATM   12  O   UNL     1     -10.495  13.244  64.535  1.00  0.00    -0.394 OA 
BRANCH  10  13
HETATM   13  O   UNL     1     -10.386  15.174  65.925  1.00  0.00    -0.288 OA 
HETATM   14  O   UNL     1     -11.117  17.199  64.586  1.00  0.00    -1.036 OA 
HETATM   15  P   UNL     1     -10.433  16.776  65.844  1.00  0.00    -0.134 P  
HETATM   16  O   UNL     1     -10.781  17.310  67.206  1.00  0.00    -0.310 OA 
HETATM   17  O   UNL     1      -8.857  17.078  65.717  1.00  0.00    -0.523 OA 
ENDBRANCH  10  13
ENDBRANCH   9  10
ENDBRANCH   8   9
ENDBRANCH   7   8
ENDBRANCH   3   7
BRANCH   6  18
HETATM   18  C   UNL     1      -9.557   8.710  69.763  1.00  0.00    -0.171 C  
BRANCH  18  19
HETATM   19  C   UNL     1      -9.989   7.760  68.689  1.00  0.00    -0.191 A  
HETATM   20  C   UNL     1      -9.433   7.837  67.431  1.00  0.00    -0.144 A  
HETATM   21  N   UNL     1      -9.640   6.933  66.464  1.00  0.00    -0.168 NA 
HETATM   22  C   UNL     1     -10.444   5.904  66.772  1.00  0.00    -0.281 A  
HETATM   23  N   UNL     1     -11.144   5.820  67.915  1.00  0.00    -0.042 NA 
HETATM   24  C   UNL     1     -10.529   4.778  65.790  1.00  0.00    -0.275 C  
HETATM   25  C   UNL     1     -10.940   6.770  68.832  1.00  0.00    -0.218 A  
HETATM   26  N   UNL     1     -11.805   6.725  69.930  1.00  0.00    -0.657 NA 
HETATM   27  H1  UNL     1     -12.508   5.993  70.036  1.00  0.00     0.000 HD 
HETATM   28  H2  UNL     1     -12.282   7.624  69.986  1.00  0.00     0.000 HD 
ENDBRANCH  18  19
ENDBRANCH   6  18
TORSDOF 7
ENDMDL
MODEL       19
REMARK 921   NORMALIZED FREE ENERGY PREDICTED BY IDOCK:   -5.91 KCAL/MOL
REMARK 922        TOTAL FREE ENERGY PREDICTED BY IDOCK:   -9.31 KCAL/MOL
REMARK 923 INTER-LIGAND FREE ENERGY PREDICTED BY IDOCK:   -8.20 KCAL/MOL
REMARK 924 INTRA-LIGAND FREE ENERGY PREDICTED BY IDOCK:   -1.11 KCAL/MOL
REMARK 927      BINDING AFFINITY PREDICTED BY RF-SCORE:    0.00 PKD
ROOT
HETATM    1  C   UNL     1     -12.670  10.662  70.542  1.00  0.00    -0.395 C  
HETATM    2  C   UNL     1     -11.373  10.455  69.846  1.00  0.00    -0.302 C  
HETATM    3  C   UNL     1     -10.945  11.054  68.662  1.00  0.00    -0.224 C  
HETATM    4  C   UNL     1      -9.312   9.465  69.644  1.00  0.00    -0.189 C  
HETATM    5  S   UNL     1      -9.422  10.346  68.218  1.00  0.00    -0.153 SA 
HETATM    6  N   UNL     1     -10.400   9.607  70.393  1.00  0.00    -0.273 NA 
ENDROOT
BRANCH   3   7
HETATM    7  C   UNL     1     -11.571  12.152  67.782  1.00  0.00    -0.410 C  
BRANCH   7   8
HETATM    8  C   UNL     1     -11.178  13.536  68.315  1.00  0.00    -0.274 C  
BRANCH   8   9
HETATM    9  O   UNL     1     -11.433  13.859  69.664  1.00  0.00    -0.263 OA 
BRANCH   9  10
HETATM   10  P   UNL     1     -11.823  15.484  69.888  1.00  0.00    -0.366 P  
HETATM   11  O   UNL     1     -11.785  15.692  68.171  1.00  0.00    -0.331 OA 
HETATM   12  O   UNL     1     -10.487  16.252  69.924  1.00  0.00    -0.276 OA 
BRANCH  10  13
HETATM   13  O   UNL     1     -11.861  15.276  71.605  1.00  0.00    -0.322 OA 
HETATM   14  O   UNL     1     -14.343  15.556  71.168  1.00  0.00    -0.516 OA 
HETATM   15  P   UNL     1     -13.347  15.114  72.189  1.00  0.00    -0.510 P  
HETATM   16  O   UNL     1     -13.428  13.806  72.926  1.00  0.00    -0.652 OA 
HETATM   17  O   UNL     1     -13.284  16.204  73.371  1.00  0.00    -0.559 OA 
ENDBRANCH  10  13
ENDBRANCH   9  10
ENDBRANCH   8   9
ENDBRANCH   7   8
ENDBRANCH   3   7
BRANCH   6  18
HETATM   18  C   UNL     1     -10.410   8.981  71.726  1.00  0.00    -0.337 C  
BRANCH  18  19
HETATM   19  C   UNL     1     -10.215   7.497  71.676  1.00  0.00    -0.209 A  
HETATM   20  C   UNL     1      -9.050   6.934  72.147  1.00  0.00    -0.132 A  
HETATM   21  N   UNL     1      -8.859   5.615  72.289  1.00  0.00    -0.132 NA 
HETATM   22  C   UNL     1      -9.884   4.823  71.939  1.00  0.00    -0.176 A  
HETATM   23  N   UNL     1     -10.999   5.268  71.336  1.00  0.00    -0.083 NA 
HETATM   24  C   UNL     1      -9.779   3.369  72.277  1.00  0.00    -0.221 C  
HETATM   25  C   UNL     1     -11.125   6.588  71.173  1.00  0.00    -0.282 A  
HETATM   26  N   UNL     1     -12.222   6.985  70.402  1.00  0.00    -0.616 NA 
HETATM   27  H1  UNL     1     -12.894   6.313  70.031  1.00  0.00     0.000 HD 
HETATM   28  H2  UNL     1     -11.868   7.535  69.620  1.00  0.00     0.000 HD 
ENDBRANCH  18  19
ENDBRANCH   6  18
TORSDOF 7
ENDMDL
MODEL       20
REMARK 921   NORMALIZED FREE ENERGY PREDICTED BY IDOCK:   -5.89 KCAL/MOL
REMARK 922        TOTAL FREE ENERGY PREDICTED BY IDOCK:   -9.28 KCAL/MOL
REMARK 923 INTER-LIGAND FREE ENERGY PREDICTED BY IDOCK:   -8.69 KCAL/MOL
REMARK 924 INTRA-LIGAND FREE ENERGY PREDICTED BY IDOCK:   -0.59 KCAL/MOL
REMARK 927      BINDING AFFINITY PREDICTED BY RF-SCORE:    0.00 PKD
ROOT
HETATM    1  C   UNL     1      -9.848   9.184  71.412  1.00  0.00    -0.354 C  
HETATM    2  C   UNL     1     -11.283   8.803  71.486  1.00  0.00    -0.307 C  
HETATM    3  C   UNL     1     -12.386   9.654  71.435  1.00  0.00    -0.378 C  
HETATM    4  C   UNL     1     -12.964   7.256  71.699  1.00  0.00    -0.372 C  
HETATM    5  S   UNL     1     -13.814   8.705  71.717  1.00  0.00    -0.427 SA 
HETATM    6  N   UNL     1     -11.657   7.456  71.582  1.00  0.00    -0.261 NA 
ENDROOT
BRANCH   3   7
HETATM    7  C   UNL     1     -12.504  11.169  71.183  1.00  0.00    -0.498 C  
BRANCH   7   8
HETATM    8  C   UNL     1     -11.814  11.535  69.862  1.00  0.00    -0.355 C  
BRANCH   8   9
HETATM    9  O   UNL     1     -12.169  10.851  68.681  1.00  0.00    -0.533 OA 
BRANCH   9  10
HETATM   10  P   UNL     1     -11.127  11.175  67.396  1.00  0.00    -0.252 P  
HETATM   11  O   UNL     1     -10.048   9.975  68.016  1.00  0.00    -0.156 OA 
HETATM   12  O   UNL     1     -10.118  12.223  67.907  1.00  0.00    -0.190 OA 
BRANCH  10  13
HETATM   13  O   UNL     1     -12.207  12.376  66.776  1.00  0.00    -0.551 OA 
HETATM   14  O   UNL     1     -10.711  12.080  64.750  1.00  0.00    -0.282 OA 
HETATM   15  P   UNL     1     -12.014  12.649  65.206  1.00  0.00    -0.433 P  
HETATM   16  O   UNL     1     -13.326  12.395  64.515  1.00  0.00    -0.800 OA 
HETATM   17  O   UNL     1     -11.911  14.255  65.230  1.00  0.00    -0.349 OA 
ENDBRANCH  10  13
ENDBRANCH   9  10
ENDBRANCH   8   9
ENDBRANCH   7   8
ENDBRANCH   3   7
BRANCH   6  18
HETATM   18  C   UNL     1     -10.785   6.276  71.443  1.00  0.00    -0.248 C  
BRANCH  18  19
HETATM   19  C   UNL     1     -10.664   5.804  70.027  1.00  0.00    -0.400 A  
HETATM   20  C   UNL     1     -11.251   6.517  69.005  1.00  0.00    -0.284 A  
HETATM   21  N   UNL     1     -11.058   6.259  67.704  1.00  0.00    -0.335 NA 
HETATM   22  C   UNL     1     -10.242   5.235  67.414  1.00  0.00    -0.191 A  
HETATM   23  N   UNL     1      -9.743   4.394  68.336  1.00  0.00    -0.134 NA 
HETATM   24  C   UNL     1      -9.845   5.053  65.983  1.00  0.00    -0.206 C  
HETATM   25  C   UNL     1      -9.999   4.665  69.619  1.00  0.00    -0.211 A  
HETATM   26  N   UNL     1      -9.595   3.677  70.522  1.00  0.00    -0.186 NA 
HETATM   27  H1  UNL     1      -9.103   2.835  70.220  1.00  0.00     0.000 HD 
HETATM   28  H2  UNL     1     -10.417   3.384  71.049  1.00  0.00     0.000 HD 
ENDBRANCH  18  19
ENDBRANCH   6  18
TORSDOF 7
ENDMDL
MODEL       21
REMARK 921   NORMALIZED FREE ENERGY PREDICTED BY IDOCK:   -5.88 KCAL/MOL
REMARK 922        TOTAL FREE ENERGY PREDICTED BY IDOCK:   -9.28 KCAL/MOL
REMARK 923 INTER-LIGAND FREE ENERGY PREDICTED BY IDOCK:   -8.47 KCAL/MOL
REMARK 924 INTRA-LIGAND FREE ENERGY PREDICTED BY IDOCK:   -0.81 KCAL/MOL
REMARK 927      BINDING AFFINITY PREDICTED BY RF-SCORE:    0.00 PKD
ROOT
HETATM    1  C   UNL     1     -10.269   7.918  67.137  1.00  0.00    -0.360 C  
HETATM    2  C   UNL     1     -10.426   9.267  67.740  1.00  0.00    -0.255 C  
HETATM    3  C   UNL     1     -10.281  10.498  67.102  1.00  0.00    -0.223 C  
HETATM    4  C   UNL     1     -10.844  10.662  69.513  1.00  0.00    -0.259 C  
HETATM    5  S   UNL     1     -10.423  11.747  68.301  1.00  0.00    -0.213 SA 
HETATM    6  N   UNL     1     -10.795   9.407  69.085  1.00  0.00    -0.196 NA 
ENDROOT
BRANCH   3   7
HETATM    7  C   UNL     1     -10.041  10.869  65.627  1.00  0.00    -0.318 C  
BRANCH   7   8
HETATM    8  C   UNL     1     -11.129  11.841  65.149  1.00  0.00    -0.282 C  
BRANCH   8   9
HETATM    9  O   UNL     1     -10.763  13.129  64.705  1.00  0.00    -0.323 OA 
BRANCH   9  10
HETATM   10  P   UNL     1     -12.052  14.216  64.711  1.00  0.00    -0.446 P  
HETATM   11  O   UNL     1     -13.118  12.893  65.036  1.00  0.00    -0.794 OA 
HETATM   12  O   UNL     1     -12.628  14.216  63.281  1.00  0.00    -0.766 OA 
BRANCH  10  13
HETATM   13  O   UNL     1     -10.986  15.538  64.386  1.00  0.00    -0.284 OA 
HETATM   14  O   UNL     1     -11.100  15.712  66.914  1.00  0.00    -0.287 OA 
HETATM   15  P   UNL     1     -10.340  16.170  65.713  1.00  0.00    -0.340 P  
HETATM   16  O   UNL     1      -8.843  16.098  65.593  1.00  0.00    -0.329 OA 
HETATM   17  O   UNL     1     -10.661  17.725  65.445  1.00  0.00    -0.659 OA 
ENDBRANCH  10  13
ENDBRANCH   9  10
ENDBRANCH   8   9
ENDBRANCH   7   8
ENDBRANCH   3   7
BRANCH   6  18
HETATM   18  C   UNL     1     -11.241   8.344  70.002  1.00  0.00    -0.085 C  
BRANCH  18  19
HETATM   19  C   UNL     1     -10.269   8.084  71.111  1.00  0.00    -0.225 A  
HETATM   20  C   UNL     1      -8.931   7.906  70.833  1.00  0.00    -0.143 A  
HETATM   21  N   UNL     1      -7.975   7.831  71.770  1.00  0.00    -0.090 NA 
HETATM   22  C   UNL     1      -8.380   7.936  73.044  1.00  0.00    -0.165 A  
HETATM   23  N   UNL     1      -9.670   7.964  73.418  1.00  0.00    -0.290 NA 
HETATM   24  C   UNL     1      -7.322   8.062  74.095  1.00  0.00    -0.207 C  
HETATM   25  C   UNL     1     -10.590   7.991  72.450  1.00  0.00    -0.307 A  
HETATM   26  N   UNL     1     -11.911   7.859  72.890  1.00  0.00    -0.619 NA 
HETATM   27  H1  UNL     1     -12.149   7.790  73.880  1.00  0.00     0.000 HD 
HETATM   28  H2  UNL     1     -12.316   7.051  72.416  1.00  0.00     0.000 HD 
ENDBRANCH  18  19
ENDBRANCH   6  18
TORSDOF 7
ENDMDL
MODEL       22
REMARK 921   NORMALIZED FREE ENERGY PREDICTED BY IDOCK:   -5.88 KCAL/MOL
REMARK 922        TOTAL FREE ENERGY PREDICTED BY IDOCK:   -9.27 KCAL/MOL
REMARK 923 INTER-LIGAND FREE ENERGY PREDICTED BY IDOCK:   -8.32 KCAL/MOL
REMARK 924 INTRA-LIGAND FREE ENERGY PREDICTED BY IDOCK:   -0.96 KCAL/MOL
REMARK 927      BINDING AFFINITY PREDICTED BY RF-SCORE:    0.00 PKD
ROOT
HETATM    1  C   UNL     1      -7.834  10.791  68.955  1.00  0.00    -0.136 C  
HETATM    2  C   UNL     1      -9.301  10.992  68.826  1.00  0.00    -0.179 C  
HETATM    3  C   UNL     1      -9.971  11.705  67.833  1.00  0.00    -0.182 C  
HETATM    4  C   UNL     1     -11.461  10.707  69.549  1.00  0.00    -0.291 C  
HETATM    5  S   UNL     1     -11.659  11.748  68.246  1.00  0.00    -0.305 SA 
HETATM    6  N   UNL     1     -10.183  10.402  69.742  1.00  0.00    -0.219 NA 
ENDROOT
BRANCH   3   7
HETATM    7  C   UNL     1      -9.475  12.389  66.547  1.00  0.00    -0.242 C  
BRANCH   7   8
HETATM    8  C   UNL     1     -10.561  12.321  65.465  1.00  0.00    -0.269 C  
BRANCH   8   9
HETATM    9  O   UNL     1     -10.665  13.361  64.518  1.00  0.00    -0.380 OA 
BRANCH   9  10
HETATM   10  P   UNL     1     -11.895  14.457  64.879  1.00  0.00    -0.442 P  
HETATM   11  O   UNL     1     -12.965  13.120  65.122  1.00  0.00    -0.695 OA 
HETATM   12  O   UNL     1     -12.652  14.712  63.561  1.00  0.00    -0.705 OA 
BRANCH  10  13
HETATM   13  O   UNL     1     -10.824  15.794  64.636  1.00  0.00    -0.488 OA 
HETATM   14  O   UNL     1     -10.962  15.831  67.168  1.00  0.00    -0.314 OA 
HETATM   15  P   UNL     1     -10.191  16.352  66.001  1.00  0.00    -0.333 P  
HETATM   16  O   UNL     1      -8.692  16.285  65.891  1.00  0.00    -0.380 OA 
HETATM   17  O   UNL     1     -10.507  17.919  65.815  1.00  0.00    -0.564 OA 
ENDBRANCH  10  13
ENDBRANCH   9  10
ENDBRANCH   8   9
ENDBRANCH   7   8
ENDBRANCH   3   7
BRANCH   6  18
HETATM   18  C   UNL     1      -9.857   9.411  70.783  1.00  0.00    -0.279 C  
BRANCH  18  19
HETATM   19  C   UNL     1      -9.944   7.999  70.293  1.00  0.00    -0.189 A  
HETATM   20  C   UNL     1      -8.905   7.449  69.574  1.00  0.00    -0.137 A  
HETATM   21  N   UNL     1      -8.830   6.154  69.239  1.00  0.00    -0.124 NA 
HETATM   22  C   UNL     1      -9.845   5.374  69.640  1.00  0.00    -0.193 A  
HETATM   23  N   UNL     1     -10.965   5.843  70.214  1.00  0.00    -0.326 NA 
HETATM   24  C   UNL     1      -9.691   3.896  69.462  1.00  0.00    -0.191 C  
HETATM   25  C   UNL     1     -11.015   7.150  70.488  1.00  0.00    -0.262 A  
HETATM   26  N   UNL     1     -12.257   7.611  70.935  1.00  0.00    -0.489 NA 
HETATM   27  H1  UNL     1     -13.048   6.983  71.080  1.00  0.00     0.000 HD 
HETATM   28  H2  UNL     1     -12.559   8.351  70.302  1.00  0.00     0.000 HD 
ENDBRANCH  18  19
ENDBRANCH   6  18
TORSDOF 7
ENDMDL
MODEL       23
REMARK 921   NORMALIZED FREE ENERGY PREDICTED BY IDOCK:   -5.86 KCAL/MOL
REMARK 922        TOTAL FREE ENERGY PREDICTED BY IDOCK:   -9.25 KCAL/MOL
REMARK 923 INTER-LIGAND FREE ENERGY PREDICTED BY IDOCK:   -8.52 KCAL/MOL
REMARK 924 INTRA-LIGAND FREE ENERGY PREDICTED BY IDOCK:   -0.73 KCAL/MOL
REMARK 927      BINDING AFFINITY PREDICTED BY RF-SCORE:    0.00 PKD
ROOT
HETATM    1  C   UNL     1      -9.194   9.817  70.117  1.00  0.00    -0.253 C  
HETATM    2  C   UNL     1     -10.517   9.633  70.770  1.00  0.00    -0.305 C  
HETATM    3  C   UNL     1     -11.727  10.222  70.406  1.00  0.00    -0.319 C  
HETATM    4  C   UNL     1     -11.876   8.730  72.383  1.00  0.00    -0.286 C  
HETATM    5  S   UNL     1     -12.918   9.785  71.592  1.00  0.00    -0.452 SA 
HETATM    6  N   UNL     1     -10.658   8.759  71.857  1.00  0.00    -0.336 NA 
ENDROOT
BRANCH   3   7
HETATM    7  C   UNL     1     -12.117  11.115  69.214  1.00  0.00    -0.377 C  
BRANCH   7   8
HETATM    8  C   UNL     1     -11.618  12.547  69.448  1.00  0.00    -0.305 C  
BRANCH   8   9
HETATM    9  O   UNL     1     -12.136  13.600  68.666  1.00  0.00    -0.360 OA 
BRANCH   9  10
HETATM   10  P   UNL     1     -11.109  14.051  67.408  1.00  0.00    -0.328 P  
HETATM   11  O   UNL     1      -9.785  14.002  68.520  1.00  0.00    -0.224 OA 
HETATM   12  O   UNL     1     -10.992  15.587  67.471  1.00  0.00    -0.311 OA 
BRANCH  10  13
HETATM   13  O   UNL     1     -12.434  14.101  66.296  1.00  0.00    -0.466 OA 
HETATM   14  O   UNL     1     -10.526  13.807  64.652  1.00  0.00    -0.416 OA 
HETATM   15  P   UNL     1     -12.010  13.734  64.793  1.00  0.00    -0.447 P  
HETATM   16  O   UNL     1     -12.837  12.562  64.339  1.00  0.00    -0.714 OA 
HETATM   17  O   UNL     1     -12.677  14.979  64.021  1.00  0.00    -0.772 OA 
ENDBRANCH  10  13
ENDBRANCH   9  10
ENDBRANCH   8   9
ENDBRANCH   7   8
ENDBRANCH   3   7
BRANCH   6  18
HETATM   18  C   UNL     1      -9.658   7.809  72.373  1.00  0.00    -0.181 C  
BRANCH  18  19
HETATM   19  C   UNL     1      -9.782   6.444  71.768  1.00  0.00    -0.172 A  
HETATM   20  C   UNL     1      -9.291   6.198  70.505  1.00  0.00    -0.161 A  
HETATM   21  N   UNL     1      -9.214   4.978  69.955  1.00  0.00    -0.125 NA 
HETATM   22  C   UNL     1      -9.654   3.958  70.706  1.00  0.00    -0.188 A  
HETATM   23  N   UNL     1     -10.281   4.113  71.884  1.00  0.00    -0.152 NA 
HETATM   24  C   UNL     1      -9.393   2.571  70.206  1.00  0.00    -0.192 C  
HETATM   25  C   UNL     1     -10.375   5.353  72.371  1.00  0.00    -0.209 A  
HETATM   26  N   UNL     1     -11.172   5.478  73.513  1.00  0.00    -0.465 NA 
HETATM   27  H1  UNL     1     -11.610   4.672  73.959  1.00  0.00     0.000 HD 
HETATM   28  H2  UNL     1     -11.906   6.156  73.307  1.00  0.00     0.000 HD 
ENDBRANCH  18  19
ENDBRANCH   6  18
TORSDOF 7
ENDMDL
MODEL       24
REMARK 921   NORMALIZED FREE ENERGY PREDICTED BY IDOCK:   -5.85 KCAL/MOL
REMARK 922        TOTAL FREE ENERGY PREDICTED BY IDOCK:   -9.23 KCAL/MOL
REMARK 923 INTER-LIGAND FREE ENERGY PREDICTED BY IDOCK:   -8.20 KCAL/MOL
REMARK 924 INTRA-LIGAND FREE ENERGY PREDICTED BY IDOCK:   -1.03 KCAL/MOL
REMARK 927      BINDING AFFINITY PREDICTED BY RF-SCORE:    0.00 PKD
ROOT
HETATM    1  C   UNL     1     -10.486  12.083  65.787  1.00  0.00    -0.290 C  
HETATM    2  C   UNL     1     -10.639  13.030  66.922  1.00  0.00    -0.254 C  
HETATM    3  C   UNL     1     -10.267  14.373  66.956  1.00  0.00    -0.263 C  
HETATM    4  C   UNL     1     -11.269  13.542  69.069  1.00  0.00    -0.269 C  
HETATM    5  S   UNL     1     -10.530  14.965  68.568  1.00  0.00    -0.249 SA 
HETATM    6  N   UNL     1     -11.247  12.618  68.116  1.00  0.00    -0.250 NA 
ENDROOT
BRANCH   3   7
HETATM    7  C   UNL     1      -9.715  15.314  65.869  1.00  0.00    -0.390 C  
BRANCH   7   8
HETATM    8  C   UNL     1      -9.192  16.606  66.513  1.00  0.00    -0.270 C  
BRANCH   8   9
HETATM    9  O   UNL     1      -9.308  17.825  65.815  1.00  0.00    -0.512 OA 
BRANCH   9  10
HETATM   10  P   UNL     1      -9.536  19.147  66.836  1.00  0.00    -0.366 P  
HETATM   11  O   UNL     1     -11.022  18.437  67.363  1.00  0.00    -0.351 OA 
HETATM   12  O   UNL     1     -10.398  20.159  66.054  1.00  0.00    -0.444 OA 
BRANCH  10  13
HETATM   13  O   UNL     1      -8.050  19.858  66.308  1.00  0.00    -0.320 OA 
HETATM   14  O   UNL     1      -7.513  19.556  68.768  1.00  0.00    -0.337 OA 
HETATM   15  P   UNL     1      -6.906  19.838  67.433  1.00  0.00    -0.224 P  
HETATM   16  O   UNL     1      -5.713  19.104  66.884  1.00  0.00    -0.160 OA 
HETATM   17  O   UNL     1      -6.453  21.381  67.373  1.00  0.00    -0.498 OA 
ENDBRANCH  10  13
ENDBRANCH   9  10
ENDBRANCH   8   9
ENDBRANCH   7   8
ENDBRANCH   3   7
BRANCH   6  18
HETATM   18  C   UNL     1     -11.953  11.349  68.365  1.00  0.00    -0.200 C  
BRANCH  18  19
HETATM   19  C   UNL     1     -11.443  10.625  69.573  1.00  0.00    -0.360 A  
HETATM   20  C   UNL     1     -12.261  10.440  70.666  1.00  0.00    -0.347 A  
HETATM   21  N   UNL     1     -11.944   9.670  71.717  1.00  0.00    -0.381 NA 
HETATM   22  C   UNL     1     -10.750   9.060  71.670  1.00  0.00    -0.371 A  
HETATM   23  N   UNL     1      -9.829   9.294  70.721  1.00  0.00    -0.266 NA 
HETATM   24  C   UNL     1     -10.457   8.038  72.723  1.00  0.00    -0.415 C  
HETATM   25  C   UNL     1     -10.173  10.105  69.717  1.00  0.00    -0.247 A  
HETATM   26  N   UNL     1      -9.130  10.440  68.847  1.00  0.00    -0.164 NA 
HETATM   27  H1  UNL     1      -8.191  10.055  68.953  1.00  0.00     0.000 HD 
HETATM   28  H2  UNL     1      -9.050  11.456  68.835  1.00  0.00     0.000 HD 
ENDBRANCH  18  19
ENDBRANCH   6  18
TORSDOF 7
ENDMDL
MODEL       25
REMARK 921   NORMALIZED FREE ENERGY PREDICTED BY IDOCK:   -5.85 KCAL/MOL
REMARK 922        TOTAL FREE ENERGY PREDICTED BY IDOCK:   -9.23 KCAL/MOL
REMARK 923 INTER-LIGAND FREE ENERGY PREDICTED BY IDOCK:   -7.85 KCAL/MOL
REMARK 924 INTRA-LIGAND FREE ENERGY PREDICTED BY IDOCK:   -1.38 KCAL/MOL
REMARK 927      BINDING AFFINITY PREDICTED BY RF-SCORE:    0.00 PKD
ROOT
HETATM    1  C   UNL     1     -10.870  16.658  69.474  1.00  0.00    -0.285 C  
HETATM    2  C   UNL     1      -9.647  16.026  68.915  1.00  0.00    -0.236 C  
HETATM    3  C   UNL     1      -8.396  16.618  68.741  1.00  0.00    -0.252 C  
HETATM    4  C   UNL     1      -8.517  14.255  67.992  1.00  0.00    -0.164 C  
HETATM    5  S   UNL     1      -7.374  15.483  67.911  1.00  0.00    -0.155 SA 
HETATM    6  N   UNL     1      -9.654  14.679  68.529  1.00  0.00    -0.216 NA 
ENDROOT
BRANCH   3   7
HETATM    7  C   UNL     1      -7.847  17.998  69.145  1.00  0.00     0.008 C  
BRANCH   7   8
HETATM    8  C   UNL     1      -6.641  18.359  68.267  1.00  0.00    -0.221 C  
BRANCH   8   9
HETATM    9  O   UNL     1      -6.731  19.450  67.378  1.00  0.00    -0.198 OA 
BRANCH   9  10
HETATM   10  P   UNL     1      -7.408  19.033  65.892  1.00  0.00    -0.115 P  
HETATM   11  O   UNL     1      -6.044  18.009  65.600  1.00  0.00    -0.223 OA 
HETATM   12  O   UNL     1      -6.799  19.994  64.851  1.00  0.00    -0.297 OA 
BRANCH  10  13
HETATM   13  O   UNL     1      -8.771  20.056  66.184  1.00  0.00    -0.344 OA 
HETATM   14  O   UNL     1      -9.986  17.904  65.617  1.00  0.00    -0.539 OA 
HETATM   15  P   UNL     1     -10.164  19.260  66.215  1.00  0.00    -0.487 P  
HETATM   16  O   UNL     1     -10.823  19.509  67.545  1.00  0.00    -0.468 OA 
HETATM   17  O   UNL     1     -11.013  20.178  65.202  1.00  0.00    -0.231 OA 
ENDBRANCH  10  13
ENDBRANCH   9  10
ENDBRANCH   8   9
ENDBRANCH   7   8
ENDBRANCH   3   7
BRANCH   6  18
HETATM   18  C   UNL     1     -10.719  13.689  68.767  1.00  0.00    -0.244 C  
BRANCH  18  19
HETATM   19  C   UNL     1     -11.363  13.208  67.503  1.00  0.00    -0.336 A  
HETATM   20  C   UNL     1     -12.120  14.069  66.740  1.00  0.00    -0.447 A  
HETATM   21  N   UNL     1     -12.594  13.771  65.522  1.00  0.00    -0.510 NA 
HETATM   22  C   UNL     1     -12.298  12.551  65.049  1.00  0.00    -0.453 A  
HETATM   23  N   UNL     1     -11.694  11.596  65.775  1.00  0.00    -0.276 NA 
HETATM   24  C   UNL     1     -12.634  12.266  63.619  1.00  0.00    -0.599 C  
HETATM   25  C   UNL     1     -11.279  11.925  67.002  1.00  0.00    -0.323 A  
HETATM   26  N   UNL     1     -10.804  10.857  67.770  1.00  0.00    -0.237 NA 
HETATM   27  H1  UNL     1     -10.743   9.909  67.399  1.00  0.00     0.000 HD 
HETATM   28  H2  UNL     1     -11.357  10.821  68.626  1.00  0.00     0.000 HD 
ENDBRANCH  18  19
ENDBRANCH   6  18
TORSDOF 7
ENDMDL
MODEL       26
REMARK 921   NORMALIZED FREE ENERGY PREDICTED BY IDOCK:   -5.85 KCAL/MOL
REMARK 922        TOTAL FREE ENERGY PREDICTED BY IDOCK:   -9.23 KCAL/MOL
REMARK 923 INTER-LIGAND FREE ENERGY PREDICTED BY IDOCK:   -8.38 KCAL/MOL
REMARK 924 INTRA-LIGAND FREE ENERGY PREDICTED BY IDOCK:   -0.84 KCAL/MOL
REMARK 927      BINDING AFFINITY PREDICTED BY RF-SCORE:    0.00 PKD
ROOT
HETATM    1  C   UNL     1      -8.268   8.196  64.239  1.00  0.00    -0.095 C  
HETATM    2  C   UNL     1      -8.942   9.074  65.230  1.00  0.00    -0.183 C  
HETATM    3  C   UNL     1      -9.676  10.230  64.972  1.00  0.00    -0.305 C  
HETATM    4  C   UNL     1      -9.504   9.652  67.379  1.00  0.00    -0.142 C  
HETATM    5  S   UNL     1     -10.110  10.946  66.495  1.00  0.00    -0.229 SA 
HETATM    6  N   UNL     1      -8.916   8.756  66.595  1.00  0.00    -0.133 NA 
ENDROOT
BRANCH   3   7
HETATM    7  C   UNL     1     -10.117  10.894  63.655  1.00  0.00    -0.414 C  
BRANCH   7   8
HETATM    8  C   UNL     1     -11.196  11.949  63.936  1.00  0.00    -0.420 C  
BRANCH   8   9
HETATM    9  O   UNL     1     -10.843  13.314  63.962  1.00  0.00    -0.380 OA 
BRANCH   9  10
HETATM   10  P   UNL     1     -11.884  14.244  64.908  1.00  0.00    -0.452 P  
HETATM   11  O   UNL     1     -13.073  12.997  64.760  1.00  0.00    -0.742 OA 
HETATM   12  O   UNL     1     -12.747  15.064  63.929  1.00  0.00    -0.775 OA 
BRANCH  10  13
HETATM   13  O   UNL     1     -10.694  15.491  65.057  1.00  0.00    -0.413 OA 
HETATM   14  O   UNL     1     -11.037  14.953  67.511  1.00  0.00    -0.297 OA 
HETATM   15  P   UNL     1     -10.133  15.654  66.551  1.00  0.00    -0.317 P  
HETATM   16  O   UNL     1      -8.640  15.469  66.520  1.00  0.00    -0.269 OA 
HETATM   17  O   UNL     1     -10.308  17.244  66.724  1.00  0.00    -0.316 OA 
ENDBRANCH  10  13
ENDBRANCH   9  10
ENDBRANCH   8   9
ENDBRANCH   7   8
ENDBRANCH   3   7
BRANCH   6  18
HETATM   18  C   UNL     1      -8.428   7.510  67.212  1.00  0.00    -0.118 C  
BRANCH  18  19
HETATM   19  C   UNL     1      -9.335   6.998  68.288  1.00  0.00    -0.126 A  
HETATM   20  C   UNL     1      -8.860   6.819  69.568  1.00  0.00    -0.139 A  
HETATM   21  N   UNL     1      -9.635   6.522  70.620  1.00  0.00    -0.172 NA 
HETATM   22  C   UNL     1     -10.948   6.394  70.376  1.00  0.00    -0.308 A  
HETATM   23  N   UNL     1     -11.483   6.405  69.143  1.00  0.00    -0.311 NA 
HETATM   24  C   UNL     1     -11.860   6.267  71.556  1.00  0.00    -0.291 C  
HETATM   25  C   UNL     1     -10.663   6.660  68.120  1.00  0.00    -0.258 A  
HETATM   26  N   UNL     1     -11.235   6.502  66.854  1.00  0.00    -0.776 NA 
HETATM   27  H1  UNL     1     -12.216   6.252  66.730  1.00  0.00     0.000 HD 
HETATM   28  H2  UNL     1     -10.674   5.820  66.343  1.00  0.00     0.000 HD 
ENDBRANCH  18  19
ENDBRANCH   6  18
TORSDOF 7
ENDMDL
MODEL       27
REMARK 921   NORMALIZED FREE ENERGY PREDICTED BY IDOCK:   -5.84 KCAL/MOL
REMARK 922        TOTAL FREE ENERGY PREDICTED BY IDOCK:   -9.22 KCAL/MOL
REMARK 923 INTER-LIGAND FREE ENERGY PREDICTED BY IDOCK:   -8.58 KCAL/MOL
REMARK 924 INTRA-LIGAND FREE ENERGY PREDICTED BY IDOCK:   -0.64 KCAL/MOL
REMARK 927      BINDING AFFINITY PREDICTED BY RF-SCORE:    0.00 PKD
ROOT
HETATM    1  C   UNL     1      -9.726   7.574  67.048  1.00  0.00    -0.257 C  
HETATM    2  C   UNL     1      -9.417   8.920  67.597  1.00  0.00    -0.138 C  
HETATM    3  C   UNL     1      -9.513  10.144  66.935  1.00  0.00    -0.169 C  
HETATM    4  C   UNL     1      -8.713  10.315  69.278  1.00  0.00    -0.174 C  
HETATM    5  S   UNL     1      -8.890  11.377  67.988  1.00  0.00    -0.162 SA 
HETATM    6  N   UNL     1      -9.014   9.070  68.931  1.00  0.00    -0.139 NA 
ENDROOT
BRANCH   3   7
HETATM    7  C   UNL     1     -10.046  10.518  65.540  1.00  0.00    -0.349 C  
BRANCH   7   8
HETATM    8  C   UNL     1     -10.117  12.045  65.399  1.00  0.00    -0.256 C  
BRANCH   8   9
HETATM    9  O   UNL     1     -10.714  12.610  64.253  1.00  0.00    -0.331 OA 
BRANCH   9  10
HETATM   10  P   UNL     1     -11.906  13.743  64.625  1.00  0.00    -0.445 P  
HETATM   11  O   UNL     1     -13.016  12.440  64.872  1.00  0.00    -0.762 OA 
HETATM   12  O   UNL     1     -12.663  14.025  63.313  1.00  0.00    -0.750 OA 
BRANCH  10  13
HETATM   13  O   UNL     1     -10.796  15.046  64.378  1.00  0.00    -0.217 OA 
HETATM   14  O   UNL     1     -11.326  15.416  66.830  1.00  0.00    -0.271 OA 
HETATM   15  P   UNL     1     -10.376  15.786  65.739  1.00  0.00    -0.409 P  
HETATM   16  O   UNL     1      -8.880  15.719  65.874  1.00  0.00    -0.302 OA 
HETATM   17  O   UNL     1     -10.642  17.311  65.301  1.00  0.00    -0.667 OA 
ENDBRANCH  10  13
ENDBRANCH   9  10
ENDBRANCH   8   9
ENDBRANCH   7   8
ENDBRANCH   3   7
BRANCH   6  18
HETATM   18  C   UNL     1      -9.012   8.038  69.982  1.00  0.00    -0.144 C  
BRANCH  18  19
HETATM   19  C   UNL     1     -10.346   7.874  70.642  1.00  0.00    -0.205 A  
HETATM   20  C   UNL     1     -10.860   8.883  71.426  1.00  0.00    -0.307 A  
HETATM   21  N   UNL     1     -12.107   8.888  71.919  1.00  0.00    -0.348 NA 
HETATM   22  C   UNL     1     -12.873   7.830  71.613  1.00  0.00    -0.340 A  
HETATM   23  N   UNL     1     -12.416   6.736  70.980  1.00  0.00    -0.337 NA 
HETATM   24  C   UNL     1     -14.324   7.902  71.971  1.00  0.00    -0.490 C  
HETATM   25  C   UNL     1     -11.152   6.758  70.548  1.00  0.00    -0.298 A  
HETATM   26  N   UNL     1     -10.682   5.542  70.042  1.00  0.00    -0.314 NA 
HETATM   27  H1  UNL     1     -11.278   4.717  69.972  1.00  0.00     0.000 HD 
HETATM   28  H2  UNL     1      -9.854   5.283  70.578  1.00  0.00     0.000 HD 
ENDBRANCH  18  19
ENDBRANCH   6  18
TORSDOF 7
ENDMDL
MODEL       28
REMARK 921   NORMALIZED FREE ENERGY PREDICTED BY IDOCK:   -5.84 KCAL/MOL
REMARK 922        TOTAL FREE ENERGY PREDICTED BY IDOCK:   -9.22 KCAL/MOL
REMARK 923 INTER-LIGAND FREE ENERGY PREDICTED BY IDOCK:   -8.22 KCAL/MOL
REMARK 924 INTRA-LIGAND FREE ENERGY PREDICTED BY IDOCK:   -1.00 KCAL/MOL
REMARK 927      BINDING AFFINITY PREDICTED BY RF-SCORE:    0.00 PKD
ROOT
HETATM    1  C   UNL     1     -12.081  12.601  68.012  1.00  0.00    -0.152 C  
HETATM    2  C   UNL     1     -11.264  11.953  66.954  1.00  0.00    -0.325 C  
HETATM    3  C   UNL     1     -11.440  12.048  65.574  1.00  0.00    -0.313 C  
HETATM    4  C   UNL     1      -9.543  10.603  66.259  1.00  0.00    -0.185 C  
HETATM    5  S   UNL     1     -10.307  10.976  64.810  1.00  0.00    -0.317 SA 
HETATM    6  N   UNL     1     -10.151  11.171  67.293  1.00  0.00    -0.184 NA 
ENDROOT
BRANCH   3   7
HETATM    7  C   UNL     1     -12.402  12.892  64.718  1.00  0.00    -0.516 C  
BRANCH   7   8
HETATM    8  C   UNL     1     -12.007  14.373  64.794  1.00  0.00    -0.447 C  
BRANCH   8   9
HETATM    9  O   UNL     1     -10.708  14.725  65.212  1.00  0.00    -0.335 OA 
BRANCH   9  10
HETATM   10  P   UNL     1     -10.638  16.252  65.923  1.00  0.00    -0.197 P  
HETATM   11  O   UNL     1     -11.177  16.933  64.427  1.00  0.00    -1.159 OA 
HETATM   12  O   UNL     1      -9.248  16.828  65.583  1.00  0.00    -0.503 OA 
BRANCH  10  13
HETATM   13  O   UNL     1     -10.098  15.572  67.419  1.00  0.00    -0.241 OA 
HETATM   14  O   UNL     1     -10.906  17.824  68.258  1.00  0.00    -0.300 OA 
HETATM   15  P   UNL     1     -10.499  16.456  68.696  1.00  0.00    -0.338 P  
HETATM   16  O   UNL     1     -11.311  15.600  69.630  1.00  0.00    -0.279 OA 
HETATM   17  O   UNL     1      -9.064  16.537  69.420  1.00  0.00    -0.157 OA 
ENDBRANCH  10  13
ENDBRANCH   9  10
ENDBRANCH   8   9
ENDBRANCH   7   8
ENDBRANCH   3   7
BRANCH   6  18
HETATM   18  C   UNL     1      -9.535  11.026  68.624  1.00  0.00    -0.195 C  
BRANCH  18  19
HETATM   19  C   UNL     1     -10.146   9.923  69.432  1.00  0.00    -0.227 A  
HETATM   20  C   UNL     1     -10.932  10.217  70.524  1.00  0.00    -0.310 A  
HETATM   21  N   UNL     1     -11.645   9.306  71.202  1.00  0.00    -0.301 NA 
HETATM   22  C   UNL     1     -11.562   8.040  70.766  1.00  0.00    -0.242 A  
HETATM   23  N   UNL     1     -10.713   7.635  69.806  1.00  0.00    -0.245 NA 
HETATM   24  C   UNL     1     -12.499   7.041  71.367  1.00  0.00    -0.426 C  
HETATM   25  C   UNL     1      -9.989   8.573  69.190  1.00  0.00    -0.192 A  
HETATM   26  N   UNL     1      -9.012   8.084  68.317  1.00  0.00    -0.133 NA 
HETATM   27  H1  UNL     1      -8.896   7.086  68.137  1.00  0.00     0.000 HD 
HETATM   28  H2  UNL     1      -8.111   8.452  68.622  1.00  0.00     0.000 HD 
ENDBRANCH  18  19
ENDBRANCH   6  18
TORSDOF 7
ENDMDL
MODEL       29
REMARK 921   NORMALIZED FREE ENERGY PREDICTED BY IDOCK:   -5.82 KCAL/MOL
REMARK 922        TOTAL FREE ENERGY PREDICTED BY IDOCK:   -9.19 KCAL/MOL
REMARK 923 INTER-LIGAND FREE ENERGY PREDICTED BY IDOCK:   -8.10 KCAL/MOL
REMARK 924 INTRA-LIGAND FREE ENERGY PREDICTED BY IDOCK:   -1.10 KCAL/MOL
REMARK 927      BINDING AFFINITY PREDICTED BY RF-SCORE:    0.00 PKD
ROOT
HETATM    1  C   UNL     1     -11.274  10.883  66.982  1.00  0.00    -0.211 C  
HETATM    2  C   UNL     1     -11.661  11.725  68.143  1.00  0.00    -0.323 C  
HETATM    3  C   UNL     1     -11.930  13.093  68.141  1.00  0.00    -0.294 C  
HETATM    4  C   UNL     1     -12.121  12.023  70.372  1.00  0.00    -0.321 C  
HETATM    5  S   UNL     1     -12.183  13.596  69.785  1.00  0.00    -0.245 SA 
HETATM    6  N   UNL     1     -11.832  11.153  69.412  1.00  0.00    -0.318 NA 
ENDROOT
BRANCH   3   7
HETATM    7  C   UNL     1     -12.030  14.119  66.997  1.00  0.00    -0.471 C  
BRANCH   7   8
HETATM    8  C   UNL     1     -10.712  14.894  66.874  1.00  0.00    -0.308 C  
BRANCH   8   9
HETATM    9  O   UNL     1     -10.742  16.297  66.731  1.00  0.00    -0.293 OA 
BRANCH   9  10
HETATM   10  P   UNL     1      -9.925  17.101  67.967  1.00  0.00    -0.331 P  
HETATM   11  O   UNL     1      -9.136  15.614  68.363  1.00  0.00    -0.183 OA 
HETATM   12  O   UNL     1     -10.762  16.898  69.246  1.00  0.00    -0.335 OA 
BRANCH  10  13
HETATM   13  O   UNL     1     -10.715  18.588  67.571  1.00  0.00    -0.427 OA 
HETATM   14  O   UNL     1      -8.706  18.765  66.033  1.00  0.00    -0.481 OA 
HETATM   15  P   UNL     1     -10.056  19.338  66.314  1.00  0.00    -0.454 P  
HETATM   16  O   UNL     1     -11.118  19.531  65.266  1.00  0.00    -0.406 OA 
HETATM   17  O   UNL     1      -9.886  20.809  66.946  1.00  0.00    -0.380 OA 
ENDBRANCH  10  13
ENDBRANCH   9  10
ENDBRANCH   8   9
ENDBRANCH   7   8
ENDBRANCH   3   7
BRANCH   6  18
HETATM   18  C   UNL     1     -11.847   9.719  69.748  1.00  0.00     0.122 C  
BRANCH  18  19
HETATM   19  C   UNL     1     -10.818   9.348  70.771  1.00  0.00    -0.372 A  
HETATM   20  C   UNL     1     -11.194   8.719  71.937  1.00  0.00    -0.368 A  
HETATM   21  N   UNL     1     -10.331   8.211  72.827  1.00  0.00    -0.326 NA 
HETATM   22  C   UNL     1      -9.028   8.342  72.535  1.00  0.00    -0.236 A  
HETATM   23  N   UNL     1      -8.563   9.063  71.501  1.00  0.00    -0.340 NA 
HETATM   24  C   UNL     1      -8.051   7.608  73.398  1.00  0.00    -0.188 C  
HETATM   25  C   UNL     1      -9.463   9.591  70.666  1.00  0.00    -0.213 A  
HETATM   26  N   UNL     1      -8.936  10.460  69.705  1.00  0.00    -0.397 NA 
HETATM   27  H1  UNL     1      -7.935  10.639  69.628  1.00  0.00     0.000 HD 
HETATM   28  H2  UNL     1      -9.406  11.359  69.811  1.00  0.00     0.000 HD 
ENDBRANCH  18  19
ENDBRANCH   6  18
TORSDOF 7
ENDMDL
MODEL       30
REMARK 921   NORMALIZED FREE ENERGY PREDICTED BY IDOCK:   -5.82 KCAL/MOL
REMARK 922        TOTAL FREE ENERGY PREDICTED BY IDOCK:   -9.19 KCAL/MOL
REMARK 923 INTER-LIGAND FREE ENERGY PREDICTED BY IDOCK:   -8.43 KCAL/MOL
REMARK 924 INTRA-LIGAND FREE ENERGY PREDICTED BY IDOCK:   -0.76 KCAL/MOL
REMARK 927      BINDING AFFINITY PREDICTED BY RF-SCORE:    0.00 PKD
ROOT
HETATM    1  C   UNL     1     -11.895  12.360  68.385  1.00  0.00    -0.361 C  
HETATM    2  C   UNL     1     -11.358  11.911  67.074  1.00  0.00    -0.329 C  
HETATM    3  C   UNL     1     -10.783  10.677  66.775  1.00  0.00    -0.210 C  
HETATM    4  C   UNL     1     -10.864  12.251  64.858  1.00  0.00    -0.302 C  
HETATM    5  S   UNL     1     -10.191  10.738  65.143  1.00  0.00    -0.284 SA 
HETATM    6  N   UNL     1     -11.432  12.747  65.951  1.00  0.00    -0.338 NA 
ENDROOT
BRANCH   3   7
HETATM    7  C   UNL     1     -10.620   9.392  67.607  1.00  0.00    -0.333 C  
BRANCH   7   8
HETATM    8  C   UNL     1     -10.254   8.218  66.689  1.00  0.00    -0.263 C  
BRANCH   8   9
HETATM    9  O   UNL     1     -10.918   6.983  66.842  1.00  0.00    -0.371 OA 
BRANCH   9  10
HETATM   10  P   UNL     1      -9.890   5.739  67.328  1.00  0.00    -0.176 P  
HETATM   11  O   UNL     1      -8.860   6.118  65.992  1.00  0.00    -0.150 OA 
HETATM   12  O   UNL     1     -10.314   4.487  66.535  1.00  0.00    -0.238 OA 
BRANCH  10  13
HETATM   13  O   UNL     1     -10.920   5.361  68.665  1.00  0.00    -0.043 OA 
HETATM   14  O   UNL     1      -9.077   6.590  69.900  1.00  0.00    -0.142 OA 
HETATM   15  P   UNL     1     -10.474   6.079  70.029  1.00  0.00    -0.307 P  
HETATM   16  O   UNL     1     -11.626   6.907  70.529  1.00  0.00    -0.318 OA 
HETATM   17  O   UNL     1     -10.481   4.803  71.011  1.00  0.00    -0.162 OA 
ENDBRANCH  10  13
ENDBRANCH   9  10
ENDBRANCH   8   9
ENDBRANCH   7   8
ENDBRANCH   3   7
BRANCH   6  18
HETATM   18  C   UNL     1     -12.161  14.022  65.835  1.00  0.00    -0.428 C  
BRANCH  18  19
HETATM   19  C   UNL     1     -11.293  15.216  66.090  1.00  0.00    -0.220 A  
HETATM   20  C   UNL     1     -10.805  15.462  67.354  1.00  0.00    -0.309 A  
HETATM   21  N   UNL     1      -9.898  16.407  67.637  1.00  0.00    -0.240 NA 
HETATM   22  C   UNL     1      -9.462  17.142  66.603  1.00  0.00    -0.264 A  
HETATM   23  N   UNL     1      -9.983  17.076  65.367  1.00  0.00    -0.495 NA 
HETATM   24  C   UNL     1      -8.305  18.060  66.849  1.00  0.00    -0.263 C  
HETATM   25  C   UNL     1     -10.919  16.149  65.143  1.00  0.00    -0.316 A  
HETATM   26  N   UNL     1     -11.539  16.228  63.892  1.00  0.00    -1.573 NA 
HETATM   27  H1  UNL     1     -11.262  16.917  63.193  1.00  0.00     0.000 HD 
HETATM   28  H2  UNL     1     -12.542  16.329  64.049  1.00  0.00     0.000 HD 
ENDBRANCH  18  19
ENDBRANCH   6  18
TORSDOF 7
ENDMDL
MODEL       31
REMARK 921   NORMALIZED FREE ENERGY PREDICTED BY IDOCK:   -5.80 KCAL/MOL
REMARK 922        TOTAL FREE ENERGY PREDICTED BY IDOCK:   -9.16 KCAL/MOL
REMARK 923 INTER-LIGAND FREE ENERGY PREDICTED BY IDOCK:   -8.26 KCAL/MOL
REMARK 924 INTRA-LIGAND FREE ENERGY PREDICTED BY IDOCK:   -0.91 KCAL/MOL
REMARK 927      BINDING AFFINITY PREDICTED BY RF-SCORE:    0.00 PKD
ROOT
HETATM    1  C   UNL     1      -9.636  11.082  65.721  1.00  0.00    -0.260 C  
HETATM    2  C   UNL     1     -10.478  11.853  66.672  1.00  0.00    -0.216 C  
HETATM    3  C   UNL     1     -10.681  11.588  68.025  1.00  0.00    -0.202 C  
HETATM    4  C   UNL     1     -11.911  13.572  67.182  1.00  0.00    -0.381 C  
HETATM    5  S   UNL     1     -11.869  12.707  68.622  1.00  0.00    -0.253 SA 
HETATM    6  N   UNL     1     -11.148  13.011  66.252  1.00  0.00    -0.284 NA 
ENDROOT
BRANCH   3   7
HETATM    7  C   UNL     1     -10.058  10.547  68.973  1.00  0.00    -0.230 C  
BRANCH   7   8
HETATM    8  C   UNL     1     -11.090  10.113  70.023  1.00  0.00    -0.308 C  
BRANCH   8   9
HETATM    9  O   UNL     1     -10.648   9.563  71.244  1.00  0.00    -0.332 OA 
BRANCH   9  10
HETATM   10  P   UNL     1     -11.358   8.073  71.588  1.00  0.00    -0.296 P  
HETATM   11  O   UNL     1     -12.760   8.913  72.154  1.00  0.00    -0.358 OA 
HETATM   12  O   UNL     1     -11.047   7.773  73.068  1.00  0.00    -0.398 OA 
BRANCH  10  13
HETATM   13  O   UNL     1      -9.956   7.232  71.022  1.00  0.00    -0.188 OA 
HETATM   14  O   UNL     1     -11.715   6.126  69.569  1.00  0.00    -0.298 OA 
HETATM   15  P   UNL     1     -10.244   6.320  69.734  1.00  0.00    -0.222 P  
HETATM   16  O   UNL     1      -9.328   6.761  68.626  1.00  0.00    -0.133 OA 
HETATM   17  O   UNL     1      -9.582   4.941  70.237  1.00  0.00    -0.161 OA 
ENDBRANCH  10  13
ENDBRANCH   9  10
ENDBRANCH   8   9
ENDBRANCH   7   8
ENDBRANCH   3   7
BRANCH   6  18
HETATM   18  C   UNL     1     -10.995  13.712  64.965  1.00  0.00    -0.346 C  
BRANCH  18  19
HETATM   19  C   UNL     1     -10.648  15.160  65.127  1.00  0.00    -0.447 A  
HETATM   20  C   UNL     1     -11.374  16.125  64.465  1.00  0.00    -0.267 A  
HETATM   21  N   UNL     1     -11.238  17.442  64.676  1.00  0.00    -0.824 NA 
HETATM   22  C   UNL     1     -10.329  17.807  65.592  1.00  0.00    -0.091 A  
HETATM   23  N   UNL     1      -9.475  16.952  66.180  1.00  0.00    -0.413 NA 
HETATM   24  C   UNL     1     -10.299  19.248  65.998  1.00  0.00    -0.556 C  
HETATM   25  C   UNL     1      -9.619  15.653  65.904  1.00  0.00    -0.350 A  
HETATM   26  N   UNL     1      -8.611  14.828  66.413  1.00  0.00    -0.442 NA 
HETATM   27  H1  UNL     1      -7.851  15.192  66.987  1.00  0.00     0.000 HD 
HETATM   28  H2  UNL     1      -8.195  14.326  65.628  1.00  0.00     0.000 HD 
ENDBRANCH  18  19
ENDBRANCH   6  18
TORSDOF 7
ENDMDL
MODEL       32
REMARK 921   NORMALIZED FREE ENERGY PREDICTED BY IDOCK:   -5.80 KCAL/MOL
REMARK 922        TOTAL FREE ENERGY PREDICTED BY IDOCK:   -9.15 KCAL/MOL
REMARK 923 INTER-LIGAND FREE ENERGY PREDICTED BY IDOCK:   -8.94 KCAL/MOL
REMARK 924 INTRA-LIGAND FREE ENERGY PREDICTED BY IDOCK:   -0.22 KCAL/MOL
REMARK 927      BINDING AFFINITY PREDICTED BY RF-SCORE:    0.00 PKD
ROOT
HETATM    1  C   UNL     1     -13.561  13.316  72.283  1.00  0.00    -0.703 C  
HETATM    2  C   UNL     1     -12.844  12.728  71.122  1.00  0.00    -0.226 C  
HETATM    3  C   UNL     1     -12.217  13.413  70.082  1.00  0.00    -0.315 C  
HETATM    4  C   UNL     1     -12.095  10.942  69.891  1.00  0.00    -0.354 C  
HETATM    5  S   UNL     1     -11.671  12.245  68.918  1.00  0.00    -0.323 SA 
HETATM    6  N   UNL     1     -12.704  11.338  71.001  1.00  0.00    -0.372 NA 
ENDROOT
BRANCH   3   7
HETATM    7  C   UNL     1     -11.962  14.913  69.846  1.00  0.00    -0.376 C  
BRANCH   7   8
HETATM    8  C   UNL     1     -11.463  15.140  68.413  1.00  0.00    -0.332 C  
BRANCH   8   9
HETATM    9  O   UNL     1     -11.094  16.438  68.003  1.00  0.00    -0.348 OA 
BRANCH   9  10
HETATM   10  P   UNL     1      -9.526  16.511  67.388  1.00  0.00    -0.232 P  
HETATM   11  O   UNL     1      -9.970  15.320  66.215  1.00  0.00    -0.253 OA 
HETATM   12  O   UNL     1      -8.729  15.396  68.092  1.00  0.00    -0.158 OA 
BRANCH  10  13
HETATM   13  O   UNL     1      -9.083  17.703  68.560  1.00  0.00    -0.273 OA 
HETATM   14  O   UNL     1      -9.512  19.219  66.573  1.00  0.00    -0.326 OA 
HETATM   15  P   UNL     1      -9.322  19.207  68.054  1.00  0.00    -0.357 P  
HETATM   16  O   UNL     1     -10.247  19.892  69.022  1.00  0.00    -0.432 OA 
HETATM   17  O   UNL     1      -7.883  19.835  68.407  1.00  0.00    -0.328 OA 
ENDBRANCH  10  13
ENDBRANCH   9  10
ENDBRANCH   8   9
ENDBRANCH   7   8
ENDBRANCH   3   7
BRANCH   6  18
HETATM   18  C   UNL     1     -13.042  10.318  72.009  1.00  0.00    -0.425 C  
BRANCH  18  19
HETATM   19  C   UNL     1     -12.340   9.015  71.778  1.00  0.00    -0.438 A  
HETATM   20  C   UNL     1     -10.971   8.932  71.914  1.00  0.00    -0.369 A  
HETATM   21  N   UNL     1     -10.285   7.781  71.885  1.00  0.00    -0.195 NA 
HETATM   22  C   UNL     1     -11.003   6.662  71.709  1.00  0.00    -0.240 A  
HETATM   23  N   UNL     1     -12.316   6.655  71.423  1.00  0.00    -0.339 NA 
HETATM   24  C   UNL     1     -10.296   5.355  71.878  1.00  0.00    -0.270 C  
HETATM   25  C   UNL     1     -12.950   7.831  71.417  1.00  0.00    -0.288 A  
HETATM   26  N   UNL     1     -14.271   7.786  70.959  1.00  0.00    -0.663 NA 
HETATM   27  H1  UNL     1     -14.722   6.910  70.693  1.00  0.00     0.000 HD 
HETATM   28  H2  UNL     1     -14.348   8.428  70.171  1.00  0.00     0.000 HD 
ENDBRANCH  18  19
ENDBRANCH   6  18
TORSDOF 7
ENDMDL
MODEL       33
REMARK 921   NORMALIZED FREE ENERGY PREDICTED BY IDOCK:   -5.78 KCAL/MOL
REMARK 922        TOTAL FREE ENERGY PREDICTED BY IDOCK:   -9.13 KCAL/MOL
REMARK 923 INTER-LIGAND FREE ENERGY PREDICTED BY IDOCK:   -8.44 KCAL/MOL
REMARK 924 INTRA-LIGAND FREE ENERGY PREDICTED BY IDOCK:   -0.69 KCAL/MOL
REMARK 927      BINDING AFFINITY PREDICTED BY RF-SCORE:    0.00 PKD
ROOT
HETATM    1  C   UNL     1      -8.441   9.472  68.994  1.00  0.00    -0.128 C  
HETATM    2  C   UNL     1      -9.807   9.851  69.440  1.00  0.00    -0.217 C  
HETATM    3  C   UNL     1     -10.825  10.403  68.664  1.00  0.00    -0.232 C  
HETATM    4  C   UNL     1     -11.432  10.066  71.047  1.00  0.00    -0.383 C  
HETATM    5  S   UNL     1     -12.154  10.791  69.714  1.00  0.00    -0.285 SA 
HETATM    6  N   UNL     1     -10.210   9.629  70.764  1.00  0.00    -0.290 NA 
ENDROOT
BRANCH   3   7
HETATM    7  C   UNL     1     -10.928  10.685  67.154  1.00  0.00    -0.312 C  
BRANCH   7   8
HETATM    8  C   UNL     1     -11.284  12.159  66.920  1.00  0.00    -0.320 C  
BRANCH   8   9
HETATM    9  O   UNL     1     -12.249  12.495  65.948  1.00  0.00    -0.593 OA 
BRANCH   9  10
HETATM   10  P   UNL     1     -11.742  13.733  64.921  1.00  0.00    -0.409 P  
HETATM   11  O   UNL     1     -12.862  13.158  63.735  1.00  0.00    -0.655 OA 
HETATM   12  O   UNL     1     -10.631  13.136  64.034  1.00  0.00    -0.402 OA 
BRANCH  10  13
HETATM   13  O   UNL     1     -10.621  14.308  66.106  1.00  0.00    -0.284 OA 
HETATM   14  O   UNL     1     -10.902  16.427  64.743  1.00  0.00    -0.697 OA 
HETATM   15  P   UNL     1     -10.389  15.894  66.040  1.00  0.00    -0.374 P  
HETATM   16  O   UNL     1     -10.734  16.481  67.381  1.00  0.00    -0.315 OA 
HETATM   17  O   UNL     1      -8.780  15.923  66.024  1.00  0.00    -0.321 OA 
ENDBRANCH  10  13
ENDBRANCH   9  10
ENDBRANCH   8   9
ENDBRANCH   7   8
ENDBRANCH   3   7
BRANCH   6  18
HETATM   18  C   UNL     1      -9.488   8.874  71.802  1.00  0.00    -0.264 C  
BRANCH  18  19
HETATM   19  C   UNL     1      -9.848   7.420  71.823  1.00  0.00    -0.187 A  
HETATM   20  C   UNL     1      -9.147   6.520  71.052  1.00  0.00    -0.150 A  
HETATM   21  N   UNL     1      -9.294   5.190  71.131  1.00  0.00    -0.144 NA 
HETATM   22  C   UNL     1     -10.189   4.742  72.024  1.00  0.00    -0.195 A  
HETATM   23  N   UNL     1     -11.021   5.542  72.712  1.00  0.00    -0.259 NA 
HETATM   24  C   UNL     1     -10.228   3.269  72.281  1.00  0.00    -0.172 C  
HETATM   25  C   UNL     1     -10.868   6.861  72.566  1.00  0.00    -0.244 A  
HETATM   26  N   UNL     1     -11.856   7.639  73.177  1.00  0.00    -0.610 NA 
HETATM   27  H1  UNL     1     -12.609   7.226  73.726  1.00  0.00     0.000 HD 
HETATM   28  H2  UNL     1     -12.281   8.222  72.455  1.00  0.00     0.000 HD 
ENDBRANCH  18  19
ENDBRANCH   6  18
TORSDOF 7
ENDMDL
MODEL       34
REMARK 921   NORMALIZED FREE ENERGY PREDICTED BY IDOCK:   -5.78 KCAL/MOL
REMARK 922        TOTAL FREE ENERGY PREDICTED BY IDOCK:   -9.13 KCAL/MOL
REMARK 923 INTER-LIGAND FREE ENERGY PREDICTED BY IDOCK:   -7.85 KCAL/MOL
REMARK 924 INTRA-LIGAND FREE ENERGY PREDICTED BY IDOCK:   -1.28 KCAL/MOL
REMARK 927      BINDING AFFINITY PREDICTED BY RF-SCORE:    0.00 PKD
ROOT
HETATM    1  C   UNL     1     -12.091  14.406  67.096  1.00  0.00    -0.367 C  
HETATM    2  C   UNL     1     -10.650  14.161  67.367  1.00  0.00    -0.279 C  
HETATM    3  C   UNL     1      -9.837  14.834  68.278  1.00  0.00    -0.222 C  
HETATM    4  C   UNL     1      -8.671  13.061  66.992  1.00  0.00    -0.193 C  
HETATM    5  S   UNL     1      -8.211  14.254  68.082  1.00  0.00    -0.157 SA 
HETATM    6  N   UNL     1      -9.965  13.135  66.702  1.00  0.00    -0.263 NA 
ENDROOT
BRANCH   3   7
HETATM    7  C   UNL     1     -10.150  15.911  69.334  1.00  0.00    -0.267 C  
BRANCH   7   8
HETATM    8  C   UNL     1     -10.232  17.290  68.666  1.00  0.00    -0.351 C  
BRANCH   8   9
HETATM    9  O   UNL     1      -9.118  17.787  67.959  1.00  0.00    -0.257 OA 
BRANCH   9  10
HETATM   10  P   UNL     1      -9.528  18.433  66.457  1.00  0.00    -0.275 P  
HETATM   11  O   UNL     1     -11.002  19.015  67.150  1.00  0.00    -0.433 OA 
HETATM   12  O   UNL     1     -10.385  17.369  65.744  1.00  0.00    -0.543 OA 
BRANCH  10  13
HETATM   13  O   UNL     1      -8.054  17.852  65.763  1.00  0.00    -0.537 OA 
HETATM   14  O   UNL     1      -7.284  20.153  66.500  1.00  0.00    -0.246 OA 
HETATM   15  P   UNL     1      -6.802  18.816  66.040  1.00  0.00    -0.272 P  
HETATM   16  O   UNL     1      -5.738  18.022  66.746  1.00  0.00    -0.134 OA 
HETATM   17  O   UNL     1      -6.235  18.946  64.539  1.00  0.00    -0.475 OA 
ENDBRANCH  10  13
ENDBRANCH   9  10
ENDBRANCH   8   9
ENDBRANCH   7   8
ENDBRANCH   3   7
BRANCH   6  18
HETATM   18  C   UNL     1     -10.543  12.089  65.841  1.00  0.00    -0.265 C  
BRANCH  18  19
HETATM   19  C   UNL     1     -10.441  10.719  66.439  1.00  0.00    -0.293 A  
HETATM   20  C   UNL     1      -9.724   9.734  65.797  1.00  0.00    -0.273 A  
HETATM   21  N   UNL     1      -9.448   8.538  66.334  1.00  0.00    -0.214 NA 
HETATM   22  C   UNL     1      -9.915   8.318  67.572  1.00  0.00    -0.193 A  
HETATM   23  N   UNL     1     -10.743   9.156  68.217  1.00  0.00    -0.168 NA 
HETATM   24  C   UNL     1      -9.451   7.081  68.275  1.00  0.00    -0.128 C  
HETATM   25  C   UNL     1     -11.028  10.318  67.623  1.00  0.00    -0.294 A  
HETATM   26  N   UNL     1     -12.014  11.079  68.259  1.00  0.00    -0.757 NA 
HETATM   27  H1  UNL     1     -12.447  10.783  69.133  1.00  0.00     0.000 HD 
HETATM   28  H2  UNL     1     -12.759  11.247  67.583  1.00  0.00     0.000 HD 
ENDBRANCH  18  19
ENDBRANCH   6  18
TORSDOF 7
ENDMDL
MODEL       35
REMARK 921   NORMALIZED FREE ENERGY PREDICTED BY IDOCK:   -5.77 KCAL/MOL
REMARK 922        TOTAL FREE ENERGY PREDICTED BY IDOCK:   -9.12 KCAL/MOL
REMARK 923 INTER-LIGAND FREE ENERGY PREDICTED BY IDOCK:   -8.50 KCAL/MOL
REMARK 924 INTRA-LIGAND FREE ENERGY PREDICTED BY IDOCK:   -0.62 KCAL/MOL
REMARK 927      BINDING AFFINITY PREDICTED BY RF-SCORE:    0.00 PKD
ROOT
HETATM    1  C   UNL     1     -11.341  11.811  67.208  1.00  0.00    -0.379 C  
HETATM    2  C   UNL     1     -11.621  12.709  68.359  1.00  0.00    -0.328 C  
HETATM    3  C   UNL     1     -11.461  14.093  68.407  1.00  0.00    -0.302 C  
HETATM    4  C   UNL     1     -12.289  13.091  70.521  1.00  0.00    -0.287 C  
HETATM    5  S   UNL     1     -11.787  14.618  70.031  1.00  0.00    -0.327 SA 
HETATM    6  N   UNL     1     -12.139  12.193  69.554  1.00  0.00    -0.244 NA 
ENDROOT
BRANCH   3   7
HETATM    7  C   UNL     1     -11.079  15.122  67.327  1.00  0.00    -0.332 C  
BRANCH   7   8
HETATM    8  C   UNL     1     -10.648  16.438  67.987  1.00  0.00    -0.314 C  
BRANCH   8   9
HETATM    9  O   UNL     1      -9.397  17.001  67.662  1.00  0.00    -0.237 OA 
BRANCH   9  10
HETATM   10  P   UNL     1      -9.520  18.309  66.604  1.00  0.00    -0.307 P  
HETATM   11  O   UNL     1     -10.951  18.803  67.441  1.00  0.00    -0.422 OA 
HETATM   12  O   UNL     1     -10.450  17.857  65.460  1.00  0.00    -0.650 OA 
BRANCH  10  13
HETATM   13  O   UNL     1      -8.089  17.814  65.768  1.00  0.00    -0.541 OA 
HETATM   14  O   UNL     1      -7.336  20.103  66.557  1.00  0.00    -0.257 OA 
HETATM   15  P   UNL     1      -6.850  18.809  65.993  1.00  0.00    -0.272 P  
HETATM   16  O   UNL     1      -5.708  18.020  66.572  1.00  0.00    -0.139 OA 
HETATM   17  O   UNL     1      -6.410  19.031  64.461  1.00  0.00    -0.480 OA 
ENDBRANCH  10  13
ENDBRANCH   9  10
ENDBRANCH   8   9
ENDBRANCH   7   8
ENDBRANCH   3   7
BRANCH   6  18
HETATM   18  C   UNL     1     -12.636  10.827  69.795  1.00  0.00    -0.058 C  
BRANCH  18  19
HETATM   19  C   UNL     1     -11.649   9.967  70.523  1.00  0.00    -0.403 A  
HETATM   20  C   UNL     1     -10.358   9.849  70.059  1.00  0.00    -0.272 A  
HETATM   21  N   UNL     1      -9.373   9.236  70.731  1.00  0.00    -0.259 NA 
HETATM   22  C   UNL     1      -9.700   8.715  71.923  1.00  0.00    -0.313 A  
HETATM   23  N   UNL     1     -10.958   8.652  72.391  1.00  0.00    -0.321 NA 
HETATM   24  C   UNL     1      -8.585   8.210  72.784  1.00  0.00    -0.269 C  
HETATM   25  C   UNL     1     -11.914   9.237  71.664  1.00  0.00    -0.378 A  
HETATM   26  N   UNL     1     -13.219   9.006  72.112  1.00  0.00    -0.412 NA 
HETATM   27  H1  UNL     1     -13.415   8.466  72.955  1.00  0.00     0.000 HD 
HETATM   28  H2  UNL     1     -13.740   8.582  71.344  1.00  0.00     0.000 HD 
ENDBRANCH  18  19
ENDBRANCH   6  18
TORSDOF 7
ENDMDL
MODEL       36
REMARK 921   NORMALIZED FREE ENERGY PREDICTED BY IDOCK:   -5.75 KCAL/MOL
REMARK 922        TOTAL FREE ENERGY PREDICTED BY IDOCK:   -9.09 KCAL/MOL
REMARK 923 INTER-LIGAND FREE ENERGY PREDICTED BY IDOCK:   -8.22 KCAL/MOL
REMARK 924 INTRA-LIGAND FREE ENERGY PREDICTED BY IDOCK:   -0.87 KCAL/MOL
REMARK 927      BINDING AFFINITY PREDICTED BY RF-SCORE:    0.00 PKD
ROOT
HETATM    1  C   UNL     1     -11.301  11.770  64.279  1.00  0.00    -0.400 C  
HETATM    2  C   UNL     1     -10.406  12.350  65.314  1.00  0.00    -0.282 C  
HETATM    3  C   UNL     1     -10.171  13.701  65.566  1.00  0.00    -0.302 C  
HETATM    4  C   UNL     1      -8.903  12.156  67.038  1.00  0.00    -0.203 C  
HETATM    5  S   UNL     1      -8.930  13.816  66.776  1.00  0.00    -0.132 SA 
HETATM    6  N   UNL     1      -9.712  11.516  66.202  1.00  0.00    -0.215 NA 
ENDROOT
BRANCH   3   7
HETATM    7  C   UNL     1     -10.800  14.979  64.982  1.00  0.00    -0.439 C  
BRANCH   7   8
HETATM    8  C   UNL     1     -10.650  16.137  65.978  1.00  0.00    -0.295 C  
BRANCH   8   9
HETATM    9  O   UNL     1      -9.919  17.284  65.605  1.00  0.00    -0.553 OA 
BRANCH   9  10
HETATM   10  P   UNL     1      -9.714  18.374  66.874  1.00  0.00    -0.355 P  
HETATM   11  O   UNL     1     -10.622  17.307  67.889  1.00  0.00    -0.365 OA 
HETATM   12  O   UNL     1     -10.957  19.286  66.870  1.00  0.00    -0.427 OA 
BRANCH  10  13
HETATM   13  O   UNL     1      -8.807  19.441  65.860  1.00  0.00    -0.425 OA 
HETATM   14  O   UNL     1      -6.928  18.558  67.315  1.00  0.00    -0.201 OA 
HETATM   15  P   UNL     1      -7.220  19.299  66.053  1.00  0.00    -0.262 P  
HETATM   16  O   UNL     1      -6.609  18.958  64.721  1.00  0.00    -0.501 OA 
HETATM   17  O   UNL     1      -6.840  20.851  66.249  1.00  0.00    -0.221 OA 
ENDBRANCH  10  13
ENDBRANCH   9  10
ENDBRANCH   8   9
ENDBRANCH   7   8
ENDBRANCH   3   7
BRANCH   6  18
HETATM   18  C   UNL     1      -9.880  10.063  66.377  1.00  0.00    -0.224 C  
BRANCH  18  19
HETATM   19  C   UNL     1     -10.064   9.665  67.809  1.00  0.00    -0.232 A  
HETATM   20  C   UNL     1      -9.275   8.681  68.363  1.00  0.00    -0.138 A  
HETATM   21  N   UNL     1      -9.262   8.378  69.668  1.00  0.00    -0.159 NA 
HETATM   22  C   UNL     1     -10.080   9.092  70.455  1.00  0.00    -0.218 A  
HETATM   23  N   UNL     1     -10.988   9.966  69.989  1.00  0.00    -0.271 NA 
HETATM   24  C   UNL     1      -9.938   8.920  71.934  1.00  0.00    -0.384 C  
HETATM   25  C   UNL     1     -10.996  10.203  68.674  1.00  0.00    -0.230 A  
HETATM   26  N   UNL     1     -12.058  10.994  68.224  1.00  0.00    -0.788 NA 
HETATM   27  H1  UNL     1     -12.746  11.392  68.864  1.00  0.00     0.000 HD 
HETATM   28  H2  UNL     1     -12.563  10.461  67.516  1.00  0.00     0.000 HD 
ENDBRANCH  18  19
ENDBRANCH   6  18
TORSDOF 7
ENDMDL
MODEL       37
REMARK 921   NORMALIZED FREE ENERGY PREDICTED BY IDOCK:   -5.75 KCAL/MOL
REMARK 922        TOTAL FREE ENERGY PREDICTED BY IDOCK:   -9.08 KCAL/MOL
REMARK 923 INTER-LIGAND FREE ENERGY PREDICTED BY IDOCK:   -8.41 KCAL/MOL
REMARK 924 INTRA-LIGAND FREE ENERGY PREDICTED BY IDOCK:   -0.68 KCAL/MOL
REMARK 927      BINDING AFFINITY PREDICTED BY RF-SCORE:    0.00 PKD
ROOT
HETATM    1  C   UNL     1     -12.227  13.129  66.529  1.00  0.00    -0.358 C  
HETATM    2  C   UNL     1     -10.862  12.811  67.024  1.00  0.00    -0.257 C  
HETATM    3  C   UNL     1     -10.513  11.866  67.987  1.00  0.00    -0.208 C  
HETATM    4  C   UNL     1      -8.590  13.131  67.060  1.00  0.00    -0.162 C  
HETATM    5  S   UNL     1      -8.809  12.013  68.295  1.00  0.00    -0.161 SA 
HETATM    6  N   UNL     1      -9.742  13.464  66.491  1.00  0.00    -0.276 NA 
ENDROOT
BRANCH   3   7
HETATM    7  C   UNL     1     -11.343  10.809  68.738  1.00  0.00    -0.352 C  
BRANCH   7   8
HETATM    8  C   UNL     1     -12.141  11.477  69.867  1.00  0.00    -0.316 C  
BRANCH   8   9
HETATM    9  O   UNL     1     -12.028  10.984  71.183  1.00  0.00    -0.279 OA 
BRANCH   9  10
HETATM   10  P   UNL     1     -12.229   9.313  71.278  1.00  0.00    -0.330 P  
HETATM   11  O   UNL     1     -13.863   9.517  70.747  1.00  0.00    -0.087 OA 
HETATM   12  O   UNL     1     -12.812   9.023  72.676  1.00  0.00    -0.381 OA 
BRANCH  10  13
HETATM   13  O   UNL     1     -10.596   9.109  71.809  1.00  0.00    -0.352 OA 
HETATM   14  O   UNL     1     -10.597   7.498  69.850  1.00  0.00    -0.228 OA 
HETATM   15  P   UNL     1      -9.709   8.231  70.800  1.00  0.00    -0.182 P  
HETATM   16  O   UNL     1      -8.524   9.053  70.372  1.00  0.00    -0.143 OA 
HETATM   17  O   UNL     1      -9.077   7.186  71.848  1.00  0.00    -0.135 OA 
ENDBRANCH  10  13
ENDBRANCH   9  10
ENDBRANCH   8   9
ENDBRANCH   7   8
ENDBRANCH   3   7
BRANCH   6  18
HETATM   18  C   UNL     1      -9.703  14.355  65.319  1.00  0.00    -0.042 C  
BRANCH  18  19
HETATM   19  C   UNL     1     -10.097  15.763  65.643  1.00  0.00    -0.401 A  
HETATM   20  C   UNL     1      -9.714  16.332  66.837  1.00  0.00    -0.238 A  
HETATM   21  N   UNL     1      -9.882  17.628  67.138  1.00  0.00    -0.295 NA 
HETATM   22  C   UNL     1     -10.463  18.387  66.198  1.00  0.00    -0.395 A  
HETATM   23  N   UNL     1     -10.999  17.896  65.068  1.00  0.00    -0.649 NA 
HETATM   24  C   UNL     1     -10.477  19.867  66.418  1.00  0.00    -0.589 C  
HETATM   25  C   UNL     1     -10.848  16.590  64.832  1.00  0.00    -0.204 A  
HETATM   26  N   UNL     1     -11.558  16.104  63.729  1.00  0.00    -1.387 NA 
HETATM   27  H1  UNL     1     -12.112  16.716  63.130  1.00  0.00     0.000 HD 
HETATM   28  H2  UNL     1     -12.166  15.355  64.058  1.00  0.00     0.000 HD 
ENDBRANCH  18  19
ENDBRANCH   6  18
TORSDOF 7
ENDMDL
MODEL       38
REMARK 921   NORMALIZED FREE ENERGY PREDICTED BY IDOCK:   -5.72 KCAL/MOL
REMARK 922        TOTAL FREE ENERGY PREDICTED BY IDOCK:   -9.05 KCAL/MOL
REMARK 923 INTER-LIGAND FREE ENERGY PREDICTED BY IDOCK:   -8.08 KCAL/MOL
REMARK 924 INTRA-LIGAND FREE ENERGY PREDICTED BY IDOCK:   -0.98 KCAL/MOL
REMARK 927      BINDING AFFINITY PREDICTED BY RF-SCORE:    0.00 PKD
ROOT
HETATM    1  C   UNL     1     -12.532  14.789  70.791  1.00  0.00    -0.402 C  
HETATM    2  C   UNL     1     -12.151  13.653  69.912  1.00  0.00    -0.341 C  
HETATM    3  C   UNL     1     -12.241  12.293  70.205  1.00  0.00    -0.262 C  
HETATM    4  C   UNL     1     -11.316  12.790  67.956  1.00  0.00    -0.292 C  
HETATM    5  S   UNL     1     -11.524  11.410  68.892  1.00  0.00    -0.330 SA 
HETATM    6  N   UNL     1     -11.675  13.886  68.615  1.00  0.00    -0.339 NA 
ENDROOT
BRANCH   3   7
HETATM    7  C   UNL     1     -12.833  11.538  71.409  1.00  0.00    -0.489 C  
BRANCH   7   8
HETATM    8  C   UNL     1     -12.755  10.025  71.167  1.00  0.00    -0.387 C  
BRANCH   8   9
HETATM    9  O   UNL     1     -12.559   9.156  72.261  1.00  0.00    -0.376 OA 
BRANCH   9  10
HETATM   10  P   UNL     1     -11.420   7.953  71.947  1.00  0.00    -0.324 P  
HETATM   11  O   UNL     1     -12.709   6.803  71.872  1.00  0.00    -0.343 OA 
HETATM   12  O   UNL     1     -11.059   7.330  73.310  1.00  0.00    -0.331 OA 
BRANCH  10  13
HETATM   13  O   UNL     1     -10.131   9.104  72.022  1.00  0.00    -0.279 OA 
HETATM   14  O   UNL     1      -8.888   7.160  70.970  1.00  0.00    -0.143 OA 
HETATM   15  P   UNL     1      -8.811   8.625  71.245  1.00  0.00    -0.236 P  
HETATM   16  O   UNL     1      -8.475   9.656  70.202  1.00  0.00    -0.182 OA 
HETATM   17  O   UNL     1      -7.718   8.891  72.396  1.00  0.00    -0.360 OA 
ENDBRANCH  10  13
ENDBRANCH   9  10
ENDBRANCH   8   9
ENDBRANCH   7   8
ENDBRANCH   3   7
BRANCH   6  18
HETATM   18  C   UNL     1     -11.652  15.168  67.890  1.00  0.00    -0.311 C  
BRANCH  18  19
HETATM   19  C   UNL     1     -10.268  15.610  67.529  1.00  0.00    -0.263 A  
HETATM   20  C   UNL     1      -9.953  15.906  66.221  1.00  0.00    -0.298 A  
HETATM   21  N   UNL     1      -8.795  16.460  65.835  1.00  0.00    -0.456 NA 
HETATM   22  C   UNL     1      -7.909  16.726  66.807  1.00  0.00    -0.246 A  
HETATM   23  N   UNL     1      -8.065  16.342  68.085  1.00  0.00    -0.155 NA 
HETATM   24  C   UNL     1      -6.701  17.527  66.437  1.00  0.00    -0.297 C  
HETATM   25  C   UNL     1      -9.218  15.752  68.414  1.00  0.00    -0.192 A  
HETATM   26  N   UNL     1      -9.264  15.231  69.711  1.00  0.00    -0.443 NA 
HETATM   27  H1  UNL     1      -8.488  15.336  70.365  1.00  0.00     0.000 HD 
HETATM   28  H2  UNL     1      -9.477  14.237  69.638  1.00  0.00     0.000 HD 
ENDBRANCH  18  19
ENDBRANCH   6  18
TORSDOF 7
ENDMDL
MODEL       39
REMARK 921   NORMALIZED FREE ENERGY PREDICTED BY IDOCK:   -5.72 KCAL/MOL
REMARK 922        TOTAL FREE ENERGY PREDICTED BY IDOCK:   -9.05 KCAL/MOL
REMARK 923 INTER-LIGAND FREE ENERGY PREDICTED BY IDOCK:   -7.99 KCAL/MOL
REMARK 924 INTRA-LIGAND FREE ENERGY PREDICTED BY IDOCK:   -1.06 KCAL/MOL
REMARK 927      BINDING AFFINITY PREDICTED BY RF-SCORE:    0.00 PKD
ROOT
HETATM    1  C   UNL     1      -7.804   9.415  67.338  1.00  0.00    -0.102 C  
HETATM    2  C   UNL     1      -9.112  10.010  67.715  1.00  0.00    -0.131 C  
HETATM    3  C   UNL     1     -10.123  10.441  66.855  1.00  0.00    -0.219 C  
HETATM    4  C   UNL     1     -10.633  10.755  69.264  1.00  0.00    -0.229 C  
HETATM    5  S   UNL     1     -11.364  11.189  67.814  1.00  0.00    -0.271 SA 
HETATM    6  N   UNL     1      -9.465  10.157  69.063  1.00  0.00    -0.180 NA 
ENDROOT
BRANCH   3   7
HETATM    7  C   UNL     1     -10.279  10.350  65.327  1.00  0.00    -0.332 C  
BRANCH   7   8
HETATM    8  C   UNL     1      -9.983  11.714  64.689  1.00  0.00    -0.253 C  
BRANCH   8   9
HETATM    9  O   UNL     1     -10.929  12.294  63.819  1.00  0.00    -0.360 OA 
BRANCH   9  10
HETATM   10  P   UNL     1     -11.861  13.486  64.561  1.00  0.00    -0.447 P  
HETATM   11  O   UNL     1     -13.167  12.356  64.656  1.00  0.00    -0.822 OA 
HETATM   12  O   UNL     1     -12.657  14.180  63.438  1.00  0.00    -0.818 OA 
BRANCH  10  13
HETATM   13  O   UNL     1     -10.555  14.617  64.467  1.00  0.00    -0.318 OA 
HETATM   14  O   UNL     1     -11.395  15.150  66.799  1.00  0.00    -0.326 OA 
HETATM   15  P   UNL     1     -10.248  15.345  65.863  1.00  0.00    -0.405 P  
HETATM   16  O   UNL     1      -8.814  15.082  66.230  1.00  0.00    -0.255 OA 
HETATM   17  O   UNL     1     -10.229  16.875  65.362  1.00  0.00    -0.605 OA 
ENDBRANCH  10  13
ENDBRANCH   9  10
ENDBRANCH   8   9
ENDBRANCH   7   8
ENDBRANCH   3   7
BRANCH   6  18
HETATM   18  C   UNL     1      -8.752   9.620  70.235  1.00  0.00    -0.208 C  
BRANCH  18  19
HETATM   19  C   UNL     1      -9.483   8.493  70.898  1.00  0.00    -0.221 A  
HETATM   20  C   UNL     1     -10.040   8.667  72.145  1.00  0.00    -0.318 A  
HETATM   21  N   UNL     1     -10.844   7.773  72.738  1.00  0.00    -0.349 NA 
HETATM   22  C   UNL     1     -11.098   6.651  72.049  1.00  0.00    -0.255 A  
HETATM   23  N   UNL     1     -10.488   6.329  70.896  1.00  0.00    -0.215 NA 
HETATM   24  C   UNL     1     -12.148   5.732  72.589  1.00  0.00    -0.053 C  
HETATM   25  C   UNL     1      -9.659   7.232  70.365  1.00  0.00    -0.165 A  
HETATM   26  N   UNL     1      -8.933   6.786  69.257  1.00  0.00    -0.137 NA 
HETATM   27  H1  UNL     1      -9.063   5.853  68.863  1.00  0.00     0.000 HD 
HETATM   28  H2  UNL     1      -7.942   6.897  69.470  1.00  0.00     0.000 HD 
ENDBRANCH  18  19
ENDBRANCH   6  18
TORSDOF 7
ENDMDL
MODEL       40
REMARK 921   NORMALIZED FREE ENERGY PREDICTED BY IDOCK:   -5.70 KCAL/MOL
REMARK 922        TOTAL FREE ENERGY PREDICTED BY IDOCK:   -9.02 KCAL/MOL
REMARK 923 INTER-LIGAND FREE ENERGY PREDICTED BY IDOCK:   -7.35 KCAL/MOL
REMARK 924 INTRA-LIGAND FREE ENERGY PREDICTED BY IDOCK:   -1.67 KCAL/MOL
REMARK 927      BINDING AFFINITY PREDICTED BY RF-SCORE:    0.00 PKD
ROOT
HETATM    1  C   UNL     1     -12.117  12.819  65.938  1.00  0.00    -0.485 C  
HETATM    2  C   UNL     1     -10.812  12.807  66.650  1.00  0.00    -0.264 C  
HETATM    3  C   UNL     1      -9.692  12.035  66.345  1.00  0.00    -0.225 C  
HETATM    4  C   UNL     1      -9.403  13.513  68.317  1.00  0.00    -0.205 C  
HETATM    5  S   UNL     1      -8.501  12.301  67.582  1.00  0.00    -0.178 SA 
HETATM    6  N   UNL     1     -10.586  13.664  67.736  1.00  0.00    -0.240 NA 
ENDROOT
BRANCH   3   7
HETATM    7  C   UNL     1      -9.391  11.076  65.179  1.00  0.00    -0.249 C  
BRANCH   7   8
HETATM    8  C   UNL     1      -9.333   9.631  65.691  1.00  0.00    -0.237 C  
BRANCH   8   9
HETATM    9  O   UNL     1     -10.308   9.178  66.604  1.00  0.00    -0.259 OA 
BRANCH   9  10
HETATM   10  P   UNL     1      -9.901   7.709  67.324  1.00  0.00    -0.233 P  
HETATM   11  O   UNL     1      -9.163   7.226  65.836  1.00  0.00    -0.087 OA 
HETATM   12  O   UNL     1     -11.037   6.725  66.979  1.00  0.00    -0.403 OA 
BRANCH  10  13
HETATM   13  O   UNL     1     -10.640   8.191  68.812  1.00  0.00    -0.200 OA 
HETATM   14  O   UNL     1      -8.285   9.035  69.228  1.00  0.00    -0.112 OA 
HETATM   15  P   UNL     1      -9.694   9.122  69.714  1.00  0.00    -0.206 P  
HETATM   16  O   UNL     1     -10.411  10.418  69.973  1.00  0.00    -0.235 OA 
HETATM   17  O   UNL     1      -9.819   8.341  71.116  1.00  0.00    -0.165 OA 
ENDBRANCH  10  13
ENDBRANCH   9  10
ENDBRANCH   8   9
ENDBRANCH   7   8
ENDBRANCH   3   7
BRANCH   6  18
HETATM   18  C   UNL     1     -11.451  14.763  68.199  1.00  0.00    -0.323 C  
BRANCH  18  19
HETATM   19  C   UNL     1     -11.651  14.763  69.683  1.00  0.00    -0.342 A  
HETATM   20  C   UNL     1     -11.257  15.847  70.436  1.00  0.00    -0.378 A  
HETATM   21  N   UNL     1     -11.543  15.999  71.737  1.00  0.00    -0.464 NA 
HETATM   22  C   UNL     1     -12.253  15.016  72.310  1.00  0.00    -0.357 A  
HETATM   23  N   UNL     1     -12.554  13.858  71.699  1.00  0.00    -0.324 NA 
HETATM   24  C   UNL     1     -12.761  15.251  73.698  1.00  0.00    -0.703 C  
HETATM   25  C   UNL     1     -12.209  13.733  70.414  1.00  0.00    -0.363 A  
HETATM   26  N   UNL     1     -12.401  12.458  69.874  1.00  0.00    -0.118 NA 
HETATM   27  H1  UNL     1     -12.814  11.697  70.414  1.00  0.00     0.000 HD 
HETATM   28  H2  UNL     1     -11.502  12.134  69.517  1.00  0.00     0.000 HD 
ENDBRANCH  18  19
ENDBRANCH   6  18
TORSDOF 7
ENDMDL
MODEL       41
REMARK 921   NORMALIZED FREE ENERGY PREDICTED BY IDOCK:   -5.69 KCAL/MOL
REMARK 922        TOTAL FREE ENERGY PREDICTED BY IDOCK:   -9.01 KCAL/MOL
REMARK 923 INTER-LIGAND FREE ENERGY PREDICTED BY IDOCK:   -7.97 KCAL/MOL
REMARK 924 INTRA-LIGAND FREE ENERGY PREDICTED BY IDOCK:   -1.04 KCAL/MOL
REMARK 927      BINDING AFFINITY PREDICTED BY RF-SCORE:    0.00 PKD
ROOT
HETATM    1  C   UNL     1     -12.012  13.669  68.399  1.00  0.00    -0.391 C  
HETATM    2  C   UNL     1     -11.622  14.450  67.197  1.00  0.00    -0.386 C  
HETATM    3  C   UNL     1     -11.802  14.091  65.862  1.00  0.00    -0.383 C  
HETATM    4  C   UNL     1     -10.682  16.282  66.182  1.00  0.00    -0.197 C  
HETATM    5  S   UNL     1     -11.030  15.291  64.871  1.00  0.00    -0.402 SA 
HETATM    6  N   UNL     1     -11.035  15.716  67.330  1.00  0.00    -0.312 NA 
ENDROOT
BRANCH   3   7
HETATM    7  C   UNL     1     -12.522  12.898  65.207  1.00  0.00    -0.552 C  
BRANCH   7   8
HETATM    8  C   UNL     1     -11.952  12.648  63.804  1.00  0.00    -0.510 C  
BRANCH   8   9
HETATM    9  O   UNL     1     -11.499  11.359  63.458  1.00  0.00    -0.355 OA 
BRANCH   9  10
HETATM   10  P   UNL     1      -9.934  11.045  64.001  1.00  0.00    -0.392 P  
HETATM   11  O   UNL     1      -9.332  12.078  62.751  1.00  0.00    -0.195 OA 
HETATM   12  O   UNL     1      -9.409   9.865  63.159  1.00  0.00    -0.275 OA 
BRANCH  10  13
HETATM   13  O   UNL     1     -10.536  10.012  65.251  1.00  0.00    -0.139 OA 
HETATM   14  O   UNL     1      -8.422  10.840  66.382  1.00  0.00    -0.146 OA 
HETATM   15  P   UNL     1      -9.721  10.144  66.627  1.00  0.00    -0.211 P  
HETATM   16  O   UNL     1     -10.685  10.530  67.715  1.00  0.00    -0.229 OA 
HETATM   17  O   UNL     1      -9.439   8.586  66.916  1.00  0.00    -0.158 OA 
ENDBRANCH  10  13
ENDBRANCH   9  10
ENDBRANCH   8   9
ENDBRANCH   7   8
ENDBRANCH   3   7
BRANCH   6  18
HETATM   18  C   UNL     1     -10.892  16.507  68.565  1.00  0.00    -0.349 C  
BRANCH  18  19
HETATM   19  C   UNL     1      -9.654  17.350  68.579  1.00  0.00    -0.298 A  
HETATM   20  C   UNL     1      -9.750  18.723  68.533  1.00  0.00    -0.380 A  
HETATM   21  N   UNL     1      -8.711  19.553  68.703  1.00  0.00    -0.360 NA 
HETATM   22  C   UNL     1      -7.520  18.978  68.926  1.00  0.00    -0.329 A  
HETATM   23  N   UNL     1      -7.302  17.655  68.844  1.00  0.00    -0.258 NA 
HETATM   24  C   UNL     1      -6.387  19.871  69.322  1.00  0.00    -0.365 C  
HETATM   25  C   UNL     1      -8.361  16.870  68.627  1.00  0.00    -0.261 A  
HETATM   26  N   UNL     1      -8.059  15.525  68.392  1.00  0.00    -0.132 NA 
HETATM   27  H1  UNL     1      -7.103  15.170  68.428  1.00  0.00     0.000 HD 
HETATM   28  H2  UNL     1      -8.450  15.273  67.484  1.00  0.00     0.000 HD 
ENDBRANCH  18  19
ENDBRANCH   6  18
TORSDOF 7
ENDMDL
MODEL       42
REMARK 921   NORMALIZED FREE ENERGY PREDICTED BY IDOCK:   -5.68 KCAL/MOL
REMARK 922        TOTAL FREE ENERGY PREDICTED BY IDOCK:   -9.00 KCAL/MOL
REMARK 923 INTER-LIGAND FREE ENERGY PREDICTED BY IDOCK:   -8.32 KCAL/MOL
REMARK 924 INTRA-LIGAND FREE ENERGY PREDICTED BY IDOCK:   -0.67 KCAL/MOL
REMARK 927      BINDING AFFINITY PREDICTED BY RF-SCORE:    0.00 PKD
ROOT
HETATM    1  C   UNL     1      -9.477  14.999  66.058  1.00  0.00    -0.337 C  
HETATM    2  C   UNL     1     -10.265  14.971  67.317  1.00  0.00    -0.242 C  
HETATM    3  C   UNL     1      -9.865  15.426  68.573  1.00  0.00    -0.207 C  
HETATM    4  C   UNL     1     -12.150  14.459  68.521  1.00  0.00    -0.243 C  
HETATM    5  S   UNL     1     -11.108  15.016  69.716  1.00  0.00    -0.283 SA 
HETATM    6  N   UNL     1     -11.579  14.483  67.323  1.00  0.00    -0.371 NA 
ENDROOT
BRANCH   3   7
HETATM    7  C   UNL     1      -8.603  16.172  69.041  1.00  0.00    -0.251 C  
BRANCH   7   8
HETATM    8  C   UNL     1      -8.551  17.566  68.401  1.00  0.00    -0.275 C  
BRANCH   8   9
HETATM    9  O   UNL     1      -9.754  18.217  68.058  1.00  0.00    -0.288 OA 
BRANCH   9  10
HETATM   10  P   UNL     1      -9.651  19.059  66.601  1.00  0.00    -0.372 P  
HETATM   11  O   UNL     1     -11.163  19.812  66.972  1.00  0.00    -0.276 OA 
HETATM   12  O   UNL     1     -10.423  18.223  65.560  1.00  0.00    -0.616 OA 
BRANCH  10  13
HETATM   13  O   UNL     1      -8.139  18.306  66.229  1.00  0.00    -0.331 OA 
HETATM   14  O   UNL     1      -7.562  20.703  65.638  1.00  0.00     0.005 OA 
HETATM   15  P   UNL     1      -6.972  19.358  65.906  1.00  0.00    -0.285 P  
HETATM   16  O   UNL     1      -5.837  19.117  66.863  1.00  0.00    -0.157 OA 
HETATM   17  O   UNL     1      -6.431  18.733  64.524  1.00  0.00    -0.415 OA 
ENDBRANCH  10  13
ENDBRANCH   9  10
ENDBRANCH   8   9
ENDBRANCH   7   8
ENDBRANCH   3   7
BRANCH   6  18
HETATM   18  C   UNL     1     -12.403  14.125  66.156  1.00  0.00    -0.436 C  
BRANCH  18  19
HETATM   19  C   UNL     1     -11.818  13.007  65.349  1.00  0.00    -0.428 A  
HETATM   20  C   UNL     1     -11.691  13.131  63.983  1.00  0.00    -0.439 A  
HETATM   21  N   UNL     1     -11.036  12.254  63.209  1.00  0.00    -0.393 NA 
HETATM   22  C   UNL     1     -10.485  11.203  63.834  1.00  0.00    -0.381 A  
HETATM   23  N   UNL     1     -10.679  10.921  65.133  1.00  0.00    -0.197 NA 
HETATM   24  C   UNL     1      -9.578  10.322  63.033  1.00  0.00    -0.297 C  
HETATM   25  C   UNL     1     -11.378  11.801  65.856  1.00  0.00    -0.263 A  
HETATM   26  N   UNL     1     -11.685  11.385  67.155  1.00  0.00    -0.544 NA 
HETATM   27  H1  UNL     1     -11.359  10.493  67.529  1.00  0.00     0.000 HD 
HETATM   28  H2  UNL     1     -12.699  11.413  67.258  1.00  0.00     0.000 HD 
ENDBRANCH  18  19
ENDBRANCH   6  18
TORSDOF 7
ENDMDL
MODEL       43
REMARK 921   NORMALIZED FREE ENERGY PREDICTED BY IDOCK:   -5.68 KCAL/MOL
REMARK 922        TOTAL FREE ENERGY PREDICTED BY IDOCK:   -8.99 KCAL/MOL
REMARK 923 INTER-LIGAND FREE ENERGY PREDICTED BY IDOCK:   -8.15 KCAL/MOL
REMARK 924 INTRA-LIGAND FREE ENERGY PREDICTED BY IDOCK:   -0.84 KCAL/MOL
REMARK 927      BINDING AFFINITY PREDICTED BY RF-SCORE:    0.00 PKD
ROOT
HETATM    1  C   UNL     1      -9.696  12.855  67.454  1.00  0.00    -0.201 C  
HETATM    2  C   UNL     1     -10.225  12.523  66.106  1.00  0.00    -0.252 C  
HETATM    3  C   UNL     1      -9.835  11.467  65.283  1.00  0.00    -0.250 C  
HETATM    4  C   UNL     1     -11.597  12.918  64.309  1.00  0.00    -0.378 C  
HETATM    5  S   UNL     1     -10.662  11.633  63.764  1.00  0.00    -0.456 SA 
HETATM    6  N   UNL     1     -11.258  13.283  65.540  1.00  0.00    -0.286 NA 
ENDROOT
BRANCH   3   7
HETATM    7  C   UNL     1      -8.872  10.288  65.512  1.00  0.00    -0.191 C  
BRANCH   7   8
HETATM    8  C   UNL     1      -9.671   8.999  65.746  1.00  0.00    -0.184 C  
BRANCH   8   9
HETATM    9  O   UNL     1     -10.519   8.901  66.868  1.00  0.00    -0.271 OA 
BRANCH   9  10
HETATM   10  P   UNL     1     -10.072   7.664  67.923  1.00  0.00    -0.208 P  
HETATM   11  O   UNL     1      -9.173   6.940  66.635  1.00  0.00    -0.147 OA 
HETATM   12  O   UNL     1     -11.099   6.531  67.726  1.00  0.00    -0.313 OA 
BRANCH  10  13
HETATM   13  O   UNL     1     -10.972   8.388  69.211  1.00  0.00    -0.112 OA 
HETATM   14  O   UNL     1      -8.792   9.658  69.466  1.00  0.00    -0.160 OA 
HETATM   15  P   UNL     1     -10.229   9.649  69.869  1.00  0.00    -0.281 P  
HETATM   16  O   UNL     1     -11.136  10.844  69.761  1.00  0.00    -0.258 OA 
HETATM   17  O   UNL     1     -10.341   9.237  71.422  1.00  0.00    -0.321 OA 
ENDBRANCH  10  13
ENDBRANCH   9  10
ENDBRANCH   8   9
ENDBRANCH   7   8
ENDBRANCH   3   7
BRANCH   6  18
HETATM   18  C   UNL     1     -12.060  14.328  66.199  1.00  0.00    -0.406 C  
BRANCH  18  19
HETATM   19  C   UNL     1     -11.286  15.584  66.456  1.00  0.00    -0.104 A  
HETATM   20  C   UNL     1     -10.978  15.957  67.745  1.00  0.00    -0.315 A  
HETATM   21  N   UNL     1     -10.157  16.969  68.057  1.00  0.00    -0.290 NA 
HETATM   22  C   UNL     1      -9.623  17.642  67.026  1.00  0.00    -0.276 A  
HETATM   23  N   UNL     1      -9.975  17.447  65.744  1.00  0.00    -0.567 NA 
HETATM   24  C   UNL     1      -8.549  18.637  67.335  1.00  0.00    -0.281 C  
HETATM   25  C   UNL     1     -10.833  16.456  65.486  1.00  0.00    -0.215 A  
HETATM   26  N   UNL     1     -11.287  16.399  64.165  1.00  0.00    -1.422 NA 
HETATM   27  H1  UNL     1     -10.952  17.043  63.449  1.00  0.00     0.000 HD 
HETATM   28  H2  UNL     1     -12.305  16.458  64.184  1.00  0.00     0.000 HD 
ENDBRANCH  18  19
ENDBRANCH   6  18
TORSDOF 7
ENDMDL
MODEL       44
REMARK 921   NORMALIZED FREE ENERGY PREDICTED BY IDOCK:   -5.67 KCAL/MOL
REMARK 922        TOTAL FREE ENERGY PREDICTED BY IDOCK:   -8.98 KCAL/MOL
REMARK 923 INTER-LIGAND FREE ENERGY PREDICTED BY IDOCK:   -7.95 KCAL/MOL
REMARK 924 INTRA-LIGAND FREE ENERGY PREDICTED BY IDOCK:   -1.03 KCAL/MOL
REMARK 927      BINDING AFFINITY PREDICTED BY RF-SCORE:    0.00 PKD
ROOT
HETATM    1  C   UNL     1      -9.119  11.164  66.151  1.00  0.00    -0.214 C  
HETATM    2  C   UNL     1     -10.177  11.851  66.936  1.00  0.00    -0.208 C  
HETATM    3  C   UNL     1     -10.552  11.593  68.254  1.00  0.00    -0.205 C  
HETATM    4  C   UNL     1     -11.856  13.400  67.162  1.00  0.00    -0.382 C  
HETATM    5  S   UNL     1     -11.936  12.577  68.624  1.00  0.00    -0.130 SA 
HETATM    6  N   UNL     1     -10.902  12.913  66.377  1.00  0.00    -0.272 NA 
ENDROOT
BRANCH   3   7
HETATM    7  C   UNL     1      -9.967  10.652  69.323  1.00  0.00    -0.215 C  
BRANCH   7   8
HETATM    8  C   UNL     1     -10.900   9.452  69.531  1.00  0.00    -0.213 C  
BRANCH   8   9
HETATM    9  O   UNL     1     -10.348   8.174  69.755  1.00  0.00    -0.207 OA 
BRANCH   9  10
HETATM   10  P   UNL     1     -11.056   7.371  71.058  1.00  0.00    -0.270 P  
HETATM   11  O   UNL     1     -11.843   6.318  69.934  1.00  0.00    -0.340 OA 
HETATM   12  O   UNL     1     -12.434   8.027  71.276  1.00  0.00    -0.304 OA 
BRANCH  10  13
HETATM   13  O   UNL     1     -10.269   8.425  72.182  1.00  0.00    -0.263 OA 
HETATM   14  O   UNL     1      -8.591   6.524  72.154  1.00  0.00    -0.124 OA 
HETATM   15  P   UNL     1      -8.786   7.946  72.565  1.00  0.00    -0.205 P  
HETATM   16  O   UNL     1      -7.827   9.054  72.226  1.00  0.00    -0.353 OA 
HETATM   17  O   UNL     1      -8.892   8.023  74.169  1.00  0.00    -0.240 OA 
ENDBRANCH  10  13
ENDBRANCH   9  10
ENDBRANCH   8   9
ENDBRANCH   7   8
ENDBRANCH   3   7
BRANCH   6  18
HETATM   18  C   UNL     1     -10.636  13.600  65.102  1.00  0.00    -0.361 C  
BRANCH  18  19
HETATM   19  C   UNL     1     -10.429  15.074  65.265  1.00  0.00    -0.428 A  
HETATM   20  C   UNL     1     -11.237  15.966  64.594  1.00  0.00    -0.351 A  
HETATM   21  N   UNL     1     -11.229  17.289  64.804  1.00  0.00    -0.832 NA 
HETATM   22  C   UNL     1     -10.368  17.741  65.729  1.00  0.00    -0.186 A  
HETATM   23  N   UNL     1      -9.443  16.971  66.326  1.00  0.00    -0.345 NA 
HETATM   24  C   UNL     1     -10.479  19.177  66.132  1.00  0.00    -0.558 C  
HETATM   25  C   UNL     1      -9.460  15.664  66.051  1.00  0.00    -0.355 A  
HETATM   26  N   UNL     1      -8.383  14.938  66.571  1.00  0.00    -0.391 NA 
HETATM   27  H1  UNL     1      -7.667  15.374  67.152  1.00  0.00     0.000 HD 
HETATM   28  H2  UNL     1      -7.914  14.478  65.791  1.00  0.00     0.000 HD 
ENDBRANCH  18  19
ENDBRANCH   6  18
TORSDOF 7
ENDMDL
MODEL       45
REMARK 921   NORMALIZED FREE ENERGY PREDICTED BY IDOCK:   -5.64 KCAL/MOL
REMARK 922        TOTAL FREE ENERGY PREDICTED BY IDOCK:   -8.94 KCAL/MOL
REMARK 923 INTER-LIGAND FREE ENERGY PREDICTED BY IDOCK:   -8.15 KCAL/MOL
REMARK 924 INTRA-LIGAND FREE ENERGY PREDICTED BY IDOCK:   -0.79 KCAL/MOL
REMARK 927      BINDING AFFINITY PREDICTED BY RF-SCORE:    0.00 PKD
ROOT
HETATM    1  C   UNL     1      -9.847   8.552  69.343  1.00  0.00    -0.185 C  
HETATM    2  C   UNL     1     -11.033   8.794  70.206  1.00  0.00    -0.235 C  
HETATM    3  C   UNL     1     -11.611  10.024  70.520  1.00  0.00    -0.323 C  
HETATM    4  C   UNL     1     -12.730   8.075  71.573  1.00  0.00    -0.307 C  
HETATM    5  S   UNL     1     -12.872   9.746  71.682  1.00  0.00    -0.454 SA 
HETATM    6  N   UNL     1     -11.728   7.720  70.778  1.00  0.00    -0.264 NA 
ENDROOT
BRANCH   3   7
HETATM    7  C   UNL     1     -11.319  11.452  70.025  1.00  0.00    -0.260 C  
BRANCH   7   8
HETATM    8  C   UNL     1     -12.063  11.711  68.708  1.00  0.00    -0.159 C  
BRANCH   8   9
HETATM    9  O   UNL     1     -11.758  10.931  67.573  1.00  0.00    -0.543 OA 
BRANCH   9  10
HETATM   10  P   UNL     1     -10.865  11.773  66.418  1.00  0.00    -0.294 P  
HETATM   11  O   UNL     1      -9.419  11.152  67.137  1.00  0.00    -0.170 OA 
HETATM   12  O   UNL     1     -10.496  13.128  67.055  1.00  0.00    -0.246 OA 
BRANCH  10  13
HETATM   13  O   UNL     1     -12.310  12.394  65.699  1.00  0.00    -0.639 OA 
HETATM   14  O   UNL     1     -10.664  12.931  63.846  1.00  0.00    -0.406 OA 
HETATM   15  P   UNL     1     -12.119  12.822  64.165  1.00  0.00    -0.482 P  
HETATM   16  O   UNL     1     -13.102  12.048  63.330  1.00  0.00    -0.701 OA 
HETATM   17  O   UNL     1     -12.760  14.297  64.222  1.00  0.00    -0.660 OA 
ENDBRANCH  10  13
ENDBRANCH   9  10
ENDBRANCH   8   9
ENDBRANCH   7   8
ENDBRANCH   3   7
BRANCH   6  18
HETATM   18  C   UNL     1     -11.543   6.286  70.495  1.00  0.00    -0.287 C  
BRANCH  18  19
HETATM   19  C   UNL     1     -10.595   5.621  71.444  1.00  0.00    -0.317 A  
HETATM   20  C   UNL     1      -9.303   5.346  71.055  1.00  0.00    -0.150 A  
HETATM   21  N   UNL     1      -8.348   4.904  71.886  1.00  0.00    -0.117 NA 
HETATM   22  C   UNL     1      -8.707   4.728  73.166  1.00  0.00    -0.109 A  
HETATM   23  N   UNL     1      -9.972   4.829  73.608  1.00  0.00    -0.150 NA 
HETATM   24  C   UNL     1      -7.620   4.436  74.153  1.00  0.00    -0.081 C  
HETATM   25  C   UNL     1     -10.899   5.228  72.732  1.00  0.00    -0.261 A  
HETATM   26  N   UNL     1     -12.216   5.163  73.198  1.00  0.00    -0.350 NA 
HETATM   27  H1  UNL     1     -12.440   4.872  74.150  1.00  0.00     0.000 HD 
HETATM   28  H2  UNL     1     -12.741   4.566  72.559  1.00  0.00     0.000 HD 
ENDBRANCH  18  19
ENDBRANCH   6  18
TORSDOF 7
ENDMDL
MODEL       46
REMARK 921   NORMALIZED FREE ENERGY PREDICTED BY IDOCK:   -5.64 KCAL/MOL
REMARK 922        TOTAL FREE ENERGY PREDICTED BY IDOCK:   -8.94 KCAL/MOL
REMARK 923 INTER-LIGAND FREE ENERGY PREDICTED BY IDOCK:   -8.57 KCAL/MOL
REMARK 924 INTRA-LIGAND FREE ENERGY PREDICTED BY IDOCK:   -0.37 KCAL/MOL
REMARK 927      BINDING AFFINITY PREDICTED BY RF-SCORE:    0.00 PKD
ROOT
HETATM    1  C   UNL     1     -11.076  11.749  64.271  1.00  0.00    -0.420 C  
HETATM    2  C   UNL     1     -11.210  11.667  65.749  1.00  0.00    -0.230 C  
HETATM    3  C   UNL     1     -10.711  10.671  66.587  1.00  0.00    -0.181 C  
HETATM    4  C   UNL     1     -11.966  12.458  67.766  1.00  0.00    -0.186 C  
HETATM    5  S   UNL     1     -11.282  10.985  68.198  1.00  0.00    -0.320 SA 
HETATM    6  N   UNL     1     -11.865  12.681  66.462  1.00  0.00    -0.475 NA 
ENDROOT
BRANCH   3   7
HETATM    7  C   UNL     1      -9.809   9.454  66.313  1.00  0.00    -0.351 C  
BRANCH   7   8
HETATM    8  C   UNL     1     -10.269   8.260  67.161  1.00  0.00    -0.295 C  
BRANCH   8   9
HETATM    9  O   UNL     1      -9.351   7.628  68.025  1.00  0.00    -0.140 OA 
BRANCH   9  10
HETATM   10  P   UNL     1     -10.103   6.705  69.219  1.00  0.00    -0.187 P  
HETATM   11  O   UNL     1      -9.799   5.293  68.267  1.00  0.00    -0.140 OA 
HETATM   12  O   UNL     1     -11.579   6.566  68.797  1.00  0.00    -0.154 OA 
BRANCH  10  13
HETATM   13  O   UNL     1     -10.407   8.117  70.171  1.00  0.00    -0.206 OA 
HETATM   14  O   UNL     1     -10.845   6.337  71.923  1.00  0.00    -0.225 OA 
HETATM   15  P   UNL     1     -10.601   7.797  71.731  1.00  0.00    -0.236 P  
HETATM   16  O   UNL     1      -9.581   8.584  72.508  1.00  0.00    -0.282 OA 
HETATM   17  O   UNL     1     -11.970   8.601  71.994  1.00  0.00    -0.323 OA 
ENDBRANCH  10  13
ENDBRANCH   9  10
ENDBRANCH   8   9
ENDBRANCH   7   8
ENDBRANCH   3   7
BRANCH   6  18
HETATM   18  C   UNL     1     -12.323  13.982  65.943  1.00  0.00    -0.486 C  
BRANCH  18  19
HETATM   19  C   UNL     1     -11.320  15.076  66.143  1.00  0.00    -0.270 A  
HETATM   20  C   UNL     1     -10.747  15.273  67.380  1.00  0.00    -0.293 A  
HETATM   21  N   UNL     1      -9.730  16.116  67.608  1.00  0.00    -0.231 NA 
HETATM   22  C   UNL     1      -9.268  16.794  66.547  1.00  0.00    -0.268 A  
HETATM   23  N   UNL     1      -9.853  16.778  65.338  1.00  0.00    -0.508 NA 
HETATM   24  C   UNL     1      -8.008  17.582  66.728  1.00  0.00    -0.273 C  
HETATM   25  C   UNL     1     -10.893  15.957  65.170  1.00  0.00    -0.421 A  
HETATM   26  N   UNL     1     -11.562  16.095  63.949  1.00  0.00    -1.469 NA 
HETATM   27  H1  UNL     1     -11.246  16.746  63.230  1.00  0.00     0.000 HD 
HETATM   28  H2  UNL     1     -12.539  16.306  64.153  1.00  0.00     0.000 HD 
ENDBRANCH  18  19
ENDBRANCH   6  18
TORSDOF 7
ENDMDL
MODEL       47
REMARK 921   NORMALIZED FREE ENERGY PREDICTED BY IDOCK:   -5.64 KCAL/MOL
REMARK 922        TOTAL FREE ENERGY PREDICTED BY IDOCK:   -8.94 KCAL/MOL
REMARK 923 INTER-LIGAND FREE ENERGY PREDICTED BY IDOCK:   -7.66 KCAL/MOL
REMARK 924 INTRA-LIGAND FREE ENERGY PREDICTED BY IDOCK:   -1.27 KCAL/MOL
REMARK 927      BINDING AFFINITY PREDICTED BY RF-SCORE:    0.00 PKD
ROOT
HETATM    1  C   UNL     1     -12.073  14.170  66.525  1.00  0.00    -0.481 C  
HETATM    2  C   UNL     1     -10.742  14.162  67.187  1.00  0.00    -0.280 C  
HETATM    3  C   UNL     1      -9.720  13.230  67.015  1.00  0.00    -0.238 C  
HETATM    4  C   UNL     1      -9.190  15.033  68.636  1.00  0.00    -0.198 C  
HETATM    5  S   UNL     1      -8.449  13.610  68.138  1.00  0.00    -0.181 SA 
HETATM    6  N   UNL     1     -10.380  15.189  68.069  1.00  0.00    -0.237 NA 
ENDROOT
BRANCH   3   7
HETATM    7  C   UNL     1      -9.572  12.032  66.059  1.00  0.00    -0.247 C  
BRANCH   7   8
HETATM    8  C   UNL     1     -10.405  10.849  66.571  1.00  0.00    -0.247 C  
BRANCH   8   9
HETATM    9  O   UNL     1      -9.931  10.084  67.657  1.00  0.00    -0.163 OA 
BRANCH   9  10
HETATM   10  P   UNL     1     -11.037   9.988  68.925  1.00  0.00    -0.074 P  
HETATM   11  O   UNL     1     -12.145  10.923  67.981  1.00  0.00    -0.563 OA 
HETATM   12  O   UNL     1     -10.832  11.255  69.780  1.00  0.00    -0.169 OA 
BRANCH  10  13
HETATM   13  O   UNL     1      -9.930   9.054  69.870  1.00  0.00    -0.179 OA 
HETATM   14  O   UNL     1     -12.104   8.354  70.972  1.00  0.00    -0.279 OA 
HETATM   15  P   UNL     1     -10.657   8.007  70.844  1.00  0.00    -0.221 P  
HETATM   16  O   UNL     1     -10.154   6.627  70.520  1.00  0.00    -0.186 OA 
HETATM   17  O   UNL     1      -9.904   8.363  72.221  1.00  0.00    -0.259 OA 
ENDBRANCH  10  13
ENDBRANCH   9  10
ENDBRANCH   8   9
ENDBRANCH   7   8
ENDBRANCH   3   7
BRANCH   6  18
HETATM   18  C   UNL     1     -11.109  16.444  68.324  1.00  0.00    -0.337 C  
BRANCH  18  19
HETATM   19  C   UNL     1     -10.345  17.660  67.898  1.00  0.00    -0.371 A  
HETATM   20  C   UNL     1      -9.965  18.601  68.829  1.00  0.00    -0.383 A  
HETATM   21  N   UNL     1      -9.146  19.629  68.564  1.00  0.00    -0.340 NA 
HETATM   22  C   UNL     1      -8.690  19.718  67.306  1.00  0.00    -0.322 A  
HETATM   23  N   UNL     1      -9.118  18.938  66.299  1.00  0.00    -0.425 NA 
HETATM   24  C   UNL     1      -7.619  20.727  67.030  1.00  0.00    -0.298 C  
HETATM   25  C   UNL     1      -9.970  17.955  66.603  1.00  0.00    -0.355 A  
HETATM   26  N   UNL     1     -10.505  17.278  65.502  1.00  0.00    -0.629 NA 
HETATM   27  H1  UNL     1     -10.228  17.496  64.545  1.00  0.00     0.000 HD 
HETATM   28  H2  UNL     1     -11.521  17.353  65.556  1.00  0.00     0.000 HD 
ENDBRANCH  18  19
ENDBRANCH   6  18
TORSDOF 7
ENDMDL
MODEL       48
REMARK 921   NORMALIZED FREE ENERGY PREDICTED BY IDOCK:   -5.63 KCAL/MOL
REMARK 922        TOTAL FREE ENERGY PREDICTED BY IDOCK:   -8.93 KCAL/MOL
REMARK 923 INTER-LIGAND FREE ENERGY PREDICTED BY IDOCK:   -8.39 KCAL/MOL
REMARK 924 INTRA-LIGAND FREE ENERGY PREDICTED BY IDOCK:   -0.54 KCAL/MOL
REMARK 927      BINDING AFFINITY PREDICTED BY RF-SCORE:    0.00 PKD
ROOT
HETATM    1  C   UNL     1     -11.085  15.218  65.134  1.00  0.00    -0.412 C  
HETATM    2  C   UNL     1     -11.284  14.566  66.454  1.00  0.00    -0.341 C  
HETATM    3  C   UNL     1     -11.157  15.152  67.713  1.00  0.00    -0.313 C  
HETATM    4  C   UNL     1     -11.764  12.746  67.768  1.00  0.00    -0.359 C  
HETATM    5  S   UNL     1     -11.349  13.907  68.910  1.00  0.00    -0.302 SA 
HETATM    6  N   UNL     1     -11.678  13.223  66.532  1.00  0.00    -0.358 NA 
ENDROOT
BRANCH   3   7
HETATM    7  C   UNL     1     -10.902  16.607  68.147  1.00  0.00    -0.348 C  
BRANCH   7   8
HETATM    8  C   UNL     1      -9.445  16.991  67.855  1.00  0.00    -0.245 C  
BRANCH   8   9
HETATM    9  O   UNL     1      -9.044  18.338  67.978  1.00  0.00    -0.277 OA 
BRANCH   9  10
HETATM   10  P   UNL     1      -9.209  19.205  66.541  1.00  0.00    -0.342 P  
HETATM   11  O   UNL     1     -10.530  20.064  67.254  1.00  0.00    -0.414 OA 
HETATM   12  O   UNL     1     -10.261  18.458  65.699  1.00  0.00    -0.565 OA 
BRANCH  10  13
HETATM   13  O   UNL     1      -7.887  18.347  65.829  1.00  0.00    -0.510 OA 
HETATM   14  O   UNL     1      -6.828  20.642  66.029  1.00  0.00    -0.232 OA 
HETATM   15  P   UNL     1      -6.528  19.199  65.789  1.00  0.00    -0.274 P  
HETATM   16  O   UNL     1      -5.464  18.431  66.525  1.00  0.00    -0.135 OA 
HETATM   17  O   UNL     1      -6.134  18.991  64.242  1.00  0.00    -0.462 OA 
ENDBRANCH  10  13
ENDBRANCH   9  10
ENDBRANCH   8   9
ENDBRANCH   7   8
ENDBRANCH   3   7
BRANCH   6  18
HETATM   18  C   UNL     1     -12.114  12.356  65.424  1.00  0.00    -0.365 C  
BRANCH  18  19
HETATM   19  C   UNL     1     -10.981  11.616  64.781  1.00  0.00    -0.351 A  
HETATM   20  C   UNL     1     -10.646  11.868  63.469  1.00  0.00    -0.453 A  
HETATM   21  N   UNL     1      -9.554  11.375  62.867  1.00  0.00    -0.371 NA 
HETATM   22  C   UNL     1      -8.764  10.591  63.616  1.00  0.00    -0.181 A  
HETATM   23  N   UNL     1      -9.083  10.173  64.852  1.00  0.00    -0.195 NA 
HETATM   24  C   UNL     1      -7.440  10.196  63.040  1.00  0.00    -0.144 C  
HETATM   25  C   UNL     1     -10.205  10.654  65.394  1.00  0.00    -0.273 A  
HETATM   26  N   UNL     1     -10.570  10.068  66.610  1.00  0.00    -0.167 NA 
HETATM   27  H1  UNL     1      -9.996   9.357  67.063  1.00  0.00     0.000 HD 
HETATM   28  H2  UNL     1     -11.509   9.685  66.499  1.00  0.00     0.000 HD 
ENDBRANCH  18  19
ENDBRANCH   6  18
TORSDOF 7
ENDMDL
MODEL       49
REMARK 921   NORMALIZED FREE ENERGY PREDICTED BY IDOCK:   -5.62 KCAL/MOL
REMARK 922        TOTAL FREE ENERGY PREDICTED BY IDOCK:   -8.91 KCAL/MOL
REMARK 923 INTER-LIGAND FREE ENERGY PREDICTED BY IDOCK:   -7.49 KCAL/MOL
REMARK 924 INTRA-LIGAND FREE ENERGY PREDICTED BY IDOCK:   -1.42 KCAL/MOL
REMARK 927      BINDING AFFINITY PREDICTED BY RF-SCORE:    0.00 PKD
ROOT
HETATM    1  C   UNL     1      -8.500  12.268  67.076  1.00  0.00    -0.181 C  
HETATM    2  C   UNL     1      -9.878  12.487  66.566  1.00  0.00    -0.246 C  
HETATM    3  C   UNL     1     -10.593  11.671  65.690  1.00  0.00    -0.275 C  
HETATM    4  C   UNL     1     -11.819  13.704  66.416  1.00  0.00    -0.398 C  
HETATM    5  S   UNL     1     -12.088  12.470  65.308  1.00  0.00    -0.400 SA 
HETATM    6  N   UNL     1     -10.627  13.593  66.991  1.00  0.00    -0.272 NA 
ENDROOT
BRANCH   3   7
HETATM    7  C   UNL     1     -10.276  10.295  65.078  1.00  0.00    -0.277 C  
BRANCH   7   8
HETATM    8  C   UNL     1      -9.778   9.339  66.171  1.00  0.00    -0.279 C  
BRANCH   8   9
HETATM    9  O   UNL     1     -10.488   9.243  67.386  1.00  0.00    -0.249 OA 
BRANCH   9  10
HETATM   10  P   UNL     1      -9.606   8.481  68.604  1.00  0.00    -0.154 P  
HETATM   11  O   UNL     1      -8.171   8.735  67.672  1.00  0.00    -0.109 OA 
HETATM   12  O   UNL     1      -9.500   6.997  68.201  1.00  0.00    -0.126 OA 
BRANCH  10  13
HETATM   13  O   UNL     1     -11.041   8.228  69.535  1.00  0.00    -0.112 OA 
HETATM   14  O   UNL     1      -9.416   8.742  71.413  1.00  0.00    -0.210 OA 
HETATM   15  P   UNL     1     -10.866   8.616  71.082  1.00  0.00    -0.307 P  
HETATM   16  O   UNL     1     -11.898   9.654  71.431  1.00  0.00    -0.350 OA 
HETATM   17  O   UNL     1     -11.447   7.274  71.756  1.00  0.00    -0.254 OA 
ENDBRANCH  10  13
ENDBRANCH   9  10
ENDBRANCH   8   9
ENDBRANCH   7   8
ENDBRANCH   3   7
BRANCH   6  18
HETATM   18  C   UNL     1     -10.286  14.541  68.066  1.00  0.00    -0.229 C  
BRANCH  18  19
HETATM   19  C   UNL     1     -11.225  14.464  69.230  1.00  0.00    -0.308 A  
HETATM   20  C   UNL     1     -11.773  15.614  69.756  1.00  0.00    -0.357 A  
HETATM   21  N   UNL     1     -12.740  15.626  70.685  1.00  0.00    -0.446 NA 
HETATM   22  C   UNL     1     -13.174  14.430  71.109  1.00  0.00    -0.350 A  
HETATM   23  N   UNL     1     -12.603  13.264  70.765  1.00  0.00    -0.315 NA 
HETATM   24  C   UNL     1     -14.386  14.409  71.986  1.00  0.00    -0.636 C  
HETATM   25  C   UNL     1     -11.612  13.304  69.870  1.00  0.00    -0.190 A  
HETATM   26  N   UNL     1     -10.950  12.089  69.669  1.00  0.00    -0.459 NA 
HETATM   27  H1  UNL     1     -11.237  11.231  70.142  1.00  0.00     0.000 HD 
HETATM   28  H2  UNL     1      -9.961  12.238  69.868  1.00  0.00     0.000 HD 
ENDBRANCH  18  19
ENDBRANCH   6  18
TORSDOF 7
ENDMDL
MODEL       50
REMARK 921   NORMALIZED FREE ENERGY PREDICTED BY IDOCK:   -5.60 KCAL/MOL
REMARK 922        TOTAL FREE ENERGY PREDICTED BY IDOCK:   -8.88 KCAL/MOL
REMARK 923 INTER-LIGAND FREE ENERGY PREDICTED BY IDOCK:   -8.00 KCAL/MOL
REMARK 924 INTRA-LIGAND FREE ENERGY PREDICTED BY IDOCK:   -0.87 KCAL/MOL
REMARK 927      BINDING AFFINITY PREDICTED BY RF-SCORE:    0.00 PKD
ROOT
HETATM    1  C   UNL     1     -11.690  12.783  69.261  1.00  0.00    -0.376 C  
HETATM    2  C   UNL     1     -10.684  12.454  68.218  1.00  0.00    -0.230 C  
HETATM    3  C   UNL     1      -9.719  11.449  68.264  1.00  0.00    -0.202 C  
HETATM    4  C   UNL     1      -9.674  12.807  66.188  1.00  0.00    -0.246 C  
HETATM    5  S   UNL     1      -8.713  11.602  66.855  1.00  0.00    -0.189 SA 
HETATM    6  N   UNL     1     -10.657  13.160  67.008  1.00  0.00    -0.257 NA 
ENDROOT
BRANCH   3   7
HETATM    7  C   UNL     1      -9.449  10.329  69.285  1.00  0.00    -0.230 C  
BRANCH   7   8
HETATM    8  C   UNL     1     -10.495   9.216  69.130  1.00  0.00    -0.217 C  
BRANCH   8   9
HETATM    9  O   UNL     1     -11.361   8.922  70.202  1.00  0.00    -0.217 OA 
BRANCH   9  10
HETATM   10  P   UNL     1     -11.015   7.446  70.940  1.00  0.00    -0.265 P  
HETATM   11  O   UNL     1     -11.660   6.642  69.550  1.00  0.00    -0.297 OA 
HETATM   12  O   UNL     1     -12.299   7.015  71.676  1.00  0.00    -0.332 OA 
BRANCH  10  13
HETATM   13  O   UNL     1     -10.371   8.249  72.329  1.00  0.00    -0.263 OA 
HETATM   14  O   UNL     1      -8.675   6.375  72.112  1.00  0.00    -0.132 OA 
HETATM   15  P   UNL     1      -8.933   7.690  72.772  1.00  0.00    -0.203 P  
HETATM   16  O   UNL     1      -7.957   8.834  72.766  1.00  0.00    -0.385 OA 
HETATM   17  O   UNL     1      -9.216   7.450  74.338  1.00  0.00    -0.204 OA 
ENDBRANCH  10  13
ENDBRANCH   9  10
ENDBRANCH   8   9
ENDBRANCH   7   8
ENDBRANCH   3   7
BRANCH   6  18
HETATM   18  C   UNL     1     -11.651  14.132  66.520  1.00  0.00    -0.375 C  
BRANCH  18  19
HETATM   19  C   UNL     1     -11.180  15.550  66.622  1.00  0.00    -0.118 A  
HETATM   20  C   UNL     1     -11.031  16.144  67.855  1.00  0.00    -0.318 A  
HETATM   21  N   UNL     1     -10.466  17.344  68.046  1.00  0.00    -0.368 NA 
HETATM   22  C   UNL     1     -10.032  17.980  66.947  1.00  0.00    -0.340 A  
HETATM   23  N   UNL     1     -10.263  17.549  65.695  1.00  0.00    -0.621 NA 
HETATM   24  C   UNL     1      -9.216  19.218  67.144  1.00  0.00    -0.354 C  
HETATM   25  C   UNL     1     -10.871  16.368  65.554  1.00  0.00    -0.215 A  
HETATM   26  N   UNL     1     -11.229  16.043  64.241  1.00  0.00    -1.049 NA 
HETATM   27  H1  UNL     1     -11.001  16.648  63.452  1.00  0.00     0.000 HD 
HETATM   28  H2  UNL     1     -12.235  15.879  64.226  1.00  0.00     0.000 HD 
ENDBRANCH  18  19
ENDBRANCH   6  18
TORSDOF 7
ENDMDL
MODEL       51
REMARK 921   NORMALIZED FREE ENERGY PREDICTED BY IDOCK:   -5.58 KCAL/MOL
REMARK 922        TOTAL FREE ENERGY PREDICTED BY IDOCK:   -8.86 KCAL/MOL
REMARK 923 INTER-LIGAND FREE ENERGY PREDICTED BY IDOCK:   -8.01 KCAL/MOL
REMARK 924 INTRA-LIGAND FREE ENERGY PREDICTED BY IDOCK:   -0.85 KCAL/MOL
REMARK 927      BINDING AFFINITY PREDICTED BY RF-SCORE:    0.00 PKD
ROOT
HETATM    1  C   UNL     1      -8.977  13.526  65.968  1.00  0.00     0.363 C  
HETATM    2  C   UNL     1     -10.302  13.384  65.310  1.00  0.00    -0.319 C  
HETATM    3  C   UNL     1     -10.615  12.593  64.205  1.00  0.00    -0.384 C  
HETATM    4  C   UNL     1     -12.530  13.893  65.100  1.00  0.00    -0.453 C  
HETATM    5  S   UNL     1     -12.263  12.917  63.759  1.00  0.00    -0.469 SA 
HETATM    6  N   UNL     1     -11.423  14.058  65.814  1.00  0.00    -0.312 NA 
ENDROOT
BRANCH   3   7
HETATM    7  C   UNL     1      -9.787  11.570  63.407  1.00  0.00    -0.422 C  
BRANCH   7   8
HETATM    8  C   UNL     1      -9.398  10.393  64.311  1.00  0.00    -0.277 C  
BRANCH   8   9
HETATM    9  O   UNL     1     -10.280   9.979  65.331  1.00  0.00    -0.289 OA 
BRANCH   9  10
HETATM   10  P   UNL     1      -9.501   9.155  66.579  1.00  0.00    -0.249 P  
HETATM   11  O   UNL     1      -8.114   8.996  65.558  1.00  0.00    -0.102 OA 
HETATM   12  O   UNL     1      -9.748   7.654  66.331  1.00  0.00    -0.194 OA 
BRANCH  10  13
HETATM   13  O   UNL     1     -10.888   9.315  67.599  1.00  0.00    -0.250 OA 
HETATM   14  O   UNL     1      -9.594  11.365  68.340  1.00  0.00    -0.185 OA 
HETATM   15  P   UNL     1     -10.935  10.711  68.389  1.00  0.00    -0.286 P  
HETATM   16  O   UNL     1     -12.221  11.410  68.041  1.00  0.00    -0.607 OA 
HETATM   17  O   UNL     1     -11.202  10.161  69.878  1.00  0.00    -0.253 OA 
ENDBRANCH  10  13
ENDBRANCH   9  10
ENDBRANCH   8   9
ENDBRANCH   7   8
ENDBRANCH   3   7
BRANCH   6  18
HETATM   18  C   UNL     1     -11.520  14.802  67.081  1.00  0.00    -0.364 C  
BRANCH  18  19
HETATM   19  C   UNL     1     -10.965  16.190  66.988  1.00  0.00    -0.123 A  
HETATM   20  C   UNL     1     -10.649  16.729  65.760  1.00  0.00    -0.250 A  
HETATM   21  N   UNL     1     -10.303  18.010  65.570  1.00  0.00    -0.577 NA 
HETATM   22  C   UNL     1     -10.270  18.786  66.664  1.00  0.00    -0.408 A  
HETATM   23  N   UNL     1     -10.419  18.320  67.915  1.00  0.00    -0.394 NA 
HETATM   24  C   UNL     1     -10.091  20.258  66.459  1.00  0.00    -0.518 C  
HETATM   25  C   UNL     1     -10.718  17.026  68.058  1.00  0.00    -0.365 A  
HETATM   26  N   UNL     1     -10.704  16.561  69.376  1.00  0.00    -0.318 NA 
HETATM   27  H1  UNL     1     -10.521  17.179  70.167  1.00  0.00     0.000 HD 
HETATM   28  H2  UNL     1     -10.040  15.788  69.425  1.00  0.00     0.000 HD 
ENDBRANCH  18  19
ENDBRANCH   6  18
TORSDOF 7
ENDMDL
MODEL       52
REMARK 921   NORMALIZED FREE ENERGY PREDICTED BY IDOCK:   -5.58 KCAL/MOL
REMARK 922        TOTAL FREE ENERGY PREDICTED BY IDOCK:   -8.85 KCAL/MOL
REMARK 923 INTER-LIGAND FREE ENERGY PREDICTED BY IDOCK:   -8.20 KCAL/MOL
REMARK 924 INTRA-LIGAND FREE ENERGY PREDICTED BY IDOCK:   -0.65 KCAL/MOL
REMARK 927      BINDING AFFINITY PREDICTED BY RF-SCORE:    0.00 PKD
ROOT
HETATM    1  C   UNL     1      -9.706  10.628  64.837  1.00  0.00    -0.341 C  
HETATM    2  C   UNL     1     -10.505  11.253  65.923  1.00  0.00    -0.259 C  
HETATM    3  C   UNL     1     -10.605  10.829  67.248  1.00  0.00    -0.257 C  
HETATM    4  C   UNL     1     -11.956  12.843  66.719  1.00  0.00    -0.350 C  
HETATM    5  S   UNL     1     -11.786  11.825  68.045  1.00  0.00    -0.250 SA 
HETATM    6  N   UNL     1     -11.241  12.421  65.683  1.00  0.00    -0.309 NA 
ENDROOT
BRANCH   3   7
HETATM    7  C   UNL     1      -9.883   9.715  68.027  1.00  0.00    -0.175 C  
BRANCH   7   8
HETATM    8  C   UNL     1      -9.996   9.976  69.536  1.00  0.00    -0.228 C  
BRANCH   8   9
HETATM    9  O   UNL     1      -8.954   9.562  70.391  1.00  0.00    -0.237 OA 
BRANCH   9  10
HETATM   10  P   UNL     1      -9.487   8.563  71.640  1.00  0.00    -0.292 P  
HETATM   11  O   UNL     1      -7.904   8.644  72.332  1.00  0.00    -0.316 OA 
HETATM   12  O   UNL     1      -9.138   7.121  71.224  1.00  0.00    -0.150 OA 
BRANCH  10  13
HETATM   13  O   UNL     1     -11.071   8.483  70.949  1.00  0.00    -0.243 OA 
HETATM   14  O   UNL     1     -11.636   7.877  73.346  1.00  0.00    -0.147 OA 
HETATM   15  P   UNL     1     -12.230   8.304  72.044  1.00  0.00    -0.381 P  
HETATM   16  O   UNL     1     -13.199   9.446  71.900  1.00  0.00    -0.369 OA 
HETATM   17  O   UNL     1     -13.019   7.063  71.390  1.00  0.00    -0.382 OA 
ENDBRANCH  10  13
ENDBRANCH   9  10
ENDBRANCH   8   9
ENDBRANCH   7   8
ENDBRANCH   3   7
BRANCH   6  18
HETATM   18  C   UNL     1     -11.202  13.268  64.478  1.00  0.00    -0.362 C  
BRANCH  18  19
HETATM   19  C   UNL     1     -10.834  14.689  64.775  1.00  0.00    -0.402 A  
HETATM   20  C   UNL     1     -11.518  15.722  64.173  1.00  0.00    -0.072 A  
HETATM   21  N   UNL     1     -11.365  17.013  64.501  1.00  0.00    -0.986 NA 
HETATM   22  C   UNL     1     -10.483  17.280  65.476  1.00  0.00    -0.122 A  
HETATM   23  N   UNL     1      -9.667  16.360  66.017  1.00  0.00    -0.359 NA 
HETATM   24  C   UNL     1     -10.442  18.680  66.003  1.00  0.00    -0.456 C  
HETATM   25  C   UNL     1      -9.825  15.093  65.626  1.00  0.00    -0.343 A  
HETATM   26  N   UNL     1      -8.851  14.206  66.096  1.00  0.00    -0.413 NA 
HETATM   27  H1  UNL     1      -8.105  14.504  66.725  1.00  0.00     0.000 HD 
HETATM   28  H2  UNL     1      -8.417  13.764  65.286  1.00  0.00     0.000 HD 
ENDBRANCH  18  19
ENDBRANCH   6  18
TORSDOF 7
ENDMDL
MODEL       53
REMARK 921   NORMALIZED FREE ENERGY PREDICTED BY IDOCK:   -5.55 KCAL/MOL
REMARK 922        TOTAL FREE ENERGY PREDICTED BY IDOCK:   -8.81 KCAL/MOL
REMARK 923 INTER-LIGAND FREE ENERGY PREDICTED BY IDOCK:   -8.19 KCAL/MOL
REMARK 924 INTRA-LIGAND FREE ENERGY PREDICTED BY IDOCK:   -0.62 KCAL/MOL
REMARK 927      BINDING AFFINITY PREDICTED BY RF-SCORE:    0.00 PKD
ROOT
HETATM    1  C   UNL     1     -11.303  12.931  67.734  1.00  0.00    -0.343 C  
HETATM    2  C   UNL     1     -11.811  13.240  69.096  1.00  0.00    -0.329 C  
HETATM    3  C   UNL     1     -12.016  14.501  69.654  1.00  0.00    -0.328 C  
HETATM    4  C   UNL     1     -12.563  12.617  71.172  1.00  0.00    -0.258 C  
HETATM    5  S   UNL     1     -12.472  14.288  71.316  1.00  0.00    -0.382 SA 
HETATM    6  N   UNL     1     -12.183  12.208  69.968  1.00  0.00    -0.241 NA 
ENDROOT
BRANCH   3   7
HETATM    7  C   UNL     1     -11.909  15.917  69.059  1.00  0.00    -0.328 C  
BRANCH   7   8
HETATM    8  C   UNL     1     -10.496  16.146  68.504  1.00  0.00    -0.269 C  
BRANCH   8   9
HETATM    9  O   UNL     1     -10.245  15.931  67.133  1.00  0.00    -0.266 OA 
BRANCH   9  10
HETATM   10  P   UNL     1      -9.984  17.361  66.281  1.00  0.00    -0.237 P  
HETATM   11  O   UNL     1     -10.633  16.597  64.872  1.00  0.00    -0.694 OA 
HETATM   12  O   UNL     1      -8.601  17.223  65.612  1.00  0.00    -0.476 OA 
BRANCH  10  13
HETATM   13  O   UNL     1      -9.334  18.125  67.690  1.00  0.00    -0.257 OA 
HETATM   14  O   UNL     1      -9.880  20.187  66.317  1.00  0.00    -0.431 OA 
HETATM   15  P   UNL     1      -9.528  19.718  67.691  1.00  0.00    -0.388 P  
HETATM   16  O   UNL     1     -10.292  20.103  68.928  1.00  0.00    -0.382 OA 
HETATM   17  O   UNL     1      -8.019  20.165  68.031  1.00  0.00    -0.275 OA 
ENDBRANCH  10  13
ENDBRANCH   9  10
ENDBRANCH   8   9
ENDBRANCH   7   8
ENDBRANCH   3   7
BRANCH   6  18
HETATM   18  C   UNL     1     -12.309  10.775  69.651  1.00  0.00    -0.192 C  
BRANCH  18  19
HETATM   19  C   UNL     1     -11.164   9.959  70.168  1.00  0.00    -0.347 A  
HETATM   20  C   UNL     1     -10.021   9.812  69.413  1.00  0.00    -0.205 A  
HETATM   21  N   UNL     1      -8.896   9.240  69.862  1.00  0.00    -0.168 NA 
HETATM   22  C   UNL     1      -8.918   8.791  71.127  1.00  0.00    -0.222 A  
HETATM   23  N   UNL     1     -10.025   8.759  71.887  1.00  0.00    -0.317 NA 
HETATM   24  C   UNL     1      -7.621   8.338  71.721  1.00  0.00    -0.119 C  
HETATM   25  C   UNL     1     -11.136   9.299  71.380  1.00  0.00    -0.367 A  
HETATM   26  N   UNL     1     -12.291   9.097  72.143  1.00  0.00    -0.368 NA 
HETATM   27  H1  UNL     1     -12.270   8.610  73.039  1.00  0.00     0.000 HD 
HETATM   28  H2  UNL     1     -12.976   8.629  71.550  1.00  0.00     0.000 HD 
ENDBRANCH  18  19
ENDBRANCH   6  18
TORSDOF 7
ENDMDL
MODEL       54
REMARK 921   NORMALIZED FREE ENERGY PREDICTED BY IDOCK:   -5.54 KCAL/MOL
REMARK 922        TOTAL FREE ENERGY PREDICTED BY IDOCK:   -8.80 KCAL/MOL
REMARK 923 INTER-LIGAND FREE ENERGY PREDICTED BY IDOCK:   -8.06 KCAL/MOL
REMARK 924 INTRA-LIGAND FREE ENERGY PREDICTED BY IDOCK:   -0.74 KCAL/MOL
REMARK 927      BINDING AFFINITY PREDICTED BY RF-SCORE:    0.00 PKD
ROOT
HETATM    1  C   UNL     1     -12.479  15.136  70.194  1.00  0.00    -0.361 C  
HETATM    2  C   UNL     1     -12.165  13.910  69.414  1.00  0.00    -0.292 C  
HETATM    3  C   UNL     1     -12.246  12.588  69.851  1.00  0.00    -0.163 C  
HETATM    4  C   UNL     1     -11.464  12.839  67.509  1.00  0.00    -0.336 C  
HETATM    5  S   UNL     1     -11.621  11.565  68.593  1.00  0.00    -0.330 SA 
HETATM    6  N   UNL     1     -11.771  14.002  68.072  1.00  0.00    -0.340 NA 
ENDROOT
BRANCH   3   7
HETATM    7  C   UNL     1     -12.764  11.970  71.162  1.00  0.00    -0.365 C  
BRANCH   7   8
HETATM    8  C   UNL     1     -12.955  10.457  70.987  1.00  0.00    -0.399 C  
BRANCH   8   9
HETATM    9  O   UNL     1     -12.758   9.600  72.088  1.00  0.00    -0.378 OA 
BRANCH   9  10
HETATM   10  P   UNL     1     -11.724   8.313  71.743  1.00  0.00    -0.354 P  
HETATM   11  O   UNL     1     -13.109   7.287  71.599  1.00  0.00    -0.361 OA 
HETATM   12  O   UNL     1     -11.447   7.605  73.084  1.00  0.00    -0.314 OA 
BRANCH  10  13
HETATM   13  O   UNL     1     -10.339   9.339  71.887  1.00  0.00    -0.286 OA 
HETATM   14  O   UNL     1      -9.321   7.461  70.522  1.00  0.00    -0.158 OA 
HETATM   15  P   UNL     1      -9.105   8.867  70.977  1.00  0.00    -0.250 P  
HETATM   16  O   UNL     1      -8.734   9.997  70.056  1.00  0.00    -0.191 OA 
HETATM   17  O   UNL     1      -7.938   8.891  72.085  1.00  0.00    -0.364 OA 
ENDBRANCH  10  13
ENDBRANCH   9  10
ENDBRANCH   8   9
ENDBRANCH   7   8
ENDBRANCH   3   7
BRANCH   6  18
HETATM   18  C   UNL     1     -11.785  15.202  67.219  1.00  0.00    -0.157 C  
BRANCH  18  19
HETATM   19  C   UNL     1     -10.443  15.860  67.114  1.00  0.00    -0.313 A  
HETATM   20  C   UNL     1      -9.549  15.782  68.159  1.00  0.00    -0.199 A  
HETATM   21  N   UNL     1      -8.277  16.198  68.090  1.00  0.00    -0.155 NA 
HETATM   22  C   UNL     1      -7.884  16.721  66.919  1.00  0.00    -0.218 A  
HETATM   23  N   UNL     1      -8.719  16.972  65.896  1.00  0.00    -0.533 NA 
HETATM   24  C   UNL     1      -6.425  17.003  66.745  1.00  0.00    -0.258 C  
HETATM   25  C   UNL     1      -9.989  16.581  66.028  1.00  0.00    -0.337 A  
HETATM   26  N   UNL     1     -10.846  17.006  65.008  1.00  0.00    -0.653 NA 
HETATM   27  H1  UNL     1     -10.509  17.539  64.205  1.00  0.00     0.000 HD 
HETATM   28  H2  UNL     1     -11.601  17.538  65.440  1.00  0.00     0.000 HD 
ENDBRANCH  18  19
ENDBRANCH   6  18
TORSDOF 7
ENDMDL
MODEL       55
REMARK 921   NORMALIZED FREE ENERGY PREDICTED BY IDOCK:   -5.54 KCAL/MOL
REMARK 922        TOTAL FREE ENERGY PREDICTED BY IDOCK:   -8.80 KCAL/MOL
REMARK 923 INTER-LIGAND FREE ENERGY PREDICTED BY IDOCK:   -8.15 KCAL/MOL
REMARK 924 INTRA-LIGAND FREE ENERGY PREDICTED BY IDOCK:   -0.65 KCAL/MOL
REMARK 927      BINDING AFFINITY PREDICTED BY RF-SCORE:    0.00 PKD
ROOT
HETATM    1  C   UNL     1      -8.736  14.374  68.456  1.00  0.00    -0.180 C  
HETATM    2  C   UNL     1      -9.899  13.783  67.743  1.00  0.00    -0.234 C  
HETATM    3  C   UNL     1     -10.016  12.484  67.249  1.00  0.00    -0.211 C  
HETATM    4  C   UNL     1     -12.003  13.912  66.835  1.00  0.00    -0.433 C  
HETATM    5  S   UNL     1     -11.513  12.371  66.376  1.00  0.00    -0.384 SA 
HETATM    6  N   UNL     1     -11.063  14.536  67.534  1.00  0.00    -0.297 NA 
ENDROOT
BRANCH   3   7
HETATM    7  C   UNL     1      -9.095  11.256  67.363  1.00  0.00    -0.151 C  
BRANCH   7   8
HETATM    8  C   UNL     1      -8.991  10.815  68.830  1.00  0.00    -0.170 C  
BRANCH   8   9
HETATM    9  O   UNL     1     -10.168  10.589  69.573  1.00  0.00    -0.227 OA 
BRANCH   9  10
HETATM   10  P   UNL     1     -10.039   9.278  70.625  1.00  0.00    -0.302 P  
HETATM   11  O   UNL     1      -8.352   9.622  70.789  1.00  0.00    -0.264 OA 
HETATM   12  O   UNL     1      -9.620   8.069  69.765  1.00  0.00    -0.170 OA 
BRANCH  10  13
HETATM   13  O   UNL     1     -11.726   8.933  70.461  1.00  0.00    -0.228 OA 
HETATM   14  O   UNL     1     -11.354   8.062  72.813  1.00  0.00    -0.394 OA 
HETATM   15  P   UNL     1     -12.409   8.452  71.831  1.00  0.00    -0.391 P  
HETATM   16  O   UNL     1     -13.544   9.387  72.149  1.00  0.00    -0.425 OA 
HETATM   17  O   UNL     1     -13.155   7.128  71.301  1.00  0.00    -0.384 OA 
ENDBRANCH  10  13
ENDBRANCH   9  10
ENDBRANCH   8   9
ENDBRANCH   7   8
ENDBRANCH   3   7
BRANCH   6  18
HETATM   18  C   UNL     1     -11.384  15.857  68.101  1.00  0.00    -0.311 C  
BRANCH  18  19
HETATM   19  C   UNL     1     -10.484  16.943  67.596  1.00  0.00    -0.332 A  
HETATM   20  C   UNL     1     -10.014  17.910  68.458  1.00  0.00    -0.379 A  
HETATM   21  N   UNL     1      -9.083  18.817  68.130  1.00  0.00    -0.298 NA 
HETATM   22  C   UNL     1      -8.603  18.753  66.879  1.00  0.00    -0.284 A  
HETATM   23  N   UNL     1      -9.101  17.945  65.929  1.00  0.00    -0.500 NA 
HETATM   24  C   UNL     1      -7.423  19.612  66.549  1.00  0.00    -0.275 C  
HETATM   25  C   UNL     1     -10.061  17.089  66.291  1.00  0.00    -0.320 A  
HETATM   26  N   UNL     1     -10.653  16.387  65.235  1.00  0.00    -0.609 NA 
HETATM   27  H1  UNL     1     -10.340  16.495  64.270  1.00  0.00     0.000 HD 
HETATM   28  H2  UNL     1     -11.655  16.576  65.261  1.00  0.00     0.000 HD 
ENDBRANCH  18  19
ENDBRANCH   6  18
TORSDOF 7
ENDMDL
MODEL       56
REMARK 921   NORMALIZED FREE ENERGY PREDICTED BY IDOCK:   -5.54 KCAL/MOL
REMARK 922        TOTAL FREE ENERGY PREDICTED BY IDOCK:   -8.79 KCAL/MOL
REMARK 923 INTER-LIGAND FREE ENERGY PREDICTED BY IDOCK:   -7.88 KCAL/MOL
REMARK 924 INTRA-LIGAND FREE ENERGY PREDICTED BY IDOCK:   -0.91 KCAL/MOL
REMARK 927      BINDING AFFINITY PREDICTED BY RF-SCORE:    0.00 PKD
ROOT
HETATM    1  C   UNL     1     -11.726  15.617  69.161  1.00  0.00    -0.402 C  
HETATM    2  C   UNL     1     -11.238  15.745  67.764  1.00  0.00    -0.286 C  
HETATM    3  C   UNL     1     -11.334  14.797  66.746  1.00  0.00    -0.346 C  
HETATM    4  C   UNL     1     -10.190  16.895  66.076  1.00  0.00    -0.336 C  
HETATM    5  S   UNL     1     -10.470  15.399  65.364  1.00  0.00    -0.417 SA 
HETATM    6  N   UNL     1     -10.633  16.932  67.327  1.00  0.00    -0.304 NA 
ENDROOT
BRANCH   3   7
HETATM    7  C   UNL     1     -12.035  13.428  66.680  1.00  0.00    -0.452 C  
BRANCH   7   8
HETATM    8  C   UNL     1     -11.291  12.417  67.563  1.00  0.00    -0.315 C  
BRANCH   8   9
HETATM    9  O   UNL     1     -11.677  11.061  67.543  1.00  0.00    -0.565 OA 
BRANCH   9  10
HETATM   10  P   UNL     1     -10.384  10.006  67.780  1.00  0.00    -0.249 P  
HETATM   11  O   UNL     1      -9.578  10.752  66.443  1.00  0.00    -0.180 OA 
HETATM   12  O   UNL     1     -10.628   8.801  66.850  1.00  0.00    -0.276 OA 
BRANCH  10  13
HETATM   13  O   UNL     1     -11.189   9.261  69.117  1.00  0.00    -0.048 OA 
HETATM   14  O   UNL     1      -8.807   8.550  69.622  1.00  0.00    -0.134 OA 
HETATM   15  P   UNL     1     -10.178   8.655  70.206  1.00  0.00    -0.210 P  
HETATM   16  O   UNL     1     -10.474   9.293  71.536  1.00  0.00    -0.334 OA 
HETATM   17  O   UNL     1     -10.804   7.180  70.354  1.00  0.00    -0.232 OA 
ENDBRANCH  10  13
ENDBRANCH   9  10
ENDBRANCH   8   9
ENDBRANCH   7   8
ENDBRANCH   3   7
BRANCH   6  18
HETATM   18  C   UNL     1     -10.557  18.212  68.052  1.00  0.00    -0.341 C  
BRANCH  18  19
HETATM   19  C   UNL     1      -9.168  18.770  68.107  1.00  0.00    -0.348 A  
HETATM   20  C   UNL     1      -8.889  19.992  67.535  1.00  0.00    -0.345 A  
HETATM   21  N   UNL     1      -7.722  20.636  67.677  1.00  0.00    -0.266 NA 
HETATM   22  C   UNL     1      -6.791  20.025  68.424  1.00  0.00    -0.302 A  
HETATM   23  N   UNL     1      -6.917  18.774  68.898  1.00  0.00    -0.300 NA 
HETATM   24  C   UNL     1      -5.562  20.806  68.770  1.00  0.00    -0.387 C  
HETATM   25  C   UNL     1      -8.082  18.153  68.693  1.00  0.00    -0.288 A  
HETATM   26  N   UNL     1      -8.104  16.805  69.063  1.00  0.00    -0.219 NA 
HETATM   27  H1  UNL     1      -7.300  16.349  69.497  1.00  0.00     0.000 HD 
HETATM   28  H2  UNL     1      -8.363  16.261  68.240  1.00  0.00     0.000 HD 
ENDBRANCH  18  19
ENDBRANCH   6  18
TORSDOF 7
ENDMDL
MODEL       57
REMARK 921   NORMALIZED FREE ENERGY PREDICTED BY IDOCK:   -5.54 KCAL/MOL
REMARK 922        TOTAL FREE ENERGY PREDICTED BY IDOCK:   -8.79 KCAL/MOL
REMARK 923 INTER-LIGAND FREE ENERGY PREDICTED BY IDOCK:   -8.15 KCAL/MOL
REMARK 924 INTRA-LIGAND FREE ENERGY PREDICTED BY IDOCK:   -0.64 KCAL/MOL
REMARK 927      BINDING AFFINITY PREDICTED BY RF-SCORE:    0.00 PKD
ROOT
HETATM    1  C   UNL     1     -10.060  12.040  65.253  1.00  0.00    -0.289 C  
HETATM    2  C   UNL     1     -10.651  12.017  66.616  1.00  0.00    -0.232 C  
HETATM    3  C   UNL     1     -10.292  11.187  67.677  1.00  0.00    -0.192 C  
HETATM    4  C   UNL     1     -12.144  12.756  68.195  1.00  0.00    -0.108 C  
HETATM    5  S   UNL     1     -11.400  11.473  68.985  1.00  0.00    -0.305 SA 
HETATM    6  N   UNL     1     -11.662  12.921  66.969  1.00  0.00    -0.371 NA 
ENDROOT
BRANCH   3   7
HETATM    7  C   UNL     1      -9.159  10.157  67.838  1.00  0.00    -0.133 C  
BRANCH   7   8
HETATM    8  C   UNL     1      -9.424   9.275  69.066  1.00  0.00    -0.155 C  
BRANCH   8   9
HETATM    9  O   UNL     1      -8.750   9.546  70.275  1.00  0.00    -0.207 OA 
BRANCH   9  10
HETATM   10  P   UNL     1      -9.319   8.622  71.565  1.00  0.00    -0.274 P  
HETATM   11  O   UNL     1      -7.774   8.798  72.324  1.00  0.00    -0.332 OA 
HETATM   12  O   UNL     1      -8.911   7.165  71.270  1.00  0.00    -0.129 OA 
BRANCH  10  13
HETATM   13  O   UNL     1     -10.863   8.446  70.807  1.00  0.00    -0.215 OA 
HETATM   14  O   UNL     1     -11.556   8.148  73.227  1.00  0.00    -0.168 OA 
HETATM   15  P   UNL     1     -12.079   8.402  71.852  1.00  0.00    -0.395 P  
HETATM   16  O   UNL     1     -13.037   9.512  71.514  1.00  0.00    -0.348 OA 
HETATM   17  O   UNL     1     -12.835   7.084  71.321  1.00  0.00    -0.377 OA 
ENDBRANCH  10  13
ENDBRANCH   9  10
ENDBRANCH   8   9
ENDBRANCH   7   8
ENDBRANCH   3   7
BRANCH   6  18
HETATM   18  C   UNL     1     -12.139  14.075  66.187  1.00  0.00    -0.446 C  
BRANCH  18  19
HETATM   19  C   UNL     1     -11.265  15.282  66.337  1.00  0.00    -0.224 A  
HETATM   20  C   UNL     1     -10.810  15.658  67.581  1.00  0.00    -0.307 A  
HETATM   21  N   UNL     1      -9.900  16.621  67.787  1.00  0.00    -0.247 NA 
HETATM   22  C   UNL     1      -9.427  17.237  66.694  1.00  0.00    -0.265 A  
HETATM   23  N   UNL     1      -9.915  17.042  65.457  1.00  0.00    -0.572 NA 
HETATM   24  C   UNL     1      -8.267  18.166  66.873  1.00  0.00    -0.258 C  
HETATM   25  C   UNL     1     -10.854  16.104  65.307  1.00  0.00    -0.336 A  
HETATM   26  N   UNL     1     -11.438  16.053  64.037  1.00  0.00    -1.266 NA 
HETATM   27  H1  UNL     1     -11.134  16.661  63.276  1.00  0.00     0.000 HD 
HETATM   28  H2  UNL     1     -12.443  16.179  64.153  1.00  0.00     0.000 HD 
ENDBRANCH  18  19
ENDBRANCH   6  18
TORSDOF 7
ENDMDL
MODEL       58
REMARK 921   NORMALIZED FREE ENERGY PREDICTED BY IDOCK:   -5.53 KCAL/MOL
REMARK 922        TOTAL FREE ENERGY PREDICTED BY IDOCK:   -8.79 KCAL/MOL
REMARK 923 INTER-LIGAND FREE ENERGY PREDICTED BY IDOCK:   -7.75 KCAL/MOL
REMARK 924 INTRA-LIGAND FREE ENERGY PREDICTED BY IDOCK:   -1.03 KCAL/MOL
REMARK 927      BINDING AFFINITY PREDICTED BY RF-SCORE:    0.00 PKD
ROOT
HETATM    1  C   UNL     1     -12.034  12.479  66.198  1.00  0.00    -0.432 C  
HETATM    2  C   UNL     1     -10.731  12.272  66.883  1.00  0.00    -0.232 C  
HETATM    3  C   UNL     1      -9.883  11.172  66.766  1.00  0.00    -0.200 C  
HETATM    4  C   UNL     1      -9.067  12.925  68.322  1.00  0.00    -0.180 C  
HETATM    5  S   UNL     1      -8.577  11.375  67.894  1.00  0.00    -0.147 SA 
HETATM    6  N   UNL     1     -10.207  13.258  67.729  1.00  0.00    -0.224 NA 
ENDROOT
BRANCH   3   7
HETATM    7  C   UNL     1      -9.933   9.926  65.862  1.00  0.00    -0.347 C  
BRANCH   7   8
HETATM    8  C   UNL     1     -10.031   8.659  66.723  1.00  0.00    -0.273 C  
BRANCH   8   9
HETATM    9  O   UNL     1     -10.779   8.687  67.918  1.00  0.00    -0.194 OA 
BRANCH   9  10
HETATM   10  P   UNL     1     -10.308   7.498  69.016  1.00  0.00    -0.190 P  
HETATM   11  O   UNL     1      -9.087   7.000  67.896  1.00  0.00    -0.128 OA 
HETATM   12  O   UNL     1     -11.069   6.216  68.622  1.00  0.00    -0.339 OA 
BRANCH  10  13
HETATM   13  O   UNL     1     -11.529   7.995  70.135  1.00  0.00    -0.159 OA 
HETATM   14  O   UNL     1      -9.496   9.000  71.269  1.00  0.00    -0.247 OA 
HETATM   15  P   UNL     1     -10.989   9.020  71.245  1.00  0.00    -0.374 P  
HETATM   16  O   UNL     1     -11.808  10.279  71.168  1.00  0.00    -0.353 OA 
HETATM   17  O   UNL     1     -11.548   8.293  72.568  1.00  0.00    -0.383 OA 
ENDBRANCH  10  13
ENDBRANCH   9  10
ENDBRANCH   8   9
ENDBRANCH   7   8
ENDBRANCH   3   7
BRANCH   6  18
HETATM   18  C   UNL     1     -10.712  14.629  67.920  1.00  0.00    -0.250 C  
BRANCH  18  19
HETATM   19  C   UNL     1     -11.377  14.827  69.248  1.00  0.00    -0.317 A  
HETATM   20  C   UNL     1     -12.184  13.842  69.772  1.00  0.00    -0.310 A  
HETATM   21  N   UNL     1     -12.684  13.866  71.015  1.00  0.00    -0.350 NA 
HETATM   22  C   UNL     1     -12.363  14.929  71.766  1.00  0.00    -0.343 A  
HETATM   23  N   UNL     1     -11.707  16.004  71.297  1.00  0.00    -0.446 NA 
HETATM   24  C   UNL     1     -12.732  14.887  73.216  1.00  0.00    -0.624 C  
HETATM   25  C   UNL     1     -11.266  15.954  70.037  1.00  0.00    -0.353 A  
HETATM   26  N   UNL     1     -10.734  17.152  69.551  1.00  0.00    -0.358 NA 
HETATM   27  H1  UNL     1     -10.653  17.985  70.135  1.00  0.00     0.000 HD 
HETATM   28  H2  UNL     1     -11.260  17.408  68.715  1.00  0.00     0.000 HD 
ENDBRANCH  18  19
ENDBRANCH   6  18
TORSDOF 7
ENDMDL
MODEL       59
REMARK 921   NORMALIZED FREE ENERGY PREDICTED BY IDOCK:   -5.53 KCAL/MOL
REMARK 922        TOTAL FREE ENERGY PREDICTED BY IDOCK:   -8.77 KCAL/MOL
REMARK 923 INTER-LIGAND FREE ENERGY PREDICTED BY IDOCK:   -7.86 KCAL/MOL
REMARK 924 INTRA-LIGAND FREE ENERGY PREDICTED BY IDOCK:   -0.92 KCAL/MOL
REMARK 927      BINDING AFFINITY PREDICTED BY RF-SCORE:    0.00 PKD
ROOT
HETATM    1  C   UNL     1     -12.677  10.734  70.616  1.00  0.00    -0.417 C  
HETATM    2  C   UNL     1     -11.400  10.696  69.856  1.00  0.00    -0.313 C  
HETATM    3  C   UNL     1     -11.069  11.440  68.724  1.00  0.00    -0.235 C  
HETATM    4  C   UNL     1      -9.285   9.889  69.479  1.00  0.00    -0.223 C  
HETATM    5  S   UNL     1      -9.520  10.895  68.155  1.00  0.00    -0.171 SA 
HETATM    6  N   UNL     1     -10.346   9.874  70.277  1.00  0.00    -0.280 NA 
ENDROOT
BRANCH   3   7
HETATM    7  C   UNL     1     -11.809  12.568  67.984  1.00  0.00    -0.382 C  
BRANCH   7   8
HETATM    8  C   UNL     1     -11.475  13.922  68.626  1.00  0.00    -0.298 C  
BRANCH   8   9
HETATM    9  O   UNL     1     -11.528  15.094  67.844  1.00  0.00    -0.325 OA 
BRANCH   9  10
HETATM   10  P   UNL     1     -10.318  16.200  68.235  1.00  0.00    -0.292 P  
HETATM   11  O   UNL     1      -9.609  15.004  69.264  1.00  0.00    -0.215 OA 
HETATM   12  O   UNL     1     -10.778  16.911  69.523  1.00  0.00    -0.326 OA 
BRANCH  10  13
HETATM   13  O   UNL     1     -11.027  17.396  67.206  1.00  0.00    -0.190 OA 
HETATM   14  O   UNL     1      -8.822  17.067  65.998  1.00  0.00    -0.477 OA 
HETATM   15  P   UNL     1     -10.192  17.646  65.860  1.00  0.00    -0.017 P  
HETATM   16  O   UNL     1     -11.095  17.388  64.685  1.00  0.00    -1.029 OA 
HETATM   17  O   UNL     1     -10.094  19.252  65.907  1.00  0.00    -0.431 OA 
ENDBRANCH  10  13
ENDBRANCH   9  10
ENDBRANCH   8   9
ENDBRANCH   7   8
ENDBRANCH   3   7
BRANCH   6  18
HETATM   18  C   UNL     1     -10.252   9.120  71.540  1.00  0.00    -0.333 C  
BRANCH  18  19
HETATM   19  C   UNL     1     -10.104   7.645  71.329  1.00  0.00    -0.203 A  
HETATM   20  C   UNL     1      -8.901   7.025  71.586  1.00  0.00    -0.130 A  
HETATM   21  N   UNL     1      -8.726   5.696  71.581  1.00  0.00    -0.135 NA 
HETATM   22  C   UNL     1      -9.808   4.954  71.301  1.00  0.00    -0.186 A  
HETATM   23  N   UNL     1     -10.981   5.468  70.896  1.00  0.00    -0.184 NA 
HETATM   24  C   UNL     1      -9.696   3.474  71.489  1.00  0.00    -0.237 C  
HETATM   25  C   UNL     1     -11.095   6.799  70.873  1.00  0.00    -0.277 A  
HETATM   26  N   UNL     1     -12.274   7.279  70.295  1.00  0.00    -0.548 NA 
HETATM   27  H1  UNL     1     -13.006   6.654  69.958  1.00  0.00     0.000 HD 
HETATM   28  H2  UNL     1     -12.013   7.896  69.525  1.00  0.00     0.000 HD 
ENDBRANCH  18  19
ENDBRANCH   6  18
TORSDOF 7
ENDMDL
MODEL       60
REMARK 921   NORMALIZED FREE ENERGY PREDICTED BY IDOCK:   -5.52 KCAL/MOL
REMARK 922        TOTAL FREE ENERGY PREDICTED BY IDOCK:   -8.76 KCAL/MOL
REMARK 923 INTER-LIGAND FREE ENERGY PREDICTED BY IDOCK:   -6.86 KCAL/MOL
REMARK 924 INTRA-LIGAND FREE ENERGY PREDICTED BY IDOCK:   -1.91 KCAL/MOL
REMARK 927      BINDING AFFINITY PREDICTED BY RF-SCORE:    0.00 PKD
ROOT
HETATM    1  C   UNL     1     -11.347  14.651  68.778  1.00  0.00    -0.302 C  
HETATM    2  C   UNL     1     -11.185  15.140  67.384  1.00  0.00    -0.323 C  
HETATM    3  C   UNL     1     -11.425  14.430  66.208  1.00  0.00    -0.359 C  
HETATM    4  C   UNL     1     -10.623  16.751  65.849  1.00  0.00    -0.248 C  
HETATM    5  S   UNL     1     -10.932  15.422  64.869  1.00  0.00    -0.401 SA 
HETATM    6  N   UNL     1     -10.785  16.460  67.134  1.00  0.00    -0.279 NA 
ENDROOT
BRANCH   3   7
HETATM    7  C   UNL     1     -12.013  13.030  65.954  1.00  0.00    -0.491 C  
BRANCH   7   8
HETATM    8  C   UNL     1     -10.904  11.973  66.047  1.00  0.00    -0.289 C  
BRANCH   8   9
HETATM    9  O   UNL     1      -9.559  12.384  66.143  1.00  0.00    -0.244 OA 
BRANCH   9  10
HETATM   10  P   UNL     1      -8.761  11.717  67.469  1.00  0.00    -0.171 P  
HETATM   11  O   UNL     1      -9.388  10.169  67.021  1.00  0.00    -0.151 OA 
HETATM   12  O   UNL     1      -9.779  11.698  68.626  1.00  0.00    -0.192 OA 
BRANCH  10  13
HETATM   13  O   UNL     1      -8.134  13.265  67.918  1.00  0.00    -0.132 OA 
HETATM   14  O   UNL     1      -6.245  11.797  68.757  1.00  0.00    -0.052 OA 
HETATM   15  P   UNL     1      -6.616  13.207  68.435  1.00  0.00    -0.122 P  
HETATM   16  O   UNL     1      -5.785  14.115  67.572  1.00  0.00    -0.345 OA 
HETATM   17  O   UNL     1      -6.774  14.038  69.805  1.00  0.00    -0.115 OA 
ENDBRANCH  10  13
ENDBRANCH   9  10
ENDBRANCH   8   9
ENDBRANCH   7   8
ENDBRANCH   3   7
BRANCH   6  18
HETATM   18  C   UNL     1     -10.655  17.552  68.114  1.00  0.00    -0.366 C  
BRANCH  18  19
HETATM   19  C   UNL     1      -9.398  18.347  67.939  1.00  0.00    -0.291 A  
HETATM   20  C   UNL     1      -9.460  19.664  67.540  1.00  0.00    -0.331 A  
HETATM   21  N   UNL     1      -8.405  20.490  67.514  1.00  0.00    -0.290 NA 
HETATM   22  C   UNL     1      -7.232  19.970  67.905  1.00  0.00    -0.290 A  
HETATM   23  N   UNL     1      -7.044  18.666  68.170  1.00  0.00    -0.243 NA 
HETATM   24  C   UNL     1      -6.084  20.914  68.084  1.00  0.00    -0.395 C  
HETATM   25  C   UNL     1      -8.118  17.871  68.138  1.00  0.00    -0.267 A  
HETATM   26  N   UNL     1      -7.843  16.506  68.263  1.00  0.00    -0.168 NA 
HETATM   27  H1  UNL     1      -6.897  16.154  68.410  1.00  0.00     0.000 HD 
HETATM   28  H2  UNL     1      -8.225  16.037  67.442  1.00  0.00     0.000 HD 
ENDBRANCH  18  19
ENDBRANCH   6  18
TORSDOF 7
ENDMDL
MODEL       61
REMARK 921   NORMALIZED FREE ENERGY PREDICTED BY IDOCK:   -5.52 KCAL/MOL
REMARK 922        TOTAL FREE ENERGY PREDICTED BY IDOCK:   -8.76 KCAL/MOL
REMARK 923 INTER-LIGAND FREE ENERGY PREDICTED BY IDOCK:   -7.68 KCAL/MOL
REMARK 924 INTRA-LIGAND FREE ENERGY PREDICTED BY IDOCK:   -1.08 KCAL/MOL
REMARK 927      BINDING AFFINITY PREDICTED BY RF-SCORE:    0.00 PKD
ROOT
HETATM    1  C   UNL     1     -11.896  12.145  66.039  1.00  0.00    -0.328 C  
HETATM    2  C   UNL     1     -11.846  12.947  67.290  1.00  0.00    -0.356 C  
HETATM    3  C   UNL     1     -11.865  12.469  68.600  1.00  0.00    -0.297 C  
HETATM    4  C   UNL     1     -11.754  14.942  68.420  1.00  0.00    -0.309 C  
HETATM    5  S   UNL     1     -11.939  13.835  69.671  1.00  0.00    -0.343 SA 
HETATM    6  N   UNL     1     -11.729  14.342  67.236  1.00  0.00    -0.389 NA 
ENDROOT
BRANCH   3   7
HETATM    7  C   UNL     1     -11.828  11.041  69.173  1.00  0.00    -0.407 C  
BRANCH   7   8
HETATM    8  C   UNL     1     -12.706  10.959  70.429  1.00  0.00    -0.248 C  
BRANCH   8   9
HETATM    9  O   UNL     1     -12.161  10.445  71.625  1.00  0.00    -0.355 OA 
BRANCH   9  10
HETATM   10  P   UNL     1     -12.165   8.760  71.677  1.00  0.00    -0.384 P  
HETATM   11  O   UNL     1     -13.801   8.784  71.116  1.00  0.00    -0.219 OA 
HETATM   12  O   UNL     1     -12.735   8.369  73.055  1.00  0.00    -0.172 OA 
BRANCH  10  13
HETATM   13  O   UNL     1     -10.530   8.737  72.239  1.00  0.00    -0.329 OA 
HETATM   14  O   UNL     1     -10.166   7.900  69.873  1.00  0.00    -0.201 OA 
HETATM   15  P   UNL     1      -9.466   8.447  71.073  1.00  0.00    -0.201 P  
HETATM   16  O   UNL     1      -8.491   9.592  71.024  1.00  0.00    -0.284 OA 
HETATM   17  O   UNL     1      -8.622   7.270  71.775  1.00  0.00    -0.115 OA 
ENDBRANCH  10  13
ENDBRANCH   9  10
ENDBRANCH   8   9
ENDBRANCH   7   8
ENDBRANCH   3   7
BRANCH   6  18
HETATM   18  C   UNL     1     -11.464  15.170  66.046  1.00  0.00    -0.157 C  
BRANCH  18  19
HETATM   19  C   UNL     1     -10.215  15.987  66.170  1.00  0.00    -0.340 A  
HETATM   20  C   UNL     1     -10.250  17.345  65.947  1.00  0.00    -0.256 A  
HETATM   21  N   UNL     1      -9.223  18.172  66.191  1.00  0.00    -0.509 NA 
HETATM   22  C   UNL     1      -8.108  17.608  66.679  1.00  0.00    -0.254 A  
HETATM   23  N   UNL     1      -7.929  16.281  66.791  1.00  0.00    -0.242 NA 
HETATM   24  C   UNL     1      -7.024  18.524  67.153  1.00  0.00    -0.213 C  
HETATM   25  C   UNL     1      -8.966  15.494  66.492  1.00  0.00    -0.312 A  
HETATM   26  N   UNL     1      -8.680  14.125  66.472  1.00  0.00    -0.459 NA 
HETATM   27  H1  UNL     1      -7.757  13.761  66.710  1.00  0.00     0.000 HD 
HETATM   28  H2  UNL     1      -8.924  13.771  65.547  1.00  0.00     0.000 HD 
ENDBRANCH  18  19
ENDBRANCH   6  18
TORSDOF 7
ENDMDL
MODEL       62
REMARK 921   NORMALIZED FREE ENERGY PREDICTED BY IDOCK:   -5.51 KCAL/MOL
REMARK 922        TOTAL FREE ENERGY PREDICTED BY IDOCK:   -8.75 KCAL/MOL
REMARK 923 INTER-LIGAND FREE ENERGY PREDICTED BY IDOCK:   -7.84 KCAL/MOL
REMARK 924 INTRA-LIGAND FREE ENERGY PREDICTED BY IDOCK:   -0.91 KCAL/MOL
REMARK 927      BINDING AFFINITY PREDICTED BY RF-SCORE:    0.00 PKD
ROOT
HETATM    1  C   UNL     1     -10.818  11.764  67.380  1.00  0.00    -0.299 C  
HETATM    2  C   UNL     1     -10.743  11.770  65.896  1.00  0.00    -0.282 C  
HETATM    3  C   UNL     1     -10.182  10.793  65.075  1.00  0.00    -0.306 C  
HETATM    4  C   UNL     1     -11.123  12.734  63.848  1.00  0.00    -0.431 C  
HETATM    5  S   UNL     1     -10.229  11.372  63.437  1.00  0.00    -0.418 SA 
HETATM    6  N   UNL     1     -11.309  12.820  65.159  1.00  0.00    -0.302 NA 
ENDROOT
BRANCH   3   7
HETATM    7  C   UNL     1      -9.588   9.407  65.386  1.00  0.00    -0.296 C  
BRANCH   7   8
HETATM    8  C   UNL     1      -8.230   9.565  66.083  1.00  0.00    -0.115 C  
BRANCH   8   9
HETATM    9  O   UNL     1      -8.165   9.537  67.492  1.00  0.00    -0.119 OA 
BRANCH   9  10
HETATM   10  P   UNL     1      -7.513   8.103  68.091  1.00  0.00    -0.100 P  
HETATM   11  O   UNL     1      -5.942   8.674  67.645  1.00  0.00    -0.046 OA 
HETATM   12  O   UNL     1      -7.407   7.138  66.893  1.00  0.00    -0.084 OA 
BRANCH  10  13
HETATM   13  O   UNL     1      -9.084   7.531  68.536  1.00  0.00    -0.135 OA 
HETATM   14  O   UNL     1      -8.524   8.864  70.619  1.00  0.00    -0.146 OA 
HETATM   15  P   UNL     1      -9.641   8.201  69.884  1.00  0.00    -0.176 P  
HETATM   16  O   UNL     1     -10.953   8.869  69.575  1.00  0.00    -0.195 OA 
HETATM   17  O   UNL     1     -10.079   6.870  70.676  1.00  0.00    -0.194 OA 
ENDBRANCH  10  13
ENDBRANCH   9  10
ENDBRANCH   8   9
ENDBRANCH   7   8
ENDBRANCH   3   7
BRANCH   6  18
HETATM   18  C   UNL     1     -12.167  13.905  65.667  1.00  0.00    -0.452 C  
BRANCH  18  19
HETATM   19  C   UNL     1     -11.393  15.119  66.076  1.00  0.00    -0.221 A  
HETATM   20  C   UNL     1     -11.009  15.288  67.388  1.00  0.00    -0.321 A  
HETATM   21  N   UNL     1     -10.182  16.255  67.809  1.00  0.00    -0.263 NA 
HETATM   22  C   UNL     1      -9.720  17.094  66.870  1.00  0.00    -0.268 A  
HETATM   23  N   UNL     1     -10.150  17.100  65.597  1.00  0.00    -0.590 NA 
HETATM   24  C   UNL     1      -8.641  18.050  67.271  1.00  0.00    -0.240 C  
HETATM   25  C   UNL     1     -11.010  16.144  65.235  1.00  0.00    -0.270 A  
HETATM   26  N   UNL     1     -11.546  16.290  63.951  1.00  0.00    -1.573 NA 
HETATM   27  H1  UNL     1     -11.263  17.048  63.329  1.00  0.00     0.000 HD 
HETATM   28  H2  UNL     1     -12.561  16.324  64.041  1.00  0.00     0.000 HD 
ENDBRANCH  18  19
ENDBRANCH   6  18
TORSDOF 7
ENDMDL
MODEL       63
REMARK 921   NORMALIZED FREE ENERGY PREDICTED BY IDOCK:   -5.49 KCAL/MOL
REMARK 922        TOTAL FREE ENERGY PREDICTED BY IDOCK:   -8.73 KCAL/MOL
REMARK 923 INTER-LIGAND FREE ENERGY PREDICTED BY IDOCK:   -6.93 KCAL/MOL
REMARK 924 INTRA-LIGAND FREE ENERGY PREDICTED BY IDOCK:   -1.80 KCAL/MOL
REMARK 927      BINDING AFFINITY PREDICTED BY RF-SCORE:    0.00 PKD
ROOT
HETATM    1  C   UNL     1     -11.653  12.037  66.477  1.00  0.00    -0.384 C  
HETATM    2  C   UNL     1     -10.293  12.295  67.018  1.00  0.00    -0.219 C  
HETATM    3  C   UNL     1      -9.502  11.421  67.762  1.00  0.00    -0.165 C  
HETATM    4  C   UNL     1      -8.462  13.637  67.353  1.00  0.00    -0.201 C  
HETATM    5  S   UNL     1      -8.076  12.279  68.264  1.00  0.00    -0.160 SA 
HETATM    6  N   UNL     1      -9.646  13.513  66.766  1.00  0.00    -0.260 NA 
ENDROOT
BRANCH   3   7
HETATM    7  C   UNL     1      -9.694   9.946  68.159  1.00  0.00    -0.161 C  
BRANCH   7   8
HETATM    8  C   UNL     1     -10.528   9.854  69.444  1.00  0.00    -0.231 C  
BRANCH   8   9
HETATM    9  O   UNL     1     -10.705  11.005  70.240  1.00  0.00     0.039 OA 
BRANCH   9  10
HETATM   10  P   UNL     1     -12.325  11.320  70.586  1.00  0.00    -0.322 P  
HETATM   11  O   UNL     1     -12.546   9.635  70.909  1.00  0.00    -0.288 OA 
HETATM   12  O   UNL     1     -13.105  11.082  69.277  1.00  0.00     0.167 OA 
BRANCH  10  13
HETATM   13  O   UNL     1     -12.105  13.004  70.264  1.00  0.00    -0.348 OA 
HETATM   14  O   UNL     1     -13.631  13.167  72.282  1.00  0.00    -0.542 OA 
HETATM   15  P   UNL     1     -12.705  13.951  71.411  1.00  0.00    -0.332 P  
HETATM   16  O   UNL     1     -11.597  14.822  71.937  1.00  0.00    -0.315 OA 
HETATM   17  O   UNL     1     -13.566  14.958  70.496  1.00  0.00    -0.153 OA 
ENDBRANCH  10  13
ENDBRANCH   9  10
ENDBRANCH   8   9
ENDBRANCH   7   8
ENDBRANCH   3   7
BRANCH   6  18
HETATM   18  C   UNL     1     -10.078  14.578  65.845  1.00  0.00    -0.326 C  
BRANCH  18  19
HETATM   19  C   UNL     1      -9.958  15.947  66.439  1.00  0.00    -0.304 A  
HETATM   20  C   UNL     1      -9.060  16.853  65.918  1.00  0.00    -0.056 A  
HETATM   21  N   UNL     1      -9.001  18.142  66.279  1.00  0.00    -0.458 NA 
HETATM   22  C   UNL     1      -9.881  18.541  67.209  1.00  0.00    -0.313 A  
HETATM   23  N   UNL     1     -10.692  17.704  67.878  1.00  0.00    -0.384 NA 
HETATM   24  C   UNL     1      -9.978  20.010  67.482  1.00  0.00    -0.565 C  
HETATM   25  C   UNL     1     -10.684  16.419  67.514  1.00  0.00    -0.298 A  
HETATM   26  N   UNL     1     -11.423  15.568  68.342  1.00  0.00    -0.353 NA 
HETATM   27  H1  UNL     1     -11.959  15.916  69.137  1.00  0.00     0.000 HD 
HETATM   28  H2  UNL     1     -10.790  14.845  68.687  1.00  0.00     0.000 HD 
ENDBRANCH  18  19
ENDBRANCH   6  18
TORSDOF 7
ENDMDL
MODEL       64
REMARK 921   NORMALIZED FREE ENERGY PREDICTED BY IDOCK:   -5.49 KCAL/MOL
REMARK 922        TOTAL FREE ENERGY PREDICTED BY IDOCK:   -8.73 KCAL/MOL
REMARK 923 INTER-LIGAND FREE ENERGY PREDICTED BY IDOCK:   -7.57 KCAL/MOL
REMARK 924 INTRA-LIGAND FREE ENERGY PREDICTED BY IDOCK:   -1.16 KCAL/MOL
REMARK 927      BINDING AFFINITY PREDICTED BY RF-SCORE:    0.00 PKD
ROOT
HETATM    1  C   UNL     1      -8.825  14.664  66.723  1.00  0.00    -0.269 C  
HETATM    2  C   UNL     1      -9.667  15.318  67.758  1.00  0.00    -0.215 C  
HETATM    3  C   UNL     1      -9.244  16.183  68.766  1.00  0.00    -0.224 C  
HETATM    4  C   UNL     1     -11.682  15.717  68.781  1.00  0.00    -0.378 C  
HETATM    5  S   UNL     1     -10.608  16.531  69.785  1.00  0.00    -0.204 SA 
HETATM    6  N   UNL     1     -11.055  15.125  67.772  1.00  0.00    -0.303 NA 
ENDROOT
BRANCH   3   7
HETATM    7  C   UNL     1      -7.874  16.815  69.070  1.00  0.00    -0.201 C  
BRANCH   7   8
HETATM    8  C   UNL     1      -7.896  18.307  68.713  1.00  0.00    -0.260 C  
BRANCH   8   9
HETATM    9  O   UNL     1      -7.082  18.783  67.664  1.00  0.00    -0.209 OA 
BRANCH   9  10
HETATM   10  P   UNL     1      -7.707  18.432  66.138  1.00  0.00    -0.115 P  
HETATM   11  O   UNL     1      -6.425  17.291  65.917  1.00  0.00    -0.127 OA 
HETATM   12  O   UNL     1      -6.956  19.337  65.142  1.00  0.00    -0.445 OA 
BRANCH  10  13
HETATM   13  O   UNL     1      -8.988  19.572  66.360  1.00  0.00    -0.342 OA 
HETATM   14  O   UNL     1     -10.327  17.617  65.457  1.00  0.00    -0.627 OA 
HETATM   15  P   UNL     1     -10.445  18.933  66.153  1.00  0.00    -0.286 P  
HETATM   16  O   UNL     1     -11.241  19.146  67.412  1.00  0.00    -0.313 OA 
HETATM   17  O   UNL     1     -11.064  20.016  65.135  1.00  0.00    -0.289 OA 
ENDBRANCH  10  13
ENDBRANCH   9  10
ENDBRANCH   8   9
ENDBRANCH   7   8
ENDBRANCH   3   7
BRANCH   6  18
HETATM   18  C   UNL     1     -11.873  14.460  66.743  1.00  0.00    -0.410 C  
BRANCH  18  19
HETATM   19  C   UNL     1     -11.507  13.021  66.546  1.00  0.00    -0.385 A  
HETATM   20  C   UNL     1     -11.224  12.545  65.285  1.00  0.00    -0.304 A  
HETATM   21  N   UNL     1     -10.734  11.322  65.039  1.00  0.00    -0.281 NA 
HETATM   22  C   UNL     1     -10.521  10.539  66.107  1.00  0.00    -0.168 A  
HETATM   23  N   UNL     1     -10.901  10.860  67.355  1.00  0.00    -0.261 NA 
HETATM   24  C   UNL     1      -9.787   9.254  65.885  1.00  0.00    -0.335 C  
HETATM   25  C   UNL     1     -11.428  12.073  67.545  1.00  0.00    -0.333 A  
HETATM   26  N   UNL     1     -11.950  12.295  68.823  1.00  0.00    -0.282 NA 
HETATM   27  H1  UNL     1     -11.891  11.594  69.562  1.00  0.00     0.000 HD 
HETATM   28  H2  UNL     1     -12.931  12.552  68.717  1.00  0.00     0.000 HD 
ENDBRANCH  18  19
ENDBRANCH   6  18
TORSDOF 7
ENDMDL
MODEL       65
REMARK 921   NORMALIZED FREE ENERGY PREDICTED BY IDOCK:   -5.46 KCAL/MOL
REMARK 922        TOTAL FREE ENERGY PREDICTED BY IDOCK:   -8.68 KCAL/MOL
REMARK 923 INTER-LIGAND FREE ENERGY PREDICTED BY IDOCK:   -7.72 KCAL/MOL
REMARK 924 INTRA-LIGAND FREE ENERGY PREDICTED BY IDOCK:   -0.96 KCAL/MOL
REMARK 927      BINDING AFFINITY PREDICTED BY RF-SCORE:    0.00 PKD
ROOT
HETATM    1  C   UNL     1      -9.242  13.205  66.623  1.00  0.00    -0.220 C  
HETATM    2  C   UNL     1     -10.202  12.800  65.564  1.00  0.00    -0.279 C  
HETATM    3  C   UNL     1     -10.045  11.779  64.627  1.00  0.00    -0.272 C  
HETATM    4  C   UNL     1     -12.182  13.024  64.425  1.00  0.00    -0.406 C  
HETATM    5  S   UNL     1     -11.395  11.836  63.534  1.00  0.00    -0.346 SA 
HETATM    6  N   UNL     1     -11.444  13.440  65.447  1.00  0.00    -0.299 NA 
ENDROOT
BRANCH   3   7
HETATM    7  C   UNL     1      -8.951  10.711  64.446  1.00  0.00    -0.212 C  
BRANCH   7   8
HETATM    8  C   UNL     1      -9.053   9.664  65.564  1.00  0.00    -0.204 C  
BRANCH   8   9
HETATM    9  O   UNL     1     -10.317   9.339  66.097  1.00  0.00    -0.229 OA 
BRANCH   9  10
HETATM   10  P   UNL     1     -10.325   9.285  67.782  1.00  0.00    -0.239 P  
HETATM   11  O   UNL     1     -11.575  10.481  67.778  1.00  0.00    -0.462 OA 
HETATM   12  O   UNL     1      -9.377  10.403  68.258  1.00  0.00    -0.142 OA 
BRANCH  10  13
HETATM   13  O   UNL     1      -9.075   8.089  67.787  1.00  0.00    -0.131 OA 
HETATM   14  O   UNL     1     -10.960   6.720  68.789  1.00  0.00    -0.239 OA 
HETATM   15  P   UNL     1      -9.605   6.624  68.169  1.00  0.00    -0.121 P  
HETATM   16  O   UNL     1      -9.264   5.687  67.043  1.00  0.00    -0.115 OA 
HETATM   17  O   UNL     1      -8.529   6.245  69.306  1.00  0.00    -0.122 OA 
ENDBRANCH  10  13
ENDBRANCH   9  10
ENDBRANCH   8   9
ENDBRANCH   7   8
ENDBRANCH   3   7
BRANCH   6  18
HETATM   18  C   UNL     1     -12.042  14.404  66.386  1.00  0.00    -0.369 C  
BRANCH  18  19
HETATM   19  C   UNL     1     -11.224  15.649  66.545  1.00  0.00    -0.048 A  
HETATM   20  C   UNL     1     -10.889  16.103  67.801  1.00  0.00    -0.318 A  
HETATM   21  N   UNL     1     -10.032  17.107  68.031  1.00  0.00    -0.282 NA 
HETATM   22  C   UNL     1      -9.488  17.686  66.950  1.00  0.00    -0.276 A  
HETATM   23  N   UNL     1      -9.861  17.411  65.689  1.00  0.00    -0.543 NA 
HETATM   24  C   UNL     1      -8.378  18.664  67.177  1.00  0.00    -0.271 C  
HETATM   25  C   UNL     1     -10.753  16.433  65.511  1.00  0.00    -0.287 A  
HETATM   26  N   UNL     1     -11.224  16.297  64.201  1.00  0.00    -1.283 NA 
HETATM   27  H1  UNL     1     -10.875  16.876  63.437  1.00  0.00     0.000 HD 
HETATM   28  H2  UNL     1     -12.239  16.391  64.225  1.00  0.00     0.000 HD 
ENDBRANCH  18  19
ENDBRANCH   6  18
TORSDOF 7
ENDMDL
MODEL       66
REMARK 921   NORMALIZED FREE ENERGY PREDICTED BY IDOCK:   -5.46 KCAL/MOL
REMARK 922        TOTAL FREE ENERGY PREDICTED BY IDOCK:   -8.68 KCAL/MOL
REMARK 923 INTER-LIGAND FREE ENERGY PREDICTED BY IDOCK:   -7.93 KCAL/MOL
REMARK 924 INTRA-LIGAND FREE ENERGY PREDICTED BY IDOCK:   -0.75 KCAL/MOL
REMARK 927      BINDING AFFINITY PREDICTED BY RF-SCORE:    0.00 PKD
ROOT
HETATM    1  C   UNL     1     -11.909  11.839  68.198  1.00  0.00    -0.324 C  
HETATM    2  C   UNL     1     -11.218  11.551  66.914  1.00  0.00    -0.298 C  
HETATM    3  C   UNL     1     -10.470  10.419  66.595  1.00  0.00    -0.215 C  
HETATM    4  C   UNL     1     -10.599  12.101  64.774  1.00  0.00    -0.296 C  
HETATM    5  S   UNL     1      -9.764  10.665  65.026  1.00  0.00    -0.307 SA 
HETATM    6  N   UNL     1     -11.309  12.448  65.841  1.00  0.00    -0.339 NA 
ENDROOT
BRANCH   3   7
HETATM    7  C   UNL     1     -10.210   9.109  67.360  1.00  0.00    -0.310 C  
BRANCH   7   8
HETATM    8  C   UNL     1      -9.374   9.394  68.615  1.00  0.00    -0.142 C  
BRANCH   8   9
HETATM    9  O   UNL     1      -8.963   8.321  69.434  1.00  0.00    -0.145 OA 
BRANCH   9  10
HETATM   10  P   UNL     1      -9.746   8.298  70.927  1.00  0.00    -0.187 P  
HETATM   11  O   UNL     1     -11.118   7.581  70.155  1.00  0.00    -0.260 OA 
HETATM   12  O   UNL     1     -10.576   9.595  71.004  1.00  0.00    -0.311 OA 
BRANCH  10  13
HETATM   13  O   UNL     1      -8.374   9.015  71.699  1.00  0.00    -0.334 OA 
HETATM   14  O   UNL     1      -7.738   6.569  71.915  1.00  0.00    -0.096 OA 
HETATM   15  P   UNL     1      -7.207   7.961  72.018  1.00  0.00    -0.089 P  
HETATM   16  O   UNL     1      -5.947   8.428  71.342  1.00  0.00    -0.035 OA 
HETATM   17  O   UNL     1      -6.950   8.316  73.567  1.00  0.00    -0.122 OA 
ENDBRANCH  10  13
ENDBRANCH   9  10
ENDBRANCH   8   9
ENDBRANCH   7   8
ENDBRANCH   3   7
BRANCH   6  18
HETATM   18  C   UNL     1     -12.182  13.630  65.737  1.00  0.00    -0.464 C  
BRANCH  18  19
HETATM   19  C   UNL     1     -11.445  14.919  65.931  1.00  0.00    -0.276 A  
HETATM   20  C   UNL     1     -10.875  15.215  67.150  1.00  0.00    -0.320 A  
HETATM   21  N   UNL     1     -10.066  16.262  67.364  1.00  0.00    -0.255 NA 
HETATM   22  C   UNL     1      -9.820  17.051  66.307  1.00  0.00    -0.294 A  
HETATM   23  N   UNL     1     -10.442  16.928  65.123  1.00  0.00    -0.674 NA 
HETATM   24  C   UNL     1      -8.764  18.101  66.461  1.00  0.00    -0.286 C  
HETATM   25  C   UNL     1     -11.275  15.895  64.970  1.00  0.00    -0.290 A  
HETATM   26  N   UNL     1     -12.014  15.904  63.782  1.00  0.00    -1.266 NA 
HETATM   27  H1  UNL     1     -11.888  16.626  63.072  1.00  0.00     0.000 HD 
HETATM   28  H2  UNL     1     -13.002  15.882  64.032  1.00  0.00     0.000 HD 
ENDBRANCH  18  19
ENDBRANCH   6  18
TORSDOF 7
ENDMDL
MODEL       67
REMARK 921   NORMALIZED FREE ENERGY PREDICTED BY IDOCK:   -5.46 KCAL/MOL
REMARK 922        TOTAL FREE ENERGY PREDICTED BY IDOCK:   -8.68 KCAL/MOL
REMARK 923 INTER-LIGAND FREE ENERGY PREDICTED BY IDOCK:   -7.67 KCAL/MOL
REMARK 924 INTRA-LIGAND FREE ENERGY PREDICTED BY IDOCK:   -1.00 KCAL/MOL
REMARK 927      BINDING AFFINITY PREDICTED BY RF-SCORE:    0.00 PKD
ROOT
HETATM    1  C   UNL     1     -11.688  15.605  69.063  1.00  0.00    -0.408 C  
HETATM    2  C   UNL     1     -11.257  15.725  67.646  1.00  0.00    -0.246 C  
HETATM    3  C   UNL     1     -11.376  14.763  66.643  1.00  0.00    -0.347 C  
HETATM    4  C   UNL     1     -10.298  16.874  65.906  1.00  0.00    -0.315 C  
HETATM    5  S   UNL     1     -10.578  15.365  65.222  1.00  0.00    -0.439 SA 
HETATM    6  N   UNL     1     -10.693  16.917  67.173  1.00  0.00    -0.238 NA 
ENDROOT
BRANCH   3   7
HETATM    7  C   UNL     1     -12.052  13.380  66.621  1.00  0.00    -0.429 C  
BRANCH   7   8
HETATM    8  C   UNL     1     -11.226  12.381  67.441  1.00  0.00    -0.297 C  
BRANCH   8   9
HETATM    9  O   UNL     1     -11.555  11.010  67.402  1.00  0.00    -0.525 OA 
BRANCH   9  10
HETATM   10  P   UNL     1     -10.201  10.007  67.446  1.00  0.00    -0.250 P  
HETATM   11  O   UNL     1     -10.902   9.180  68.793  1.00  0.00    -0.171 OA 
HETATM   12  O   UNL     1      -9.222  10.641  68.455  1.00  0.00    -0.146 OA 
BRANCH  10  13
HETATM   13  O   UNL     1      -9.499  10.835  66.098  1.00  0.00    -0.176 OA 
HETATM   14  O   UNL     1      -8.827   8.459  65.519  1.00  0.00    -0.172 OA 
HETATM   15  P   UNL     1      -8.943   9.842  64.967  1.00  0.00    -0.239 P  
HETATM   16  O   UNL     1      -9.628  10.170  63.669  1.00  0.00    -0.294 OA 
HETATM   17  O   UNL     1      -7.469  10.460  64.777  1.00  0.00    -0.130 OA 
ENDBRANCH  10  13
ENDBRANCH   9  10
ENDBRANCH   8   9
ENDBRANCH   7   8
ENDBRANCH   3   7
BRANCH   6  18
HETATM   18  C   UNL     1     -10.613  18.208  67.879  1.00  0.00    -0.371 C  
BRANCH  18  19
HETATM   19  C   UNL     1      -9.228  18.777  67.899  1.00  0.00    -0.324 A  
HETATM   20  C   UNL     1      -8.976  20.007  67.332  1.00  0.00    -0.347 A  
HETATM   21  N   UNL     1      -7.811  20.660  67.446  1.00  0.00    -0.323 NA 
HETATM   22  C   UNL     1      -6.853  20.050  68.159  1.00  0.00    -0.294 A  
HETATM   23  N   UNL     1      -6.954  18.793  68.624  1.00  0.00    -0.273 NA 
HETATM   24  C   UNL     1      -5.621  20.839  68.476  1.00  0.00    -0.369 C  
HETATM   25  C   UNL     1      -8.119  18.164  68.447  1.00  0.00    -0.303 A  
HETATM   26  N   UNL     1      -8.119  16.812  68.804  1.00  0.00    -0.247 NA 
HETATM   27  H1  UNL     1      -7.299  16.359  69.209  1.00  0.00     0.000 HD 
HETATM   28  H2  UNL     1      -8.397  16.275  67.984  1.00  0.00     0.000 HD 
ENDBRANCH  18  19
ENDBRANCH   6  18
TORSDOF 7
ENDMDL
MODEL       68
REMARK 921   NORMALIZED FREE ENERGY PREDICTED BY IDOCK:   -5.46 KCAL/MOL
REMARK 922        TOTAL FREE ENERGY PREDICTED BY IDOCK:   -8.68 KCAL/MOL
REMARK 923 INTER-LIGAND FREE ENERGY PREDICTED BY IDOCK:   -7.79 KCAL/MOL
REMARK 924 INTRA-LIGAND FREE ENERGY PREDICTED BY IDOCK:   -0.88 KCAL/MOL
REMARK 927      BINDING AFFINITY PREDICTED BY RF-SCORE:    0.00 PKD
ROOT
HETATM    1  C   UNL     1      -9.509   9.585  69.223  1.00  0.00    -0.171 C  
HETATM    2  C   UNL     1     -10.672  10.274  69.842  1.00  0.00    -0.294 C  
HETATM    3  C   UNL     1     -11.481   9.800  70.873  1.00  0.00    -0.369 C  
HETATM    4  C   UNL     1     -12.129  12.038  70.018  1.00  0.00    -0.280 C  
HETATM    5  S   UNL     1     -12.778  10.934  71.105  1.00  0.00    -0.431 SA 
HETATM    6  N   UNL     1     -11.040  11.561  69.427  1.00  0.00    -0.244 NA 
ENDROOT
BRANCH   3   7
HETATM    7  C   UNL     1     -11.393   8.540  71.753  1.00  0.00    -0.377 C  
BRANCH   7   8
HETATM    8  C   UNL     1     -12.220   7.408  71.128  1.00  0.00    -0.324 C  
BRANCH   8   9
HETATM    9  O   UNL     1     -11.634   6.579  70.148  1.00  0.00    -0.396 OA 
BRANCH   9  10
HETATM   10  P   UNL     1     -10.228   5.821  70.686  1.00  0.00    -0.249 P  
HETATM   11  O   UNL     1      -9.473   6.241  69.187  1.00  0.00    -0.133 OA 
HETATM   12  O   UNL     1     -10.282   4.375  70.153  1.00  0.00    -0.180 OA 
BRANCH  10  13
HETATM   13  O   UNL     1     -10.982   5.401  72.184  1.00  0.00    -0.238 OA 
HETATM   14  O   UNL     1      -8.552   5.261  72.893  1.00  0.00    -0.115 OA 
HETATM   15  P   UNL     1      -9.951   5.322  73.411  1.00  0.00    -0.190 P  
HETATM   16  O   UNL     1     -10.408   6.279  74.477  1.00  0.00    -0.316 OA 
HETATM   17  O   UNL     1     -10.359   3.882  74.004  1.00  0.00    -0.148 OA 
ENDBRANCH  10  13
ENDBRANCH   9  10
ENDBRANCH   8   9
ENDBRANCH   7   8
ENDBRANCH   3   7
BRANCH   6  18
HETATM   18  C   UNL     1     -10.294  12.455  68.524  1.00  0.00    -0.221 C  
BRANCH  18  19
HETATM   19  C   UNL     1     -10.853  12.482  67.135  1.00  0.00    -0.282 A  
HETATM   20  C   UNL     1     -10.362  11.627  66.173  1.00  0.00    -0.241 A  
HETATM   21  N   UNL     1     -10.909  11.471  64.960  1.00  0.00    -0.292 NA 
HETATM   22  C   UNL     1     -11.997  12.210  64.697  1.00  0.00    -0.323 A  
HETATM   23  N   UNL     1     -12.461  13.172  65.512  1.00  0.00    -0.470 NA 
HETATM   24  C   UNL     1     -12.747  11.909  63.437  1.00  0.00    -0.496 C  
HETATM   25  C   UNL     1     -11.855  13.322  66.693  1.00  0.00    -0.395 A  
HETATM   26  N   UNL     1     -12.271  14.434  67.432  1.00  0.00    -0.617 NA 
HETATM   27  H1  UNL     1     -13.012  15.055  67.105  1.00  0.00     0.000 HD 
HETATM   28  H2  UNL     1     -11.448  15.006  67.621  1.00  0.00     0.000 HD 
ENDBRANCH  18  19
ENDBRANCH   6  18
TORSDOF 7
ENDMDL
MODEL       69
REMARK 921   NORMALIZED FREE ENERGY PREDICTED BY IDOCK:   -5.42 KCAL/MOL
REMARK 922        TOTAL FREE ENERGY PREDICTED BY IDOCK:   -8.62 KCAL/MOL
REMARK 923 INTER-LIGAND FREE ENERGY PREDICTED BY IDOCK:   -7.84 KCAL/MOL
REMARK 924 INTRA-LIGAND FREE ENERGY PREDICTED BY IDOCK:   -0.79 KCAL/MOL
REMARK 927      BINDING AFFINITY PREDICTED BY RF-SCORE:    0.00 PKD
ROOT
HETATM    1  C   UNL     1     -12.072  10.584  70.569  1.00  0.00    -0.437 C  
HETATM    2  C   UNL     1     -11.227  10.024  69.482  1.00  0.00    -0.208 C  
HETATM    3  C   UNL     1     -10.701  10.705  68.385  1.00  0.00    -0.222 C  
HETATM    4  C   UNL     1     -10.136   8.290  68.448  1.00  0.00    -0.201 C  
HETATM    5  S   UNL     1      -9.921   9.545  67.353  1.00  0.00    -0.203 SA 
HETATM    6  N   UNL     1     -10.840   8.677  69.505  1.00  0.00    -0.181 NA 
ENDROOT
BRANCH   3   7
HETATM    7  C   UNL     1     -10.710  12.196  68.002  1.00  0.00    -0.242 C  
BRANCH   7   8
HETATM    8  C   UNL     1     -11.660  12.426  66.818  1.00  0.00    -0.379 C  
BRANCH   8   9
HETATM    9  O   UNL     1     -12.263  13.689  66.647  1.00  0.00    -0.415 OA 
BRANCH   9  10
HETATM   10  P   UNL     1     -11.692  14.510  65.289  1.00  0.00    -0.333 P  
HETATM   11  O   UNL     1     -12.835  13.638  64.327  1.00  0.00    -0.630 OA 
HETATM   12  O   UNL     1     -10.609  13.611  64.660  1.00  0.00    -0.398 OA 
BRANCH  10  13
HETATM   13  O   UNL     1     -10.549  15.381  66.251  1.00  0.00    -0.295 OA 
HETATM   14  O   UNL     1     -11.060  17.154  64.512  1.00  0.00    -1.105 OA 
HETATM   15  P   UNL     1     -10.436  16.931  65.849  1.00  0.00    -0.101 P  
HETATM   16  O   UNL     1     -10.744  17.760  67.066  1.00  0.00    -0.301 OA 
HETATM   17  O   UNL     1      -8.837  17.050  65.713  1.00  0.00    -0.523 OA 
ENDBRANCH  10  13
ENDBRANCH   9  10
ENDBRANCH   8   9
ENDBRANCH   7   8
ENDBRANCH   3   7
BRANCH   6  18
HETATM   18  C   UNL     1     -11.021   7.716  70.607  1.00  0.00    -0.249 C  
BRANCH  18  19
HETATM   19  C   UNL     1      -9.797   7.564  71.456  1.00  0.00    -0.185 A  
HETATM   20  C   UNL     1      -9.363   8.609  72.242  1.00  0.00    -0.252 A  
HETATM   21  N   UNL     1      -8.381   8.508  73.148  1.00  0.00    -0.400 NA 
HETATM   22  C   UNL     1      -7.803   7.304  73.269  1.00  0.00    -0.097 A  
HETATM   23  N   UNL     1      -8.056   6.269  72.451  1.00  0.00    -0.104 NA 
HETATM   24  C   UNL     1      -6.852   7.107  74.407  1.00  0.00    -0.091 C  
HETATM   25  C   UNL     1      -9.012   6.431  71.532  1.00  0.00    -0.144 A  
HETATM   26  N   UNL     1      -9.124   5.387  70.608  1.00  0.00    -0.141 NA 
HETATM   27  H1  UNL     1      -8.544   4.549  70.664  1.00  0.00     0.000 HD 
HETATM   28  H2  UNL     1      -9.007   5.784  69.676  1.00  0.00     0.000 HD 
ENDBRANCH  18  19
ENDBRANCH   6  18
TORSDOF 7
ENDMDL
MODEL       70
REMARK 921   NORMALIZED FREE ENERGY PREDICTED BY IDOCK:   -5.41 KCAL/MOL
REMARK 922        TOTAL FREE ENERGY PREDICTED BY IDOCK:   -8.61 KCAL/MOL
REMARK 923 INTER-LIGAND FREE ENERGY PREDICTED BY IDOCK:   -7.52 KCAL/MOL
REMARK 924 INTRA-LIGAND FREE ENERGY PREDICTED BY IDOCK:   -1.09 KCAL/MOL
REMARK 927      BINDING AFFINITY PREDICTED BY RF-SCORE:    0.00 PKD
ROOT
HETATM    1  C   UNL     1     -12.137  14.298  67.175  1.00  0.00    -0.412 C  
HETATM    2  C   UNL     1     -10.705  14.020  67.459  1.00  0.00    -0.268 C  
HETATM    3  C   UNL     1      -9.921  14.580  68.467  1.00  0.00    -0.238 C  
HETATM    4  C   UNL     1      -8.715  12.966  67.017  1.00  0.00    -0.195 C  
HETATM    5  S   UNL     1      -8.289  14.022  68.253  1.00  0.00    -0.167 SA 
HETATM    6  N   UNL     1      -9.999  13.077  66.699  1.00  0.00    -0.244 NA 
ENDROOT
BRANCH   3   7
HETATM    7  C   UNL     1     -10.266  15.526  69.631  1.00  0.00    -0.289 C  
BRANCH   7   8
HETATM    8  C   UNL     1     -10.257  16.981  69.143  1.00  0.00    -0.288 C  
BRANCH   8   9
HETATM    9  O   UNL     1      -9.031  17.595  68.814  1.00  0.00    -0.276 OA 
BRANCH   9  10
HETATM   10  P   UNL     1      -9.182  19.249  68.524  1.00  0.00    -0.388 P  
HETATM   11  O   UNL     1      -7.792  19.513  69.520  1.00  0.00    -0.162 OA 
HETATM   12  O   UNL     1     -10.016  19.821  69.688  1.00  0.00    -0.275 OA 
BRANCH  10  13
HETATM   13  O   UNL     1     -10.572  18.985  67.529  1.00  0.00    -0.428 OA 
HETATM   14  O   UNL     1      -8.885  19.579  65.732  1.00  0.00    -0.388 OA 
HETATM   15  P   UNL     1     -10.235  18.983  65.961  1.00  0.00    -0.229 P  
HETATM   16  O   UNL     1     -10.678  17.668  65.381  1.00  0.00    -0.618 OA 
HETATM   17  O   UNL     1     -11.361  20.014  65.450  1.00  0.00    -0.092 OA 
ENDBRANCH  10  13
ENDBRANCH   9  10
ENDBRANCH   8   9
ENDBRANCH   7   8
ENDBRANCH   3   7
BRANCH   6  18
HETATM   18  C   UNL     1     -10.550  12.140  65.705  1.00  0.00    -0.262 C  
BRANCH  18  19
HETATM   19  C   UNL     1     -10.384  10.705  66.101  1.00  0.00    -0.291 A  
HETATM   20  C   UNL     1      -9.654   9.848  65.308  1.00  0.00    -0.295 A  
HETATM   21  N   UNL     1      -9.321   8.599  65.664  1.00  0.00    -0.156 NA 
HETATM   22  C   UNL     1      -9.743   8.190  66.869  1.00  0.00    -0.226 A  
HETATM   23  N   UNL     1     -10.579   8.898  67.647  1.00  0.00    -0.251 NA 
HETATM   24  C   UNL     1      -9.216   6.885  67.379  1.00  0.00    -0.130 C  
HETATM   25  C   UNL     1     -10.921  10.120  67.230  1.00  0.00    -0.183 A  
HETATM   26  N   UNL     1     -11.913  10.747  67.991  1.00  0.00    -0.773 NA 
HETATM   27  H1  UNL     1     -12.309  10.314  68.825  1.00  0.00     0.000 HD 
HETATM   28  H2  UNL     1     -12.684  10.979  67.365  1.00  0.00     0.000 HD 
ENDBRANCH  18  19
ENDBRANCH   6  18
TORSDOF 7
ENDMDL
MODEL       71
REMARK 921   NORMALIZED FREE ENERGY PREDICTED BY IDOCK:   -5.41 KCAL/MOL
REMARK 922        TOTAL FREE ENERGY PREDICTED BY IDOCK:   -8.61 KCAL/MOL
REMARK 923 INTER-LIGAND FREE ENERGY PREDICTED BY IDOCK:   -8.37 KCAL/MOL
REMARK 924 INTRA-LIGAND FREE ENERGY PREDICTED BY IDOCK:   -0.24 KCAL/MOL
REMARK 927      BINDING AFFINITY PREDICTED BY RF-SCORE:    0.00 PKD
ROOT
HETATM    1  C   UNL     1     -10.699  15.964  65.503  1.00  0.00    -0.386 C  
HETATM    2  C   UNL     1     -10.903  15.559  66.918  1.00  0.00    -0.301 C  
HETATM    3  C   UNL     1     -10.468  16.232  68.059  1.00  0.00    -0.293 C  
HETATM    4  C   UNL     1     -11.694  14.125  68.526  1.00  0.00    -0.345 C  
HETATM    5  S   UNL     1     -10.842  15.247  69.441  1.00  0.00    -0.279 SA 
HETATM    6  N   UNL     1     -11.636  14.405  67.230  1.00  0.00    -0.362 NA 
ENDROOT
BRANCH   3   7
HETATM    7  C   UNL     1      -9.774  17.593  68.247  1.00  0.00    -0.315 C  
BRANCH   7   8
HETATM    8  C   UNL     1      -8.350  17.537  67.678  1.00  0.00    -0.214 C  
BRANCH   8   9
HETATM    9  O   UNL     1      -8.050  18.232  66.488  1.00  0.00    -0.251 OA 
BRANCH   9  10
HETATM   10  P   UNL     1      -6.435  18.710  66.396  1.00  0.00    -0.222 P  
HETATM   11  O   UNL     1      -6.591  18.775  64.675  1.00  0.00    -0.444 OA 
HETATM   12  O   UNL     1      -5.612  17.424  66.186  1.00  0.00    -0.196 OA 
BRANCH  10  13
HETATM   13  O   UNL     1      -6.280  18.645  68.118  1.00  0.00    -0.197 OA 
HETATM   14  O   UNL     1      -6.380  21.159  67.807  1.00  0.00    -0.340 OA 
HETATM   15  P   UNL     1      -6.481  20.071  68.825  1.00  0.00    -0.303 P  
HETATM   16  O   UNL     1      -7.605  19.955  69.817  1.00  0.00    -0.040 OA 
HETATM   17  O   UNL     1      -5.166  20.091  69.753  1.00  0.00    -0.192 OA 
ENDBRANCH  10  13
ENDBRANCH   9  10
ENDBRANCH   8   9
ENDBRANCH   7   8
ENDBRANCH   3   7
BRANCH   6  18
HETATM   18  C   UNL     1     -12.425  13.573  66.305  1.00  0.00    -0.326 C  
BRANCH  18  19
HETATM   19  C   UNL     1     -11.576  12.833  65.317  1.00  0.00    -0.379 A  
HETATM   20  C   UNL     1     -10.584  11.984  65.755  1.00  0.00    -0.263 A  
HETATM   21  N   UNL     1      -9.891  11.165  64.952  1.00  0.00    -0.249 NA 
HETATM   22  C   UNL     1     -10.205  11.202  63.648  1.00  0.00    -0.387 A  
HETATM   23  N   UNL     1     -11.050  12.096  63.109  1.00  0.00    -0.298 NA 
HETATM   24  C   UNL     1      -9.598  10.159  62.763  1.00  0.00    -0.217 C  
HETATM   25  C   UNL     1     -11.685  12.924  63.944  1.00  0.00    -0.460 A  
HETATM   26  N   UNL     1     -12.426  13.934  63.322  1.00  0.00    -1.112 NA 
HETATM   27  H1  UNL     1     -12.506  14.000  62.307  1.00  0.00     0.000 HD 
HETATM   28  H2  UNL     1     -12.079  14.829  63.666  1.00  0.00     0.000 HD 
ENDBRANCH  18  19
ENDBRANCH   6  18
TORSDOF 7
ENDMDL
MODEL       72
REMARK 921   NORMALIZED FREE ENERGY PREDICTED BY IDOCK:   -5.40 KCAL/MOL
REMARK 922        TOTAL FREE ENERGY PREDICTED BY IDOCK:   -8.60 KCAL/MOL
REMARK 923 INTER-LIGAND FREE ENERGY PREDICTED BY IDOCK:   -7.68 KCAL/MOL
REMARK 924 INTRA-LIGAND FREE ENERGY PREDICTED BY IDOCK:   -0.92 KCAL/MOL
REMARK 927      BINDING AFFINITY PREDICTED BY RF-SCORE:    0.00 PKD
ROOT
HETATM    1  C   UNL     1     -12.605   9.505  72.029  1.00  0.00    -0.456 C  
HETATM    2  C   UNL     1     -11.394   9.721  71.195  1.00  0.00    -0.389 C  
HETATM    3  C   UNL     1     -11.266  10.570  70.097  1.00  0.00    -0.315 C  
HETATM    4  C   UNL     1      -9.206   9.299  70.645  1.00  0.00    -0.264 C  
HETATM    5  S   UNL     1      -9.692  10.323  69.404  1.00  0.00    -0.202 SA 
HETATM    6  N   UNL     1     -10.193   9.065  71.501  1.00  0.00    -0.326 NA 
ENDROOT
BRANCH   3   7
HETATM    7  C   UNL     1     -12.229  11.598  69.475  1.00  0.00    -0.257 C  
BRANCH   7   8
HETATM    8  C   UNL     1     -11.431  12.707  68.778  1.00  0.00    -0.306 C  
BRANCH   8   9
HETATM    9  O   UNL     1     -10.862  13.743  69.548  1.00  0.00    -0.113 OA 
BRANCH   9  10
HETATM   10  P   UNL     1     -11.936  15.010  69.839  1.00  0.00    -0.349 P  
HETATM   11  O   UNL     1     -11.791  15.466  68.176  1.00  0.00    -0.320 OA 
HETATM   12  O   UNL     1     -11.073  16.246  70.163  1.00  0.00    -0.347 OA 
BRANCH  10  13
HETATM   13  O   UNL     1     -12.081  14.554  71.501  1.00  0.00    -0.340 OA 
HETATM   14  O   UNL     1     -14.395  15.523  71.135  1.00  0.00    -0.516 OA 
HETATM   15  P   UNL     1     -13.577  14.689  72.065  1.00  0.00    -0.507 P  
HETATM   16  O   UNL     1     -14.010  13.346  72.586  1.00  0.00    -0.755 OA 
HETATM   17  O   UNL     1     -13.277  15.528  73.405  1.00  0.00    -0.504 OA 
ENDBRANCH  10  13
ENDBRANCH   9  10
ENDBRANCH   8   9
ENDBRANCH   7   8
ENDBRANCH   3   7
BRANCH   6  18
HETATM   18  C   UNL     1      -9.893   8.270  72.704  1.00  0.00    -0.287 C  
BRANCH  18  19
HETATM   19  C   UNL     1      -9.611   6.832  72.398  1.00  0.00    -0.164 A  
HETATM   20  C   UNL     1     -10.640   5.979  72.065  1.00  0.00    -0.223 A  
HETATM   21  N   UNL     1     -10.461   4.726  71.622  1.00  0.00    -0.143 NA 
HETATM   22  C   UNL     1      -9.191   4.309  71.511  1.00  0.00    -0.133 A  
HETATM   23  N   UNL     1      -8.133   5.012  71.948  1.00  0.00    -0.113 NA 
HETATM   24  C   UNL     1      -8.953   2.998  70.829  1.00  0.00    -0.166 C  
HETATM   25  C   UNL     1      -8.364   6.239  72.425  1.00  0.00    -0.111 A  
HETATM   26  N   UNL     1      -7.258   6.861  73.010  1.00  0.00    -0.075 NA 
HETATM   27  H1  UNL     1      -6.337   6.423  73.029  1.00  0.00     0.000 HD 
HETATM   28  H2  UNL     1      -7.508   7.101  73.969  1.00  0.00     0.000 HD 
ENDBRANCH  18  19
ENDBRANCH   6  18
TORSDOF 7
ENDMDL
MODEL       73
REMARK 921   NORMALIZED FREE ENERGY PREDICTED BY IDOCK:   -5.40 KCAL/MOL
REMARK 922        TOTAL FREE ENERGY PREDICTED BY IDOCK:   -8.59 KCAL/MOL
REMARK 923 INTER-LIGAND FREE ENERGY PREDICTED BY IDOCK:   -7.84 KCAL/MOL
REMARK 924 INTRA-LIGAND FREE ENERGY PREDICTED BY IDOCK:   -0.76 KCAL/MOL
REMARK 927      BINDING AFFINITY PREDICTED BY RF-SCORE:    0.00 PKD
ROOT
HETATM    1  C   UNL     1     -11.828  12.457  68.793  1.00  0.00    -0.358 C  
HETATM    2  C   UNL     1     -11.054  12.140  67.565  1.00  0.00    -0.275 C  
HETATM    3  C   UNL     1     -10.368  10.960  67.282  1.00  0.00    -0.216 C  
HETATM    4  C   UNL     1     -10.213  12.679  65.499  1.00  0.00    -0.281 C  
HETATM    5  S   UNL     1      -9.514  11.179  65.785  1.00  0.00    -0.228 SA 
HETATM    6  N   UNL     1     -10.983  13.061  66.511  1.00  0.00    -0.282 NA 
ENDROOT
BRANCH   3   7
HETATM    7  C   UNL     1     -10.276   9.619  68.033  1.00  0.00    -0.235 C  
BRANCH   7   8
HETATM    8  C   UNL     1     -10.031   8.477  67.038  1.00  0.00    -0.250 C  
BRANCH   8   9
HETATM    9  O   UNL     1     -10.961   7.421  66.950  1.00  0.00    -0.324 OA 
BRANCH   9  10
HETATM   10  P   UNL     1     -10.425   6.010  67.700  1.00  0.00    -0.281 P  
HETATM   11  O   UNL     1     -11.339   6.450  69.101  1.00  0.00    -0.364 OA 
HETATM   12  O   UNL     1      -9.168   6.395  68.506  1.00  0.00    -0.126 OA 
BRANCH  10  13
HETATM   13  O   UNL     1      -9.510   5.569  66.299  1.00  0.00    -0.152 OA 
HETATM   14  O   UNL     1      -9.610   3.313  67.453  1.00  0.00    -0.201 OA 
HETATM   15  P   UNL     1      -9.296   3.985  66.158  1.00  0.00    -0.190 P  
HETATM   16  O   UNL     1      -9.853   3.548  64.831  1.00  0.00    -0.170 OA 
HETATM   17  O   UNL     1      -7.704   3.957  65.919  1.00  0.00    -0.087 OA 
ENDBRANCH  10  13
ENDBRANCH   9  10
ENDBRANCH   8   9
ENDBRANCH   7   8
ENDBRANCH   3   7
BRANCH   6  18
HETATM   18  C   UNL     1     -11.752  14.308  66.364  1.00  0.00    -0.391 C  
BRANCH  18  19
HETATM   19  C   UNL     1     -10.914  15.536  66.546  1.00  0.00    -0.243 A  
HETATM   20  C   UNL     1     -10.401  15.847  67.786  1.00  0.00    -0.278 A  
HETATM   21  N   UNL     1      -9.515  16.828  68.006  1.00  0.00    -0.230 NA 
HETATM   22  C   UNL     1      -9.128  17.533  66.933  1.00  0.00    -0.254 A  
HETATM   23  N   UNL     1      -9.679  17.401  65.714  1.00  0.00    -0.543 NA 
HETATM   24  C   UNL     1      -7.993  18.492  67.110  1.00  0.00    -0.247 C  
HETATM   25  C   UNL     1     -10.592  16.439  65.554  1.00  0.00    -0.330 A  
HETATM   26  N   UNL     1     -11.246  16.449  64.317  1.00  0.00    -1.298 NA 
HETATM   27  H1  UNL     1     -11.008  17.116  63.584  1.00  0.00     0.000 HD 
HETATM   28  H2  UNL     1     -12.247  16.528  64.497  1.00  0.00     0.000 HD 
ENDBRANCH  18  19
ENDBRANCH   6  18
TORSDOF 7
ENDMDL
MODEL       74
REMARK 921   NORMALIZED FREE ENERGY PREDICTED BY IDOCK:   -5.39 KCAL/MOL
REMARK 922        TOTAL FREE ENERGY PREDICTED BY IDOCK:   -8.58 KCAL/MOL
REMARK 923 INTER-LIGAND FREE ENERGY PREDICTED BY IDOCK:   -7.19 KCAL/MOL
REMARK 924 INTRA-LIGAND FREE ENERGY PREDICTED BY IDOCK:   -1.40 KCAL/MOL
REMARK 927      BINDING AFFINITY PREDICTED BY RF-SCORE:    0.00 PKD
ROOT
HETATM    1  C   UNL     1     -11.838  11.375  68.212  1.00  0.00    -0.320 C  
HETATM    2  C   UNL     1     -11.209  11.164  66.882  1.00  0.00    -0.186 C  
HETATM    3  C   UNL     1     -10.489  10.049  66.456  1.00  0.00    -0.153 C  
HETATM    4  C   UNL     1     -10.682  11.845  64.755  1.00  0.00    -0.307 C  
HETATM    5  S   UNL     1      -9.852  10.388  64.876  1.00  0.00    -0.345 SA 
HETATM    6  N   UNL     1     -11.338  12.129  65.873  1.00  0.00    -0.344 NA 
ENDROOT
BRANCH   3   7
HETATM    7  C   UNL     1     -10.211   8.689  67.124  1.00  0.00    -0.353 C  
BRANCH   7   8
HETATM    8  C   UNL     1      -8.916   8.765  67.944  1.00  0.00    -0.140 C  
BRANCH   8   9
HETATM    9  O   UNL     1      -8.558   9.980  68.566  1.00  0.00    -0.113 OA 
BRANCH   9  10
HETATM   10  P   UNL     1      -6.963   9.992  69.113  1.00  0.00    -0.072 P  
HETATM   11  O   UNL     1      -7.110   8.305  69.466  1.00  0.00    -0.052 OA 
HETATM   12  O   UNL     1      -7.027  10.228  70.635  1.00  0.00    -0.323 OA 
BRANCH  10  13
HETATM   13  O   UNL     1      -6.816  11.679  68.759  1.00  0.00    -0.076 OA 
HETATM   14  O   UNL     1      -6.584  10.744  66.414  1.00  0.00    -0.109 OA 
HETATM   15  P   UNL     1      -6.827  11.998  67.187  1.00  0.00    -0.052 P  
HETATM   16  O   UNL     1      -7.956  12.951  66.904  1.00  0.00    -0.071 OA 
HETATM   17  O   UNL     1      -5.520  12.934  67.101  1.00  0.00    -0.345 OA 
ENDBRANCH  10  13
ENDBRANCH   9  10
ENDBRANCH   8   9
ENDBRANCH   7   8
ENDBRANCH   3   7
BRANCH   6  18
HETATM   18  C   UNL     1     -12.201  13.322  65.886  1.00  0.00    -0.441 C  
BRANCH  18  19
HETATM   19  C   UNL     1     -11.439  14.592  66.110  1.00  0.00    -0.357 A  
HETATM   20  C   UNL     1     -10.902  14.869  67.348  1.00  0.00    -0.304 A  
HETATM   21  N   UNL     1     -10.075  15.894  67.594  1.00  0.00    -0.239 NA 
HETATM   22  C   UNL     1      -9.775  16.681  66.549  1.00  0.00    -0.274 A  
HETATM   23  N   UNL     1     -10.360  16.578  65.345  1.00  0.00    -0.607 NA 
HETATM   24  C   UNL     1      -8.699  17.703  66.743  1.00  0.00    -0.277 C  
HETATM   25  C   UNL     1     -11.214  15.567  65.160  1.00  0.00    -0.318 A  
HETATM   26  N   UNL     1     -11.912  15.600  63.949  1.00  0.00    -1.010 NA 
HETATM   27  H1  UNL     1     -11.745  16.321  63.246  1.00  0.00     0.000 HD 
HETATM   28  H2  UNL     1     -12.909  15.602  64.165  1.00  0.00     0.000 HD 
ENDBRANCH  18  19
ENDBRANCH   6  18
TORSDOF 7
ENDMDL
MODEL       75
REMARK 921   NORMALIZED FREE ENERGY PREDICTED BY IDOCK:   -5.37 KCAL/MOL
REMARK 922        TOTAL FREE ENERGY PREDICTED BY IDOCK:   -8.56 KCAL/MOL
REMARK 923 INTER-LIGAND FREE ENERGY PREDICTED BY IDOCK:   -7.44 KCAL/MOL
REMARK 924 INTRA-LIGAND FREE ENERGY PREDICTED BY IDOCK:   -1.12 KCAL/MOL
REMARK 927      BINDING AFFINITY PREDICTED BY RF-SCORE:    0.00 PKD
ROOT
HETATM    1  C   UNL     1     -12.050  13.500  70.357  1.00  0.00    -0.415 C  
HETATM    2  C   UNL     1     -11.733  13.411  68.907  1.00  0.00    -0.328 C  
HETATM    3  C   UNL     1     -11.656  12.256  68.130  1.00  0.00    -0.339 C  
HETATM    4  C   UNL     1     -11.179  14.352  66.889  1.00  0.00    -0.334 C  
HETATM    5  S   UNL     1     -11.105  12.709  66.545  1.00  0.00    -0.295 SA 
HETATM    6  N   UNL     1     -11.509  14.573  68.155  1.00  0.00    -0.297 NA 
ENDROOT
BRANCH   3   7
HETATM    7  C   UNL     1     -11.965  10.782  68.447  1.00  0.00     0.002 C  
BRANCH   7   8
HETATM    8  C   UNL     1     -10.802   9.893  67.985  1.00  0.00    -0.243 C  
BRANCH   8   9
HETATM    9  O   UNL     1     -10.474   8.738  68.725  1.00  0.00    -0.214 OA 
BRANCH   9  10
HETATM   10  P   UNL     1      -9.453   9.060  70.028  1.00  0.00    -0.216 P  
HETATM   11  O   UNL     1      -8.743  10.341  69.107  1.00  0.00    -0.151 OA 
HETATM   12  O   UNL     1      -8.155   8.271  69.769  1.00  0.00    -0.113 OA 
BRANCH  10  13
HETATM   13  O   UNL     1     -10.163   7.780  70.949  1.00  0.00    -0.198 OA 
HETATM   14  O   UNL     1     -11.599   9.710  71.751  1.00  0.00    -0.378 OA 
HETATM   15  P   UNL     1     -11.502   8.221  71.716  1.00  0.00    -0.345 P  
HETATM   16  O   UNL     1     -12.622   7.319  71.272  1.00  0.00    -0.355 OA 
HETATM   17  O   UNL     1     -11.150   7.678  73.190  1.00  0.00    -0.404 OA 
ENDBRANCH  10  13
ENDBRANCH   9  10
ENDBRANCH   8   9
ENDBRANCH   7   8
ENDBRANCH   3   7
BRANCH   6  18
HETATM   18  C   UNL     1     -11.720  15.966  68.583  1.00  0.00    -0.322 C  
BRANCH  18  19
HETATM   19  C   UNL     1     -10.502  16.821  68.411  1.00  0.00    -0.339 A  
HETATM   20  C   UNL     1     -10.557  17.960  67.639  1.00  0.00    -0.387 A  
HETATM   21  N   UNL     1      -9.569  18.862  67.563  1.00  0.00    -0.300 NA 
HETATM   22  C   UNL     1      -8.473  18.608  68.292  1.00  0.00    -0.324 A  
HETATM   23  N   UNL     1      -8.268  17.459  68.958  1.00  0.00    -0.152 NA 
HETATM   24  C   UNL     1      -7.444  19.690  68.390  1.00  0.00    -0.359 C  
HETATM   25  C   UNL     1      -9.264  16.569  68.968  1.00  0.00    -0.237 A  
HETATM   26  N   UNL     1      -8.943  15.331  69.535  1.00  0.00    -0.390 NA 
HETATM   27  H1  UNL     1      -8.028  15.145  69.946  1.00  0.00     0.000 HD 
HETATM   28  H2  UNL     1      -9.120  14.613  68.833  1.00  0.00     0.000 HD 
ENDBRANCH  18  19
ENDBRANCH   6  18
TORSDOF 7
ENDMDL
MODEL       76
REMARK 921   NORMALIZED FREE ENERGY PREDICTED BY IDOCK:   -5.36 KCAL/MOL
REMARK 922        TOTAL FREE ENERGY PREDICTED BY IDOCK:   -8.54 KCAL/MOL
REMARK 923 INTER-LIGAND FREE ENERGY PREDICTED BY IDOCK:   -8.05 KCAL/MOL
REMARK 924 INTRA-LIGAND FREE ENERGY PREDICTED BY IDOCK:   -0.49 KCAL/MOL
REMARK 927      BINDING AFFINITY PREDICTED BY RF-SCORE:    0.00 PKD
ROOT
HETATM    1  C   UNL     1      -9.145  12.707  67.120  1.00  0.00    -0.210 C  
HETATM    2  C   UNL     1     -10.394  12.663  66.317  1.00  0.00    -0.252 C  
HETATM    3  C   UNL     1     -10.716  11.758  65.306  1.00  0.00    -0.287 C  
HETATM    4  C   UNL     1     -12.466  13.463  65.739  1.00  0.00    -0.439 C  
HETATM    5  S   UNL     1     -12.225  12.251  64.601  1.00  0.00    -0.329 SA 
HETATM    6  N   UNL     1     -11.432  13.573  66.564  1.00  0.00    -0.326 NA 
ENDROOT
BRANCH   3   7
HETATM    7  C   UNL     1      -9.993  10.504  64.782  1.00  0.00    -0.412 C  
BRANCH   7   8
HETATM    8  C   UNL     1      -9.607   9.594  65.956  1.00  0.00    -0.242 C  
BRANCH   8   9
HETATM    9  O   UNL     1     -10.617   8.914  66.669  1.00  0.00    -0.216 OA 
BRANCH   9  10
HETATM   10  P   UNL     1     -10.050   7.534  67.455  1.00  0.00    -0.248 P  
HETATM   11  O   UNL     1      -9.255   7.071  65.991  1.00  0.00    -0.127 OA 
HETATM   12  O   UNL     1     -11.066   6.414  67.156  1.00  0.00    -0.377 OA 
BRANCH  10  13
HETATM   13  O   UNL     1     -10.845   7.998  68.919  1.00  0.00    -0.119 OA 
HETATM   14  O   UNL     1      -8.640   9.207  69.247  1.00  0.00    -0.130 OA 
HETATM   15  P   UNL     1     -10.044   9.116  69.747  1.00  0.00    -0.226 P  
HETATM   16  O   UNL     1     -10.945  10.306  69.933  1.00  0.00    -0.260 OA 
HETATM   17  O   UNL     1     -10.045   8.418  71.197  1.00  0.00    -0.182 OA 
ENDBRANCH  10  13
ENDBRANCH   9  10
ENDBRANCH   8   9
ENDBRANCH   7   8
ENDBRANCH   3   7
BRANCH   6  18
HETATM   18  C   UNL     1     -11.538  14.521  67.686  1.00  0.00    -0.378 C  
BRANCH  18  19
HETATM   19  C   UNL     1     -11.013  15.883  67.352  1.00  0.00    -0.257 A  
HETATM   20  C   UNL     1     -10.587  16.167  66.073  1.00  0.00    -0.295 A  
HETATM   21  N   UNL     1     -10.257  17.394  65.649  1.00  0.00    -0.616 NA 
HETATM   22  C   UNL     1     -10.355  18.383  66.550  1.00  0.00    -0.400 A  
HETATM   23  N   UNL     1     -10.619  18.183  67.852  1.00  0.00    -0.396 NA 
HETATM   24  C   UNL     1     -10.194  19.786  66.055  1.00  0.00    -0.600 C  
HETATM   25  C   UNL     1     -10.897  16.934  68.238  1.00  0.00    -0.357 A  
HETATM   26  N   UNL     1     -11.005  16.756  69.621  1.00  0.00    -0.372 NA 
HETATM   27  H1  UNL     1     -10.920  17.534  70.276  1.00  0.00     0.000 HD 
HETATM   28  H2  UNL     1     -10.330  16.043  69.896  1.00  0.00     0.000 HD 
ENDBRANCH  18  19
ENDBRANCH   6  18
TORSDOF 7
ENDMDL
MODEL       77
REMARK 921   NORMALIZED FREE ENERGY PREDICTED BY IDOCK:   -5.36 KCAL/MOL
REMARK 922        TOTAL FREE ENERGY PREDICTED BY IDOCK:   -8.54 KCAL/MOL
REMARK 923 INTER-LIGAND FREE ENERGY PREDICTED BY IDOCK:   -7.56 KCAL/MOL
REMARK 924 INTRA-LIGAND FREE ENERGY PREDICTED BY IDOCK:   -0.98 KCAL/MOL
REMARK 927      BINDING AFFINITY PREDICTED BY RF-SCORE:    0.00 PKD
ROOT
HETATM    1  C   UNL     1     -11.730   6.525  70.020  1.00  0.00    -0.388 C  
HETATM    2  C   UNL     1     -10.656   7.323  69.374  1.00  0.00    -0.229 C  
HETATM    3  C   UNL     1     -10.515   8.710  69.380  1.00  0.00    -0.218 C  
HETATM    4  C   UNL     1      -8.747   7.514  68.114  1.00  0.00    -0.122 C  
HETATM    5  S   UNL     1      -9.176   9.121  68.351  1.00  0.00    -0.131 SA 
HETATM    6  N   UNL     1      -9.608   6.686  68.694  1.00  0.00    -0.130 NA 
ENDROOT
BRANCH   3   7
HETATM    7  C   UNL     1     -11.300   9.819  70.103  1.00  0.00    -0.305 C  
BRANCH   7   8
HETATM    8  C   UNL     1     -11.120  11.153  69.366  1.00  0.00    -0.255 C  
BRANCH   8   9
HETATM    9  O   UNL     1     -11.795  11.369  68.147  1.00  0.00    -0.530 OA 
BRANCH   9  10
HETATM   10  P   UNL     1     -11.215  12.709  67.304  1.00  0.00    -0.338 P  
HETATM   11  O   UNL     1     -10.290  13.141  68.701  1.00  0.00    -0.243 OA 
HETATM   12  O   UNL     1     -12.144  13.886  67.664  1.00  0.00    -0.377 OA 
BRANCH  10  13
HETATM   13  O   UNL     1     -12.140  12.278  65.908  1.00  0.00    -0.609 OA 
HETATM   14  O   UNL     1     -10.417  13.781  64.813  1.00  0.00    -0.400 OA 
HETATM   15  P   UNL     1     -11.470  12.761  64.532  1.00  0.00    -0.398 P  
HETATM   16  O   UNL     1     -11.255  11.555  63.659  1.00  0.00    -0.411 OA 
HETATM   17  O   UNL     1     -12.742  13.484  63.861  1.00  0.00    -0.669 OA 
ENDBRANCH  10  13
ENDBRANCH   9  10
ENDBRANCH   8   9
ENDBRANCH   7   8
ENDBRANCH   3   7
BRANCH   6  18
HETATM   18  C   UNL     1      -9.309   5.244  68.667  1.00  0.00    -0.121 C  
BRANCH  18  19
HETATM   19  C   UNL     1      -9.062   4.725  67.284  1.00  0.00    -0.127 A  
HETATM   20  C   UNL     1      -7.844   4.169  66.959  1.00  0.00    -0.096 A  
HETATM   21  N   UNL     1      -7.593   3.538  65.804  1.00  0.00    -0.077 NA 
HETATM   22  C   UNL     1      -8.610   3.464  64.932  1.00  0.00    -0.102 A  
HETATM   23  N   UNL     1      -9.782   4.098  65.097  1.00  0.00    -0.186 NA 
HETATM   24  C   UNL     1      -8.424   2.592  63.729  1.00  0.00    -0.086 C  
HETATM   25  C   UNL     1      -9.971   4.754  66.246  1.00  0.00    -0.242 A  
HETATM   26  N   UNL     1     -11.136   5.525  66.300  1.00  0.00    -0.770 NA 
HETATM   27  H1  UNL     1     -11.808   5.546  65.532  1.00  0.00     0.000 HD 
HETATM   28  H2  UNL     1     -10.862   6.487  66.500  1.00  0.00     0.000 HD 
ENDBRANCH  18  19
ENDBRANCH   6  18
TORSDOF 7
ENDMDL
MODEL       78
REMARK 921   NORMALIZED FREE ENERGY PREDICTED BY IDOCK:   -5.34 KCAL/MOL
REMARK 922        TOTAL FREE ENERGY PREDICTED BY IDOCK:   -8.51 KCAL/MOL
REMARK 923 INTER-LIGAND FREE ENERGY PREDICTED BY IDOCK:   -7.28 KCAL/MOL
REMARK 924 INTRA-LIGAND FREE ENERGY PREDICTED BY IDOCK:   -1.23 KCAL/MOL
REMARK 927      BINDING AFFINITY PREDICTED BY RF-SCORE:    0.00 PKD
ROOT
HETATM    1  C   UNL     1     -13.708   6.987  71.290  1.00  0.00    -0.233 C  
HETATM    2  C   UNL     1     -12.354   7.594  71.370  1.00  0.00    -0.333 C  
HETATM    3  C   UNL     1     -11.138   6.990  71.051  1.00  0.00    -0.264 C  
HETATM    4  C   UNL     1     -10.933   9.330  71.851  1.00  0.00    -0.214 C  
HETATM    5  S   UNL     1      -9.862   8.092  71.470  1.00  0.00    -0.193 SA 
HETATM    6  N   UNL     1     -12.195   8.929  71.765  1.00  0.00    -0.335 NA 
ENDROOT
BRANCH   3   7
HETATM    7  C   UNL     1     -10.802   5.619  70.436  1.00  0.00    -0.326 C  
BRANCH   7   8
HETATM    8  C   UNL     1     -10.608   5.760  68.920  1.00  0.00    -0.267 C  
BRANCH   8   9
HETATM    9  O   UNL     1      -9.496   6.472  68.426  1.00  0.00    -0.123 OA 
BRANCH   9  10
HETATM   10  P   UNL     1      -9.883   7.474  67.126  1.00  0.00    -0.248 P  
HETATM   11  O   UNL     1     -11.053   6.305  66.621  1.00  0.00    -0.292 OA 
HETATM   12  O   UNL     1      -9.023   7.000  65.939  1.00  0.00    -0.143 OA 
BRANCH  10  13
HETATM   13  O   UNL     1      -8.713   8.644  67.632  1.00  0.00    -0.134 OA 
HETATM   14  O   UNL     1     -10.415  10.196  66.573  1.00  0.00    -0.222 OA 
HETATM   15  P   UNL     1      -9.219  10.157  67.465  1.00  0.00    -0.137 P  
HETATM   16  O   UNL     1      -9.155  10.830  68.809  1.00  0.00    -0.165 OA 
HETATM   17  O   UNL     1      -7.954  10.771  66.682  1.00  0.00    -0.127 OA 
ENDBRANCH  10  13
ENDBRANCH   9  10
ENDBRANCH   8   9
ENDBRANCH   7   8
ENDBRANCH   3   7
BRANCH   6  18
HETATM   18  C   UNL     1     -13.256   9.932  71.966  1.00  0.00    -0.456 C  
BRANCH  18  19
HETATM   19  C   UNL     1     -12.946  11.246  71.318  1.00  0.00    -0.427 A  
HETATM   20  C   UNL     1     -13.210  12.425  71.980  1.00  0.00    -0.409 A  
HETATM   21  N   UNL     1     -12.819  13.631  71.547  1.00  0.00    -0.359 NA 
HETATM   22  C   UNL     1     -12.134  13.658  70.394  1.00  0.00    -0.351 A  
HETATM   23  N   UNL     1     -11.957  12.584  69.606  1.00  0.00    -0.296 NA 
HETATM   24  C   UNL     1     -11.510  14.957  69.992  1.00  0.00    -0.317 C  
HETATM   25  C   UNL     1     -12.404  11.409  70.059  1.00  0.00    -0.237 A  
HETATM   26  N   UNL     1     -12.338  10.359  69.137  1.00  0.00    -0.671 NA 
HETATM   27  H1  UNL     1     -11.937  10.479  68.207  1.00  0.00     0.000 HD 
HETATM   28  H2  UNL     1     -13.280   9.986  69.024  1.00  0.00     0.000 HD 
ENDBRANCH  18  19
ENDBRANCH   6  18
TORSDOF 7
ENDMDL
MODEL       79
REMARK 921   NORMALIZED FREE ENERGY PREDICTED BY IDOCK:   -5.34 KCAL/MOL
REMARK 922        TOTAL FREE ENERGY PREDICTED BY IDOCK:   -8.51 KCAL/MOL
REMARK 923 INTER-LIGAND FREE ENERGY PREDICTED BY IDOCK:   -7.51 KCAL/MOL
REMARK 924 INTRA-LIGAND FREE ENERGY PREDICTED BY IDOCK:   -1.00 KCAL/MOL
REMARK 927      BINDING AFFINITY PREDICTED BY RF-SCORE:    0.00 PKD
ROOT
HETATM    1  C   UNL     1     -12.559  13.884  65.782  1.00  0.00    -0.533 C  
HETATM    2  C   UNL     1     -11.202  13.739  66.368  1.00  0.00    -0.316 C  
HETATM    3  C   UNL     1     -10.234  12.793  66.033  1.00  0.00    -0.278 C  
HETATM    4  C   UNL     1      -9.544  14.360  67.829  1.00  0.00    -0.216 C  
HETATM    5  S   UNL     1      -8.896  12.978  67.126  1.00  0.00    -0.213 SA 
HETATM    6  N   UNL     1     -10.750  14.635  67.347  1.00  0.00    -0.276 NA 
ENDROOT
BRANCH   3   7
HETATM    7  C   UNL     1     -10.188  11.715  64.934  1.00  0.00    -0.315 C  
BRANCH   7   8
HETATM    8  C   UNL     1      -9.443  10.476  65.448  1.00  0.00    -0.223 C  
BRANCH   8   9
HETATM    9  O   UNL     1     -10.166   9.445  66.084  1.00  0.00    -0.279 OA 
BRANCH   9  10
HETATM   10  P   UNL     1      -9.169   8.304  66.822  1.00  0.00    -0.196 P  
HETATM   11  O   UNL     1      -7.840   9.393  66.629  1.00  0.00    -0.103 OA 
HETATM   12  O   UNL     1      -8.541   7.473  65.685  1.00  0.00    -0.145 OA 
BRANCH  10  13
HETATM   13  O   UNL     1     -10.498   7.214  67.015  1.00  0.00    -0.268 OA 
HETATM   14  O   UNL     1      -8.922   6.255  68.755  1.00  0.00    -0.125 OA 
HETATM   15  P   UNL     1     -10.338   6.240  68.280  1.00  0.00    -0.250 P  
HETATM   16  O   UNL     1     -11.525   6.434  69.183  1.00  0.00    -0.364 OA 
HETATM   17  O   UNL     1     -10.641   4.830  67.565  1.00  0.00     0.007 OA 
ENDBRANCH  10  13
ENDBRANCH   9  10
ENDBRANCH   8   9
ENDBRANCH   7   8
ENDBRANCH   3   7
BRANCH   6  18
HETATM   18  C   UNL     1     -11.405  15.878  67.788  1.00  0.00    -0.199 C  
BRANCH  18  19
HETATM   19  C   UNL     1     -10.603  17.104  67.474  1.00  0.00    -0.323 A  
HETATM   20  C   UNL     1     -10.205  17.949  68.485  1.00  0.00    -0.390 A  
HETATM   21  N   UNL     1      -9.355  18.972  68.315  1.00  0.00    -0.327 NA 
HETATM   22  C   UNL     1      -8.885  19.157  67.072  1.00  0.00    -0.295 A  
HETATM   23  N   UNL     1      -9.326  18.479  65.999  1.00  0.00    -0.493 NA 
HETATM   24  C   UNL     1      -7.784  20.153  66.893  1.00  0.00    -0.341 C  
HETATM   25  C   UNL     1     -10.209  17.499  66.211  1.00  0.00    -0.355 A  
HETATM   26  N   UNL     1     -10.752  16.935  65.053  1.00  0.00    -0.693 NA 
HETATM   27  H1  UNL     1     -10.460  17.227  64.120  1.00  0.00     0.000 HD 
HETATM   28  H2  UNL     1     -11.766  17.034  65.106  1.00  0.00     0.000 HD 
ENDBRANCH  18  19
ENDBRANCH   6  18
TORSDOF 7
ENDMDL
MODEL       80
REMARK 921   NORMALIZED FREE ENERGY PREDICTED BY IDOCK:   -5.33 KCAL/MOL
REMARK 922        TOTAL FREE ENERGY PREDICTED BY IDOCK:   -8.49 KCAL/MOL
REMARK 923 INTER-LIGAND FREE ENERGY PREDICTED BY IDOCK:   -7.75 KCAL/MOL
REMARK 924 INTRA-LIGAND FREE ENERGY PREDICTED BY IDOCK:   -0.75 KCAL/MOL
REMARK 927      BINDING AFFINITY PREDICTED BY RF-SCORE:    0.00 PKD
ROOT
HETATM    1  C   UNL     1      -9.933  10.444  65.227  1.00  0.00    -0.376 C  
HETATM    2  C   UNL     1     -10.764  11.131  66.249  1.00  0.00    -0.240 C  
HETATM    3  C   UNL     1     -11.418  12.356  66.121  1.00  0.00    -0.379 C  
HETATM    4  C   UNL     1     -11.705  11.277  68.337  1.00  0.00    -0.294 C  
HETATM    5  S   UNL     1     -12.114  12.759  67.661  1.00  0.00     0.028 SA 
HETATM    6  N   UNL     1     -10.996  10.534  67.496  1.00  0.00    -0.303 NA 
ENDROOT
BRANCH   3   7
HETATM    7  C   UNL     1     -11.596  13.304  64.921  1.00  0.00    -0.353 C  
BRANCH   7   8
HETATM    8  C   UNL     1     -10.322  14.134  64.717  1.00  0.00    -0.359 C  
BRANCH   8   9
HETATM    9  O   UNL     1     -10.394  15.542  64.771  1.00  0.00    -0.376 OA 
BRANCH   9  10
HETATM   10  P   UNL     1      -9.714  16.181  66.175  1.00  0.00    -0.356 P  
HETATM   11  O   UNL     1      -8.971  14.647  66.470  1.00  0.00    -0.255 OA 
HETATM   12  O   UNL     1     -10.682  15.835  67.324  1.00  0.00    -0.310 OA 
BRANCH  10  13
HETATM   13  O   UNL     1     -10.457  17.715  65.880  1.00  0.00    -0.476 OA 
HETATM   14  O   UNL     1      -8.755  18.410  67.627  1.00  0.00    -0.256 OA 
HETATM   15  P   UNL     1      -9.692  18.934  66.589  1.00  0.00    -0.384 P  
HETATM   16  O   UNL     1      -9.296  19.927  65.530  1.00  0.00    -0.242 OA 
HETATM   17  O   UNL     1     -10.942  19.642  67.314  1.00  0.00    -0.464 OA 
ENDBRANCH  10  13
ENDBRANCH   9  10
ENDBRANCH   8   9
ENDBRANCH   7   8
ENDBRANCH   3   7
BRANCH   6  18
HETATM   18  C   UNL     1     -10.652   9.161  67.905  1.00  0.00    -0.214 C  
BRANCH  18  19
HETATM   19  C   UNL     1     -10.303   9.055  69.357  1.00  0.00    -0.217 A  
HETATM   20  C   UNL     1     -11.089   8.307  70.206  1.00  0.00    -0.219 A  
HETATM   21  N   UNL     1     -10.764   8.027  71.476  1.00  0.00    -0.222 NA 
HETATM   22  C   UNL     1      -9.598   8.523  71.916  1.00  0.00    -0.283 A  
HETATM   23  N   UNL     1      -8.838   9.379  71.213  1.00  0.00    -0.258 NA 
HETATM   24  C   UNL     1      -9.112   8.058  73.253  1.00  0.00    -0.349 C  
HETATM   25  C   UNL     1      -9.226   9.666  69.967  1.00  0.00    -0.241 A  
HETATM   26  N   UNL     1      -8.494  10.679  69.340  1.00  0.00    -0.349 NA 
HETATM   27  H1  UNL     1      -7.698  11.130  69.791  1.00  0.00     0.000 HD 
HETATM   28  H2  UNL     1      -9.149  11.409  69.064  1.00  0.00     0.000 HD 
ENDBRANCH  18  19
ENDBRANCH   6  18
TORSDOF 7
ENDMDL
MODEL       81
REMARK 921   NORMALIZED FREE ENERGY PREDICTED BY IDOCK:   -5.31 KCAL/MOL
REMARK 922        TOTAL FREE ENERGY PREDICTED BY IDOCK:   -8.47 KCAL/MOL
REMARK 923 INTER-LIGAND FREE ENERGY PREDICTED BY IDOCK:   -7.59 KCAL/MOL
REMARK 924 INTRA-LIGAND FREE ENERGY PREDICTED BY IDOCK:   -0.89 KCAL/MOL
REMARK 927      BINDING AFFINITY PREDICTED BY RF-SCORE:    0.00 PKD
ROOT
HETATM    1  C   UNL     1     -11.890  12.326  69.523  1.00  0.00    -0.380 C  
HETATM    2  C   UNL     1     -10.732  12.075  68.626  1.00  0.00    -0.236 C  
HETATM    3  C   UNL     1      -9.728  11.122  68.792  1.00  0.00    -0.185 C  
HETATM    4  C   UNL     1      -9.472  12.527  66.762  1.00  0.00    -0.231 C  
HETATM    5  S   UNL     1      -8.547  11.361  67.541  1.00  0.00    -0.141 SA 
HETATM    6  N   UNL     1     -10.578  12.808  67.442  1.00  0.00    -0.228 NA 
ENDROOT
BRANCH   3   7
HETATM    7  C   UNL     1      -9.540   9.997  69.826  1.00  0.00    -0.249 C  
BRANCH   7   8
HETATM    8  C   UNL     1     -10.688   8.985  69.711  1.00  0.00    -0.225 C  
BRANCH   8   9
HETATM    9  O   UNL     1     -11.759   9.042  70.627  1.00  0.00    -0.272 OA 
BRANCH   9  10
HETATM   10  P   UNL     1     -11.663   7.858  71.823  1.00  0.00    -0.325 P  
HETATM   11  O   UNL     1     -12.925   8.674  72.680  1.00  0.00    -0.352 OA 
HETATM   12  O   UNL     1     -10.701   8.401  72.898  1.00  0.00    -0.253 OA 
BRANCH  10  13
HETATM   13  O   UNL     1     -10.401   7.042  70.966  1.00  0.00    -0.201 OA 
HETATM   14  O   UNL     1     -11.140   5.163  72.500  1.00  0.00    -0.236 OA 
HETATM   15  P   UNL     1     -10.343   5.469  71.276  1.00  0.00    -0.226 P  
HETATM   16  O   UNL     1     -10.485   4.724  69.977  1.00  0.00    -0.194 OA 
HETATM   17  O   UNL     1      -8.776   5.327  71.616  1.00  0.00    -0.131 OA 
ENDBRANCH  10  13
ENDBRANCH   9  10
ENDBRANCH   8   9
ENDBRANCH   7   8
ENDBRANCH   3   7
BRANCH   6  18
HETATM   18  C   UNL     1     -11.547  13.735  66.834  1.00  0.00    -0.370 C  
BRANCH  18  19
HETATM   19  C   UNL     1     -11.015  15.128  66.694  1.00  0.00    -0.318 A  
HETATM   20  C   UNL     1     -10.767  15.653  65.445  1.00  0.00    -0.408 A  
HETATM   21  N   UNL     1     -10.447  16.935  65.221  1.00  0.00    -0.662 NA 
HETATM   22  C   UNL     1     -10.367  17.727  66.300  1.00  0.00    -0.358 A  
HETATM   23  N   UNL     1     -10.447  17.277  67.564  1.00  0.00    -0.356 NA 
HETATM   24  C   UNL     1     -10.216  19.197  66.067  1.00  0.00    -0.494 C  
HETATM   25  C   UNL     1     -10.723  15.981  67.739  1.00  0.00    -0.323 A  
HETATM   26  N   UNL     1     -10.637  15.534  69.061  1.00  0.00    -0.234 NA 
HETATM   27  H1  UNL     1     -10.421  16.165  69.833  1.00  0.00     0.000 HD 
HETATM   28  H2  UNL     1      -9.962  14.770  69.086  1.00  0.00     0.000 HD 
ENDBRANCH  18  19
ENDBRANCH   6  18
TORSDOF 7
ENDMDL
MODEL       82
REMARK 921   NORMALIZED FREE ENERGY PREDICTED BY IDOCK:   -5.31 KCAL/MOL
REMARK 922        TOTAL FREE ENERGY PREDICTED BY IDOCK:   -8.46 KCAL/MOL
REMARK 923 INTER-LIGAND FREE ENERGY PREDICTED BY IDOCK:   -7.28 KCAL/MOL
REMARK 924 INTRA-LIGAND FREE ENERGY PREDICTED BY IDOCK:   -1.18 KCAL/MOL
REMARK 927      BINDING AFFINITY PREDICTED BY RF-SCORE:    0.00 PKD
ROOT
HETATM    1  C   UNL     1      -8.259  11.848  66.747  1.00  0.00    -0.129 C  
HETATM    2  C   UNL     1      -9.530  12.093  67.476  1.00  0.00    -0.180 C  
HETATM    3  C   UNL     1     -10.518  11.160  67.788  1.00  0.00    -0.193 C  
HETATM    4  C   UNL     1     -11.021  13.467  68.552  1.00  0.00    -0.267 C  
HETATM    5  S   UNL     1     -11.852  12.008  68.510  1.00  0.00    -0.242 SA 
HETATM    6  N   UNL     1      -9.831  13.370  67.972  1.00  0.00    -0.223 NA 
ENDROOT
BRANCH   3   7
HETATM    7  C   UNL     1     -10.584   9.633  67.605  1.00  0.00    -0.334 C  
BRANCH   7   8
HETATM    8  C   UNL     1      -9.677   8.944  68.634  1.00  0.00    -0.161 C  
BRANCH   8   9
HETATM    9  O   UNL     1      -9.624   9.437  69.954  1.00  0.00    -0.183 OA 
BRANCH   9  10
HETATM   10  P   UNL     1     -10.520   8.508  71.038  1.00  0.00    -0.244 P  
HETATM   11  O   UNL     1     -11.454   9.915  71.414  1.00  0.00    -0.371 OA 
HETATM   12  O   UNL     1      -9.856   8.687  72.418  1.00  0.00    -0.297 OA 
BRANCH  10  13
HETATM   13  O   UNL     1      -9.587   7.102  70.662  1.00  0.00    -0.166 OA 
HETATM   14  O   UNL     1     -11.610   5.987  71.708  1.00  0.00    -0.287 OA 
HETATM   15  P   UNL     1     -10.392   5.731  70.883  1.00  0.00    -0.261 P  
HETATM   16  O   UNL     1     -10.405   4.974  69.583  1.00  0.00    -0.260 OA 
HETATM   17  O   UNL     1      -9.311   4.932  71.768  1.00  0.00    -0.138 OA 
ENDBRANCH  10  13
ENDBRANCH   9  10
ENDBRANCH   8   9
ENDBRANCH   7   8
ENDBRANCH   3   7
BRANCH   6  18
HETATM   18  C   UNL     1      -8.937  14.539  68.024  1.00  0.00    -0.180 C  
BRANCH  18  19
HETATM   19  C   UNL     1      -9.545  15.766  67.419  1.00  0.00    -0.217 A  
HETATM   20  C   UNL     1      -9.885  16.837  68.215  1.00  0.00    -0.257 A  
HETATM   21  N   UNL     1     -10.281  18.027  67.743  1.00  0.00    -0.359 NA 
HETATM   22  C   UNL     1     -10.341  18.148  66.408  1.00  0.00    -0.394 A  
HETATM   23  N   UNL     1     -10.171  17.122  65.557  1.00  0.00    -0.615 NA 
HETATM   24  C   UNL     1     -10.578  19.516  65.850  1.00  0.00    -0.572 C  
HETATM   25  C   UNL     1      -9.822  15.943  66.078  1.00  0.00    -0.337 A  
HETATM   26  N   UNL     1      -9.815  14.878  65.171  1.00  0.00    -0.417 NA 
HETATM   27  H1  UNL     1     -10.020  15.008  64.181  1.00  0.00     0.000 HD 
HETATM   28  H2  UNL     1     -10.448  14.162  65.528  1.00  0.00     0.000 HD 
ENDBRANCH  18  19
ENDBRANCH   6  18
TORSDOF 7
ENDMDL
MODEL       83
REMARK 921   NORMALIZED FREE ENERGY PREDICTED BY IDOCK:   -5.30 KCAL/MOL
REMARK 922        TOTAL FREE ENERGY PREDICTED BY IDOCK:   -8.46 KCAL/MOL
REMARK 923 INTER-LIGAND FREE ENERGY PREDICTED BY IDOCK:   -6.89 KCAL/MOL
REMARK 924 INTRA-LIGAND FREE ENERGY PREDICTED BY IDOCK:   -1.57 KCAL/MOL
REMARK 927      BINDING AFFINITY PREDICTED BY RF-SCORE:    0.00 PKD
ROOT
HETATM    1  C   UNL     1      -7.833  10.776  69.298  1.00  0.00    -0.124 C  
HETATM    2  C   UNL     1      -8.821  10.032  68.476  1.00  0.00    -0.120 C  
HETATM    3  C   UNL     1      -8.758   8.695  68.085  1.00  0.00    -0.142 C  
HETATM    4  C   UNL     1     -10.763   9.902  67.259  1.00  0.00    -0.238 C  
HETATM    5  S   UNL     1     -10.089   8.383  67.012  1.00  0.00    -0.311 SA 
HETATM    6  N   UNL     1      -9.994  10.659  68.032  1.00  0.00    -0.157 NA 
ENDROOT
BRANCH   3   7
HETATM    7  C   UNL     1      -7.773   7.567  68.440  1.00  0.00    -0.120 C  
BRANCH   7   8
HETATM    8  C   UNL     1      -8.401   6.633  69.483  1.00  0.00    -0.131 C  
BRANCH   8   9
HETATM    9  O   UNL     1      -9.247   7.170  70.476  1.00  0.00    -0.158 OA 
BRANCH   9  10
HETATM   10  P   UNL     1     -10.661   6.277  70.686  1.00  0.00    -0.304 P  
HETATM   11  O   UNL     1      -9.690   4.880  70.995  1.00  0.00    -0.163 OA 
HETATM   12  O   UNL     1     -10.984   5.644  69.318  1.00  0.00    -0.304 OA 
BRANCH  10  13
HETATM   13  O   UNL     1     -11.633   7.675  70.377  1.00  0.00    -0.231 OA 
HETATM   14  O   UNL     1     -11.300   7.948  72.876  1.00  0.00    -0.406 OA 
HETATM   15  P   UNL     1     -11.745   8.658  71.640  1.00  0.00    -0.366 P  
HETATM   16  O   UNL     1     -11.246  10.017  71.230  1.00  0.00    -0.341 OA 
HETATM   17  O   UNL     1     -13.343   8.846  71.684  1.00  0.00    -0.341 OA 
ENDBRANCH  10  13
ENDBRANCH   9  10
ENDBRANCH   8   9
ENDBRANCH   7   8
ENDBRANCH   3   7
BRANCH   6  18
HETATM   18  C   UNL     1     -10.501  11.984  68.429  1.00  0.00    -0.219 C  
BRANCH  18  19
HETATM   19  C   UNL     1     -10.745  12.889  67.261  1.00  0.00    -0.260 A  
HETATM   20  C   UNL     1     -12.032  13.231  66.906  1.00  0.00    -0.375 A  
HETATM   21  N   UNL     1     -12.334  14.156  65.984  1.00  0.00    -0.457 NA 
HETATM   22  C   UNL     1     -11.297  14.764  65.387  1.00  0.00    -0.356 A  
HETATM   23  N   UNL     1     -10.017  14.397  65.560  1.00  0.00    -0.343 NA 
HETATM   24  C   UNL     1     -11.599  15.938  64.510  1.00  0.00    -0.232 C  
HETATM   25  C   UNL     1      -9.767  13.438  66.456  1.00  0.00    -0.282 A  
HETATM   26  N   UNL     1      -8.444  12.985  66.481  1.00  0.00    -0.410 NA 
HETATM   27  H1  UNL     1      -7.721  13.391  65.887  1.00  0.00     0.000 HD 
HETATM   28  H2  UNL     1      -8.458  11.979  66.312  1.00  0.00     0.000 HD 
ENDBRANCH  18  19
ENDBRANCH   6  18
TORSDOF 7
ENDMDL
MODEL       84
REMARK 921   NORMALIZED FREE ENERGY PREDICTED BY IDOCK:   -5.30 KCAL/MOL
REMARK 922        TOTAL FREE ENERGY PREDICTED BY IDOCK:   -8.45 KCAL/MOL
REMARK 923 INTER-LIGAND FREE ENERGY PREDICTED BY IDOCK:   -7.79 KCAL/MOL
REMARK 924 INTRA-LIGAND FREE ENERGY PREDICTED BY IDOCK:   -0.67 KCAL/MOL
REMARK 927      BINDING AFFINITY PREDICTED BY RF-SCORE:    0.00 PKD
ROOT
HETATM    1  C   UNL     1     -11.687  13.253  68.453  1.00  0.00    -0.389 C  
HETATM    2  C   UNL     1     -11.314  13.956  67.198  1.00  0.00    -0.327 C  
HETATM    3  C   UNL     1     -10.983  15.302  67.051  1.00  0.00    -0.324 C  
HETATM    4  C   UNL     1     -10.943  14.008  64.934  1.00  0.00    -0.392 C  
HETATM    5  S   UNL     1     -10.782  15.627  65.356  1.00  0.00    -0.413 SA 
HETATM    6  N   UNL     1     -11.227  13.253  65.988  1.00  0.00    -0.294 NA 
ENDROOT
BRANCH   3   7
HETATM    7  C   UNL     1     -10.785  16.430  68.080  1.00  0.00    -0.336 C  
BRANCH   7   8
HETATM    8  C   UNL     1      -9.966  17.569  67.458  1.00  0.00    -0.315 C  
BRANCH   8   9
HETATM    9  O   UNL     1      -8.559  17.548  67.557  1.00  0.00    -0.217 OA 
BRANCH   9  10
HETATM   10  P   UNL     1      -7.818  18.754  66.642  1.00  0.00    -0.280 P  
HETATM   11  O   UNL     1      -9.303  18.962  65.780  1.00  0.00    -0.394 OA 
HETATM   12  O   UNL     1      -7.278  18.067  65.372  1.00  0.00    -0.502 OA 
BRANCH  10  13
HETATM   13  O   UNL     1      -6.333  18.546  67.503  1.00  0.00    -0.190 OA 
HETATM   14  O   UNL     1      -7.736  19.580  69.345  1.00  0.00    -0.267 OA 
HETATM   15  P   UNL     1      -6.467  18.841  69.075  1.00  0.00    -0.281 P  
HETATM   16  O   UNL     1      -6.038  17.611  69.827  1.00  0.00    -0.246 OA 
HETATM   17  O   UNL     1      -5.221  19.843  69.261  1.00  0.00    -0.186 OA 
ENDBRANCH  10  13
ENDBRANCH   9  10
ENDBRANCH   8   9
ENDBRANCH   7   8
ENDBRANCH   3   7
BRANCH   6  18
HETATM   18  C   UNL     1     -11.293  11.794  65.798  1.00  0.00    -0.250 C  
BRANCH  18  19
HETATM   19  C   UNL     1     -10.034  11.224  65.221  1.00  0.00    -0.301 A  
HETATM   20  C   UNL     1      -8.897  11.130  65.994  1.00  0.00    -0.189 A  
HETATM   21  N   UNL     1      -7.783  10.490  65.613  1.00  0.00    -0.150 NA 
HETATM   22  C   UNL     1      -7.809   9.919  64.399  1.00  0.00    -0.142 A  
HETATM   23  N   UNL     1      -8.811  10.080  63.520  1.00  0.00    -0.214 NA 
HETATM   24  C   UNL     1      -6.664   9.028  64.033  1.00  0.00    -0.088 C  
HETATM   25  C   UNL     1      -9.883  10.766  63.928  1.00  0.00    -0.332 A  
HETATM   26  N   UNL     1     -10.822  11.039  62.929  1.00  0.00    -0.768 NA 
HETATM   27  H1  UNL     1     -10.711  10.701  61.973  1.00  0.00     0.000 HD 
HETATM   28  H2  UNL     1     -10.946  12.051  62.888  1.00  0.00     0.000 HD 
ENDBRANCH  18  19
ENDBRANCH   6  18
TORSDOF 7
ENDMDL
MODEL       85
REMARK 921   NORMALIZED FREE ENERGY PREDICTED BY IDOCK:   -5.30 KCAL/MOL
REMARK 922        TOTAL FREE ENERGY PREDICTED BY IDOCK:   -8.45 KCAL/MOL
REMARK 923 INTER-LIGAND FREE ENERGY PREDICTED BY IDOCK:   -7.55 KCAL/MOL
REMARK 924 INTRA-LIGAND FREE ENERGY PREDICTED BY IDOCK:   -0.91 KCAL/MOL
REMARK 927      BINDING AFFINITY PREDICTED BY RF-SCORE:    0.00 PKD
ROOT
HETATM    1  C   UNL     1      -9.566   9.767  65.297  1.00  0.00    -0.368 C  
HETATM    2  C   UNL     1     -10.151  10.328  66.543  1.00  0.00    -0.231 C  
HETATM    3  C   UNL     1     -11.081  11.362  66.647  1.00  0.00    -0.271 C  
HETATM    4  C   UNL     1     -10.356  10.422  68.827  1.00  0.00    -0.196 C  
HETATM    5  S   UNL     1     -11.305  11.718  68.333  1.00  0.00    -0.298 SA 
HETATM    6  N   UNL     1      -9.810   9.793  67.793  1.00  0.00    -0.155 NA 
ENDROOT
BRANCH   3   7
HETATM    7  C   UNL     1     -11.864  12.150  65.582  1.00  0.00    -0.343 C  
BRANCH   7   8
HETATM    8  C   UNL     1     -11.188  13.505  65.332  1.00  0.00    -0.289 C  
BRANCH   8   9
HETATM    9  O   UNL     1     -11.747  14.674  65.889  1.00  0.00    -0.353 OA 
BRANCH   9  10
HETATM   10  P   UNL     1     -10.589  15.837  66.274  1.00  0.00    -0.259 P  
HETATM   11  O   UNL     1     -10.930  16.621  64.771  1.00  0.00    -0.705 OA 
HETATM   12  O   UNL     1      -9.269  15.368  65.631  1.00  0.00    -0.250 OA 
BRANCH  10  13
HETATM   13  O   UNL     1     -10.249  15.053  67.778  1.00  0.00    -0.234 OA 
HETATM   14  O   UNL     1      -9.434  17.388  68.337  1.00  0.00    -0.273 OA 
HETATM   15  P   UNL     1      -9.805  16.071  68.936  1.00  0.00    -0.259 P  
HETATM   16  O   UNL     1     -10.752  15.916  70.094  1.00  0.00    -0.311 OA 
HETATM   17  O   UNL     1      -8.472  15.326  69.443  1.00  0.00    -0.237 OA 
ENDBRANCH  10  13
ENDBRANCH   9  10
ENDBRANCH   8   9
ENDBRANCH   7   8
ENDBRANCH   3   7
BRANCH   6  18
HETATM   18  C   UNL     1      -9.036   8.568  68.057  1.00  0.00    -0.140 C  
BRANCH  18  19
HETATM   19  C   UNL     1      -9.690   7.670  69.062  1.00  0.00    -0.160 A  
HETATM   20  C   UNL     1      -9.132   7.505  70.311  1.00  0.00    -0.154 A  
HETATM   21  N   UNL     1      -9.730   6.854  71.318  1.00  0.00    -0.172 NA 
HETATM   22  C   UNL     1     -10.943   6.342  71.061  1.00  0.00    -0.274 A  
HETATM   23  N   UNL     1     -11.502   6.325  69.839  1.00  0.00    -0.436 NA 
HETATM   24  C   UNL     1     -11.720   5.794  72.216  1.00  0.00    -0.265 C  
HETATM   25  C   UNL     1     -10.847   6.947  68.855  1.00  0.00    -0.207 A  
HETATM   26  N   UNL     1     -11.390   6.763  67.579  1.00  0.00    -0.707 NA 
HETATM   27  H1  UNL     1     -12.245   6.229  67.426  1.00  0.00     0.000 HD 
HETATM   28  H2  UNL     1     -10.662   6.361  66.988  1.00  0.00     0.000 HD 
ENDBRANCH  18  19
ENDBRANCH   6  18
TORSDOF 7
ENDMDL
MODEL       86
REMARK 921   NORMALIZED FREE ENERGY PREDICTED BY IDOCK:   -5.28 KCAL/MOL
REMARK 922        TOTAL FREE ENERGY PREDICTED BY IDOCK:   -8.43 KCAL/MOL
REMARK 923 INTER-LIGAND FREE ENERGY PREDICTED BY IDOCK:   -7.52 KCAL/MOL
REMARK 924 INTRA-LIGAND FREE ENERGY PREDICTED BY IDOCK:   -0.92 KCAL/MOL
REMARK 927      BINDING AFFINITY PREDICTED BY RF-SCORE:    0.00 PKD
ROOT
HETATM    1  C   UNL     1     -11.808  12.026  69.606  1.00  0.00    -0.401 C  
HETATM    2  C   UNL     1     -10.798  11.569  68.616  1.00  0.00    -0.212 C  
HETATM    3  C   UNL     1      -9.789  10.627  68.814  1.00  0.00    -0.191 C  
HETATM    4  C   UNL     1      -9.824  11.618  66.539  1.00  0.00    -0.204 C  
HETATM    5  S   UNL     1      -8.804  10.583  67.383  1.00  0.00    -0.131 SA 
HETATM    6  N   UNL     1     -10.813  12.063  67.304  1.00  0.00    -0.235 NA 
ENDROOT
BRANCH   3   7
HETATM    7  C   UNL     1      -9.462   9.707  70.004  1.00  0.00    -0.277 C  
BRANCH   7   8
HETATM    8  C   UNL     1     -10.342   8.450  69.951  1.00  0.00    -0.210 C  
BRANCH   8   9
HETATM    9  O   UNL     1      -9.734   7.178  69.918  1.00  0.00    -0.170 OA 
BRANCH   9  10
HETATM   10  P   UNL     1     -10.847   5.924  69.741  1.00  0.00    -0.317 P  
HETATM   11  O   UNL     1     -11.811   6.653  70.977  1.00  0.00    -0.348 OA 
HETATM   12  O   UNL     1     -10.469   4.855  70.786  1.00  0.00    -0.199 OA 
BRANCH  10  13
HETATM   13  O   UNL     1      -9.883   5.194  68.504  1.00  0.00    -0.141 OA 
HETATM   14  O   UNL     1     -11.372   6.652  67.059  1.00  0.00    -0.348 OA 
HETATM   15  P   UNL     1     -10.118   5.841  67.055  1.00  0.00    -0.239 P  
HETATM   16  O   UNL     1      -8.798   6.346  66.540  1.00  0.00    -0.126 OA 
HETATM   17  O   UNL     1     -10.359   4.497  66.203  1.00  0.00    -0.266 OA 
ENDBRANCH  10  13
ENDBRANCH   9  10
ENDBRANCH   8   9
ENDBRANCH   7   8
ENDBRANCH   3   7
BRANCH   6  18
HETATM   18  C   UNL     1     -11.853  12.897  66.678  1.00  0.00    -0.395 C  
BRANCH  18  19
HETATM   19  C   UNL     1     -11.417  14.314  66.469  1.00  0.00    -0.368 A  
HETATM   20  C   UNL     1     -11.215  15.143  67.551  1.00  0.00    -0.330 A  
HETATM   21  N   UNL     1     -10.674  16.367  67.466  1.00  0.00    -0.320 NA 
HETATM   22  C   UNL     1     -10.322  16.779  66.239  1.00  0.00    -0.310 A  
HETATM   23  N   UNL     1     -10.612  16.106  65.113  1.00  0.00    -0.609 NA 
HETATM   24  C   UNL     1      -9.532  18.046  66.138  1.00  0.00    -0.161 C  
HETATM   25  C   UNL     1     -11.194  14.910  65.245  1.00  0.00    -0.369 A  
HETATM   26  N   UNL     1     -11.617  14.326  64.046  1.00  0.00    -0.639 NA 
HETATM   27  H1  UNL     1     -11.451  14.767  63.141  1.00  0.00     0.000 HD 
HETATM   28  H2  UNL     1     -12.617  14.146  64.126  1.00  0.00     0.000 HD 
ENDBRANCH  18  19
ENDBRANCH   6  18
TORSDOF 7
ENDMDL
MODEL       87
REMARK 921   NORMALIZED FREE ENERGY PREDICTED BY IDOCK:   -5.28 KCAL/MOL
REMARK 922        TOTAL FREE ENERGY PREDICTED BY IDOCK:   -8.42 KCAL/MOL
REMARK 923 INTER-LIGAND FREE ENERGY PREDICTED BY IDOCK:   -7.56 KCAL/MOL
REMARK 924 INTRA-LIGAND FREE ENERGY PREDICTED BY IDOCK:   -0.87 KCAL/MOL
REMARK 927      BINDING AFFINITY PREDICTED BY RF-SCORE:    0.00 PKD
ROOT
HETATM    1  C   UNL     1     -10.029  12.335  67.627  1.00  0.00    -0.199 C  
HETATM    2  C   UNL     1     -10.827  13.058  68.651  1.00  0.00    -0.259 C  
HETATM    3  C   UNL     1     -11.833  12.534  69.462  1.00  0.00    -0.310 C  
HETATM    4  C   UNL     1     -11.398  14.952  69.815  1.00  0.00    -0.283 C  
HETATM    5  S   UNL     1     -12.533  13.843  70.366  1.00  0.00    -0.307 SA 
HETATM    6  N   UNL     1     -10.578  14.411  68.922  1.00  0.00    -0.244 NA 
ENDROOT
BRANCH   3   7
HETATM    7  C   UNL     1     -12.356  11.099  69.652  1.00  0.00    -0.287 C  
BRANCH   7   8
HETATM    8  C   UNL     1     -11.368  10.291  70.503  1.00  0.00    -0.341 C  
BRANCH   8   9
HETATM    9  O   UNL     1     -11.589   8.913  70.704  1.00  0.00    -0.271 OA 
BRANCH   9  10
HETATM   10  P   UNL     1     -10.166   8.053  70.984  1.00  0.00    -0.194 P  
HETATM   11  O   UNL     1     -10.789   7.599  72.533  1.00  0.00    -0.260 OA 
HETATM   12  O   UNL     1      -9.222   9.009  71.741  1.00  0.00    -0.329 OA 
BRANCH  10  13
HETATM   13  O   UNL     1      -9.543   8.507  69.436  1.00  0.00    -0.167 OA 
HETATM   14  O   UNL     1     -10.447   6.209  68.859  1.00  0.00    -0.188 OA 
HETATM   15  P   UNL     1      -9.952   7.487  68.267  1.00  0.00    -0.184 P  
HETATM   16  O   UNL     1     -10.686   8.255  67.202  1.00  0.00    -0.302 OA 
HETATM   17  O   UNL     1      -8.501   7.241  67.614  1.00  0.00    -0.116 OA 
ENDBRANCH  10  13
ENDBRANCH   9  10
ENDBRANCH   8   9
ENDBRANCH   7   8
ENDBRANCH   3   7
BRANCH   6  18
HETATM   18  C   UNL     1      -9.459  15.229  68.424  1.00  0.00    -0.206 C  
BRANCH  18  19
HETATM   19  C   UNL     1      -9.911  16.441  67.671  1.00  0.00    -0.243 A  
HETATM   20  C   UNL     1     -10.042  17.650  68.318  1.00  0.00    -0.362 A  
HETATM   21  N   UNL     1     -10.283  18.812  67.694  1.00  0.00    -0.376 NA 
HETATM   22  C   UNL     1     -10.400  18.758  66.359  1.00  0.00    -0.439 A  
HETATM   23  N   UNL     1     -10.432  17.612  65.658  1.00  0.00    -0.623 NA 
HETATM   24  C   UNL     1     -10.462  20.058  65.620  1.00  0.00    -0.405 C  
HETATM   25  C   UNL     1     -10.234  16.475  66.330  1.00  0.00    -0.332 A  
HETATM   26  N   UNL     1     -10.436  15.308  65.585  1.00  0.00    -0.331 NA 
HETATM   27  H1  UNL     1     -10.674  15.333  64.593  1.00  0.00     0.000 HD 
HETATM   28  H2  UNL     1     -11.147  14.755  66.062  1.00  0.00     0.000 HD 
ENDBRANCH  18  19
ENDBRANCH   6  18
TORSDOF 7
ENDMDL
MODEL       88
REMARK 921   NORMALIZED FREE ENERGY PREDICTED BY IDOCK:   -5.27 KCAL/MOL
REMARK 922        TOTAL FREE ENERGY PREDICTED BY IDOCK:   -8.41 KCAL/MOL
REMARK 923 INTER-LIGAND FREE ENERGY PREDICTED BY IDOCK:   -7.59 KCAL/MOL
REMARK 924 INTRA-LIGAND FREE ENERGY PREDICTED BY IDOCK:   -0.82 KCAL/MOL
REMARK 927      BINDING AFFINITY PREDICTED BY RF-SCORE:    0.00 PKD
ROOT
HETATM    1  C   UNL     1      -9.018  10.243  68.963  1.00  0.00    -0.175 C  
HETATM    2  C   UNL     1     -10.277  10.139  69.745  1.00  0.00    -0.247 C  
HETATM    3  C   UNL     1     -11.519  10.686  69.423  1.00  0.00    -0.286 C  
HETATM    4  C   UNL     1     -11.486   9.431  71.563  1.00  0.00    -0.397 C  
HETATM    5  S   UNL     1     -12.600  10.391  70.750  1.00  0.00    -0.376 SA 
HETATM    6  N   UNL     1     -10.318   9.395  70.932  1.00  0.00    -0.294 NA 
ENDROOT
BRANCH   3   7
HETATM    7  C   UNL     1     -12.017  11.438  68.175  1.00  0.00    -0.201 C  
BRANCH   7   8
HETATM    8  C   UNL     1     -11.796  12.946  68.350  1.00  0.00    -0.318 C  
BRANCH   8   9
HETATM    9  O   UNL     1     -11.268  13.435  69.563  1.00  0.00    -0.214 OA 
BRANCH   9  10
HETATM   10  P   UNL     1     -11.894  14.940  69.993  1.00  0.00    -0.352 P  
HETATM   11  O   UNL     1     -11.696  15.450  68.352  1.00  0.00    -0.352 OA 
HETATM   12  O   UNL     1     -10.685  15.836  70.327  1.00  0.00    -0.315 OA 
BRANCH  10  13
HETATM   13  O   UNL     1     -12.092  14.430  71.634  1.00  0.00    -0.341 OA 
HETATM   14  O   UNL     1     -14.313  15.606  71.297  1.00  0.00    -0.521 OA 
HETATM   15  P   UNL     1     -13.577  14.667  72.195  1.00  0.00    -0.521 P  
HETATM   16  O   UNL     1     -14.127  13.346  72.657  1.00  0.00    -0.767 OA 
HETATM   17  O   UNL     1     -13.220  15.423  73.571  1.00  0.00    -0.478 OA 
ENDBRANCH  10  13
ENDBRANCH   9  10
ENDBRANCH   8   9
ENDBRANCH   7   8
ENDBRANCH   3   7
BRANCH   6  18
HETATM   18  C   UNL     1      -9.270   8.508  71.465  1.00  0.00    -0.221 C  
BRANCH  18  19
HETATM   19  C   UNL     1      -9.213   7.185  70.764  1.00  0.00    -0.157 A  
HETATM   20  C   UNL     1     -10.242   6.280  70.906  1.00  0.00    -0.193 A  
HETATM   21  N   UNL     1     -10.350   5.150  70.194  1.00  0.00    -0.282 NA 
HETATM   22  C   UNL     1      -9.379   4.915  69.298  1.00  0.00    -0.128 A  
HETATM   23  N   UNL     1      -8.266   5.660  69.191  1.00  0.00    -0.099 NA 
HETATM   24  C   UNL     1      -9.578   3.776  68.349  1.00  0.00    -0.172 C  
HETATM   25  C   UNL     1      -8.182   6.753  69.955  1.00  0.00    -0.127 A  
HETATM   26  N   UNL     1      -6.942   7.401  69.921  1.00  0.00    -0.058 NA 
HETATM   27  H1  UNL     1      -6.180   7.081  69.323  1.00  0.00     0.000 HD 
HETATM   28  H2  UNL     1      -6.590   7.445  70.877  1.00  0.00     0.000 HD 
ENDBRANCH  18  19
ENDBRANCH   6  18
TORSDOF 7
ENDMDL
MODEL       89
REMARK 921   NORMALIZED FREE ENERGY PREDICTED BY IDOCK:   -5.25 KCAL/MOL
REMARK 922        TOTAL FREE ENERGY PREDICTED BY IDOCK:   -8.38 KCAL/MOL
REMARK 923 INTER-LIGAND FREE ENERGY PREDICTED BY IDOCK:   -7.60 KCAL/MOL
REMARK 924 INTRA-LIGAND FREE ENERGY PREDICTED BY IDOCK:   -0.79 KCAL/MOL
REMARK 927      BINDING AFFINITY PREDICTED BY RF-SCORE:    0.00 PKD
ROOT
HETATM    1  C   UNL     1      -8.188  12.215  67.115  1.00  0.00    -0.182 C  
HETATM    2  C   UNL     1      -9.635  12.432  67.375  1.00  0.00    -0.184 C  
HETATM    3  C   UNL     1     -10.496  13.288  66.689  1.00  0.00    -0.279 C  
HETATM    4  C   UNL     1     -11.569  12.039  68.546  1.00  0.00    -0.309 C  
HETATM    5  S   UNL     1     -12.034  13.267  67.497  1.00  0.00    -0.278 SA 
HETATM    6  N   UNL     1     -10.294  11.709  68.378  1.00  0.00    -0.198 NA 
ENDROOT
BRANCH   3   7
HETATM    7  C   UNL     1     -10.295  14.161  65.437  1.00  0.00    -0.384 C  
BRANCH   7   8
HETATM    8  C   UNL     1     -10.582  15.631  65.772  1.00  0.00    -0.361 C  
BRANCH   8   9
HETATM    9  O   UNL     1      -9.564  16.592  65.610  1.00  0.00    -0.519 OA 
BRANCH   9  10
HETATM   10  P   UNL     1      -8.877  17.073  67.073  1.00  0.00    -0.245 P  
HETATM   11  O   UNL     1      -7.694  15.825  66.887  1.00  0.00    -0.220 OA 
HETATM   12  O   UNL     1      -9.512  16.189  68.164  1.00  0.00    -0.206 OA 
BRANCH  10  13
HETATM   13  O   UNL     1     -10.060  18.322  67.260  1.00  0.00    -0.323 OA 
HETATM   14  O   UNL     1      -8.415  19.534  65.758  1.00  0.00    -0.418 OA 
HETATM   15  P   UNL     1      -9.806  19.582  66.300  1.00  0.00    -0.424 P  
HETATM   16  O   UNL     1     -11.029  19.784  65.448  1.00  0.00    -0.414 OA 
HETATM   17  O   UNL     1      -9.910  20.764  67.386  1.00  0.00    -0.464 OA 
ENDBRANCH  10  13
ENDBRANCH   9  10
ENDBRANCH   8   9
ENDBRANCH   7   8
ENDBRANCH   3   7
BRANCH   6  18
HETATM   18  C   UNL     1      -9.766  10.572  69.151  1.00  0.00    -0.211 C  
BRANCH  18  19
HETATM   19  C   UNL     1     -10.216   9.245  68.620  1.00  0.00    -0.220 A  
HETATM   20  C   UNL     1     -10.262   9.022  67.262  1.00  0.00    -0.256 A  
HETATM   21  N   UNL     1     -10.495   7.825  66.707  1.00  0.00    -0.308 NA 
HETATM   22  C   UNL     1     -10.694   6.804  67.554  1.00  0.00    -0.311 A  
HETATM   23  N   UNL     1     -10.812   6.950  68.884  1.00  0.00    -0.224 NA 
HETATM   24  C   UNL     1     -10.751   5.426  66.972  1.00  0.00    -0.233 C  
HETATM   25  C   UNL     1     -10.617   8.171  69.388  1.00  0.00    -0.200 A  
HETATM   26  N   UNL     1     -10.908   8.299  70.750  1.00  0.00    -0.223 NA 
HETATM   27  H1  UNL     1     -11.204   7.505  71.318  1.00  0.00     0.000 HD 
HETATM   28  H2  UNL     1     -11.610   9.032  70.850  1.00  0.00     0.000 HD 
ENDBRANCH  18  19
ENDBRANCH   6  18
TORSDOF 7
ENDMDL
MODEL       90
REMARK 921   NORMALIZED FREE ENERGY PREDICTED BY IDOCK:   -5.25 KCAL/MOL
REMARK 922        TOTAL FREE ENERGY PREDICTED BY IDOCK:   -8.38 KCAL/MOL
REMARK 923 INTER-LIGAND FREE ENERGY PREDICTED BY IDOCK:   -7.23 KCAL/MOL
REMARK 924 INTRA-LIGAND FREE ENERGY PREDICTED BY IDOCK:   -1.15 KCAL/MOL
REMARK 927      BINDING AFFINITY PREDICTED BY RF-SCORE:    0.00 PKD
ROOT
HETATM    1  C   UNL     1     -11.633  11.409  69.402  1.00  0.00    -0.391 C  
HETATM    2  C   UNL     1     -10.795  10.935  68.271  1.00  0.00    -0.225 C  
HETATM    3  C   UNL     1     -10.985  11.193  66.914  1.00  0.00    -0.273 C  
HETATM    4  C   UNL     1      -9.020   9.761  67.411  1.00  0.00    -0.135 C  
HETATM    5  S   UNL     1      -9.810  10.277  66.020  1.00  0.00    -0.247 SA 
HETATM    6  N   UNL     1      -9.645  10.168  68.509  1.00  0.00    -0.150 NA 
ENDROOT
BRANCH   3   7
HETATM    7  C   UNL     1     -11.989  12.092  66.170  1.00  0.00    -0.225 C  
BRANCH   7   8
HETATM    8  C   UNL     1     -11.601  13.567  66.346  1.00  0.00    -0.350 C  
BRANCH   8   9
HETATM    9  O   UNL     1     -10.253  13.953  66.194  1.00  0.00    -0.285 OA 
BRANCH   9  10
HETATM   10  P   UNL     1      -9.717  14.966  67.430  1.00  0.00    -0.220 P  
HETATM   11  O   UNL     1      -8.585  13.743  67.891  1.00  0.00    -0.160 OA 
HETATM   12  O   UNL     1     -10.517  14.579  68.689  1.00  0.00    -0.234 OA 
BRANCH  10  13
HETATM   13  O   UNL     1     -10.849  16.190  66.968  1.00  0.00    -0.292 OA 
HETATM   14  O   UNL     1      -8.774  17.095  65.825  1.00  0.00    -0.527 OA 
HETATM   15  P   UNL     1     -10.261  17.219  65.886  1.00  0.00    -0.084 P  
HETATM   16  O   UNL     1     -11.153  17.196  64.675  1.00  0.00    -1.036 OA 
HETATM   17  O   UNL     1     -10.648  18.605  66.607  1.00  0.00    -0.394 OA 
ENDBRANCH  10  13
ENDBRANCH   9  10
ENDBRANCH   8   9
ENDBRANCH   7   8
ENDBRANCH   3   7
BRANCH   6  18
HETATM   18  C   UNL     1      -9.015   9.887  69.810  1.00  0.00    -0.221 C  
BRANCH  18  19
HETATM   19  C   UNL     1      -9.684   8.772  70.554  1.00  0.00    -0.225 A  
HETATM   20  C   UNL     1     -10.300   9.016  71.761  1.00  0.00    -0.337 A  
HETATM   21  N   UNL     1     -11.056   8.120  72.411  1.00  0.00    -0.343 NA 
HETATM   22  C   UNL     1     -11.199   6.922  71.824  1.00  0.00    -0.252 A  
HETATM   23  N   UNL     1     -10.522   6.544  70.726  1.00  0.00    -0.214 NA 
HETATM   24  C   UNL     1     -12.197   5.978  72.416  1.00  0.00    -0.099 C  
HETATM   25  C   UNL     1      -9.744   7.457  70.138  1.00  0.00    -0.175 A  
HETATM   26  N   UNL     1      -8.944   6.969  69.100  1.00  0.00    -0.135 NA 
HETATM   27  H1  UNL     1      -8.989   5.997  68.793  1.00  0.00     0.000 HD 
HETATM   28  H2  UNL     1      -7.974   7.177  69.333  1.00  0.00     0.000 HD 
ENDBRANCH  18  19
ENDBRANCH   6  18
TORSDOF 7
ENDMDL
MODEL       91
REMARK 921   NORMALIZED FREE ENERGY PREDICTED BY IDOCK:   -5.23 KCAL/MOL
REMARK 922        TOTAL FREE ENERGY PREDICTED BY IDOCK:   -8.36 KCAL/MOL
REMARK 923 INTER-LIGAND FREE ENERGY PREDICTED BY IDOCK:   -7.66 KCAL/MOL
REMARK 924 INTRA-LIGAND FREE ENERGY PREDICTED BY IDOCK:   -0.70 KCAL/MOL
REMARK 927      BINDING AFFINITY PREDICTED BY RF-SCORE:    0.00 PKD
ROOT
HETATM    1  C   UNL     1     -11.772  15.249  68.718  1.00  0.00    -0.374 C  
HETATM    2  C   UNL     1     -11.340  15.352  67.299  1.00  0.00    -0.220 C  
HETATM    3  C   UNL     1     -11.437  14.371  66.314  1.00  0.00    -0.359 C  
HETATM    4  C   UNL     1     -10.400  16.488  65.541  1.00  0.00    -0.284 C  
HETATM    5  S   UNL     1     -10.648  14.962  64.884  1.00  0.00    -0.326 SA 
HETATM    6  N   UNL     1     -10.798  16.547  66.806  1.00  0.00    -0.151 NA 
ENDROOT
BRANCH   3   7
HETATM    7  C   UNL     1     -12.086  12.975  66.315  1.00  0.00    -0.453 C  
BRANCH   7   8
HETATM    8  C   UNL     1     -11.327  12.045  67.272  1.00  0.00    -0.330 C  
BRANCH   8   9
HETATM    9  O   UNL     1     -12.045  11.283  68.216  1.00  0.00    -0.619 OA 
BRANCH   9  10
HETATM   10  P   UNL     1     -11.064  10.228  69.091  1.00  0.00    -0.199 P  
HETATM   11  O   UNL     1     -11.527  11.055  70.538  1.00  0.00    -0.294 OA 
HETATM   12  O   UNL     1      -9.696  10.923  69.235  1.00  0.00    -0.170 OA 
BRANCH  10  13
HETATM   13  O   UNL     1     -10.600   9.401  67.644  1.00  0.00    -0.260 OA 
HETATM   14  O   UNL     1      -9.763   7.732  69.360  1.00  0.00    -0.166 OA 
HETATM   15  P   UNL     1     -10.075   7.908  67.910  1.00  0.00    -0.212 P  
HETATM   16  O   UNL     1     -10.928   6.957  67.116  1.00  0.00    -0.361 OA 
HETATM   17  O   UNL     1      -8.700   7.961  67.075  1.00  0.00    -0.124 OA 
ENDBRANCH  10  13
ENDBRANCH   9  10
ENDBRANCH   8   9
ENDBRANCH   7   8
ENDBRANCH   3   7
BRANCH   6  18
HETATM   18  C   UNL     1     -10.745  17.851  67.489  1.00  0.00    -0.321 C  
BRANCH  18  19
HETATM   19  C   UNL     1      -9.352  18.264  67.851  1.00  0.00    -0.284 A  
HETATM   20  C   UNL     1      -8.520  17.390  68.515  1.00  0.00    -0.274 A  
HETATM   21  N   UNL     1      -7.217  17.615  68.733  1.00  0.00    -0.261 NA 
HETATM   22  C   UNL     1      -6.726  18.773  68.267  1.00  0.00    -0.232 A  
HETATM   23  N   UNL     1      -7.485  19.747  67.740  1.00  0.00    -0.279 NA 
HETATM   24  C   UNL     1      -5.242  18.960  68.311  1.00  0.00    -0.180 C  
HETATM   25  C   UNL     1      -8.788  19.495  67.584  1.00  0.00    -0.314 A  
HETATM   26  N   UNL     1      -9.556  20.593  67.183  1.00  0.00    -0.612 NA 
HETATM   27  H1  UNL     1      -9.139  21.503  66.985  1.00  0.00     0.000 HD 
HETATM   28  H2  UNL     1     -10.287  20.731  67.880  1.00  0.00     0.000 HD 
ENDBRANCH  18  19
ENDBRANCH   6  18
TORSDOF 7
ENDMDL
MODEL       92
REMARK 921   NORMALIZED FREE ENERGY PREDICTED BY IDOCK:   -5.22 KCAL/MOL
REMARK 922        TOTAL FREE ENERGY PREDICTED BY IDOCK:   -8.35 KCAL/MOL
REMARK 923 INTER-LIGAND FREE ENERGY PREDICTED BY IDOCK:   -7.15 KCAL/MOL
REMARK 924 INTRA-LIGAND FREE ENERGY PREDICTED BY IDOCK:   -1.20 KCAL/MOL
REMARK 927      BINDING AFFINITY PREDICTED BY RF-SCORE:    0.00 PKD
ROOT
HETATM    1  C   UNL     1     -13.375   9.727  71.547  1.00  0.00    -0.468 C  
HETATM    2  C   UNL     1     -11.934   9.612  71.202  1.00  0.00    -0.367 C  
HETATM    3  C   UNL     1     -10.978   8.812  71.826  1.00  0.00    -0.345 C  
HETATM    4  C   UNL     1     -10.093  10.180  69.954  1.00  0.00    -0.222 C  
HETATM    5  S   UNL     1      -9.430   9.174  71.125  1.00  0.00    -0.223 SA 
HETATM    6  N   UNL     1     -11.403  10.326  70.119  1.00  0.00    -0.294 NA 
ENDROOT
BRANCH   3   7
HETATM    7  C   UNL     1     -11.093   7.752  72.936  1.00  0.00    -0.457 C  
BRANCH   7   8
HETATM    8  C   UNL     1     -11.296   6.363  72.315  1.00  0.00    -0.290 C  
BRANCH   8   9
HETATM    9  O   UNL     1     -11.348   6.231  70.912  1.00  0.00    -0.312 OA 
BRANCH   9  10
HETATM   10  P   UNL     1     -10.120   5.253  70.298  1.00  0.00    -0.277 P  
HETATM   11  O   UNL     1     -10.168   4.336  71.764  1.00  0.00    -0.179 OA 
HETATM   12  O   UNL     1      -8.793   5.844  70.813  1.00  0.00    -0.135 OA 
BRANCH  10  13
HETATM   13  O   UNL     1     -10.073   6.169  68.832  1.00  0.00    -0.153 OA 
HETATM   14  O   UNL     1      -9.351   3.911  67.931  1.00  0.00    -0.151 OA 
HETATM   15  P   UNL     1      -9.841   5.263  67.528  1.00  0.00    -0.171 P  
HETATM   16  O   UNL     1     -10.988   5.490  66.582  1.00  0.00    -0.244 OA 
HETATM   17  O   UNL     1      -8.632   6.083  66.851  1.00  0.00    -0.109 OA 
ENDBRANCH  10  13
ENDBRANCH   9  10
ENDBRANCH   8   9
ENDBRANCH   7   8
ENDBRANCH   3   7
BRANCH   6  18
HETATM   18  C   UNL     1     -12.147  11.094  69.106  1.00  0.00    -0.283 C  
BRANCH  18  19
HETATM   19  C   UNL     1     -11.708  12.524  69.018  1.00  0.00    -0.368 A  
HETATM   20  C   UNL     1     -10.931  12.947  67.962  1.00  0.00    -0.247 A  
HETATM   21  N   UNL     1     -10.631  14.230  67.720  1.00  0.00    -0.251 NA 
HETATM   22  C   UNL     1     -11.131  15.132  68.579  1.00  0.00    -0.276 A  
HETATM   23  N   UNL     1     -11.772  14.806  69.713  1.00  0.00    -0.292 NA 
HETATM   24  C   UNL     1     -10.987  16.578  68.222  1.00  0.00    -0.346 C  
HETATM   25  C   UNL     1     -12.009  13.510  69.936  1.00  0.00    -0.348 A  
HETATM   26  N   UNL     1     -12.534  13.215  71.198  1.00  0.00    -0.341 NA 
HETATM   27  H1  UNL     1     -12.756  13.944  71.876  1.00  0.00     0.000 HD 
HETATM   28  H2  UNL     1     -11.903  12.553  71.649  1.00  0.00     0.000 HD 
ENDBRANCH  18  19
ENDBRANCH   6  18
TORSDOF 7
ENDMDL
MODEL       93
REMARK 921   NORMALIZED FREE ENERGY PREDICTED BY IDOCK:   -5.22 KCAL/MOL
REMARK 922        TOTAL FREE ENERGY PREDICTED BY IDOCK:   -8.35 KCAL/MOL
REMARK 923 INTER-LIGAND FREE ENERGY PREDICTED BY IDOCK:   -7.28 KCAL/MOL
REMARK 924 INTRA-LIGAND FREE ENERGY PREDICTED BY IDOCK:   -1.07 KCAL/MOL
REMARK 927      BINDING AFFINITY PREDICTED BY RF-SCORE:    0.00 PKD
ROOT
HETATM    1  C   UNL     1     -10.867  11.987  63.744  1.00  0.00    -0.481 C  
HETATM    2  C   UNL     1     -11.002  11.615  65.177  1.00  0.00    -0.266 C  
HETATM    3  C   UNL     1     -10.313  10.612  65.857  1.00  0.00    -0.224 C  
HETATM    4  C   UNL     1     -11.941  11.854  67.257  1.00  0.00     0.010 C  
HETATM    5  S   UNL     1     -10.962  10.505  67.465  1.00  0.00    -0.279 SA 
HETATM    6  N   UNL     1     -11.871  12.324  66.018  1.00  0.00    -0.562 NA 
ENDROOT
BRANCH   3   7
HETATM    7  C   UNL     1      -9.165   9.680  65.425  1.00  0.00    -0.295 C  
BRANCH   7   8
HETATM    8  C   UNL     1      -7.844  10.157  66.044  1.00  0.00    -0.122 C  
BRANCH   8   9
HETATM    9  O   UNL     1      -7.667  11.525  66.334  1.00  0.00    -0.108 OA 
BRANCH   9  10
HETATM   10  P   UNL     1      -6.935  11.790  67.829  1.00  0.00    -0.116 P  
HETATM   11  O   UNL     1      -6.425  10.138  67.831  1.00  0.00    -0.061 OA 
HETATM   12  O   UNL     1      -7.969  11.382  68.898  1.00  0.00    -0.142 OA 
BRANCH  10  13
HETATM   13  O   UNL     1      -7.446  13.443  67.827  1.00  0.00    -0.127 OA 
HETATM   14  O   UNL     1      -5.928  13.483  69.858  1.00  0.00    -0.115 OA 
HETATM   15  P   UNL     1      -6.646  14.353  68.880  1.00  0.00    -0.109 P  
HETATM   16  O   UNL     1      -5.997  15.485  68.132  1.00  0.00    -0.111 OA 
HETATM   17  O   UNL     1      -7.892  15.059  69.615  1.00  0.00    -0.189 OA 
ENDBRANCH  10  13
ENDBRANCH   9  10
ENDBRANCH   8   9
ENDBRANCH   7   8
ENDBRANCH   3   7
BRANCH   6  18
HETATM   18  C   UNL     1     -12.591  13.571  65.707  1.00  0.00    -0.434 C  
BRANCH  18  19
HETATM   19  C   UNL     1     -11.758  14.796  65.926  1.00  0.00    -0.248 A  
HETATM   20  C   UNL     1     -11.267  15.086  67.180  1.00  0.00    -0.336 A  
HETATM   21  N   UNL     1     -10.387  16.065  67.433  1.00  0.00    -0.288 NA 
HETATM   22  C   UNL     1      -9.981  16.788  66.378  1.00  0.00    -0.304 A  
HETATM   23  N   UNL     1     -10.510  16.677  65.148  1.00  0.00    -0.672 NA 
HETATM   24  C   UNL     1      -8.851  17.745  66.592  1.00  0.00    -0.282 C  
HETATM   25  C   UNL     1     -11.419  15.717  64.955  1.00  0.00    -0.245 A  
HETATM   26  N   UNL     1     -12.051  15.747  63.707  1.00  0.00    -1.173 NA 
HETATM   27  H1  UNL     1     -11.801  16.427  62.990  1.00  0.00     0.000 HD 
HETATM   28  H2  UNL     1     -13.055  15.822  63.870  1.00  0.00     0.000 HD 
ENDBRANCH  18  19
ENDBRANCH   6  18
TORSDOF 7
ENDMDL
MODEL       94
REMARK 921   NORMALIZED FREE ENERGY PREDICTED BY IDOCK:   -5.19 KCAL/MOL
REMARK 922        TOTAL FREE ENERGY PREDICTED BY IDOCK:   -8.30 KCAL/MOL
REMARK 923 INTER-LIGAND FREE ENERGY PREDICTED BY IDOCK:   -7.50 KCAL/MOL
REMARK 924 INTRA-LIGAND FREE ENERGY PREDICTED BY IDOCK:   -0.80 KCAL/MOL
REMARK 927      BINDING AFFINITY PREDICTED BY RF-SCORE:    0.00 PKD
ROOT
HETATM    1  C   UNL     1     -12.399  13.719  70.083  1.00  0.00    -0.390 C  
HETATM    2  C   UNL     1     -11.976  12.644  69.149  1.00  0.00    -0.243 C  
HETATM    3  C   UNL     1     -11.755  11.301  69.453  1.00  0.00    -0.339 C  
HETATM    4  C   UNL     1     -11.357  11.884  67.074  1.00  0.00    -0.329 C  
HETATM    5  S   UNL     1     -11.131  10.522  68.031  1.00  0.00    -0.290 SA 
HETATM    6  N   UNL     1     -11.791  12.916  67.787  1.00  0.00    -0.354 NA 
ENDROOT
BRANCH   3   7
HETATM    7  C   UNL     1     -11.969  10.491  70.745  1.00  0.00    -0.472 C  
BRANCH   7   8
HETATM    8  C   UNL     1     -10.743   9.610  71.020  1.00  0.00    -0.323 C  
BRANCH   8   9
HETATM    9  O   UNL     1     -10.860   8.509  71.893  1.00  0.00    -0.273 OA 
BRANCH   9  10
HETATM   10  P   UNL     1     -10.992   7.038  71.081  1.00  0.00    -0.266 P  
HETATM   11  O   UNL     1     -12.553   6.826  71.795  1.00  0.00    -0.357 OA 
HETATM   12  O   UNL     1     -10.494   5.955  72.058  1.00  0.00    -0.201 OA 
BRANCH  10  13
HETATM   13  O   UNL     1      -9.431   7.250  70.367  1.00  0.00    -0.165 OA 
HETATM   14  O   UNL     1     -10.425   5.610  68.707  1.00  0.00    -0.208 OA 
HETATM   15  P   UNL     1      -9.301   6.571  68.919  1.00  0.00    -0.128 P  
HETATM   16  O   UNL     1      -8.912   7.634  67.929  1.00  0.00    -0.129 OA 
HETATM   17  O   UNL     1      -7.935   5.748  69.137  1.00  0.00    -0.095 OA 
ENDBRANCH  10  13
ENDBRANCH   9  10
ENDBRANCH   8   9
ENDBRANCH   7   8
ENDBRANCH   3   7
BRANCH   6  18
HETATM   18  C   UNL     1     -12.139  14.155  67.070  1.00  0.00    -0.414 C  
BRANCH  18  19
HETATM   19  C   UNL     1     -11.021  15.151  67.049  1.00  0.00    -0.322 A  
HETATM   20  C   UNL     1     -11.007  16.197  67.945  1.00  0.00    -0.318 A  
HETATM   21  N   UNL     1      -9.973  17.035  68.103  1.00  0.00    -0.274 NA 
HETATM   22  C   UNL     1      -8.904  16.815  67.323  1.00  0.00    -0.204 A  
HETATM   23  N   UNL     1      -8.880  15.918  66.324  1.00  0.00    -0.333 NA 
HETATM   24  C   UNL     1      -7.663  17.599  67.617  1.00  0.00    -0.211 C  
HETATM   25  C   UNL     1      -9.953  15.135  66.175  1.00  0.00    -0.295 A  
HETATM   26  N   UNL     1      -9.943  14.334  65.029  1.00  0.00    -0.563 NA 
HETATM   27  H1  UNL     1      -9.153  14.321  64.383  1.00  0.00     0.000 HD 
HETATM   28  H2  UNL     1     -10.781  14.552  64.491  1.00  0.00     0.000 HD 
ENDBRANCH  18  19
ENDBRANCH   6  18
TORSDOF 7
ENDMDL
MODEL       95
REMARK 921   NORMALIZED FREE ENERGY PREDICTED BY IDOCK:   -5.19 KCAL/MOL
REMARK 922        TOTAL FREE ENERGY PREDICTED BY IDOCK:   -8.30 KCAL/MOL
REMARK 923 INTER-LIGAND FREE ENERGY PREDICTED BY IDOCK:   -7.73 KCAL/MOL
REMARK 924 INTRA-LIGAND FREE ENERGY PREDICTED BY IDOCK:   -0.57 KCAL/MOL
REMARK 927      BINDING AFFINITY PREDICTED BY RF-SCORE:    0.00 PKD
ROOT
HETATM    1  C   UNL     1     -12.006  11.609  69.015  1.00  0.00    -0.368 C  
HETATM    2  C   UNL     1     -11.377  11.373  67.689  1.00  0.00    -0.290 C  
HETATM    3  C   UNL     1     -10.660  10.248  67.284  1.00  0.00    -0.267 C  
HETATM    4  C   UNL     1     -10.845  12.015  65.551  1.00  0.00    -0.292 C  
HETATM    5  S   UNL     1     -10.020  10.558  65.698  1.00  0.00    -0.278 SA 
HETATM    6  N   UNL     1     -11.501  12.320  66.664  1.00  0.00    -0.357 NA 
ENDROOT
BRANCH   3   7
HETATM    7  C   UNL     1     -10.386   8.900  67.975  1.00  0.00    -0.271 C  
BRANCH   7   8
HETATM    8  C   UNL     1     -10.888   7.748  67.093  1.00  0.00    -0.156 C  
BRANCH   8   9
HETATM    9  O   UNL     1     -11.174   6.498  67.679  1.00  0.00    -0.324 OA 
BRANCH   9  10
HETATM   10  P   UNL     1     -10.332   6.239  69.117  1.00  0.00    -0.273 P  
HETATM   11  O   UNL     1      -8.908   5.933  68.185  1.00  0.00    -0.112 OA 
HETATM   12  O   UNL     1     -10.380   4.721  69.382  1.00  0.00    -0.177 OA 
BRANCH  10  13
HETATM   13  O   UNL     1     -11.757   6.544  70.049  1.00  0.00    -0.416 OA 
HETATM   14  O   UNL     1      -9.999   7.206  71.753  1.00  0.00    -0.176 OA 
HETATM   15  P   UNL     1     -11.456   7.292  71.436  1.00  0.00    -0.295 P  
HETATM   16  O   UNL     1     -12.244   8.574  71.465  1.00  0.00    -0.292 OA 
HETATM   17  O   UNL     1     -12.273   6.331  72.435  1.00  0.00    -0.229 OA 
ENDBRANCH  10  13
ENDBRANCH   9  10
ENDBRANCH   8   9
ENDBRANCH   7   8
ENDBRANCH   3   7
BRANCH   6  18
HETATM   18  C   UNL     1     -12.361  13.516  66.654  1.00  0.00    -0.297 C  
BRANCH  18  19
HETATM   19  C   UNL     1     -11.656  14.746  67.139  1.00  0.00    -0.373 A  
HETATM   20  C   UNL     1     -10.664  15.322  66.376  1.00  0.00    -0.318 A  
HETATM   21  N   UNL     1     -10.097  16.504  66.653  1.00  0.00    -0.283 NA 
HETATM   22  C   UNL     1     -10.543  17.137  67.749  1.00  0.00    -0.360 A  
HETATM   23  N   UNL     1     -11.398  16.591  68.630  1.00  0.00    -0.308 NA 
HETATM   24  C   UNL     1     -10.081  18.543  67.969  1.00  0.00    -0.403 C  
HETATM   25  C   UNL     1     -11.902  15.390  68.335  1.00  0.00    -0.244 A  
HETATM   26  N   UNL     1     -12.656  14.800  69.354  1.00  0.00    -0.575 NA 
HETATM   27  H1  UNL     1     -12.838  15.276  70.238  1.00  0.00     0.000 HD 
HETATM   28  H2  UNL     1     -12.234  13.897  69.569  1.00  0.00     0.000 HD 
ENDBRANCH  18  19
ENDBRANCH   6  18
TORSDOF 7
ENDMDL
MODEL       96
REMARK 921   NORMALIZED FREE ENERGY PREDICTED BY IDOCK:   -5.18 KCAL/MOL
REMARK 922        TOTAL FREE ENERGY PREDICTED BY IDOCK:   -8.29 KCAL/MOL
REMARK 923 INTER-LIGAND FREE ENERGY PREDICTED BY IDOCK:   -7.65 KCAL/MOL
REMARK 924 INTRA-LIGAND FREE ENERGY PREDICTED BY IDOCK:   -0.65 KCAL/MOL
REMARK 927      BINDING AFFINITY PREDICTED BY RF-SCORE:    0.00 PKD
ROOT
HETATM    1  C   UNL     1     -11.840  12.101  68.367  1.00  0.00    -0.360 C  
HETATM    2  C   UNL     1     -10.994  11.771  67.191  1.00  0.00    -0.276 C  
HETATM    3  C   UNL     1     -10.311  10.579  66.950  1.00  0.00    -0.239 C  
HETATM    4  C   UNL     1     -10.015  12.296  65.182  1.00  0.00    -0.215 C  
HETATM    5  S   UNL     1      -9.359  10.784  65.511  1.00  0.00    -0.219 SA 
HETATM    6  N   UNL     1     -10.842  12.690  66.143  1.00  0.00    -0.268 NA 
ENDROOT
BRANCH   3   7
HETATM    7  C   UNL     1     -10.288   9.238  67.706  1.00  0.00    -0.292 C  
BRANCH   7   8
HETATM    8  C   UNL     1      -9.382   9.348  68.940  1.00  0.00    -0.154 C  
BRANCH   8   9
HETATM    9  O   UNL     1      -9.863   9.990  70.099  1.00  0.00    -0.241 OA 
BRANCH   9  10
HETATM   10  P   UNL     1     -10.116   8.925  71.382  1.00  0.00    -0.329 P  
HETATM   11  O   UNL     1      -8.502   9.243  71.916  1.00  0.00    -0.261 OA 
HETATM   12  O   UNL     1      -9.599   7.550  70.915  1.00  0.00    -0.165 OA 
BRANCH  10  13
HETATM   13  O   UNL     1     -11.730   8.608  70.848  1.00  0.00    -0.282 OA 
HETATM   14  O   UNL     1     -12.020   8.158  73.326  1.00  0.00    -0.057 OA 
HETATM   15  P   UNL     1     -12.766   8.399  72.055  1.00  0.00    -0.354 P  
HETATM   16  O   UNL     1     -13.872   9.408  71.913  1.00  0.00    -0.366 OA 
HETATM   17  O   UNL     1     -13.453   7.024  71.576  1.00  0.00    -0.360 OA 
ENDBRANCH  10  13
ENDBRANCH   9  10
ENDBRANCH   8   9
ENDBRANCH   7   8
ENDBRANCH   3   7
BRANCH   6  18
HETATM   18  C   UNL     1     -11.580  13.950  65.948  1.00  0.00    -0.340 C  
BRANCH  18  19
HETATM   19  C   UNL     1     -10.806  15.154  66.388  1.00  0.00    -0.326 A  
HETATM   20  C   UNL     1      -9.714  15.579  65.664  1.00  0.00    -0.320 A  
HETATM   21  N   UNL     1      -9.067  16.731  65.891  1.00  0.00    -0.520 NA 
HETATM   22  C   UNL     1      -9.534  17.489  66.894  1.00  0.00    -0.274 A  
HETATM   23  N   UNL     1     -10.495  17.093  67.745  1.00  0.00    -0.350 NA 
HETATM   24  C   UNL     1      -8.967  18.867  67.038  1.00  0.00    -0.306 C  
HETATM   25  C   UNL     1     -11.081  15.916  67.506  1.00  0.00    -0.235 A  
HETATM   26  N   UNL     1     -11.956  15.480  68.505  1.00  0.00    -0.536 NA 
HETATM   27  H1  UNL     1     -12.159  16.044  69.331  1.00  0.00     0.000 HD 
HETATM   28  H2  UNL     1     -11.633  14.567  68.824  1.00  0.00     0.000 HD 
ENDBRANCH  18  19
ENDBRANCH   6  18
TORSDOF 7
ENDMDL
MODEL       97
REMARK 921   NORMALIZED FREE ENERGY PREDICTED BY IDOCK:   -5.17 KCAL/MOL
REMARK 922        TOTAL FREE ENERGY PREDICTED BY IDOCK:   -8.27 KCAL/MOL
REMARK 923 INTER-LIGAND FREE ENERGY PREDICTED BY IDOCK:   -7.13 KCAL/MOL
REMARK 924 INTRA-LIGAND FREE ENERGY PREDICTED BY IDOCK:   -1.14 KCAL/MOL
REMARK 927      BINDING AFFINITY PREDICTED BY RF-SCORE:    0.00 PKD
ROOT
HETATM    1  C   UNL     1      -8.586  12.894  66.900  1.00  0.00    -0.132 C  
HETATM    2  C   UNL     1      -9.858  13.126  66.168  1.00  0.00    -0.280 C  
HETATM    3  C   UNL     1     -10.395  14.351  65.776  1.00  0.00    -0.326 C  
HETATM    4  C   UNL     1     -11.787  12.390  65.164  1.00  0.00    -0.388 C  
HETATM    5  S   UNL     1     -11.965  14.059  65.092  1.00  0.00    -0.409 SA 
HETATM    6  N   UNL     1     -10.650  12.044  65.756  1.00  0.00    -0.254 NA 
ENDROOT
BRANCH   3   7
HETATM    7  C   UNL     1      -9.842  15.786  65.852  1.00  0.00    -0.381 C  
BRANCH   7   8
HETATM    8  C   UNL     1     -10.650  16.604  66.869  1.00  0.00    -0.229 C  
BRANCH   8   9
HETATM    9  O   UNL     1     -11.086  15.993  68.063  1.00  0.00    -0.341 OA 
BRANCH   9  10
HETATM   10  P   UNL     1     -10.353  16.638  69.437  1.00  0.00    -0.205 P  
HETATM   11  O   UNL     1     -10.184  18.140  68.596  1.00  0.00    -0.378 OA 
HETATM   12  O   UNL     1      -8.834  16.459  69.245  1.00  0.00    -0.227 OA 
BRANCH  10  13
HETATM   13  O   UNL     1     -10.522  15.136  70.277  1.00  0.00    -0.227 OA 
HETATM   14  O   UNL     1     -12.919  15.953  70.407  1.00  0.00    -0.383 OA 
HETATM   15  P   UNL     1     -12.050  14.752  70.585  1.00  0.00    -0.366 P  
HETATM   16  O   UNL     1     -12.337  13.412  69.965  1.00  0.00    -0.296 OA 
HETATM   17  O   UNL     1     -11.925  14.417  72.154  1.00  0.00    -0.192 OA 
ENDBRANCH  10  13
ENDBRANCH   9  10
ENDBRANCH   8   9
ENDBRANCH   7   8
ENDBRANCH   3   7
BRANCH   6  18
HETATM   18  C   UNL     1     -10.298  10.615  65.800  1.00  0.00    -0.219 C  
BRANCH  18  19
HETATM   19  C   UNL     1     -10.230  10.073  67.194  1.00  0.00    -0.284 A  
HETATM   20  C   UNL     1      -9.242   9.179  67.543  1.00  0.00    -0.128 A  
HETATM   21  N   UNL     1      -9.009   8.771  68.799  1.00  0.00    -0.138 NA 
HETATM   22  C   UNL     1      -9.807   9.281  69.748  1.00  0.00    -0.188 A  
HETATM   23  N   UNL     1     -10.884  10.041  69.489  1.00  0.00    -0.239 NA 
HETATM   24  C   UNL     1      -9.444   9.008  71.174  1.00  0.00    -0.348 C  
HETATM   25  C   UNL     1     -11.103  10.385  68.217  1.00  0.00    -0.281 A  
HETATM   26  N   UNL     1     -12.318  11.038  67.984  1.00  0.00    -0.292 NA 
HETATM   27  H1  UNL     1     -12.963  11.269  68.739  1.00  0.00     0.000 HD 
HETATM   28  H2  UNL     1     -12.832  10.496  67.290  1.00  0.00     0.000 HD 
ENDBRANCH  18  19
ENDBRANCH   6  18
TORSDOF 7
ENDMDL
MODEL       98
REMARK 921   NORMALIZED FREE ENERGY PREDICTED BY IDOCK:   -5.17 KCAL/MOL
REMARK 922        TOTAL FREE ENERGY PREDICTED BY IDOCK:   -8.27 KCAL/MOL
REMARK 923 INTER-LIGAND FREE ENERGY PREDICTED BY IDOCK:   -7.57 KCAL/MOL
REMARK 924 INTRA-LIGAND FREE ENERGY PREDICTED BY IDOCK:   -0.70 KCAL/MOL
REMARK 927      BINDING AFFINITY PREDICTED BY RF-SCORE:    0.00 PKD
ROOT
HETATM    1  C   UNL     1      -9.930  11.169  67.850  1.00  0.00    -0.189 C  
HETATM    2  C   UNL     1      -9.887  11.062  66.369  1.00  0.00    -0.212 C  
HETATM    3  C   UNL     1      -9.109  10.190  65.608  1.00  0.00    -0.179 C  
HETATM    4  C   UNL     1     -10.537  11.714  64.266  1.00  0.00    -0.340 C  
HETATM    5  S   UNL     1      -9.333  10.591  63.932  1.00  0.00    -0.297 SA 
HETATM    6  N   UNL     1     -10.715  11.866  65.573  1.00  0.00    -0.275 NA 
ENDROOT
BRANCH   3   7
HETATM    7  C   UNL     1      -8.176   9.033  66.006  1.00  0.00    -0.113 C  
BRANCH   7   8
HETATM    8  C   UNL     1      -8.998   7.763  66.263  1.00  0.00    -0.174 C  
BRANCH   8   9
HETATM    9  O   UNL     1     -10.087   7.809  67.159  1.00  0.00    -0.204 OA 
BRANCH   9  10
HETATM   10  P   UNL     1      -9.854   6.851  68.526  1.00  0.00    -0.152 P  
HETATM   11  O   UNL     1      -8.725   5.902  67.623  1.00  0.00    -0.107 OA 
HETATM   12  O   UNL     1     -10.826   5.662  68.394  1.00  0.00    -0.204 OA 
BRANCH  10  13
HETATM   13  O   UNL     1     -10.983   7.800  69.429  1.00  0.00    -0.165 OA 
HETATM   14  O   UNL     1     -10.079   6.345  71.299  1.00  0.00    -0.185 OA 
HETATM   15  P   UNL     1     -10.867   7.581  71.014  1.00  0.00    -0.243 P  
HETATM   16  O   UNL     1     -10.597   8.913  71.659  1.00  0.00    -0.296 OA 
HETATM   17  O   UNL     1     -12.417   7.311  71.355  1.00  0.00    -0.346 OA 
ENDBRANCH  10  13
ENDBRANCH   9  10
ENDBRANCH   8   9
ENDBRANCH   7   8
ENDBRANCH   3   7
BRANCH   6  18
HETATM   18  C   UNL     1     -11.812  12.739  66.026  1.00  0.00    -0.439 C  
BRANCH  18  19
HETATM   19  C   UNL     1     -11.445  14.191  66.017  1.00  0.00    -0.343 A  
HETATM   20  C   UNL     1     -11.020  14.805  67.174  1.00  0.00    -0.320 A  
HETATM   21  N   UNL     1     -10.521  16.048  67.223  1.00  0.00    -0.304 NA 
HETATM   22  C   UNL     1     -10.448  16.707  66.056  1.00  0.00    -0.298 A  
HETATM   23  N   UNL     1     -10.970  16.249  64.906  1.00  0.00    -0.608 NA 
HETATM   24  C   UNL     1      -9.710  18.008  66.045  1.00  0.00    -0.130 C  
HETATM   25  C   UNL     1     -11.498  15.022  64.916  1.00  0.00    -0.399 A  
HETATM   26  N   UNL     1     -12.166  14.659  63.743  1.00  0.00    -1.048 NA 
HETATM   27  H1  UNL     1     -12.206  15.273  62.929  1.00  0.00     0.000 HD 
HETATM   28  H2  UNL     1     -13.124  14.414  63.994  1.00  0.00     0.000 HD 
ENDBRANCH  18  19
ENDBRANCH   6  18
TORSDOF 7
ENDMDL
MODEL       99
REMARK 921   NORMALIZED FREE ENERGY PREDICTED BY IDOCK:   -5.17 KCAL/MOL
REMARK 922        TOTAL FREE ENERGY PREDICTED BY IDOCK:   -8.27 KCAL/MOL
REMARK 923 INTER-LIGAND FREE ENERGY PREDICTED BY IDOCK:   -7.51 KCAL/MOL
REMARK 924 INTRA-LIGAND FREE ENERGY PREDICTED BY IDOCK:   -0.75 KCAL/MOL
REMARK 927      BINDING AFFINITY PREDICTED BY RF-SCORE:    0.00 PKD
ROOT
HETATM    1  C   UNL     1     -10.850  11.694  63.990  1.00  0.00    -0.455 C  
HETATM    2  C   UNL     1     -10.823  11.399  65.446  1.00  0.00    -0.229 C  
HETATM    3  C   UNL     1     -10.062  10.428  66.097  1.00  0.00    -0.237 C  
HETATM    4  C   UNL     1     -11.521  11.755  67.603  1.00  0.00    -0.300 C  
HETATM    5  S   UNL     1     -10.526  10.411  67.771  1.00  0.00    -0.246 SA 
HETATM    6  N   UNL     1     -11.591  12.158  66.340  1.00  0.00    -0.477 NA 
ENDROOT
BRANCH   3   7
HETATM    7  C   UNL     1      -8.971   9.468  65.589  1.00  0.00    -0.224 C  
BRANCH   7   8
HETATM    8  C   UNL     1      -8.884   8.242  66.509  1.00  0.00    -0.150 C  
BRANCH   8   9
HETATM    9  O   UNL     1      -9.159   6.961  65.988  1.00  0.00    -0.146 OA 
BRANCH   9  10
HETATM   10  P   UNL     1      -9.324   5.786  67.185  1.00  0.00    -0.125 P  
HETATM   11  O   UNL     1      -8.310   4.743  66.249  1.00  0.00    -0.110 OA 
HETATM   12  O   UNL     1     -10.500   4.887  66.754  1.00  0.00    -0.243 OA 
BRANCH  10  13
HETATM   13  O   UNL     1     -10.338   6.829  68.121  1.00  0.00    -0.164 OA 
HETATM   14  O   UNL     1      -9.559   5.258  69.953  1.00  0.00    -0.153 OA 
HETATM   15  P   UNL     1     -10.221   6.573  69.701  1.00  0.00    -0.213 P  
HETATM   16  O   UNL     1      -9.807   7.859  70.362  1.00  0.00    -0.183 OA 
HETATM   17  O   UNL     1     -11.785   6.455  70.063  1.00  0.00    -0.429 OA 
ENDBRANCH  10  13
ENDBRANCH   9  10
ENDBRANCH   8   9
ENDBRANCH   7   8
ENDBRANCH   3   7
BRANCH   6  18
HETATM   18  C   UNL     1     -12.340  13.392  66.047  1.00  0.00    -0.413 C  
BRANCH  18  19
HETATM   19  C   UNL     1     -11.525  14.632  66.249  1.00  0.00    -0.351 A  
HETATM   20  C   UNL     1     -10.810  15.170  65.201  1.00  0.00    -0.422 A  
HETATM   21  N   UNL     1     -10.190  16.356  65.249  1.00  0.00    -0.589 NA 
HETATM   22  C   UNL     1     -10.287  17.034  66.403  1.00  0.00    -0.303 A  
HETATM   23  N   UNL     1     -10.835  16.529  67.521  1.00  0.00    -0.284 NA 
HETATM   24  C   UNL     1      -9.784  18.443  66.419  1.00  0.00    -0.343 C  
HETATM   25  C   UNL     1     -11.402  15.323  67.437  1.00  0.00    -0.284 A  
HETATM   26  N   UNL     1     -11.813  14.779  68.659  1.00  0.00    -0.444 NA 
HETATM   27  H1  UNL     1     -11.722  15.290  69.537  1.00  0.00     0.000 HD 
HETATM   28  H2  UNL     1     -11.343  13.881  68.772  1.00  0.00     0.000 HD 
ENDBRANCH  18  19
ENDBRANCH   6  18
TORSDOF 7
ENDMDL
MODEL      100
REMARK 921   NORMALIZED FREE ENERGY PREDICTED BY IDOCK:   -5.15 KCAL/MOL
REMARK 922        TOTAL FREE ENERGY PREDICTED BY IDOCK:   -8.25 KCAL/MOL
REMARK 923 INTER-LIGAND FREE ENERGY PREDICTED BY IDOCK:   -7.23 KCAL/MOL
REMARK 924 INTRA-LIGAND FREE ENERGY PREDICTED BY IDOCK:   -1.02 KCAL/MOL
REMARK 927      BINDING AFFINITY PREDICTED BY RF-SCORE:    0.00 PKD
ROOT
HETATM    1  C   UNL     1     -11.828  11.478  67.959  1.00  0.00    -0.287 C  
HETATM    2  C   UNL     1     -10.514  12.161  68.085  1.00  0.00    -0.211 C  
HETATM    3  C   UNL     1      -9.251  11.602  67.893  1.00  0.00    -0.171 C  
HETATM    4  C   UNL     1      -9.215  13.999  68.533  1.00  0.00    -0.170 C  
HETATM    5  S   UNL     1      -8.062  12.796  68.314  1.00  0.00    -0.141 SA 
HETATM    6  N   UNL     1     -10.448  13.527  68.393  1.00  0.00    -0.242 NA 
ENDROOT
BRANCH   3   7
HETATM    7  C   UNL     1      -8.807  10.211  67.402  1.00  0.00    -0.135 C  
BRANCH   7   8
HETATM    8  C   UNL     1      -9.280   9.134  68.388  1.00  0.00    -0.132 C  
BRANCH   8   9
HETATM    9  O   UNL     1      -8.939   9.243  69.752  1.00  0.00    -0.147 OA 
BRANCH   9  10
HETATM   10  P   UNL     1     -10.086   8.547  70.773  1.00  0.00    -0.220 P  
HETATM   11  O   UNL     1     -10.833  10.099  70.930  1.00  0.00    -0.290 OA 
HETATM   12  O   UNL     1      -9.567   8.747  72.211  1.00  0.00    -0.301 OA 
BRANCH  10  13
HETATM   13  O   UNL     1      -9.339   6.995  70.615  1.00  0.00    -0.161 OA 
HETATM   14  O   UNL     1     -11.762   6.321  70.292  1.00  0.00    -0.384 OA 
HETATM   15  P   UNL     1     -10.354   5.852  70.128  1.00  0.00    -0.291 P  
HETATM   16  O   UNL     1      -9.815   5.247  68.861  1.00  0.00    -0.140 OA 
HETATM   17  O   UNL     1     -10.037   4.730  71.239  1.00  0.00    -0.191 OA 
ENDBRANCH  10  13
ENDBRANCH   9  10
ENDBRANCH   8   9
ENDBRANCH   7   8
ENDBRANCH   3   7
BRANCH   6  18
HETATM   18  C   UNL     1     -11.567  14.483  68.449  1.00  0.00    -0.326 C  
BRANCH  18  19
HETATM   19  C   UNL     1     -11.899  14.912  69.845  1.00  0.00    -0.355 A  
HETATM   20  C   UNL     1     -12.704  14.126  70.639  1.00  0.00    -0.321 A  
HETATM   21  N   UNL     1     -12.919  14.350  71.943  1.00  0.00    -0.332 NA 
HETATM   22  C   UNL     1     -12.299  15.415  72.474  1.00  0.00    -0.384 A  
HETATM   23  N   UNL     1     -11.615  16.318  71.752  1.00  0.00    -0.437 NA 
HETATM   24  C   UNL     1     -12.352  15.571  73.962  1.00  0.00    -0.791 C  
HETATM   25  C   UNL     1     -11.466  16.076  70.447  1.00  0.00    -0.377 A  
HETATM   26  N   UNL     1     -10.888  17.120  69.717  1.00  0.00    -0.293 NA 
HETATM   27  H1  UNL     1     -10.569  17.981  70.163  1.00  0.00     0.000 HD 
HETATM   28  H2  UNL     1     -11.540  17.377  68.976  1.00  0.00     0.000 HD 
ENDBRANCH  18  19
ENDBRANCH   6  18
TORSDOF 7
ENDMDL
MODEL      101
REMARK 921   NORMALIZED FREE ENERGY PREDICTED BY IDOCK:   -5.15 KCAL/MOL
REMARK 922        TOTAL FREE ENERGY PREDICTED BY IDOCK:   -8.24 KCAL/MOL
REMARK 923 INTER-LIGAND FREE ENERGY PREDICTED BY IDOCK:   -6.93 KCAL/MOL
REMARK 924 INTRA-LIGAND FREE ENERGY PREDICTED BY IDOCK:   -1.32 KCAL/MOL
REMARK 927      BINDING AFFINITY PREDICTED BY RF-SCORE:    0.00 PKD
ROOT
HETATM    1  C   UNL     1     -11.014   6.603  67.072  1.00  0.00    -0.463 C  
HETATM    2  C   UNL     1      -9.809   7.275  67.625  1.00  0.00    -0.151 C  
HETATM    3  C   UNL     1      -8.918   6.765  68.568  1.00  0.00    -0.121 C  
HETATM    4  C   UNL     1      -8.375   9.058  67.791  1.00  0.00    -0.117 C  
HETATM    5  S   UNL     1      -7.782   8.017  68.969  1.00  0.00    -0.102 SA 
HETATM    6  N   UNL     1      -9.434   8.548  67.176  1.00  0.00    -0.153 NA 
ENDROOT
BRANCH   3   7
HETATM    7  C   UNL     1      -8.807   5.382  69.235  1.00  0.00    -0.112 C  
BRANCH   7   8
HETATM    8  C   UNL     1     -10.046   5.118  70.101  1.00  0.00    -0.272 C  
BRANCH   8   9
HETATM    9  O   UNL     1      -9.887   4.573  71.392  1.00  0.00    -0.174 OA 
BRANCH   9  10
HETATM   10  P   UNL     1     -10.553   5.541  72.601  1.00  0.00    -0.257 P  
HETATM   11  O   UNL     1      -9.521   4.757  73.746  1.00  0.00    -0.123 OA 
HETATM   12  O   UNL     1     -11.710   4.733  73.220  1.00  0.00    -0.312 OA 
BRANCH  10  13
HETATM   13  O   UNL     1     -11.585   6.326  71.455  1.00  0.00    -0.298 OA 
HETATM   14  O   UNL     1     -11.457   8.150  73.212  1.00  0.00    -0.189 OA 
HETATM   15  P   UNL     1     -11.853   7.870  71.800  1.00  0.00    -0.329 P  
HETATM   16  O   UNL     1     -11.411   8.702  70.627  1.00  0.00    -0.269 OA 
HETATM   17  O   UNL     1     -13.458   7.889  71.686  1.00  0.00    -0.341 OA 
ENDBRANCH  10  13
ENDBRANCH   9  10
ENDBRANCH   8   9
ENDBRANCH   7   8
ENDBRANCH   3   7
BRANCH   6  18
HETATM   18  C   UNL     1     -10.004   9.297  66.041  1.00  0.00    -0.255 C  
BRANCH  18  19
HETATM   19  C   UNL     1     -10.402  10.694  66.405  1.00  0.00    -0.291 A  
HETATM   20  C   UNL     1      -9.831  11.768  65.758  1.00  0.00    -0.240 A  
HETATM   21  N   UNL     1     -10.242  13.035  65.905  1.00  0.00    -0.288 NA 
HETATM   22  C   UNL     1     -11.271  13.235  66.741  1.00  0.00    -0.304 A  
HETATM   23  N   UNL     1     -11.795  12.277  67.523  1.00  0.00    -0.519 NA 
HETATM   24  C   UNL     1     -11.883  14.601  66.768  1.00  0.00    -0.334 C  
HETATM   25  C   UNL     1     -11.322  11.036  67.376  1.00  0.00    -0.230 A  
HETATM   26  N   UNL     1     -11.784  10.113  68.319  1.00  0.00    -0.681 NA 
HETATM   27  H1  UNL     1     -12.465  10.366  69.036  1.00  0.00     0.000 HD 
HETATM   28  H2  UNL     1     -10.971   9.716  68.788  1.00  0.00     0.000 HD 
ENDBRANCH  18  19
ENDBRANCH   6  18
TORSDOF 7
ENDMDL
MODEL      102
REMARK 921   NORMALIZED FREE ENERGY PREDICTED BY IDOCK:   -5.13 KCAL/MOL
REMARK 922        TOTAL FREE ENERGY PREDICTED BY IDOCK:   -8.22 KCAL/MOL
REMARK 923 INTER-LIGAND FREE ENERGY PREDICTED BY IDOCK:   -7.11 KCAL/MOL
REMARK 924 INTRA-LIGAND FREE ENERGY PREDICTED BY IDOCK:   -1.10 KCAL/MOL
REMARK 927      BINDING AFFINITY PREDICTED BY RF-SCORE:    0.00 PKD
ROOT
HETATM    1  C   UNL     1     -10.816  13.685  68.811  1.00  0.00    -0.279 C  
HETATM    2  C   UNL     1     -10.827  14.016  67.362  1.00  0.00    -0.282 C  
HETATM    3  C   UNL     1     -10.881  13.123  66.293  1.00  0.00    -0.279 C  
HETATM    4  C   UNL     1     -10.773  15.509  65.620  1.00  0.00    -0.366 C  
HETATM    5  S   UNL     1     -10.715  14.032  64.821  1.00  0.00    -0.412 SA 
HETATM    6  N   UNL     1     -10.820  15.352  66.937  1.00  0.00    -0.316 NA 
ENDROOT
BRANCH   3   7
HETATM    7  C   UNL     1     -11.056  11.594  66.239  1.00  0.00    -0.345 C  
BRANCH   7   8
HETATM    8  C   UNL     1      -9.721  10.904  66.550  1.00  0.00    -0.198 C  
BRANCH   8   9
HETATM    9  O   UNL     1      -9.336  10.708  67.892  1.00  0.00    -0.145 OA 
BRANCH   9  10
HETATM   10  P   UNL     1      -9.349   9.085  68.348  1.00  0.00    -0.139 P  
HETATM   11  O   UNL     1      -7.736   8.939  67.740  1.00  0.00    -0.099 OA 
HETATM   12  O   UNL     1      -9.796   8.287  67.107  1.00  0.00    -0.177 OA 
BRANCH  10  13
HETATM   13  O   UNL     1     -10.962   9.230  68.956  1.00  0.00    -0.157 OA 
HETATM   14  O   UNL     1      -9.683   9.388  71.139  1.00  0.00    -0.270 OA 
HETATM   15  P   UNL     1     -11.018   9.617  70.512  1.00  0.00    -0.358 P  
HETATM   16  O   UNL     1     -11.804  10.891  70.657  1.00  0.00    -0.327 OA 
HETATM   17  O   UNL     1     -12.044   8.487  71.025  1.00  0.00    -0.282 OA 
ENDBRANCH  10  13
ENDBRANCH   9  10
ENDBRANCH   8   9
ENDBRANCH   7   8
ENDBRANCH   3   7
BRANCH   6  18
HETATM   18  C   UNL     1     -10.983  16.554  67.773  1.00  0.00    -0.252 C  
BRANCH  18  19
HETATM   19  C   UNL     1      -9.912  17.575  67.542  1.00  0.00    -0.315 A  
HETATM   20  C   UNL     1     -10.173  18.696  66.787  1.00  0.00    -0.393 A  
HETATM   21  N   UNL     1      -9.331  19.731  66.665  1.00  0.00    -0.364 NA 
HETATM   22  C   UNL     1      -8.169  19.635  67.329  1.00  0.00    -0.296 A  
HETATM   23  N   UNL     1      -7.764  18.525  67.969  1.00  0.00    -0.259 NA 
HETATM   24  C   UNL     1      -7.302  20.854  67.381  1.00  0.00    -0.369 C  
HETATM   25  C   UNL     1      -8.621  17.501  68.026  1.00  0.00    -0.250 A  
HETATM   26  N   UNL     1      -8.093  16.322  68.560  1.00  0.00    -0.183 NA 
HETATM   27  H1  UNL     1      -7.139  16.268  68.917  1.00  0.00     0.000 HD 
HETATM   28  H2  UNL     1      -8.206  15.587  67.861  1.00  0.00     0.000 HD 
ENDBRANCH  18  19
ENDBRANCH   6  18
TORSDOF 7
ENDMDL
MODEL      103
REMARK 921   NORMALIZED FREE ENERGY PREDICTED BY IDOCK:   -5.12 KCAL/MOL
REMARK 922        TOTAL FREE ENERGY PREDICTED BY IDOCK:   -8.20 KCAL/MOL
REMARK 923 INTER-LIGAND FREE ENERGY PREDICTED BY IDOCK:   -7.04 KCAL/MOL
REMARK 924 INTRA-LIGAND FREE ENERGY PREDICTED BY IDOCK:   -1.17 KCAL/MOL
REMARK 927      BINDING AFFINITY PREDICTED BY RF-SCORE:    0.00 PKD
ROOT
HETATM    1  C   UNL     1      -9.957  11.840  65.316  1.00  0.00    -0.284 C  
HETATM    2  C   UNL     1     -10.705  12.536  66.395  1.00  0.00    -0.249 C  
HETATM    3  C   UNL     1     -11.115  13.868  66.413  1.00  0.00    -0.309 C  
HETATM    4  C   UNL     1     -11.723  12.589  68.451  1.00  0.00    -0.328 C  
HETATM    5  S   UNL     1     -11.814  14.197  67.970  1.00  0.00    -0.349 SA 
HETATM    6  N   UNL     1     -11.115  11.839  67.540  1.00  0.00    -0.254 NA 
ENDROOT
BRANCH   3   7
HETATM    7  C   UNL     1     -11.046  14.979  65.349  1.00  0.00    -0.377 C  
BRANCH   7   8
HETATM    8  C   UNL     1      -9.728  15.753  65.486  1.00  0.00    -0.220 C  
BRANCH   8   9
HETATM    9  O   UNL     1      -9.760  17.151  65.672  1.00  0.00    -0.545 OA 
BRANCH   9  10
HETATM   10  P   UNL     1      -8.440  17.727  66.549  1.00  0.00    -0.221 P  
HETATM   11  O   UNL     1      -9.179  19.290  66.564  1.00  0.00    -0.322 OA 
HETATM   12  O   UNL     1      -7.449  18.301  65.517  1.00  0.00    -0.537 OA 
BRANCH  10  13
HETATM   13  O   UNL     1      -7.701  16.163  66.533  1.00  0.00    -0.249 OA 
HETATM   14  O   UNL     1      -6.494  17.170  68.524  1.00  0.00    -0.154 OA 
HETATM   15  P   UNL     1      -6.784  15.885  67.821  1.00  0.00    -0.188 P  
HETATM   16  O   UNL     1      -7.296  14.651  68.511  1.00  0.00    -0.104 OA 
HETATM   17  O   UNL     1      -5.448  15.372  67.085  1.00  0.00    -0.303 OA 
ENDBRANCH  10  13
ENDBRANCH   9  10
ENDBRANCH   8   9
ENDBRANCH   7   8
ENDBRANCH   3   7
BRANCH   6  18
HETATM   18  C   UNL     1     -11.054  10.385  67.769  1.00  0.00    -0.299 C  
BRANCH  18  19
HETATM   19  C   UNL     1     -10.430  10.027  69.082  1.00  0.00    -0.238 A  
HETATM   20  C   UNL     1     -11.166   9.372  70.044  1.00  0.00    -0.190 A  
HETATM   21  N   UNL     1     -10.647   8.873  71.175  1.00  0.00    -0.241 NA 
HETATM   22  C   UNL     1      -9.328   9.042  71.350  1.00  0.00    -0.240 A  
HETATM   23  N   UNL     1      -8.557   9.790  70.543  1.00  0.00    -0.157 NA 
HETATM   24  C   UNL     1      -8.687   8.321  72.494  1.00  0.00    -0.284 C  
HETATM   25  C   UNL     1      -9.129  10.306  69.452  1.00  0.00    -0.187 A  
HETATM   26  N   UNL     1      -8.330  11.203  68.736  1.00  0.00    -0.208 NA 
HETATM   27  H1  UNL     1      -7.369  11.409  69.009  1.00  0.00     0.000 HD 
HETATM   28  H2  UNL     1      -8.833  12.088  68.677  1.00  0.00     0.000 HD 
ENDBRANCH  18  19
ENDBRANCH   6  18
TORSDOF 7
ENDMDL
MODEL      104
REMARK 921   NORMALIZED FREE ENERGY PREDICTED BY IDOCK:   -5.12 KCAL/MOL
REMARK 922        TOTAL FREE ENERGY PREDICTED BY IDOCK:   -8.20 KCAL/MOL
REMARK 923 INTER-LIGAND FREE ENERGY PREDICTED BY IDOCK:   -7.85 KCAL/MOL
REMARK 924 INTRA-LIGAND FREE ENERGY PREDICTED BY IDOCK:   -0.35 KCAL/MOL
REMARK 927      BINDING AFFINITY PREDICTED BY RF-SCORE:    0.00 PKD
ROOT
HETATM    1  C   UNL     1     -12.932  12.594  71.784  1.00  0.00    -0.417 C  
HETATM    2  C   UNL     1     -12.271  12.011  70.588  1.00  0.00    -0.316 C  
HETATM    3  C   UNL     1     -11.850  12.688  69.443  1.00  0.00    -0.296 C  
HETATM    4  C   UNL     1     -11.430  10.243  69.392  1.00  0.00    -0.186 C  
HETATM    5  S   UNL     1     -11.282  11.510  68.298  1.00  0.00    -0.289 SA 
HETATM    6  N   UNL     1     -11.966  10.644  70.538  1.00  0.00    -0.321 NA 
ENDROOT
BRANCH   3   7
HETATM    7  C   UNL     1     -11.818  14.186  69.088  1.00  0.00    -0.380 C  
BRANCH   7   8
HETATM    8  C   UNL     1     -10.933  14.412  67.855  1.00  0.00    -0.262 C  
BRANCH   8   9
HETATM    9  O   UNL     1     -11.284  15.409  66.921  1.00  0.00    -0.307 OA 
BRANCH   9  10
HETATM   10  P   UNL     1     -10.282  15.421  65.566  1.00  0.00    -0.378 P  
HETATM   11  O   UNL     1     -11.695  15.408  64.567  1.00  0.00    -0.393 OA 
HETATM   12  O   UNL     1     -10.085  13.948  65.156  1.00  0.00    -0.346 OA 
BRANCH  10  13
HETATM   13  O   UNL     1      -8.870  15.434  66.564  1.00  0.00    -0.274 OA 
HETATM   14  O   UNL     1      -8.902  17.871  65.862  1.00  0.00    -0.506 OA 
HETATM   15  P   UNL     1      -8.302  16.910  66.835  1.00  0.00    -0.260 P  
HETATM   16  O   UNL     1      -8.263  17.139  68.321  1.00  0.00    -0.213 OA 
HETATM   17  O   UNL     1      -6.756  16.670  66.456  1.00  0.00    -0.199 OA 
ENDBRANCH  10  13
ENDBRANCH   9  10
ENDBRANCH   8   9
ENDBRANCH   7   8
ENDBRANCH   3   7
BRANCH   6  18
HETATM   18  C   UNL     1     -12.061   9.669  71.637  1.00  0.00    -0.402 C  
BRANCH  18  19
HETATM   19  C   UNL     1     -11.437   8.349  71.303  1.00  0.00    -0.325 A  
HETATM   20  C   UNL     1     -12.230   7.264  71.001  1.00  0.00    -0.313 A  
HETATM   21  N   UNL     1     -11.759   6.098  70.536  1.00  0.00    -0.211 NA 
HETATM   22  C   UNL     1     -10.431   6.016  70.369  1.00  0.00    -0.246 A  
HETATM   23  N   UNL     1      -9.567   6.964  70.772  1.00  0.00    -0.165 NA 
HETATM   24  C   UNL     1      -9.898   4.809  69.662  1.00  0.00    -0.292 C  
HETATM   25  C   UNL     1     -10.081   8.091  71.272  1.00  0.00    -0.185 A  
HETATM   26  N   UNL     1      -9.144   8.973  71.820  1.00  0.00    -0.363 NA 
HETATM   27  H1  UNL     1      -8.143   8.782  71.797  1.00  0.00     0.000 HD 
HETATM   28  H2  UNL     1      -9.407   9.139  72.792  1.00  0.00     0.000 HD 
ENDBRANCH  18  19
ENDBRANCH   6  18
TORSDOF 7
ENDMDL
MODEL      105
REMARK 921   NORMALIZED FREE ENERGY PREDICTED BY IDOCK:   -5.12 KCAL/MOL
REMARK 922        TOTAL FREE ENERGY PREDICTED BY IDOCK:   -8.20 KCAL/MOL
REMARK 923 INTER-LIGAND FREE ENERGY PREDICTED BY IDOCK:   -7.61 KCAL/MOL
REMARK 924 INTRA-LIGAND FREE ENERGY PREDICTED BY IDOCK:   -0.58 KCAL/MOL
REMARK 927      BINDING AFFINITY PREDICTED BY RF-SCORE:    0.00 PKD
ROOT
HETATM    1  C   UNL     1     -10.577  15.708  70.032  1.00  0.00    -0.342 C  
HETATM    2  C   UNL     1      -9.779  14.848  69.121  1.00  0.00    -0.183 C  
HETATM    3  C   UNL     1      -8.395  14.853  68.952  1.00  0.00    -0.178 C  
HETATM    4  C   UNL     1      -9.588  13.211  67.523  1.00  0.00    -0.208 C  
HETATM    5  S   UNL     1      -8.005  13.759  67.659  1.00  0.00    -0.188 SA 
HETATM    6  N   UNL     1     -10.405  13.870  68.335  1.00  0.00    -0.244 NA 
ENDROOT
BRANCH   3   7
HETATM    7  C   UNL     1      -7.274  15.615  69.681  1.00  0.00    -0.153 C  
BRANCH   7   8
HETATM    8  C   UNL     1      -6.735  16.738  68.785  1.00  0.00    -0.185 C  
BRANCH   8   9
HETATM    9  O   UNL     1      -7.246  18.045  68.927  1.00  0.00    -0.272 OA 
BRANCH   9  10
HETATM   10  P   UNL     1      -7.232  18.915  67.483  1.00  0.00    -0.214 P  
HETATM   11  O   UNL     1      -5.584  18.440  67.255  1.00  0.00    -0.139 OA 
HETATM   12  O   UNL     1      -6.689  20.317  67.825  1.00  0.00    -0.252 OA 
BRANCH  10  13
HETATM   13  O   UNL     1      -8.879  19.391  67.711  1.00  0.00    -0.299 OA 
HETATM   14  O   UNL     1      -9.192  17.700  65.847  1.00  0.00    -0.517 OA 
HETATM   15  P   UNL     1      -9.918  18.484  66.890  1.00  0.00    -0.397 P  
HETATM   16  O   UNL     1     -10.893  17.880  67.864  1.00  0.00    -0.365 OA 
HETATM   17  O   UNL     1     -10.775  19.646  66.179  1.00  0.00    -0.464 OA 
ENDBRANCH  10  13
ENDBRANCH   9  10
ENDBRANCH   8   9
ENDBRANCH   7   8
ENDBRANCH   3   7
BRANCH   6  18
HETATM   18  C   UNL     1     -11.809  13.431  68.410  1.00  0.00    -0.366 C  
BRANCH  18  19
HETATM   19  C   UNL     1     -12.034  12.367  69.439  1.00  0.00    -0.319 A  
HETATM   20  C   UNL     1     -12.536  12.695  70.679  1.00  0.00    -0.239 A  
HETATM   21  N   UNL     1     -12.917  11.795  71.596  1.00  0.00    -0.416 NA 
HETATM   22  C   UNL     1     -12.786  10.505  71.254  1.00  0.00    -0.431 A  
HETATM   23  N   UNL     1     -12.175  10.087  70.133  1.00  0.00    -0.115 NA 
HETATM   24  C   UNL     1     -13.391   9.485  72.167  1.00  0.00    -0.545 C  
HETATM   25  C   UNL     1     -11.770  11.023  69.269  1.00  0.00    -0.326 A  
HETATM   26  N   UNL     1     -11.002  10.545  68.202  1.00  0.00    -0.256 NA 
HETATM   27  H1  UNL     1     -10.807   9.552  68.077  1.00  0.00     0.000 HD 
HETATM   28  H2  UNL     1     -10.109  11.038  68.218  1.00  0.00     0.000 HD 
ENDBRANCH  18  19
ENDBRANCH   6  18
TORSDOF 7
ENDMDL
MODEL      106
REMARK 921   NORMALIZED FREE ENERGY PREDICTED BY IDOCK:   -5.11 KCAL/MOL
REMARK 922        TOTAL FREE ENERGY PREDICTED BY IDOCK:   -8.19 KCAL/MOL
REMARK 923 INTER-LIGAND FREE ENERGY PREDICTED BY IDOCK:   -7.58 KCAL/MOL
REMARK 924 INTRA-LIGAND FREE ENERGY PREDICTED BY IDOCK:   -0.60 KCAL/MOL
REMARK 927      BINDING AFFINITY PREDICTED BY RF-SCORE:    0.00 PKD
ROOT
HETATM    1  C   UNL     1     -12.230  10.186  70.771  1.00  0.00    -0.434 C  
HETATM    2  C   UNL     1     -11.190  10.395  69.731  1.00  0.00    -0.293 C  
HETATM    3  C   UNL     1     -10.846  11.595  69.109  1.00  0.00    -0.184 C  
HETATM    4  C   UNL     1      -9.545   9.634  68.323  1.00  0.00    -0.140 C  
HETATM    5  S   UNL     1      -9.679  11.246  67.870  1.00  0.00    -0.182 SA 
HETATM    6  N   UNL     1     -10.394   9.326  69.295  1.00  0.00    -0.209 NA 
ENDROOT
BRANCH   3   7
HETATM    7  C   UNL     1     -11.309  13.044  69.348  1.00  0.00    -0.269 C  
BRANCH   7   8
HETATM    8  C   UNL     1     -11.983  13.592  68.083  1.00  0.00    -0.355 C  
BRANCH   8   9
HETATM    9  O   UNL     1     -11.573  14.837  67.562  1.00  0.00    -0.347 OA 
BRANCH   9  10
HETATM   10  P   UNL     1     -10.660  14.691  66.152  1.00  0.00    -0.340 P  
HETATM   11  O   UNL     1      -9.229  14.895  67.102  1.00  0.00    -0.202 OA 
HETATM   12  O   UNL     1     -10.419  16.125  65.639  1.00  0.00    -0.356 OA 
BRANCH  10  13
HETATM   13  O   UNL     1     -12.091  14.487  65.203  1.00  0.00    -0.383 OA 
HETATM   14  O   UNL     1     -10.663  12.649  64.197  1.00  0.00    -0.351 OA 
HETATM   15  P   UNL     1     -12.060  13.170  64.288  1.00  0.00    -0.420 P  
HETATM   16  O   UNL     1     -13.249  12.318  64.640  1.00  0.00    -0.763 OA 
HETATM   17  O   UNL     1     -12.475  13.821  62.875  1.00  0.00    -0.601 OA 
ENDBRANCH  10  13
ENDBRANCH   9  10
ENDBRANCH   8   9
ENDBRANCH   7   8
ENDBRANCH   3   7
BRANCH   6  18
HETATM   18  C   UNL     1     -10.322   7.974  69.876  1.00  0.00    -0.221 C  
BRANCH  18  19
HETATM   19  C   UNL     1      -9.413   7.896  71.063  1.00  0.00    -0.172 A  
HETATM   20  C   UNL     1      -8.246   8.627  71.091  1.00  0.00    -0.153 A  
HETATM   21  N   UNL     1      -7.460   8.743  72.171  1.00  0.00    -0.323 NA 
HETATM   22  C   UNL     1      -7.861   8.092  73.273  1.00  0.00    -0.167 A  
HETATM   23  N   UNL     1      -8.900   7.240  73.300  1.00  0.00    -0.136 NA 
HETATM   24  C   UNL     1      -7.121   8.367  74.544  1.00  0.00    -0.232 C  
HETATM   25  C   UNL     1      -9.628   7.122  72.186  1.00  0.00    -0.142 A  
HETATM   26  N   UNL     1     -10.594   6.111  72.217  1.00  0.00    -0.209 NA 
HETATM   27  H1  UNL     1     -10.753   5.540  73.047  1.00  0.00     0.000 HD 
HETATM   28  H2  UNL     1     -10.408   5.481  71.437  1.00  0.00     0.000 HD 
ENDBRANCH  18  19
ENDBRANCH   6  18
TORSDOF 7
ENDMDL
MODEL      107
REMARK 921   NORMALIZED FREE ENERGY PREDICTED BY IDOCK:   -5.10 KCAL/MOL
REMARK 922        TOTAL FREE ENERGY PREDICTED BY IDOCK:   -8.18 KCAL/MOL
REMARK 923 INTER-LIGAND FREE ENERGY PREDICTED BY IDOCK:   -7.24 KCAL/MOL
REMARK 924 INTRA-LIGAND FREE ENERGY PREDICTED BY IDOCK:   -0.94 KCAL/MOL
REMARK 927      BINDING AFFINITY PREDICTED BY RF-SCORE:    0.00 PKD
ROOT
HETATM    1  C   UNL     1     -10.027  12.352  67.615  1.00  0.00    -0.200 C  
HETATM    2  C   UNL     1     -10.760  13.031  68.714  1.00  0.00    -0.221 C  
HETATM    3  C   UNL     1     -11.741  12.483  69.539  1.00  0.00    -0.309 C  
HETATM    4  C   UNL     1     -11.233  14.866  70.009  1.00  0.00    -0.259 C  
HETATM    5  S   UNL     1     -12.369  13.751  70.548  1.00  0.00    -0.348 SA 
HETATM    6  N   UNL     1     -10.468  14.361  69.049  1.00  0.00    -0.239 NA 
ENDROOT
BRANCH   3   7
HETATM    7  C   UNL     1     -12.289  11.050  69.671  1.00  0.00    -0.303 C  
BRANCH   7   8
HETATM    8  C   UNL     1     -11.194  10.119  70.209  1.00  0.00    -0.318 C  
BRANCH   8   9
HETATM    9  O   UNL     1     -11.451   8.737  70.321  1.00  0.00    -0.212 OA 
BRANCH   9  10
HETATM   10  P   UNL     1     -10.103   7.788  69.971  1.00  0.00    -0.209 P  
HETATM   11  O   UNL     1      -9.769   8.824  68.626  1.00  0.00    -0.157 OA 
HETATM   12  O   UNL     1     -10.564   6.740  68.938  1.00  0.00    -0.201 OA 
BRANCH  10  13
HETATM   13  O   UNL     1     -10.436   6.753  71.315  1.00  0.00    -0.211 OA 
HETATM   14  O   UNL     1      -8.747   8.303  72.398  1.00  0.00    -0.177 OA 
HETATM   15  P   UNL     1      -9.785   7.269  72.687  1.00  0.00    -0.184 P  
HETATM   16  O   UNL     1     -10.885   7.448  73.698  1.00  0.00    -0.346 OA 
HETATM   17  O   UNL     1      -9.061   5.912  73.161  1.00  0.00    -0.132 OA 
ENDBRANCH  10  13
ENDBRANCH   9  10
ENDBRANCH   8   9
ENDBRANCH   7   8
ENDBRANCH   3   7
BRANCH   6  18
HETATM   18  C   UNL     1      -9.352  15.182  68.548  1.00  0.00    -0.192 C  
BRANCH  18  19
HETATM   19  C   UNL     1      -9.810  16.425  67.850  1.00  0.00    -0.238 A  
HETATM   20  C   UNL     1      -9.815  17.632  68.514  1.00  0.00    -0.346 A  
HETATM   21  N   UNL     1     -10.052  18.811  67.924  1.00  0.00    -0.348 NA 
HETATM   22  C   UNL     1     -10.300  18.779  66.606  1.00  0.00    -0.420 A  
HETATM   23  N   UNL     1     -10.461  17.644  65.904  1.00  0.00    -0.516 NA 
HETATM   24  C   UNL     1     -10.364  20.088  65.884  1.00  0.00    -0.529 C  
HETATM   25  C   UNL     1     -10.259  16.490  66.546  1.00  0.00    -0.300 A  
HETATM   26  N   UNL     1     -10.593  15.344  65.817  1.00  0.00    -0.328 NA 
HETATM   27  H1  UNL     1     -10.924  15.393  64.853  1.00  0.00     0.000 HD 
HETATM   28  H2  UNL     1     -11.283  14.824  66.358  1.00  0.00     0.000 HD 
ENDBRANCH  18  19
ENDBRANCH   6  18
TORSDOF 7
ENDMDL
MODEL      108
REMARK 921   NORMALIZED FREE ENERGY PREDICTED BY IDOCK:   -5.09 KCAL/MOL
REMARK 922        TOTAL FREE ENERGY PREDICTED BY IDOCK:   -8.16 KCAL/MOL
REMARK 923 INTER-LIGAND FREE ENERGY PREDICTED BY IDOCK:   -6.70 KCAL/MOL
REMARK 924 INTRA-LIGAND FREE ENERGY PREDICTED BY IDOCK:   -1.46 KCAL/MOL
REMARK 927      BINDING AFFINITY PREDICTED BY RF-SCORE:    0.00 PKD
ROOT
HETATM    1  C   UNL     1     -11.447   6.419  69.462  1.00  0.00    -0.412 C  
HETATM    2  C   UNL     1     -10.490   7.303  70.176  1.00  0.00    -0.218 C  
HETATM    3  C   UNL     1      -9.099   7.292  70.082  1.00  0.00    -0.148 C  
HETATM    4  C   UNL     1      -9.998   8.991  71.652  1.00  0.00    -0.313 C  
HETATM    5  S   UNL     1      -8.471   8.426  71.239  1.00  0.00    -0.164 SA 
HETATM    6  N   UNL     1     -10.956   8.311  71.032  1.00  0.00    -0.239 NA 
ENDROOT
BRANCH   3   7
HETATM    7  C   UNL     1      -8.137   6.498  69.180  1.00  0.00    -0.112 C  
BRANCH   7   8
HETATM    8  C   UNL     1      -7.736   7.348  67.967  1.00  0.00    -0.116 C  
BRANCH   8   9
HETATM    9  O   UNL     1      -8.738   7.940  67.171  1.00  0.00    -0.128 OA 
BRANCH   9  10
HETATM   10  P   UNL     1      -8.223   9.352  66.409  1.00  0.00    -0.112 P  
HETATM   11  O   UNL     1      -7.321   9.747  67.831  1.00  0.00    -0.084 OA 
HETATM   12  O   UNL     1      -9.209  10.460  66.832  1.00  0.00    -0.149 OA 
BRANCH  10  13
HETATM   13  O   UNL     1      -9.125   8.958  64.987  1.00  0.00    -0.165 OA 
HETATM   14  O   UNL     1      -7.321  10.402  63.944  1.00  0.00    -0.100 OA 
HETATM   15  P   UNL     1      -8.402   9.420  63.632  1.00  0.00    -0.201 P  
HETATM   16  O   UNL     1      -8.207   8.210  62.760  1.00  0.00    -0.173 OA 
HETATM   17  O   UNL     1      -9.629  10.190  62.929  1.00  0.00    -0.300 OA 
ENDBRANCH  10  13
ENDBRANCH   9  10
ENDBRANCH   8   9
ENDBRANCH   7   8
ENDBRANCH   3   7
BRANCH   6  18
HETATM   18  C   UNL     1     -12.348   8.758  71.208  1.00  0.00    -0.270 C  
BRANCH  18  19
HETATM   19  C   UNL     1     -12.522  10.228  70.981  1.00  0.00    -0.484 A  
HETATM   20  C   UNL     1     -13.137  11.009  71.934  1.00  0.00    -0.419 A  
HETATM   21  N   UNL     1     -13.190  12.348  71.886  1.00  0.00    -0.449 NA 
HETATM   22  C   UNL     1     -12.602  12.930  70.831  1.00  0.00    -0.270 A  
HETATM   23  N   UNL     1     -12.108  12.250  69.782  1.00  0.00    -0.266 NA 
HETATM   24  C   UNL     1     -12.464  14.420  70.853  1.00  0.00    -0.424 C  
HETATM   25  C   UNL     1     -12.119  10.916  69.854  1.00  0.00    -0.354 A  
HETATM   26  N   UNL     1     -11.744  10.260  68.678  1.00  0.00    -0.629 NA 
HETATM   27  H1  UNL     1     -11.445  10.768  67.845  1.00  0.00     0.000 HD 
HETATM   28  H2  UNL     1     -12.511   9.645  68.408  1.00  0.00     0.000 HD 
ENDBRANCH  18  19
ENDBRANCH   6  18
TORSDOF 7
ENDMDL
MODEL      109
REMARK 921   NORMALIZED FREE ENERGY PREDICTED BY IDOCK:   -5.08 KCAL/MOL
REMARK 922        TOTAL FREE ENERGY PREDICTED BY IDOCK:   -8.14 KCAL/MOL
REMARK 923 INTER-LIGAND FREE ENERGY PREDICTED BY IDOCK:   -7.58 KCAL/MOL
REMARK 924 INTRA-LIGAND FREE ENERGY PREDICTED BY IDOCK:   -0.57 KCAL/MOL
REMARK 927      BINDING AFFINITY PREDICTED BY RF-SCORE:    0.00 PKD
ROOT
HETATM    1  C   UNL     1     -10.796  11.528  68.003  1.00  0.00    -0.259 C  
HETATM    2  C   UNL     1     -10.626  11.335  66.539  1.00  0.00    -0.266 C  
HETATM    3  C   UNL     1      -9.952  10.296  65.898  1.00  0.00    -0.256 C  
HETATM    4  C   UNL     1     -10.932  11.978  64.358  1.00  0.00    -0.333 C  
HETATM    5  S   UNL     1      -9.930  10.639  64.194  1.00  0.00    -0.324 SA 
HETATM    6  N   UNL     1     -11.208  12.230  65.631  1.00  0.00    -0.320 NA 
ENDROOT
BRANCH   3   7
HETATM    7  C   UNL     1      -9.294   9.012  66.435  1.00  0.00    -0.264 C  
BRANCH   7   8
HETATM    8  C   UNL     1     -10.356   8.111  67.079  1.00  0.00    -0.333 C  
BRANCH   8   9
HETATM    9  O   UNL     1     -10.555   8.160  68.474  1.00  0.00    -0.186 OA 
BRANCH   9  10
HETATM   10  P   UNL     1     -10.355   6.661  69.219  1.00  0.00    -0.234 P  
HETATM   11  O   UNL     1     -10.802   5.902  67.730  1.00  0.00    -0.273 OA 
HETATM   12  O   UNL     1     -11.744   6.247  69.746  1.00  0.00    -0.403 OA 
BRANCH  10  13
HETATM   13  O   UNL     1      -9.908   7.419  70.708  1.00  0.00    -0.179 OA 
HETATM   14  O   UNL     1      -7.730   7.688  69.438  1.00  0.00    -0.102 OA 
HETATM   15  P   UNL     1      -8.483   8.154  70.640  1.00  0.00    -0.140 P  
HETATM   16  O   UNL     1      -8.679   9.602  70.995  1.00  0.00    -0.208 OA 
HETATM   17  O   UNL     1      -7.806   7.534  71.962  1.00  0.00    -0.086 OA 
ENDBRANCH  10  13
ENDBRANCH   9  10
ENDBRANCH   8   9
ENDBRANCH   7   8
ENDBRANCH   3   7
BRANCH   6  18
HETATM   18  C   UNL     1     -12.164  13.310  65.932  1.00  0.00    -0.441 C  
BRANCH  18  19
HETATM   19  C   UNL     1     -11.505  14.647  66.083  1.00  0.00    -0.339 A  
HETATM   20  C   UNL     1     -11.027  15.313  64.976  1.00  0.00    -0.437 A  
HETATM   21  N   UNL     1     -10.574  16.574  64.998  1.00  0.00    -0.698 NA 
HETATM   22  C   UNL     1     -10.598  17.195  66.186  1.00  0.00    -0.201 A  
HETATM   23  N   UNL     1     -10.908  16.584  67.342  1.00  0.00    -0.256 NA 
HETATM   24  C   UNL     1     -10.295  18.661  66.204  1.00  0.00    -0.481 C  
HETATM   25  C   UNL     1     -11.311  15.312  67.276  1.00  0.00    -0.269 A  
HETATM   26  N   UNL     1     -11.466  14.679  68.514  1.00  0.00    -0.287 NA 
HETATM   27  H1  UNL     1     -11.322  15.171  69.396  1.00  0.00     0.000 HD 
HETATM   28  H2  UNL     1     -10.867  13.854  68.517  1.00  0.00     0.000 HD 
ENDBRANCH  18  19
ENDBRANCH   6  18
TORSDOF 7
ENDMDL
MODEL      110
REMARK 921   NORMALIZED FREE ENERGY PREDICTED BY IDOCK:   -5.07 KCAL/MOL
REMARK 922        TOTAL FREE ENERGY PREDICTED BY IDOCK:   -8.13 KCAL/MOL
REMARK 923 INTER-LIGAND FREE ENERGY PREDICTED BY IDOCK:   -7.24 KCAL/MOL
REMARK 924 INTRA-LIGAND FREE ENERGY PREDICTED BY IDOCK:   -0.89 KCAL/MOL
REMARK 927      BINDING AFFINITY PREDICTED BY RF-SCORE:    0.00 PKD
ROOT
HETATM    1  C   UNL     1     -11.116  14.160  69.011  1.00  0.00    -0.292 C  
HETATM    2  C   UNL     1     -11.038  14.428  67.551  1.00  0.00    -0.302 C  
HETATM    3  C   UNL     1     -11.141  13.500  66.516  1.00  0.00    -0.300 C  
HETATM    4  C   UNL     1     -10.765  15.832  65.756  1.00  0.00    -0.327 C  
HETATM    5  S   UNL     1     -10.827  14.324  65.019  1.00  0.00    -0.426 SA 
HETATM    6  N   UNL     1     -10.879  15.737  67.076  1.00  0.00    -0.305 NA 
ENDROOT
BRANCH   3   7
HETATM    7  C   UNL     1     -11.468  11.996  66.514  1.00  0.00    -0.413 C  
BRANCH   7   8
HETATM    8  C   UNL     1     -10.177  11.180  66.662  1.00  0.00    -0.232 C  
BRANCH   8   9
HETATM    9  O   UNL     1     -10.175  10.023  67.468  1.00  0.00    -0.186 OA 
BRANCH   9  10
HETATM   10  P   UNL     1      -9.266   8.765  66.809  1.00  0.00    -0.197 P  
HETATM   11  O   UNL     1      -7.895   9.819  66.780  1.00  0.00    -0.101 OA 
HETATM   12  O   UNL     1      -9.324   8.941  65.279  1.00  0.00    -0.168 OA 
BRANCH  10  13
HETATM   13  O   UNL     1     -10.637   7.711  66.838  1.00  0.00    -0.341 OA 
HETATM   14  O   UNL     1      -8.884   6.135  67.775  1.00  0.00    -0.113 OA 
HETATM   15  P   UNL     1     -10.355   6.329  67.604  1.00  0.00    -0.266 P  
HETATM   16  O   UNL     1     -11.352   6.195  68.723  1.00  0.00    -0.344 OA 
HETATM   17  O   UNL     1     -10.900   5.298  66.495  1.00  0.00    -0.280 OA 
ENDBRANCH  10  13
ENDBRANCH   9  10
ENDBRANCH   8   9
ENDBRANCH   7   8
ENDBRANCH   3   7
BRANCH   6  18
HETATM   18  C   UNL     1     -10.951  16.985  67.856  1.00  0.00    -0.226 C  
BRANCH  18  19
HETATM   19  C   UNL     1      -9.833  17.932  67.547  1.00  0.00    -0.309 A  
HETATM   20  C   UNL     1     -10.093  19.128  66.913  1.00  0.00    -0.373 A  
HETATM   21  N   UNL     1      -9.185  20.099  66.744  1.00  0.00    -0.367 NA 
HETATM   22  C   UNL     1      -7.958  19.859  67.230  1.00  0.00    -0.302 A  
HETATM   23  N   UNL     1      -7.572  18.673  67.730  1.00  0.00    -0.231 NA 
HETATM   24  C   UNL     1      -6.986  20.997  67.241  1.00  0.00    -0.428 C  
HETATM   25  C   UNL     1      -8.501  17.719  67.837  1.00  0.00    -0.245 A  
HETATM   26  N   UNL     1      -8.014  16.462  68.211  1.00  0.00    -0.164 NA 
HETATM   27  H1  UNL     1      -7.029  16.305  68.426  1.00  0.00     0.000 HD 
HETATM   28  H2  UNL     1      -8.284  15.797  67.487  1.00  0.00     0.000 HD 
ENDBRANCH  18  19
ENDBRANCH   6  18
TORSDOF 7
ENDMDL
MODEL      111
REMARK 921   NORMALIZED FREE ENERGY PREDICTED BY IDOCK:   -5.06 KCAL/MOL
REMARK 922        TOTAL FREE ENERGY PREDICTED BY IDOCK:   -8.11 KCAL/MOL
REMARK 923 INTER-LIGAND FREE ENERGY PREDICTED BY IDOCK:   -6.75 KCAL/MOL
REMARK 924 INTRA-LIGAND FREE ENERGY PREDICTED BY IDOCK:   -1.36 KCAL/MOL
REMARK 927      BINDING AFFINITY PREDICTED BY RF-SCORE:    0.00 PKD
ROOT
HETATM    1  C   UNL     1      -8.465  12.916  67.702  1.00  0.00    -0.183 C  
HETATM    2  C   UNL     1      -9.400  12.342  66.700  1.00  0.00    -0.228 C  
HETATM    3  C   UNL     1     -10.125  13.032  65.730  1.00  0.00    -0.287 C  
HETATM    4  C   UNL     1     -10.508  10.580  65.733  1.00  0.00    -0.143 C  
HETATM    5  S   UNL     1     -11.172  11.898  64.931  1.00  0.00    -0.264 SA 
HETATM    6  N   UNL     1      -9.606  10.957  66.631  1.00  0.00    -0.182 NA 
ENDROOT
BRANCH   3   7
HETATM    7  C   UNL     1     -10.124  14.512  65.305  1.00  0.00    -0.389 C  
BRANCH   7   8
HETATM    8  C   UNL     1     -11.253  15.263  66.025  1.00  0.00    -0.231 C  
BRANCH   8   9
HETATM    9  O   UNL     1     -11.815  14.714  67.196  1.00  0.00    -0.391 OA 
BRANCH   9  10
HETATM   10  P   UNL     1     -11.086  15.285  68.605  1.00  0.00    -0.317 P  
HETATM   11  O   UNL     1     -11.456  13.775  69.364  1.00  0.00    -0.265 OA 
HETATM   12  O   UNL     1     -12.212  15.894  69.463  1.00  0.00    -0.294 OA 
BRANCH  10  13
HETATM   13  O   UNL     1     -10.715  16.794  67.846  1.00  0.00    -0.344 OA 
HETATM   14  O   UNL     1      -8.651  16.545  69.298  1.00  0.00    -0.199 OA 
HETATM   15  P   UNL     1      -9.223  17.302  68.144  1.00  0.00    -0.282 P  
HETATM   16  O   UNL     1      -8.513  17.488  66.831  1.00  0.00    -0.222 OA 
HETATM   17  O   UNL     1      -9.547  18.808  68.609  1.00  0.00    -0.353 OA 
ENDBRANCH  10  13
ENDBRANCH   9  10
ENDBRANCH   8   9
ENDBRANCH   7   8
ENDBRANCH   3   7
BRANCH   6  18
HETATM   18  C   UNL     1      -8.855   9.907  67.342  1.00  0.00    -0.132 C  
BRANCH  18  19
HETATM   19  C   UNL     1      -9.728   9.048  68.204  1.00  0.00    -0.172 A  
HETATM   20  C   UNL     1      -9.934   7.725  67.880  1.00  0.00    -0.172 A  
HETATM   21  N   UNL     1     -10.562   6.848  68.675  1.00  0.00    -0.215 NA 
HETATM   22  C   UNL     1     -11.008   7.321  69.849  1.00  0.00    -0.243 A  
HETATM   23  N   UNL     1     -10.984   8.621  70.187  1.00  0.00    -0.244 NA 
HETATM   24  C   UNL     1     -11.527   6.327  70.840  1.00  0.00    -0.377 C  
HETATM   25  C   UNL     1     -10.388   9.466  69.342  1.00  0.00    -0.212 A  
HETATM   26  N   UNL     1     -10.531  10.819  69.663  1.00  0.00    -0.406 NA 
HETATM   27  H1  UNL     1     -11.018  11.128  70.504  1.00  0.00     0.000 HD 
HETATM   28  H2  UNL     1     -10.964  11.283  68.864  1.00  0.00     0.000 HD 
ENDBRANCH  18  19
ENDBRANCH   6  18
TORSDOF 7
ENDMDL
MODEL      112
REMARK 921   NORMALIZED FREE ENERGY PREDICTED BY IDOCK:   -5.05 KCAL/MOL
REMARK 922        TOTAL FREE ENERGY PREDICTED BY IDOCK:   -8.10 KCAL/MOL
REMARK 923 INTER-LIGAND FREE ENERGY PREDICTED BY IDOCK:   -6.94 KCAL/MOL
REMARK 924 INTRA-LIGAND FREE ENERGY PREDICTED BY IDOCK:   -1.16 KCAL/MOL
REMARK 927      BINDING AFFINITY PREDICTED BY RF-SCORE:    0.00 PKD
ROOT
HETATM    1  C   UNL     1      -6.481  13.827  67.744  1.00  0.00    -0.178 C  
HETATM    2  C   UNL     1      -7.742  14.361  68.321  1.00  0.00    -0.129 C  
HETATM    3  C   UNL     1      -7.904  15.537  69.051  1.00  0.00    -0.201 C  
HETATM    4  C   UNL     1      -9.995  14.238  68.740  1.00  0.00    -0.205 C  
HETATM    5  S   UNL     1      -9.547  15.603  69.611  1.00  0.00    -0.183 SA 
HETATM    6  N   UNL     1      -8.956  13.688  68.124  1.00  0.00    -0.186 NA 
ENDROOT
BRANCH   3   7
HETATM    7  C   UNL     1      -6.927  16.677  69.394  1.00  0.00    -0.194 C  
BRANCH   7   8
HETATM    8  C   UNL     1      -7.428  17.995  68.789  1.00  0.00    -0.264 C  
BRANCH   8   9
HETATM    9  O   UNL     1      -6.783  18.529  67.655  1.00  0.00    -0.197 OA 
BRANCH   9  10
HETATM   10  P   UNL     1      -7.248  17.776  66.220  1.00  0.00    -0.303 P  
HETATM   11  O   UNL     1      -5.731  16.945  66.208  1.00  0.00    -0.324 OA 
HETATM   12  O   UNL     1      -6.686  18.639  65.073  1.00  0.00    -0.526 OA 
BRANCH  10  13
HETATM   13  O   UNL     1      -8.765  18.606  66.232  1.00  0.00    -0.380 OA 
HETATM   14  O   UNL     1      -9.583  16.260  65.725  1.00  0.00    -0.422 OA 
HETATM   15  P   UNL     1     -10.027  17.618  66.160  1.00  0.00    -0.168 P  
HETATM   16  O   UNL     1     -10.895  17.869  67.363  1.00  0.00    -0.339 OA 
HETATM   17  O   UNL     1     -10.840  18.319  64.961  1.00  0.00    -0.679 OA 
ENDBRANCH  10  13
ENDBRANCH   9  10
ENDBRANCH   8   9
ENDBRANCH   7   8
ENDBRANCH   3   7
BRANCH   6  18
HETATM   18  C   UNL     1      -9.206  12.544  67.231  1.00  0.00    -0.190 C  
BRANCH  18  19
HETATM   19  C   UNL     1      -9.551  11.289  67.972  1.00  0.00    -0.182 A  
HETATM   20  C   UNL     1      -8.552  10.467  68.446  1.00  0.00    -0.132 A  
HETATM   21  N   UNL     1      -8.765   9.418  69.253  1.00  0.00    -0.138 NA 
HETATM   22  C   UNL     1     -10.039   9.181  69.598  1.00  0.00    -0.198 A  
HETATM   23  N   UNL     1     -11.089   9.833  69.072  1.00  0.00    -0.158 NA 
HETATM   24  C   UNL     1     -10.286   8.151  70.655  1.00  0.00    -0.214 C  
HETATM   25  C   UNL     1     -10.830  10.842  68.236  1.00  0.00    -0.225 A  
HETATM   26  N   UNL     1     -11.952  11.381  67.597  1.00  0.00    -0.626 NA 
HETATM   27  H1  UNL     1     -12.897  11.051  67.793  1.00  0.00     0.000 HD 
HETATM   28  H2  UNL     1     -11.799  11.310  66.591  1.00  0.00     0.000 HD 
ENDBRANCH  18  19
ENDBRANCH   6  18
TORSDOF 7
ENDMDL
MODEL      113
REMARK 921   NORMALIZED FREE ENERGY PREDICTED BY IDOCK:   -5.05 KCAL/MOL
REMARK 922        TOTAL FREE ENERGY PREDICTED BY IDOCK:   -8.10 KCAL/MOL
REMARK 923 INTER-LIGAND FREE ENERGY PREDICTED BY IDOCK:   -7.38 KCAL/MOL
REMARK 924 INTRA-LIGAND FREE ENERGY PREDICTED BY IDOCK:   -0.72 KCAL/MOL
REMARK 927      BINDING AFFINITY PREDICTED BY RF-SCORE:    0.00 PKD
ROOT
HETATM    1  C   UNL     1      -9.198  13.471  66.906  1.00  0.00    -0.254 C  
HETATM    2  C   UNL     1     -10.127  13.657  68.051  1.00  0.00    -0.250 C  
HETATM    3  C   UNL     1     -11.160  12.808  68.446  1.00  0.00    -0.262 C  
HETATM    4  C   UNL     1     -10.923  14.843  69.847  1.00  0.00    -0.232 C  
HETATM    5  S   UNL     1     -12.022  13.576  69.744  1.00  0.00    -0.326 SA 
HETATM    6  N   UNL     1      -9.996  14.765  68.900  1.00  0.00    -0.231 NA 
ENDROOT
BRANCH   3   7
HETATM    7  C   UNL     1     -11.597  11.420  67.945  1.00  0.00    -0.337 C  
BRANCH   7   8
HETATM    8  C   UNL     1     -10.648  10.344  68.492  1.00  0.00    -0.209 C  
BRANCH   8   9
HETATM    9  O   UNL     1     -10.332  10.331  69.866  1.00  0.00    -0.255 OA 
BRANCH   9  10
HETATM   10  P   UNL     1     -11.199   9.169  70.728  1.00  0.00    -0.312 P  
HETATM   11  O   UNL     1     -12.111  10.445  71.457  1.00  0.00    -0.353 OA 
HETATM   12  O   UNL     1     -10.489   9.016  72.088  1.00  0.00    -0.321 OA 
BRANCH  10  13
HETATM   13  O   UNL     1     -10.287   7.894  69.998  1.00  0.00    -0.211 OA 
HETATM   14  O   UNL     1     -12.362   6.593  70.655  1.00  0.00    -0.340 OA 
HETATM   15  P   UNL     1     -11.128   6.540  69.816  1.00  0.00    -0.392 P  
HETATM   16  O   UNL     1     -11.122   6.170  68.358  1.00  0.00    -0.330 OA 
HETATM   17  O   UNL     1     -10.090   5.497  70.468  1.00  0.00    -0.196 OA 
ENDBRANCH  10  13
ENDBRANCH   9  10
ENDBRANCH   8   9
ENDBRANCH   7   8
ENDBRANCH   3   7
BRANCH   6  18
HETATM   18  C   UNL     1      -8.897  15.745  68.924  1.00  0.00    -0.220 C  
BRANCH  18  19
HETATM   19  C   UNL     1      -9.205  16.986  68.142  1.00  0.00    -0.244 A  
HETATM   20  C   UNL     1      -8.500  17.275  66.995  1.00  0.00    -0.219 A  
HETATM   21  N   UNL     1      -8.815  18.269  66.153  1.00  0.00    -0.494 NA 
HETATM   22  C   UNL     1      -9.884  19.010  66.479  1.00  0.00    -0.369 A  
HETATM   23  N   UNL     1     -10.543  18.898  67.644  1.00  0.00    -0.434 NA 
HETATM   24  C   UNL     1     -10.381  19.988  65.461  1.00  0.00    -0.282 C  
HETATM   25  C   UNL     1     -10.164  17.921  68.473  1.00  0.00    -0.390 A  
HETATM   26  N   UNL     1     -10.772  17.949  69.733  1.00  0.00     0.086 NA 
HETATM   27  H1  UNL     1     -11.481  18.641  69.977  1.00  0.00     0.000 HD 
HETATM   28  H2  UNL     1     -10.032  18.002  70.432  1.00  0.00     0.000 HD 
ENDBRANCH  18  19
ENDBRANCH   6  18
TORSDOF 7
ENDMDL
MODEL      114
REMARK 921   NORMALIZED FREE ENERGY PREDICTED BY IDOCK:   -5.03 KCAL/MOL
REMARK 922        TOTAL FREE ENERGY PREDICTED BY IDOCK:   -8.08 KCAL/MOL
REMARK 923 INTER-LIGAND FREE ENERGY PREDICTED BY IDOCK:   -7.03 KCAL/MOL
REMARK 924 INTRA-LIGAND FREE ENERGY PREDICTED BY IDOCK:   -1.05 KCAL/MOL
REMARK 927      BINDING AFFINITY PREDICTED BY RF-SCORE:    0.00 PKD
ROOT
HETATM    1  C   UNL     1     -12.297  11.908  70.587  1.00  0.00    -0.405 C  
HETATM    2  C   UNL     1     -12.028  12.506  69.254  1.00  0.00    -0.250 C  
HETATM    3  C   UNL     1     -11.985  13.861  68.930  1.00  0.00    -0.358 C  
HETATM    4  C   UNL     1     -11.577  12.343  67.009  1.00  0.00    -0.365 C  
HETATM    5  S   UNL     1     -11.783  13.999  67.209  1.00  0.00    -0.409 SA 
HETATM    6  N   UNL     1     -11.740  11.688  68.152  1.00  0.00    -0.482 NA 
ENDROOT
BRANCH   3   7
HETATM    7  C   UNL     1     -12.077  15.128  69.799  1.00  0.00    -0.354 C  
BRANCH   7   8
HETATM    8  C   UNL     1     -11.196  16.236  69.204  1.00  0.00    -0.309 C  
BRANCH   8   9
HETATM    9  O   UNL     1      -9.839  16.320  69.577  1.00  0.00    -0.234 OA 
BRANCH   9  10
HETATM   10  P   UNL     1      -8.821  16.663  68.278  1.00  0.00    -0.228 P  
HETATM   11  O   UNL     1      -8.524  14.968  68.110  1.00  0.00    -0.143 OA 
HETATM   12  O   UNL     1      -7.396  16.768  68.857  1.00  0.00    -0.212 OA 
BRANCH  10  13
HETATM   13  O   UNL     1      -9.118  18.359  68.446  1.00  0.00    -0.306 OA 
HETATM   14  O   UNL     1      -9.251  18.165  65.921  1.00  0.00    -0.514 OA 
HETATM   15  P   UNL     1      -9.564  19.061  67.074  1.00  0.00    -0.351 P  
HETATM   16  O   UNL     1     -10.902  19.714  67.287  1.00  0.00    -0.474 OA 
HETATM   17  O   UNL     1      -8.540  20.303  67.071  1.00  0.00    -0.328 OA 
ENDBRANCH  10  13
ENDBRANCH   9  10
ENDBRANCH   8   9
ENDBRANCH   7   8
ENDBRANCH   3   7
BRANCH   6  18
HETATM   18  C   UNL     1     -11.484  10.237  68.161  1.00  0.00    -0.041 C  
BRANCH  18  19
HETATM   19  C   UNL     1     -10.025   9.901  68.127  1.00  0.00    -0.175 A  
HETATM   20  C   UNL     1      -9.215  10.221  69.194  1.00  0.00    -0.194 A  
HETATM   21  N   UNL     1      -7.943   9.816  69.317  1.00  0.00    -0.101 NA 
HETATM   22  C   UNL     1      -7.460   9.059  68.320  1.00  0.00    -0.083 A  
HETATM   23  N   UNL     1      -8.122   8.818  67.177  1.00  0.00    -0.100 NA 
HETATM   24  C   UNL     1      -6.120   8.424  68.524  1.00  0.00    -0.045 C  
HETATM   25  C   UNL     1      -9.372   9.281  67.081  1.00  0.00    -0.132 A  
HETATM   26  N   UNL     1      -9.956   9.143  65.818  1.00  0.00    -0.434 NA 
HETATM   27  H1  UNL     1      -9.474   8.684  65.045  1.00  0.00     0.000 HD 
HETATM   28  H2  UNL     1     -10.235  10.072  65.503  1.00  0.00     0.000 HD 
ENDBRANCH  18  19
ENDBRANCH   6  18
TORSDOF 7
ENDMDL
MODEL      115
REMARK 921   NORMALIZED FREE ENERGY PREDICTED BY IDOCK:   -5.02 KCAL/MOL
REMARK 922        TOTAL FREE ENERGY PREDICTED BY IDOCK:   -8.06 KCAL/MOL
REMARK 923 INTER-LIGAND FREE ENERGY PREDICTED BY IDOCK:   -7.25 KCAL/MOL
REMARK 924 INTRA-LIGAND FREE ENERGY PREDICTED BY IDOCK:   -0.81 KCAL/MOL
REMARK 927      BINDING AFFINITY PREDICTED BY RF-SCORE:    0.00 PKD
ROOT
HETATM    1  C   UNL     1     -10.354  14.021  68.490  1.00  0.00    -0.247 C  
HETATM    2  C   UNL     1     -10.832  13.771  67.105  1.00  0.00    -0.283 C  
HETATM    3  C   UNL     1     -10.563  14.533  65.970  1.00  0.00    -0.307 C  
HETATM    4  C   UNL     1     -12.021  12.569  65.554  1.00  0.00    -0.442 C  
HETATM    5  S   UNL     1     -11.488  13.882  64.651  1.00  0.00    -0.384 SA 
HETATM    6  N   UNL     1     -11.613  12.644  66.815  1.00  0.00    -0.354 NA 
ENDROOT
BRANCH   3   7
HETATM    7  C   UNL     1      -9.648  15.750  65.742  1.00  0.00    -0.355 C  
BRANCH   7   8
HETATM    8  C   UNL     1     -10.354  17.030  66.208  1.00  0.00    -0.306 C  
BRANCH   8   9
HETATM    9  O   UNL     1      -9.803  17.783  67.265  1.00  0.00    -0.293 OA 
BRANCH   9  10
HETATM   10  P   UNL     1      -9.527  19.393  66.852  1.00  0.00    -0.380 P  
HETATM   11  O   UNL     1     -10.802  19.850  67.927  1.00  0.00    -0.286 OA 
HETATM   12  O   UNL     1     -10.498  19.720  65.700  1.00  0.00    -0.480 OA 
BRANCH  10  13
HETATM   13  O   UNL     1      -8.252  18.937  65.776  1.00  0.00    -0.458 OA 
HETATM   14  O   UNL     1      -6.885  19.413  67.858  1.00  0.00    -0.234 OA 
HETATM   15  P   UNL     1      -6.834  18.773  66.510  1.00  0.00    -0.225 P  
HETATM   16  O   UNL     1      -6.332  17.376  66.265  1.00  0.00    -0.211 OA 
HETATM   17  O   UNL     1      -5.926  19.671  65.531  1.00  0.00    -0.175 OA 
ENDBRANCH  10  13
ENDBRANCH   9  10
ENDBRANCH   8   9
ENDBRANCH   7   8
ENDBRANCH   3   7
BRANCH   6  18
HETATM   18  C   UNL     1     -11.910  11.511  67.708  1.00  0.00    -0.154 C  
BRANCH  18  19
HETATM   19  C   UNL     1     -10.742  10.593  67.894  1.00  0.00    -0.292 A  
HETATM   20  C   UNL     1     -10.183   9.952  66.810  1.00  0.00    -0.236 A  
HETATM   21  N   UNL     1      -9.045   9.247  66.862  1.00  0.00    -0.129 NA 
HETATM   22  C   UNL     1      -8.440   9.177  68.057  1.00  0.00    -0.121 A  
HETATM   23  N   UNL     1      -8.981   9.642  69.195  1.00  0.00    -0.145 NA 
HETATM   24  C   UNL     1      -7.071   8.575  68.103  1.00  0.00    -0.085 C  
HETATM   25  C   UNL     1     -10.141  10.299  69.102  1.00  0.00    -0.218 A  
HETATM   26  N   UNL     1     -10.736  10.621  70.326  1.00  0.00    -0.451 NA 
HETATM   27  H1  UNL     1     -10.291  10.404  71.218  1.00  0.00     0.000 HD 
HETATM   28  H2  UNL     1     -11.668  10.208  70.335  1.00  0.00     0.000 HD 
ENDBRANCH  18  19
ENDBRANCH   6  18
TORSDOF 7
ENDMDL
MODEL      116
REMARK 921   NORMALIZED FREE ENERGY PREDICTED BY IDOCK:   -5.02 KCAL/MOL
REMARK 922        TOTAL FREE ENERGY PREDICTED BY IDOCK:   -8.06 KCAL/MOL
REMARK 923 INTER-LIGAND FREE ENERGY PREDICTED BY IDOCK:   -7.26 KCAL/MOL
REMARK 924 INTRA-LIGAND FREE ENERGY PREDICTED BY IDOCK:   -0.80 KCAL/MOL
REMARK 927      BINDING AFFINITY PREDICTED BY RF-SCORE:    0.00 PKD
ROOT
HETATM    1  C   UNL     1     -11.615  11.533  67.503  1.00  0.00    -0.322 C  
HETATM    2  C   UNL     1     -11.002  11.505  66.149  1.00  0.00    -0.266 C  
HETATM    3  C   UNL     1     -10.215  10.493  65.601  1.00  0.00    -0.246 C  
HETATM    4  C   UNL     1     -10.569  12.435  64.097  1.00  0.00    -0.385 C  
HETATM    5  S   UNL     1      -9.638  11.037  64.055  1.00  0.00    -0.287 SA 
HETATM    6  N   UNL     1     -11.220  12.555  65.248  1.00  0.00    -0.295 NA 
ENDROOT
BRANCH   3   7
HETATM    7  C   UNL     1      -9.827   9.097  66.120  1.00  0.00    -0.363 C  
BRANCH   7   8
HETATM    8  C   UNL     1      -8.568   9.194  66.991  1.00  0.00    -0.123 C  
BRANCH   8   9
HETATM    9  O   UNL     1      -8.301   8.186  67.941  1.00  0.00    -0.126 OA 
BRANCH   9  10
HETATM   10  P   UNL     1      -7.107   7.108  67.437  1.00  0.00    -0.089 P  
HETATM   11  O   UNL     1      -5.912   8.258  67.930  1.00  0.00    -0.044 OA 
HETATM   12  O   UNL     1      -6.755   7.494  65.987  1.00  0.00    -0.048 OA 
BRANCH  10  13
HETATM   13  O   UNL     1      -8.302   5.959  66.944  1.00  0.00    -0.109 OA 
HETATM   14  O   UNL     1      -6.375   4.377  67.411  1.00  0.00    -0.038 OA 
HETATM   15  P   UNL     1      -7.849   4.437  67.178  1.00  0.00    -0.097 P  
HETATM   16  O   UNL     1      -8.864   3.771  68.066  1.00  0.00    -0.099 OA 
HETATM   17  O   UNL     1      -8.180   3.838  65.722  1.00  0.00    -0.103 OA 
ENDBRANCH  10  13
ENDBRANCH   9  10
ENDBRANCH   8   9
ENDBRANCH   7   8
ENDBRANCH   3   7
BRANCH   6  18
HETATM   18  C   UNL     1     -12.164  13.676  65.396  1.00  0.00    -0.444 C  
BRANCH  18  19
HETATM   19  C   UNL     1     -11.494  14.955  65.793  1.00  0.00    -0.281 A  
HETATM   20  C   UNL     1     -11.047  15.132  67.084  1.00  0.00    -0.335 A  
HETATM   21  N   UNL     1     -10.299  16.170  67.482  1.00  0.00    -0.280 NA 
HETATM   22  C   UNL     1      -9.987  17.075  66.543  1.00  0.00    -0.310 A  
HETATM   23  N   UNL     1     -10.495  17.066  65.299  1.00  0.00    -0.665 NA 
HETATM   24  C   UNL     1      -8.988  18.129  66.905  1.00  0.00    -0.275 C  
HETATM   25  C   UNL     1     -11.274  16.034  64.961  1.00  0.00    -0.261 A  
HETATM   26  N   UNL     1     -11.902  16.154  63.717  1.00  0.00    -1.368 NA 
HETATM   27  H1  UNL     1     -11.739  16.951  63.102  1.00  0.00     0.000 HD 
HETATM   28  H2  UNL     1     -12.908  16.079  63.869  1.00  0.00     0.000 HD 
ENDBRANCH  18  19
ENDBRANCH   6  18
TORSDOF 7
ENDMDL
MODEL      117
REMARK 921   NORMALIZED FREE ENERGY PREDICTED BY IDOCK:   -5.02 KCAL/MOL
REMARK 922        TOTAL FREE ENERGY PREDICTED BY IDOCK:   -8.06 KCAL/MOL
REMARK 923 INTER-LIGAND FREE ENERGY PREDICTED BY IDOCK:   -7.02 KCAL/MOL
REMARK 924 INTRA-LIGAND FREE ENERGY PREDICTED BY IDOCK:   -1.03 KCAL/MOL
REMARK 927      BINDING AFFINITY PREDICTED BY RF-SCORE:    0.00 PKD
ROOT
HETATM    1  C   UNL     1      -8.258  13.501  67.654  1.00  0.00    -0.178 C  
HETATM    2  C   UNL     1      -9.712  13.758  67.485  1.00  0.00    -0.230 C  
HETATM    3  C   UNL     1     -10.626  12.991  66.765  1.00  0.00    -0.262 C  
HETATM    4  C   UNL     1     -11.608  15.003  67.836  1.00  0.00    -0.333 C  
HETATM    5  S   UNL     1     -12.151  13.823  66.770  1.00  0.00    -0.395 SA 
HETATM    6  N   UNL     1     -10.319  14.853  68.115  1.00  0.00    -0.234 NA 
ENDROOT
BRANCH   3   7
HETATM    7  C   UNL     1     -10.488  11.639  66.041  1.00  0.00    -0.294 C  
BRANCH   7   8
HETATM    8  C   UNL     1     -10.658  10.489  67.044  1.00  0.00    -0.253 C  
BRANCH   8   9
HETATM    9  O   UNL     1     -11.668  10.566  68.024  1.00  0.00    -0.450 OA 
BRANCH   9  10
HETATM   10  P   UNL     1     -11.106  10.221  69.575  1.00  0.00    -0.266 P  
HETATM   11  O   UNL     1     -11.537  11.828  70.049  1.00  0.00    -0.293 OA 
HETATM   12  O   UNL     1      -9.639  10.695  69.622  1.00  0.00    -0.115 OA 
BRANCH  10  13
HETATM   13  O   UNL     1     -10.674   8.615  69.102  1.00  0.00    -0.206 OA 
HETATM   14  O   UNL     1     -10.848   8.273  71.608  1.00  0.00    -0.232 OA 
HETATM   15  P   UNL     1     -10.773   7.554  70.301  1.00  0.00    -0.240 P  
HETATM   16  O   UNL     1     -11.722   6.461  69.892  1.00  0.00    -0.426 OA 
HETATM   17  O   UNL     1      -9.326   6.863  70.160  1.00  0.00    -0.158 OA 
ENDBRANCH  10  13
ENDBRANCH   9  10
ENDBRANCH   8   9
ENDBRANCH   7   8
ENDBRANCH   3   7
BRANCH   6  18
HETATM   18  C   UNL     1      -9.719  15.748  69.121  1.00  0.00    -0.250 C  
BRANCH  18  19
HETATM   19  C   UNL     1      -9.041  16.937  68.514  1.00  0.00    -0.257 A  
HETATM   20  C   UNL     1      -9.742  17.790  67.690  1.00  0.00    -0.282 A  
HETATM   21  N   UNL     1      -9.262  18.957  67.238  1.00  0.00    -0.281 NA 
HETATM   22  C   UNL     1      -8.021  19.282  67.627  1.00  0.00    -0.278 A  
HETATM   23  N   UNL     1      -7.210  18.453  68.305  1.00  0.00    -0.254 NA 
HETATM   24  C   UNL     1      -7.539  20.663  67.311  1.00  0.00    -0.381 C  
HETATM   25  C   UNL     1      -7.716  17.281  68.696  1.00  0.00    -0.265 A  
HETATM   26  N   UNL     1      -6.789  16.395  69.254  1.00  0.00    -0.210 NA 
HETATM   27  H1  UNL     1      -5.810  16.649  69.389  1.00  0.00     0.000 HD 
HETATM   28  H2  UNL     1      -6.814  15.534  68.708  1.00  0.00     0.000 HD 
ENDBRANCH  18  19
ENDBRANCH   6  18
TORSDOF 7
ENDMDL
MODEL      118
REMARK 921   NORMALIZED FREE ENERGY PREDICTED BY IDOCK:   -5.02 KCAL/MOL
REMARK 922        TOTAL FREE ENERGY PREDICTED BY IDOCK:   -8.05 KCAL/MOL
REMARK 923 INTER-LIGAND FREE ENERGY PREDICTED BY IDOCK:   -7.22 KCAL/MOL
REMARK 924 INTRA-LIGAND FREE ENERGY PREDICTED BY IDOCK:   -0.83 KCAL/MOL
REMARK 927      BINDING AFFINITY PREDICTED BY RF-SCORE:    0.00 PKD
ROOT
HETATM    1  C   UNL     1     -10.190   9.354  66.555  1.00  0.00    -0.308 C  
HETATM    2  C   UNL     1      -9.680   9.256  67.948  1.00  0.00    -0.153 C  
HETATM    3  C   UNL     1     -10.287   9.743  69.105  1.00  0.00    -0.211 C  
HETATM    4  C   UNL     1      -8.109   8.618  69.495  1.00  0.00    -0.110 C  
HETATM    5  S   UNL     1      -9.195   9.492  70.433  1.00  0.00    -0.211 SA 
HETATM    6  N   UNL     1      -8.481   8.583  68.221  1.00  0.00    -0.133 NA 
ENDROOT
BRANCH   3   7
HETATM    7  C   UNL     1     -11.656  10.404  69.346  1.00  0.00    -0.272 C  
BRANCH   7   8
HETATM    8  C   UNL     1     -11.623  11.864  68.877  1.00  0.00    -0.311 C  
BRANCH   8   9
HETATM    9  O   UNL     1     -11.982  12.175  67.549  1.00  0.00    -0.544 OA 
BRANCH   9  10
HETATM   10  P   UNL     1     -11.266  13.596  66.991  1.00  0.00    -0.338 P  
HETATM   11  O   UNL     1      -9.974  13.343  68.112  1.00  0.00    -0.225 OA 
HETATM   12  O   UNL     1     -11.744  14.722  67.930  1.00  0.00    -0.342 OA 
BRANCH  10  13
HETATM   13  O   UNL     1     -12.559  13.850  65.870  1.00  0.00    -0.478 OA 
HETATM   14  O   UNL     1     -10.685  13.356  64.234  1.00  0.00    -0.407 OA 
HETATM   15  P   UNL     1     -12.168  13.474  64.360  1.00  0.00    -0.339 P  
HETATM   16  O   UNL     1     -13.134  12.433  63.864  1.00  0.00    -0.763 OA 
HETATM   17  O   UNL     1     -12.656  14.817  63.620  1.00  0.00    -0.749 OA 
ENDBRANCH  10  13
ENDBRANCH   9  10
ENDBRANCH   8   9
ENDBRANCH   7   8
ENDBRANCH   3   7
BRANCH   6  18
HETATM   18  C   UNL     1      -7.687   7.762  67.290  1.00  0.00    -0.113 C  
BRANCH  18  19
HETATM   19  C   UNL     1      -8.037   6.307  67.350  1.00  0.00    -0.109 A  
HETATM   20  C   UNL     1      -7.533   5.515  68.358  1.00  0.00    -0.077 A  
HETATM   21  N   UNL     1      -7.920   4.251  68.581  1.00  0.00    -0.073 NA 
HETATM   22  C   UNL     1      -8.853   3.758  67.752  1.00  0.00    -0.114 A  
HETATM   23  N   UNL     1      -9.294   4.401  66.659  1.00  0.00    -0.147 NA 
HETATM   24  C   UNL     1      -9.451   2.431  68.099  1.00  0.00    -0.215 C  
HETATM   25  C   UNL     1      -8.846   5.642  66.452  1.00  0.00    -0.129 A  
HETATM   26  N   UNL     1      -9.210   6.202  65.223  1.00  0.00    -0.351 NA 
HETATM   27  H1  UNL     1      -9.808   5.710  64.559  1.00  0.00     0.000 HD 
HETATM   28  H2  UNL     1      -8.353   6.463  64.736  1.00  0.00     0.000 HD 
ENDBRANCH  18  19
ENDBRANCH   6  18
TORSDOF 7
ENDMDL
MODEL      119
REMARK 921   NORMALIZED FREE ENERGY PREDICTED BY IDOCK:   -5.01 KCAL/MOL
REMARK 922        TOTAL FREE ENERGY PREDICTED BY IDOCK:   -8.05 KCAL/MOL
REMARK 923 INTER-LIGAND FREE ENERGY PREDICTED BY IDOCK:   -7.15 KCAL/MOL
REMARK 924 INTRA-LIGAND FREE ENERGY PREDICTED BY IDOCK:   -0.91 KCAL/MOL
REMARK 927      BINDING AFFINITY PREDICTED BY RF-SCORE:    0.00 PKD
ROOT
HETATM    1  C   UNL     1      -7.633  12.851  67.240  1.00  0.00    -0.104 C  
HETATM    2  C   UNL     1      -8.724  13.699  67.786  1.00  0.00    -0.184 C  
HETATM    3  C   UNL     1      -8.636  14.616  68.832  1.00  0.00    -0.131 C  
HETATM    4  C   UNL     1     -10.901  14.424  67.836  1.00  0.00    -0.251 C  
HETATM    5  S   UNL     1     -10.234  15.218  69.158  1.00  0.00    -0.254 SA 
HETATM    6  N   UNL     1     -10.005  13.663  67.219  1.00  0.00    -0.237 NA 
ENDROOT
BRANCH   3   7
HETATM    7  C   UNL     1      -7.439  15.124  69.656  1.00  0.00    -0.181 C  
BRANCH   7   8
HETATM    8  C   UNL     1      -6.967  16.479  69.112  1.00  0.00    -0.225 C  
BRANCH   8   9
HETATM    9  O   UNL     1      -7.046  16.737  67.728  1.00  0.00    -0.125 OA 
BRANCH   9  10
HETATM   10  P   UNL     1      -7.361  18.356  67.380  1.00  0.00    -0.219 P  
HETATM   11  O   UNL     1      -5.656  18.643  67.347  1.00  0.00    -0.143 OA 
HETATM   12  O   UNL     1      -7.372  19.099  68.731  1.00  0.00    -0.312 OA 
BRANCH  10  13
HETATM   13  O   UNL     1      -9.066  18.069  67.412  1.00  0.00    -0.247 OA 
HETATM   14  O   UNL     1      -9.017  20.085  65.875  1.00  0.00    -0.314 OA 
HETATM   15  P   UNL     1      -9.878  18.965  66.357  1.00  0.00    -0.363 P  
HETATM   16  O   UNL     1     -10.644  18.046  65.445  1.00  0.00    -0.648 OA 
HETATM   17  O   UNL     1     -11.015  19.554  67.332  1.00  0.00    -0.477 OA 
ENDBRANCH  10  13
ENDBRANCH   9  10
ENDBRANCH   8   9
ENDBRANCH   7   8
ENDBRANCH   3   7
BRANCH   6  18
HETATM   18  C   UNL     1     -10.411  12.985  65.975  1.00  0.00    -0.285 C  
BRANCH  18  19
HETATM   19  C   UNL     1     -10.374  11.492  66.086  1.00  0.00    -0.287 A  
HETATM   20  C   UNL     1      -9.681  10.745  65.158  1.00  0.00    -0.265 A  
HETATM   21  N   UNL     1      -9.461   9.428  65.270  1.00  0.00    -0.259 NA 
HETATM   22  C   UNL     1      -9.962   8.830  66.361  1.00  0.00    -0.275 A  
HETATM   23  N   UNL     1     -10.771   9.442  67.242  1.00  0.00    -0.243 NA 
HETATM   24  C   UNL     1      -9.560   7.412  66.617  1.00  0.00    -0.251 C  
HETATM   25  C   UNL     1     -11.000  10.747  67.064  1.00  0.00    -0.227 A  
HETATM   26  N   UNL     1     -11.969  11.295  67.910  1.00  0.00    -0.640 NA 
HETATM   27  H1  UNL     1     -12.432  10.744  68.633  1.00  0.00     0.000 HD 
HETATM   28  H2  UNL     1     -12.694  11.709  67.323  1.00  0.00     0.000 HD 
ENDBRANCH  18  19
ENDBRANCH   6  18
TORSDOF 7
ENDMDL
MODEL      120
REMARK 921   NORMALIZED FREE ENERGY PREDICTED BY IDOCK:   -5.01 KCAL/MOL
REMARK 922        TOTAL FREE ENERGY PREDICTED BY IDOCK:   -8.05 KCAL/MOL
REMARK 923 INTER-LIGAND FREE ENERGY PREDICTED BY IDOCK:   -7.14 KCAL/MOL
REMARK 924 INTRA-LIGAND FREE ENERGY PREDICTED BY IDOCK:   -0.90 KCAL/MOL
REMARK 927      BINDING AFFINITY PREDICTED BY RF-SCORE:    0.00 PKD
ROOT
HETATM    1  C   UNL     1     -13.821   9.052  71.948  1.00  0.00    -0.477 C  
HETATM    2  C   UNL     1     -12.381   9.115  71.588  1.00  0.00    -0.360 C  
HETATM    3  C   UNL     1     -11.396   8.172  71.882  1.00  0.00    -0.296 C  
HETATM    4  C   UNL     1     -10.569  10.152  70.636  1.00  0.00    -0.102 C  
HETATM    5  S   UNL     1      -9.866   8.812  71.364  1.00  0.00    -0.309 SA 
HETATM    6  N   UNL     1     -11.880  10.188  70.839  1.00  0.00    -0.345 NA 
ENDROOT
BRANCH   3   7
HETATM    7  C   UNL     1     -11.469   6.779  72.533  1.00  0.00    -0.270 C  
BRANCH   7   8
HETATM    8  C   UNL     1     -10.304   5.910  72.041  1.00  0.00    -0.207 C  
BRANCH   8   9
HETATM    9  O   UNL     1     -10.507   4.530  71.834  1.00  0.00    -0.166 OA 
BRANCH   9  10
HETATM   10  P   UNL     1      -9.557   3.907  70.587  1.00  0.00    -0.142 P  
HETATM   11  O   UNL     1      -9.742   2.334  71.283  1.00  0.00    -0.148 OA 
HETATM   12  O   UNL     1      -8.110   3.875  71.116  1.00  0.00    -0.062 OA 
BRANCH  10  13
HETATM   13  O   UNL     1      -9.373   5.480  69.892  1.00  0.00    -0.140 OA 
HETATM   14  O   UNL     1      -9.770   4.138  67.777  1.00  0.00    -0.166 OA 
HETATM   15  P   UNL     1      -9.730   5.525  68.328  1.00  0.00    -0.149 P  
HETATM   16  O   UNL     1     -10.820   6.540  68.119  1.00  0.00    -0.255 OA 
HETATM   17  O   UNL     1      -8.414   6.274  67.781  1.00  0.00    -0.116 OA 
ENDBRANCH  10  13
ENDBRANCH   9  10
ENDBRANCH   8   9
ENDBRANCH   7   8
ENDBRANCH   3   7
BRANCH   6  18
HETATM   18  C   UNL     1     -12.656  11.248  70.171  1.00  0.00    -0.135 C  
BRANCH  18  19
HETATM   19  C   UNL     1     -12.717  12.516  70.966  1.00  0.00    -0.316 A  
HETATM   20  C   UNL     1     -13.611  12.639  72.006  1.00  0.00    -0.332 A  
HETATM   21  N   UNL     1     -13.623  13.667  72.866  1.00  0.00    -0.603 NA 
HETATM   22  C   UNL     1     -12.697  14.617  72.671  1.00  0.00    -0.375 A  
HETATM   23  N   UNL     1     -11.882  14.658  71.604  1.00  0.00    -0.317 NA 
HETATM   24  C   UNL     1     -12.552  15.666  73.729  1.00  0.00    -0.743 C  
HETATM   25  C   UNL     1     -11.938  13.634  70.748  1.00  0.00    -0.206 A  
HETATM   26  N   UNL     1     -11.190  13.802  69.579  1.00  0.00    -0.407 NA 
HETATM   27  H1  UNL     1     -10.613  14.628  69.418  1.00  0.00     0.000 HD 
HETATM   28  H2  UNL     1     -11.826  13.708  68.787  1.00  0.00     0.000 HD 
ENDBRANCH  18  19
ENDBRANCH   6  18
TORSDOF 7
ENDMDL
MODEL      121
REMARK 921   NORMALIZED FREE ENERGY PREDICTED BY IDOCK:   -4.99 KCAL/MOL
REMARK 922        TOTAL FREE ENERGY PREDICTED BY IDOCK:   -8.01 KCAL/MOL
REMARK 923 INTER-LIGAND FREE ENERGY PREDICTED BY IDOCK:   -7.17 KCAL/MOL
REMARK 924 INTRA-LIGAND FREE ENERGY PREDICTED BY IDOCK:   -0.85 KCAL/MOL
REMARK 927      BINDING AFFINITY PREDICTED BY RF-SCORE:    0.00 PKD
ROOT
HETATM    1  C   UNL     1      -8.889  13.648  68.498  1.00  0.00    -0.099 C  
HETATM    2  C   UNL     1     -10.084  13.604  67.616  1.00  0.00    -0.242 C  
HETATM    3  C   UNL     1     -11.161  14.490  67.609  1.00  0.00    -0.304 C  
HETATM    4  C   UNL     1     -11.345  12.654  65.950  1.00  0.00    -0.334 C  
HETATM    5  S   UNL     1     -12.346  13.890  66.490  1.00  0.00    -0.329 SA 
HETATM    6  N   UNL     1     -10.204  12.616  66.629  1.00  0.00    -0.233 NA 
ENDROOT
BRANCH   3   7
HETATM    7  C   UNL     1     -11.418  15.800  68.376  1.00  0.00    -0.367 C  
BRANCH   7   8
HETATM    8  C   UNL     1     -10.977  16.999  67.526  1.00  0.00    -0.119 C  
BRANCH   8   9
HETATM    9  O   UNL     1      -9.653  17.474  67.628  1.00  0.00    -0.259 OA 
BRANCH   9  10
HETATM   10  P   UNL     1      -9.443  18.991  66.924  1.00  0.00    -0.347 P  
HETATM   11  O   UNL     1     -10.656  19.613  67.988  1.00  0.00    -0.425 OA 
HETATM   12  O   UNL     1     -10.495  19.100  65.802  1.00  0.00    -0.502 OA 
BRANCH  10  13
HETATM   13  O   UNL     1      -8.230  18.369  65.859  1.00  0.00    -0.505 OA 
HETATM   14  O   UNL     1      -7.044  20.464  66.656  1.00  0.00    -0.244 OA 
HETATM   15  P   UNL     1      -6.838  19.162  65.955  1.00  0.00    -0.276 P  
HETATM   16  O   UNL     1      -5.756  18.180  66.314  1.00  0.00    -0.145 OA 
HETATM   17  O   UNL     1      -6.585  19.438  64.389  1.00  0.00    -0.356 OA 
ENDBRANCH  10  13
ENDBRANCH   9  10
ENDBRANCH   8   9
ENDBRANCH   7   8
ENDBRANCH   3   7
BRANCH   6  18
HETATM   18  C   UNL     1      -9.175  11.654  66.201  1.00  0.00    -0.219 C  
BRANCH  18  19
HETATM   19  C   UNL     1      -9.465  10.252  66.644  1.00  0.00    -0.203 A  
HETATM   20  C   UNL     1      -9.552   9.953  67.985  1.00  0.00    -0.138 A  
HETATM   21  N   UNL     1      -9.965   8.771  68.464  1.00  0.00    -0.177 NA 
HETATM   22  C   UNL     1     -10.303   7.845  67.554  1.00  0.00    -0.259 A  
HETATM   23  N   UNL     1     -10.114   7.993  66.233  1.00  0.00    -0.096 NA 
HETATM   24  C   UNL     1     -10.960   6.596  68.053  1.00  0.00    -0.332 C  
HETATM   25  C   UNL     1      -9.657   9.173  65.805  1.00  0.00    -0.253 A  
HETATM   26  N   UNL     1      -9.328   9.220  64.446  1.00  0.00    -0.404 NA 
HETATM   27  H1  UNL     1      -9.470   8.422  63.827  1.00  0.00     0.000 HD 
HETATM   28  H2  UNL     1      -8.350   9.500  64.374  1.00  0.00     0.000 HD 
ENDBRANCH  18  19
ENDBRANCH   6  18
TORSDOF 7
ENDMDL
MODEL      122
REMARK 921   NORMALIZED FREE ENERGY PREDICTED BY IDOCK:   -4.98 KCAL/MOL
REMARK 922        TOTAL FREE ENERGY PREDICTED BY IDOCK:   -8.01 KCAL/MOL
REMARK 923 INTER-LIGAND FREE ENERGY PREDICTED BY IDOCK:   -7.40 KCAL/MOL
REMARK 924 INTRA-LIGAND FREE ENERGY PREDICTED BY IDOCK:   -0.61 KCAL/MOL
REMARK 927      BINDING AFFINITY PREDICTED BY RF-SCORE:    0.00 PKD
ROOT
HETATM    1  C   UNL     1     -12.379  14.037  65.996  1.00  0.00    -0.504 C  
HETATM    2  C   UNL     1     -11.093  14.137  66.734  1.00  0.00    -0.310 C  
HETATM    3  C   UNL     1     -10.172  15.183  66.687  1.00  0.00    -0.266 C  
HETATM    4  C   UNL     1      -9.508  13.310  68.173  1.00  0.00    -0.222 C  
HETATM    5  S   UNL     1      -8.781  14.719  67.619  1.00  0.00    -0.188 SA 
HETATM    6  N   UNL     1     -10.703  13.127  67.625  1.00  0.00    -0.236 NA 
ENDROOT
BRANCH   3   7
HETATM    7  C   UNL     1     -10.214  16.558  65.996  1.00  0.00    -0.372 C  
BRANCH   7   8
HETATM    8  C   UNL     1      -9.001  17.396  66.425  1.00  0.00    -0.246 C  
BRANCH   8   9
HETATM    9  O   UNL     1      -7.872  17.465  65.583  1.00  0.00    -0.465 OA 
BRANCH   9  10
HETATM   10  P   UNL     1      -6.723  18.577  66.116  1.00  0.00    -0.282 P  
HETATM   11  O   UNL     1      -6.368  18.947  64.464  1.00  0.00    -0.486 OA 
HETATM   12  O   UNL     1      -5.375  17.830  66.148  1.00  0.00    -0.167 OA 
BRANCH  10  13
HETATM   13  O   UNL     1      -7.078  18.208  67.768  1.00  0.00    -0.206 OA 
HETATM   14  O   UNL     1      -6.673  20.702  67.982  1.00  0.00    -0.301 OA 
HETATM   15  P   UNL     1      -7.237  19.513  68.688  1.00  0.00    -0.339 P  
HETATM   16  O   UNL     1      -8.601  19.485  69.321  1.00  0.00    -0.221 OA 
HETATM   17  O   UNL     1      -6.257  19.102  69.897  1.00  0.00    -0.264 OA 
ENDBRANCH  10  13
ENDBRANCH   9  10
ENDBRANCH   8   9
ENDBRANCH   7   8
ENDBRANCH   3   7
BRANCH   6  18
HETATM   18  C   UNL     1     -11.513  11.989  68.091  1.00  0.00    -0.322 C  
BRANCH  18  19
HETATM   19  C   UNL     1     -11.004  10.669  67.600  1.00  0.00    -0.370 A  
HETATM   20  C   UNL     1     -10.633  10.516  66.282  1.00  0.00    -0.133 A  
HETATM   21  N   UNL     1     -10.020   9.428  65.797  1.00  0.00    -0.286 NA 
HETATM   22  C   UNL     1      -9.769   8.445  66.675  1.00  0.00    -0.251 A  
HETATM   23  N   UNL     1     -10.221   8.440  67.940  1.00  0.00    -0.207 NA 
HETATM   24  C   UNL     1      -8.908   7.312  66.213  1.00  0.00    -0.179 C  
HETATM   25  C   UNL     1     -10.868   9.529  68.366  1.00  0.00    -0.137 A  
HETATM   26  N   UNL     1     -11.452   9.410  69.631  1.00  0.00    -0.439 NA 
HETATM   27  H1  UNL     1     -11.352   8.567  70.197  1.00  0.00     0.000 HD 
HETATM   28  H2  UNL     1     -12.449   9.599  69.530  1.00  0.00     0.000 HD 
ENDBRANCH  18  19
ENDBRANCH   6  18
TORSDOF 7
ENDMDL
MODEL      123
REMARK 921   NORMALIZED FREE ENERGY PREDICTED BY IDOCK:   -4.98 KCAL/MOL
REMARK 922        TOTAL FREE ENERGY PREDICTED BY IDOCK:   -8.01 KCAL/MOL
REMARK 923 INTER-LIGAND FREE ENERGY PREDICTED BY IDOCK:   -7.10 KCAL/MOL
REMARK 924 INTRA-LIGAND FREE ENERGY PREDICTED BY IDOCK:   -0.91 KCAL/MOL
REMARK 927      BINDING AFFINITY PREDICTED BY RF-SCORE:    0.00 PKD
ROOT
HETATM    1  C   UNL     1     -10.386   8.772  67.533  1.00  0.00    -0.334 C  
HETATM    2  C   UNL     1      -9.524   9.081  68.704  1.00  0.00    -0.147 C  
HETATM    3  C   UNL     1      -8.461   9.981  68.754  1.00  0.00    -0.126 C  
HETATM    4  C   UNL     1      -8.886   8.789  70.889  1.00  0.00    -0.200 C  
HETATM    5  S   UNL     1      -7.708   9.840  70.314  1.00  0.00    -0.132 SA 
HETATM    6  N   UNL     1      -9.762   8.471  69.943  1.00  0.00    -0.177 NA 
ENDROOT
BRANCH   3   7
HETATM    7  C   UNL     1      -7.917  10.987  67.723  1.00  0.00    -0.115 C  
BRANCH   7   8
HETATM    8  C   UNL     1      -8.924  12.127  67.524  1.00  0.00    -0.177 C  
BRANCH   8   9
HETATM    9  O   UNL     1     -10.006  11.951  66.637  1.00  0.00    -0.195 OA 
BRANCH   9  10
HETATM   10  P   UNL     1     -11.418  12.707  67.163  1.00  0.00    -0.378 P  
HETATM   11  O   UNL     1     -10.682  12.918  68.715  1.00  0.00    -0.247 OA 
HETATM   12  O   UNL     1     -12.281  11.611  67.818  1.00  0.00    -0.560 OA 
BRANCH  10  13
HETATM   13  O   UNL     1     -12.153  12.497  65.612  1.00  0.00    -0.480 OA 
HETATM   14  O   UNL     1     -10.418  14.246  65.012  1.00  0.00    -0.388 OA 
HETATM   15  P   UNL     1     -11.367  13.250  64.433  1.00  0.00    -0.403 P  
HETATM   16  O   UNL     1     -10.981  12.232  63.395  1.00  0.00    -0.441 OA 
HETATM   17  O   UNL     1     -12.600  14.027  63.751  1.00  0.00    -0.772 OA 
ENDBRANCH  10  13
ENDBRANCH   9  10
ENDBRANCH   8   9
ENDBRANCH   7   8
ENDBRANCH   3   7
BRANCH   6  18
HETATM   18  C   UNL     1     -10.919   7.641  70.322  1.00  0.00    -0.252 C  
BRANCH  18  19
HETATM   19  C   UNL     1     -10.524   6.294  70.845  1.00  0.00    -0.274 A  
HETATM   20  C   UNL     1     -10.601   6.024  72.193  1.00  0.00    -0.214 A  
HETATM   21  N   UNL     1     -10.425   4.806  72.725  1.00  0.00    -0.194 NA 
HETATM   22  C   UNL     1     -10.156   3.813  71.864  1.00  0.00    -0.124 A  
HETATM   23  N   UNL     1      -9.918   4.004  70.556  1.00  0.00    -0.140 NA 
HETATM   24  C   UNL     1     -10.159   2.416  72.400  1.00  0.00    -0.230 C  
HETATM   25  C   UNL     1     -10.061   5.243  70.079  1.00  0.00    -0.266 A  
HETATM   26  N   UNL     1      -9.648   5.416  68.753  1.00  0.00    -0.129 NA 
HETATM   27  H1  UNL     1      -9.306   4.639  68.187  1.00  0.00     0.000 HD 
HETATM   28  H2  UNL     1      -8.936   6.146  68.743  1.00  0.00     0.000 HD 
ENDBRANCH  18  19
ENDBRANCH   6  18
TORSDOF 7
ENDMDL
MODEL      124
REMARK 921   NORMALIZED FREE ENERGY PREDICTED BY IDOCK:   -4.97 KCAL/MOL
REMARK 922        TOTAL FREE ENERGY PREDICTED BY IDOCK:   -7.99 KCAL/MOL
REMARK 923 INTER-LIGAND FREE ENERGY PREDICTED BY IDOCK:   -7.07 KCAL/MOL
REMARK 924 INTRA-LIGAND FREE ENERGY PREDICTED BY IDOCK:   -0.92 KCAL/MOL
REMARK 927      BINDING AFFINITY PREDICTED BY RF-SCORE:    0.00 PKD
ROOT
HETATM    1  C   UNL     1     -11.866  14.794  66.495  1.00  0.00    -0.238 C  
HETATM    2  C   UNL     1     -10.800  15.046  67.499  1.00  0.00    -0.297 C  
HETATM    3  C   UNL     1      -9.510  15.518  67.259  1.00  0.00    -0.213 C  
HETATM    4  C   UNL     1      -9.994  15.052  69.648  1.00  0.00    -0.103 C  
HETATM    5  S   UNL     1      -8.635  15.483  68.759  1.00  0.00    -0.205 SA 
HETATM    6  N   UNL     1     -11.046  14.847  68.864  1.00  0.00    -0.244 NA 
ENDROOT
BRANCH   3   7
HETATM    7  C   UNL     1      -8.822  16.020  65.977  1.00  0.00    -0.314 C  
BRANCH   7   8
HETATM    8  C   UNL     1      -7.598  16.872  66.339  1.00  0.00    -0.304 C  
BRANCH   8   9
HETATM    9  O   UNL     1      -7.010  17.697  65.358  1.00  0.00    -0.279 OA 
BRANCH   9  10
HETATM   10  P   UNL     1      -6.741  19.271  65.899  1.00  0.00    -0.276 P  
HETATM   11  O   UNL     1      -6.607  19.775  64.250  1.00  0.00    -0.306 OA 
HETATM   12  O   UNL     1      -5.212  19.447  65.987  1.00  0.00    -0.150 OA 
BRANCH  10  13
HETATM   13  O   UNL     1      -6.876  18.767  67.548  1.00  0.00    -0.200 OA 
HETATM   14  O   UNL     1      -7.379  21.236  67.829  1.00  0.00    -0.288 OA 
HETATM   15  P   UNL     1      -7.454  19.911  68.513  1.00  0.00    -0.153 P  
HETATM   16  O   UNL     1      -8.692  19.385  69.186  1.00  0.00    -0.299 OA 
HETATM   17  O   UNL     1      -6.345  19.855  69.679  1.00  0.00    -0.316 OA 
ENDBRANCH  10  13
ENDBRANCH   9  10
ENDBRANCH   8   9
ENDBRANCH   7   8
ENDBRANCH   3   7
BRANCH   6  18
HETATM   18  C   UNL     1     -12.343  14.567  69.505  1.00  0.00    -0.208 C  
BRANCH  18  19
HETATM   19  C   UNL     1     -12.376  13.241  70.200  1.00  0.00    -0.306 A  
HETATM   20  C   UNL     1     -12.701  13.167  71.537  1.00  0.00    -0.269 A  
HETATM   21  N   UNL     1     -12.912  12.018  72.194  1.00  0.00    -0.287 NA 
HETATM   22  C   UNL     1     -12.787  10.891  71.478  1.00  0.00    -0.454 A  
HETATM   23  N   UNL     1     -12.334  10.855  70.214  1.00  0.00    -0.322 NA 
HETATM   24  C   UNL     1     -13.215   9.612  72.127  1.00  0.00    -0.535 C  
HETATM   25  C   UNL     1     -12.093  12.024  69.614  1.00  0.00    -0.230 A  
HETATM   26  N   UNL     1     -11.475  11.928  68.363  1.00  0.00    -0.273 NA 
HETATM   27  H1  UNL     1     -11.266  11.028  67.930  1.00  0.00     0.000 HD 
HETATM   28  H2  UNL     1     -10.607  12.462  68.404  1.00  0.00     0.000 HD 
ENDBRANCH  18  19
ENDBRANCH   6  18
TORSDOF 7
ENDMDL
MODEL      125
REMARK 921   NORMALIZED FREE ENERGY PREDICTED BY IDOCK:   -4.95 KCAL/MOL
REMARK 922        TOTAL FREE ENERGY PREDICTED BY IDOCK:   -7.96 KCAL/MOL
REMARK 923 INTER-LIGAND FREE ENERGY PREDICTED BY IDOCK:   -7.05 KCAL/MOL
REMARK 924 INTRA-LIGAND FREE ENERGY PREDICTED BY IDOCK:   -0.91 KCAL/MOL
REMARK 927      BINDING AFFINITY PREDICTED BY RF-SCORE:    0.00 PKD
ROOT
HETATM    1  C   UNL     1     -12.650  13.720  70.732  1.00  0.00    -0.410 C  
HETATM    2  C   UNL     1     -12.084  12.770  69.739  1.00  0.00    -0.237 C  
HETATM    3  C   UNL     1     -11.888  11.399  69.899  1.00  0.00    -0.359 C  
HETATM    4  C   UNL     1     -11.169  12.278  67.692  1.00  0.00    -0.290 C  
HETATM    5  S   UNL     1     -11.060  10.805  68.492  1.00  0.00    -0.285 SA 
HETATM    6  N   UNL     1     -11.714  13.213  68.461  1.00  0.00    -0.331 NA 
ENDROOT
BRANCH   3   7
HETATM    7  C   UNL     1     -12.270  10.433  71.035  1.00  0.00    -0.498 C  
BRANCH   7   8
HETATM    8  C   UNL     1     -11.068   9.549  71.395  1.00  0.00    -0.368 C  
BRANCH   8   9
HETATM    9  O   UNL     1     -11.218   8.147  71.414  1.00  0.00    -0.243 OA 
BRANCH   9  10
HETATM   10  P   UNL     1      -9.782   7.328  71.083  1.00  0.00    -0.168 P  
HETATM   11  O   UNL     1      -8.972   8.854  71.009  1.00  0.00    -0.200 OA 
HETATM   12  O   UNL     1      -9.651   7.281  69.547  1.00  0.00    -0.155 OA 
BRANCH  10  13
HETATM   13  O   UNL     1     -10.593   5.801  71.157  1.00  0.00    -0.231 OA 
HETATM   14  O   UNL     1      -8.234   5.043  71.695  1.00  0.00    -0.110 OA 
HETATM   15  P   UNL     1      -9.666   4.621  71.724  1.00  0.00    -0.183 P  
HETATM   16  O   UNL     1     -10.339   4.027  72.932  1.00  0.00    -0.156 OA 
HETATM   17  O   UNL     1      -9.916   3.518  70.579  1.00  0.00    -0.087 OA 
ENDBRANCH  10  13
ENDBRANCH   9  10
ENDBRANCH   8   9
ENDBRANCH   7   8
ENDBRANCH   3   7
BRANCH   6  18
HETATM   18  C   UNL     1     -11.977  14.534  67.865  1.00  0.00    -0.287 C  
BRANCH  18  19
HETATM   19  C   UNL     1     -10.725  15.258  67.475  1.00  0.00    -0.285 A  
HETATM   20  C   UNL     1     -10.584  15.763  66.201  1.00  0.00    -0.313 A  
HETATM   21  N   UNL     1      -9.575  16.558  65.817  1.00  0.00    -0.518 NA 
HETATM   22  C   UNL     1      -8.664  16.858  66.755  1.00  0.00    -0.232 A  
HETATM   23  N   UNL     1      -8.637  16.300  67.976  1.00  0.00    -0.174 NA 
HETATM   24  C   UNL     1      -7.646  17.902  66.417  1.00  0.00    -0.308 C  
HETATM   25  C   UNL     1      -9.639  15.477  68.298  1.00  0.00    -0.201 A  
HETATM   26  N   UNL     1      -9.480  14.803  69.513  1.00  0.00    -0.424 NA 
HETATM   27  H1  UNL     1      -8.677  14.965  70.122  1.00  0.00     0.000 HD 
HETATM   28  H2  UNL     1      -9.527  13.802  69.321  1.00  0.00     0.000 HD 
ENDBRANCH  18  19
ENDBRANCH   6  18
TORSDOF 7
ENDMDL
MODEL      126
REMARK 921   NORMALIZED FREE ENERGY PREDICTED BY IDOCK:   -4.95 KCAL/MOL
REMARK 922        TOTAL FREE ENERGY PREDICTED BY IDOCK:   -7.96 KCAL/MOL
REMARK 923 INTER-LIGAND FREE ENERGY PREDICTED BY IDOCK:   -7.00 KCAL/MOL
REMARK 924 INTRA-LIGAND FREE ENERGY PREDICTED BY IDOCK:   -0.96 KCAL/MOL
REMARK 927      BINDING AFFINITY PREDICTED BY RF-SCORE:    0.00 PKD
ROOT
HETATM    1  C   UNL     1     -12.033  12.276  69.050  1.00  0.00    -0.300 C  
HETATM    2  C   UNL     1     -11.147  12.023  67.884  1.00  0.00    -0.236 C  
HETATM    3  C   UNL     1     -10.369  10.891  67.646  1.00  0.00    -0.197 C  
HETATM    4  C   UNL     1     -10.185  12.638  65.894  1.00  0.00    -0.274 C  
HETATM    5  S   UNL     1      -9.417  11.180  66.222  1.00  0.00    -0.204 SA 
HETATM    6  N   UNL     1     -11.053  12.959  66.845  1.00  0.00    -0.270 NA 
ENDROOT
BRANCH   3   7
HETATM    7  C   UNL     1     -10.251   9.549  68.393  1.00  0.00    -0.221 C  
BRANCH   7   8
HETATM    8  C   UNL     1      -9.391   9.726  69.651  1.00  0.00    -0.219 C  
BRANCH   8   9
HETATM    9  O   UNL     1      -9.716   9.008  70.821  1.00  0.00    -0.204 OA 
BRANCH   9  10
HETATM   10  P   UNL     1      -8.570   7.835  71.212  1.00  0.00    -0.128 P  
HETATM   11  O   UNL     1      -8.073   8.818  72.546  1.00  0.00    -0.381 OA 
HETATM   12  O   UNL     1      -7.259   8.260  70.522  1.00  0.00    -0.043 OA 
BRANCH  10  13
HETATM   13  O   UNL     1      -9.068   6.852  69.879  1.00  0.00    -0.144 OA 
HETATM   14  O   UNL     1     -10.433   5.769  71.721  1.00  0.00    -0.213 OA 
HETATM   15  P   UNL     1     -10.281   5.866  70.239  1.00  0.00    -0.259 P  
HETATM   16  O   UNL     1     -11.420   6.151  69.298  1.00  0.00    -0.404 OA 
HETATM   17  O   UNL     1      -9.672   4.486  69.678  1.00  0.00    -0.186 OA 
ENDBRANCH  10  13
ENDBRANCH   9  10
ENDBRANCH   8   9
ENDBRANCH   7   8
ENDBRANCH   3   7
BRANCH   6  18
HETATM   18  C   UNL     1     -11.885  14.159  66.648  1.00  0.00    -0.424 C  
BRANCH  18  19
HETATM   19  C   UNL     1     -11.100  15.432  66.717  1.00  0.00    -0.244 A  
HETATM   20  C   UNL     1     -10.882  16.175  65.577  1.00  0.00    -0.270 A  
HETATM   21  N   UNL     1     -10.334  17.398  65.573  1.00  0.00    -0.644 NA 
HETATM   22  C   UNL     1      -9.985  17.898  66.768  1.00  0.00    -0.339 A  
HETATM   23  N   UNL     1     -10.023  17.195  67.912  1.00  0.00    -0.281 NA 
HETATM   24  C   UNL     1      -9.565  19.333  66.818  1.00  0.00    -0.398 C  
HETATM   25  C   UNL     1     -10.535  15.962  67.859  1.00  0.00    -0.288 A  
HETATM   26  N   UNL     1     -10.404  15.219  69.037  1.00  0.00    -0.232 NA 
HETATM   27  H1  UNL     1      -9.987  15.611  69.881  1.00  0.00     0.000 HD 
HETATM   28  H2  UNL     1      -9.899  14.363  68.809  1.00  0.00     0.000 HD 
ENDBRANCH  18  19
ENDBRANCH   6  18
TORSDOF 7
ENDMDL
MODEL      127
REMARK 921   NORMALIZED FREE ENERGY PREDICTED BY IDOCK:   -4.94 KCAL/MOL
REMARK 922        TOTAL FREE ENERGY PREDICTED BY IDOCK:   -7.96 KCAL/MOL
REMARK 923 INTER-LIGAND FREE ENERGY PREDICTED BY IDOCK:   -7.23 KCAL/MOL
REMARK 924 INTRA-LIGAND FREE ENERGY PREDICTED BY IDOCK:   -0.72 KCAL/MOL
REMARK 927      BINDING AFFINITY PREDICTED BY RF-SCORE:    0.00 PKD
ROOT
HETATM    1  C   UNL     1      -9.239  12.790  66.673  1.00  0.00    -0.212 C  
HETATM    2  C   UNL     1     -10.223  12.662  65.566  1.00  0.00    -0.281 C  
HETATM    3  C   UNL     1     -10.197  11.746  64.516  1.00  0.00    -0.284 C  
HETATM    4  C   UNL     1     -12.118  13.316  64.450  1.00  0.00    -0.415 C  
HETATM    5  S   UNL     1     -11.496  12.135  63.429  1.00  0.00    -0.372 SA 
HETATM    6  N   UNL     1     -11.352  13.493  65.518  1.00  0.00    -0.295 NA 
ENDROOT
BRANCH   3   7
HETATM    7  C   UNL     1      -9.272  10.553  64.216  1.00  0.00    -0.281 C  
BRANCH   7   8
HETATM    8  C   UNL     1      -9.615   9.380  65.145  1.00  0.00    -0.124 C  
BRANCH   8   9
HETATM    9  O   UNL     1      -8.962   9.266  66.390  1.00  0.00    -0.142 OA 
BRANCH   9  10
HETATM   10  P   UNL     1      -7.804   8.041  66.415  1.00  0.00    -0.101 P  
HETATM   11  O   UNL     1      -6.581   9.251  66.594  1.00  0.00    -0.066 OA 
HETATM   12  O   UNL     1      -7.310   7.878  64.964  1.00  0.00    -0.066 OA 
BRANCH  10  13
HETATM   13  O   UNL     1      -9.028   6.831  66.237  1.00  0.00    -0.149 OA 
HETATM   14  O   UNL     1      -8.777   6.795  68.760  1.00  0.00    -0.125 OA 
HETATM   15  P   UNL     1      -9.656   6.356  67.635  1.00  0.00    -0.128 P  
HETATM   16  O   UNL     1     -11.141   6.591  67.593  1.00  0.00    -0.325 OA 
HETATM   17  O   UNL     1      -9.526   4.762  67.453  1.00  0.00    -0.130 OA 
ENDBRANCH  10  13
ENDBRANCH   9  10
ENDBRANCH   8   9
ENDBRANCH   7   8
ENDBRANCH   3   7
BRANCH   6  18
HETATM   18  C   UNL     1     -11.821  14.420  66.562  1.00  0.00    -0.390 C  
BRANCH  18  19
HETATM   19  C   UNL     1     -10.989  15.661  66.658  1.00  0.00    -0.212 A  
HETATM   20  C   UNL     1     -10.616  16.153  67.889  1.00  0.00    -0.309 A  
HETATM   21  N   UNL     1      -9.745  17.157  68.062  1.00  0.00    -0.265 NA 
HETATM   22  C   UNL     1      -9.226  17.695  66.948  1.00  0.00    -0.263 A  
HETATM   23  N   UNL     1      -9.637  17.383  65.708  1.00  0.00    -0.528 NA 
HETATM   24  C   UNL     1      -8.103  18.670  67.112  1.00  0.00    -0.253 C  
HETATM   25  C   UNL     1     -10.541  16.408  65.586  1.00  0.00    -0.323 A  
HETATM   26  N   UNL     1     -11.050  16.233  64.295  1.00  0.00    -1.192 NA 
HETATM   27  H1  UNL     1     -10.719  16.785  63.503  1.00  0.00     0.000 HD 
HETATM   28  H2  UNL     1     -12.063  16.338  64.345  1.00  0.00     0.000 HD 
ENDBRANCH  18  19
ENDBRANCH   6  18
TORSDOF 7
ENDMDL
MODEL      128
REMARK 921   NORMALIZED FREE ENERGY PREDICTED BY IDOCK:   -4.94 KCAL/MOL
REMARK 922        TOTAL FREE ENERGY PREDICTED BY IDOCK:   -7.95 KCAL/MOL
REMARK 923 INTER-LIGAND FREE ENERGY PREDICTED BY IDOCK:   -6.89 KCAL/MOL
REMARK 924 INTRA-LIGAND FREE ENERGY PREDICTED BY IDOCK:   -1.06 KCAL/MOL
REMARK 927      BINDING AFFINITY PREDICTED BY RF-SCORE:    0.00 PKD
ROOT
HETATM    1  C   UNL     1      -9.115   9.943  69.739  1.00  0.00    -0.249 C  
HETATM    2  C   UNL     1     -10.504  10.297  70.131  1.00  0.00    -0.203 C  
HETATM    3  C   UNL     1     -11.313   9.641  71.058  1.00  0.00    -0.374 C  
HETATM    4  C   UNL     1     -12.391  11.594  69.970  1.00  0.00    -0.187 C  
HETATM    5  S   UNL     1     -12.886  10.377  71.018  1.00  0.00    -0.413 SA 
HETATM    6  N   UNL     1     -11.134  11.423  69.581  1.00  0.00    -0.214 NA 
ENDROOT
BRANCH   3   7
HETATM    7  C   UNL     1     -11.032   8.473  72.021  1.00  0.00    -0.410 C  
BRANCH   7   8
HETATM    8  C   UNL     1     -11.065   7.144  71.255  1.00  0.00    -0.249 C  
BRANCH   8   9
HETATM    9  O   UNL     1     -10.414   6.015  71.794  1.00  0.00    -0.209 OA 
BRANCH   9  10
HETATM   10  P   UNL     1      -9.841   4.960  70.610  1.00  0.00    -0.234 P  
HETATM   11  O   UNL     1     -10.002   3.662  71.741  1.00  0.00    -0.174 OA 
HETATM   12  O   UNL     1      -8.319   4.846  70.828  1.00  0.00    -0.098 OA 
BRANCH  10  13
HETATM   13  O   UNL     1      -9.679   6.259  69.479  1.00  0.00    -0.145 OA 
HETATM   14  O   UNL     1      -9.534   4.297  67.879  1.00  0.00    -0.149 OA 
HETATM   15  P   UNL     1      -9.734   5.775  67.950  1.00  0.00    -0.135 P  
HETATM   16  O   UNL     1     -10.857   6.502  67.262  1.00  0.00    -0.301 OA 
HETATM   17  O   UNL     1      -8.417   6.515  67.394  1.00  0.00    -0.119 OA 
ENDBRANCH  10  13
ENDBRANCH   9  10
ENDBRANCH   8   9
ENDBRANCH   7   8
ENDBRANCH   3   7
BRANCH   6  18
HETATM   18  C   UNL     1     -10.519  12.468  68.744  1.00  0.00    -0.144 C  
BRANCH  18  19
HETATM   19  C   UNL     1     -11.102  12.529  67.366  1.00  0.00    -0.317 A  
HETATM   20  C   UNL     1     -11.994  13.524  67.034  1.00  0.00    -0.394 A  
HETATM   21  N   UNL     1     -12.437  13.749  65.789  1.00  0.00    -0.479 NA 
HETATM   22  C   UNL     1     -11.964  12.936  64.833  1.00  0.00    -0.392 A  
HETATM   23  N   UNL     1     -11.210  11.852  65.080  1.00  0.00    -0.310 NA 
HETATM   24  C   UNL     1     -12.276  13.289  63.412  1.00  0.00    -0.476 C  
HETATM   25  C   UNL     1     -10.830  11.642  66.343  1.00  0.00    -0.287 A  
HETATM   26  N   UNL     1     -10.185  10.422  66.569  1.00  0.00    -0.226 NA 
HETATM   27  H1  UNL     1      -9.984   9.767  65.814  1.00  0.00     0.000 HD 
HETATM   28  H2  UNL     1     -10.712   9.921  67.284  1.00  0.00     0.000 HD 
ENDBRANCH  18  19
ENDBRANCH   6  18
TORSDOF 7
ENDMDL
MODEL      129
REMARK 921   NORMALIZED FREE ENERGY PREDICTED BY IDOCK:   -4.94 KCAL/MOL
REMARK 922        TOTAL FREE ENERGY PREDICTED BY IDOCK:   -7.95 KCAL/MOL
REMARK 923 INTER-LIGAND FREE ENERGY PREDICTED BY IDOCK:   -7.29 KCAL/MOL
REMARK 924 INTRA-LIGAND FREE ENERGY PREDICTED BY IDOCK:   -0.66 KCAL/MOL
REMARK 927      BINDING AFFINITY PREDICTED BY RF-SCORE:    0.00 PKD
ROOT
HETATM    1  C   UNL     1     -10.930  11.748  65.327  1.00  0.00    -0.350 C  
HETATM    2  C   UNL     1      -9.642  11.672  66.064  1.00  0.00    -0.228 C  
HETATM    3  C   UNL     1      -9.053  12.671  66.839  1.00  0.00    -0.218 C  
HETATM    4  C   UNL     1      -7.733  10.573  66.708  1.00  0.00    -0.118 C  
HETATM    5  S   UNL     1      -7.488  12.109  67.344  1.00  0.00    -0.161 SA 
HETATM    6  N   UNL     1      -8.889  10.490  66.061  1.00  0.00    -0.160 NA 
ENDROOT
BRANCH   3   7
HETATM    7  C   UNL     1      -9.550  14.062  67.272  1.00  0.00    -0.238 C  
BRANCH   7   8
HETATM    8  C   UNL     1      -8.964  15.137  66.347  1.00  0.00    -0.279 C  
BRANCH   8   9
HETATM    9  O   UNL     1      -9.639  15.471  65.155  1.00  0.00    -0.224 OA 
BRANCH   9  10
HETATM   10  P   UNL     1     -11.024  16.394  65.421  1.00  0.00     0.063 P  
HETATM   11  O   UNL     1     -11.964  14.945  65.326  1.00  0.00    -0.284 OA 
HETATM   12  O   UNL     1     -11.586  16.747  64.029  1.00  0.00    -1.195 OA 
BRANCH  10  13
HETATM   13  O   UNL     1     -10.085  17.843  65.516  1.00  0.00    -0.530 OA 
HETATM   14  O   UNL     1     -10.876  17.706  67.921  1.00  0.00    -0.374 OA 
HETATM   15  P   UNL     1      -9.892  18.374  67.018  1.00  0.00    -0.366 P  
HETATM   16  O   UNL     1      -8.419  18.463  67.305  1.00  0.00    -0.248 OA 
HETATM   17  O   UNL     1     -10.324  19.911  66.810  1.00  0.00    -0.430 OA 
ENDBRANCH  10  13
ENDBRANCH   9  10
ENDBRANCH   8   9
ENDBRANCH   7   8
ENDBRANCH   3   7
BRANCH   6  18
HETATM   18  C   UNL     1      -9.297   9.175  65.538  1.00  0.00    -0.221 C  
BRANCH  18  19
HETATM   19  C   UNL     1      -9.463   8.145  66.613  1.00  0.00    -0.274 A  
HETATM   20  C   UNL     1      -8.846   6.919  66.500  1.00  0.00    -0.140 A  
HETATM   21  N   UNL     1      -8.807   6.006  67.480  1.00  0.00    -0.111 NA 
HETATM   22  C   UNL     1      -9.419   6.337  68.627  1.00  0.00    -0.121 A  
HETATM   23  N   UNL     1     -10.168   7.442  68.782  1.00  0.00    -0.187 NA 
HETATM   24  C   UNL     1      -9.218   5.432  69.802  1.00  0.00    -0.169 C  
HETATM   25  C   UNL     1     -10.214   8.301  67.761  1.00  0.00    -0.223 A  
HETATM   26  N   UNL     1     -11.129   9.348  67.913  1.00  0.00    -0.503 NA 
HETATM   27  H1  UNL     1     -11.684   9.464  68.761  1.00  0.00     0.000 HD 
HETATM   28  H2  UNL     1     -11.772   9.315  67.123  1.00  0.00     0.000 HD 
ENDBRANCH  18  19
ENDBRANCH   6  18
TORSDOF 7
ENDMDL
MODEL      130
REMARK 921   NORMALIZED FREE ENERGY PREDICTED BY IDOCK:   -4.94 KCAL/MOL
REMARK 922        TOTAL FREE ENERGY PREDICTED BY IDOCK:   -7.94 KCAL/MOL
REMARK 923 INTER-LIGAND FREE ENERGY PREDICTED BY IDOCK:   -7.49 KCAL/MOL
REMARK 924 INTRA-LIGAND FREE ENERGY PREDICTED BY IDOCK:   -0.45 KCAL/MOL
REMARK 927      BINDING AFFINITY PREDICTED BY RF-SCORE:    0.00 PKD
ROOT
HETATM    1  C   UNL     1     -11.157  12.003  64.058  1.00  0.00    -0.452 C  
HETATM    2  C   UNL     1     -11.119  11.792  65.528  1.00  0.00    -0.280 C  
HETATM    3  C   UNL     1     -10.496  10.751  66.215  1.00  0.00    -0.226 C  
HETATM    4  C   UNL     1     -11.664  12.379  67.679  1.00  0.00    -0.346 C  
HETATM    5  S   UNL     1     -10.889  10.905  67.901  1.00  0.00    -0.269 SA 
HETATM    6  N   UNL     1     -11.719  12.715  66.396  1.00  0.00    -0.389 NA 
ENDROOT
BRANCH   3   7
HETATM    7  C   UNL     1      -9.593   9.599  65.736  1.00  0.00    -0.329 C  
BRANCH   7   8
HETATM    8  C   UNL     1      -9.095   8.790  66.941  1.00  0.00    -0.139 C  
BRANCH   8   9
HETATM    9  O   UNL     1      -8.792   7.422  66.781  1.00  0.00    -0.126 OA 
BRANCH   9  10
HETATM   10  P   UNL     1      -7.693   6.855  67.927  1.00  0.00    -0.115 P  
HETATM   11  O   UNL     1      -6.577   8.067  67.403  1.00  0.00    -0.055 OA 
HETATM   12  O   UNL     1      -6.793   5.836  67.200  1.00  0.00    -0.060 OA 
BRANCH  10  13
HETATM   13  O   UNL     1      -8.809   5.642  68.451  1.00  0.00    -0.109 OA 
HETATM   14  O   UNL     1      -8.909   7.188  70.458  1.00  0.00    -0.151 OA 
HETATM   15  P   UNL     1      -9.597   6.044  69.790  1.00  0.00    -0.156 P  
HETATM   16  O   UNL     1     -11.073   6.007  69.502  1.00  0.00    -0.373 OA 
HETATM   17  O   UNL     1      -9.353   4.705  70.650  1.00  0.00    -0.133 OA 
ENDBRANCH  10  13
ENDBRANCH   9  10
ENDBRANCH   8   9
ENDBRANCH   7   8
ENDBRANCH   3   7
BRANCH   6  18
HETATM   18  C   UNL     1     -12.274  14.035  66.048  1.00  0.00    -0.458 C  
BRANCH  18  19
HETATM   19  C   UNL     1     -11.275  15.142  66.182  1.00  0.00    -0.271 A  
HETATM   20  C   UNL     1     -10.619  15.343  67.376  1.00  0.00    -0.289 A  
HETATM   21  N   UNL     1      -9.600  16.199  67.537  1.00  0.00    -0.228 NA 
HETATM   22  C   UNL     1      -9.224  16.888  66.449  1.00  0.00    -0.279 A  
HETATM   23  N   UNL     1      -9.893  16.868  65.284  1.00  0.00    -0.257 NA 
HETATM   24  C   UNL     1      -7.966  17.693  66.544  1.00  0.00    -0.302 C  
HETATM   25  C   UNL     1     -10.931  16.033  65.185  1.00  0.00    -0.348 A  
HETATM   26  N   UNL     1     -11.686  16.167  64.016  1.00  0.00    -1.351 NA 
HETATM   27  H1  UNL     1     -11.431  16.825  63.279  1.00  0.00     0.000 HD 
HETATM   28  H2  UNL     1     -12.649  16.363  64.289  1.00  0.00     0.000 HD 
ENDBRANCH  18  19
ENDBRANCH   6  18
TORSDOF 7
ENDMDL
MODEL      131
REMARK 921   NORMALIZED FREE ENERGY PREDICTED BY IDOCK:   -4.93 KCAL/MOL
REMARK 922        TOTAL FREE ENERGY PREDICTED BY IDOCK:   -7.94 KCAL/MOL
REMARK 923 INTER-LIGAND FREE ENERGY PREDICTED BY IDOCK:   -7.12 KCAL/MOL
REMARK 924 INTRA-LIGAND FREE ENERGY PREDICTED BY IDOCK:   -0.82 KCAL/MOL
REMARK 927      BINDING AFFINITY PREDICTED BY RF-SCORE:    0.00 PKD
ROOT
HETATM    1  C   UNL     1      -7.989   9.119  69.260  1.00  0.00    -0.097 C  
HETATM    2  C   UNL     1      -8.194   8.994  67.793  1.00  0.00    -0.109 C  
HETATM    3  C   UNL     1      -8.109  10.007  66.840  1.00  0.00    -0.117 C  
HETATM    4  C   UNL     1      -8.691   7.782  65.909  1.00  0.00    -0.149 C  
HETATM    5  S   UNL     1      -8.587   9.347  65.305  1.00  0.00    -0.173 SA 
HETATM    6  N   UNL     1      -8.473   7.746  67.217  1.00  0.00    -0.117 NA 
ENDROOT
BRANCH   3   7
HETATM    7  C   UNL     1      -7.686  11.484  66.945  1.00  0.00    -0.157 C  
BRANCH   7   8
HETATM    8  C   UNL     1      -8.923  12.389  66.865  1.00  0.00    -0.212 C  
BRANCH   8   9
HETATM    9  O   UNL     1      -9.854  12.388  67.924  1.00  0.00    -0.191 OA 
BRANCH   9  10
HETATM   10  P   UNL     1     -11.424  12.736  67.418  1.00  0.00    -0.376 P  
HETATM   11  O   UNL     1     -11.995  12.240  68.974  1.00  0.00    -0.300 OA 
HETATM   12  O   UNL     1     -12.010  11.416  66.878  1.00  0.00    -0.440 OA 
BRANCH  10  13
HETATM   13  O   UNL     1     -10.853  13.232  65.863  1.00  0.00    -0.275 OA 
HETATM   14  O   UNL     1     -13.280  13.936  65.655  1.00  0.00    -0.623 OA 
HETATM   15  P   UNL     1     -11.928  14.093  65.040  1.00  0.00    -0.452 P  
HETATM   16  O   UNL     1     -11.313  15.422  64.700  1.00  0.00    -0.407 OA 
HETATM   17  O   UNL     1     -11.887  13.296  63.642  1.00  0.00    -0.473 OA 
ENDBRANCH  10  13
ENDBRANCH   9  10
ENDBRANCH   8   9
ENDBRANCH   7   8
ENDBRANCH   3   7
BRANCH   6  18
HETATM   18  C   UNL     1      -8.423   6.429  67.876  1.00  0.00    -0.118 C  
BRANCH  18  19
HETATM   19  C   UNL     1      -9.510   6.243  68.890  1.00  0.00    -0.130 A  
HETATM   20  C   UNL     1      -9.223   5.693  70.120  1.00  0.00    -0.142 A  
HETATM   21  N   UNL     1     -10.093   5.639  71.138  1.00  0.00    -0.196 NA 
HETATM   22  C   UNL     1     -11.309   6.158  70.910  1.00  0.00    -0.287 A  
HETATM   23  N   UNL     1     -11.727   6.581  69.705  1.00  0.00    -0.334 NA 
HETATM   24  C   UNL     1     -12.229   6.298  72.082  1.00  0.00    -0.255 C  
HETATM   25  C   UNL     1     -10.837   6.573  68.709  1.00  0.00    -0.299 A  
HETATM   26  N   UNL     1     -11.364   6.870  67.447  1.00  0.00    -0.687 NA 
HETATM   27  H1  UNL     1     -12.345   7.114  67.314  1.00  0.00     0.000 HD 
HETATM   28  H2  UNL     1     -11.152   6.086  66.831  1.00  0.00     0.000 HD 
ENDBRANCH  18  19
ENDBRANCH   6  18
TORSDOF 7
ENDMDL
MODEL      132
REMARK 921   NORMALIZED FREE ENERGY PREDICTED BY IDOCK:   -4.92 KCAL/MOL
REMARK 922        TOTAL FREE ENERGY PREDICTED BY IDOCK:   -7.92 KCAL/MOL
REMARK 923 INTER-LIGAND FREE ENERGY PREDICTED BY IDOCK:   -7.40 KCAL/MOL
REMARK 924 INTRA-LIGAND FREE ENERGY PREDICTED BY IDOCK:   -0.52 KCAL/MOL
REMARK 927      BINDING AFFINITY PREDICTED BY RF-SCORE:    0.00 PKD
ROOT
HETATM    1  C   UNL     1     -12.035  11.308  69.419  1.00  0.00    -0.410 C  
HETATM    2  C   UNL     1     -10.825  11.446  68.568  1.00  0.00    -0.211 C  
HETATM    3  C   UNL     1     -10.157  12.623  68.235  1.00  0.00    -0.233 C  
HETATM    4  C   UNL     1      -9.166  10.576  67.241  1.00  0.00    -0.143 C  
HETATM    5  S   UNL     1      -8.904  12.230  67.097  1.00  0.00    -0.200 SA 
HETATM    6  N   UNL     1     -10.201  10.312  68.029  1.00  0.00    -0.161 NA 
ENDROOT
BRANCH   3   7
HETATM    7  C   UNL     1     -10.352  14.080  68.694  1.00  0.00    -0.238 C  
BRANCH   7   8
HETATM    8  C   UNL     1     -10.936  14.915  67.547  1.00  0.00    -0.302 C  
BRANCH   8   9
HETATM    9  O   UNL     1     -10.872  16.323  67.610  1.00  0.00    -0.327 OA 
BRANCH   9  10
HETATM   10  P   UNL     1      -9.944  16.993  66.373  1.00  0.00    -0.310 P  
HETATM   11  O   UNL     1     -10.783  15.984  65.246  1.00  0.00    -0.398 OA 
HETATM   12  O   UNL     1      -8.735  16.057  66.178  1.00  0.00    -0.327 OA 
BRANCH  10  13
HETATM   13  O   UNL     1      -9.105  18.003  67.499  1.00  0.00    -0.251 OA 
HETATM   14  O   UNL     1     -10.943  19.604  66.801  1.00  0.00    -0.444 OA 
HETATM   15  P   UNL     1      -9.881  19.368  67.825  1.00  0.00    -0.400 P  
HETATM   16  O   UNL     1     -10.120  19.437  69.308  1.00  0.00    -0.378 OA 
HETATM   17  O   UNL     1      -8.680  20.414  67.592  1.00  0.00    -0.304 OA 
ENDBRANCH  10  13
ENDBRANCH   9  10
ENDBRANCH   8   9
ENDBRANCH   7   8
ENDBRANCH   3   7
BRANCH   6  18
HETATM   18  C   UNL     1     -10.492   8.902  68.341  1.00  0.00    -0.187 C  
BRANCH  18  19
HETATM   19  C   UNL     1     -10.085   8.515  69.730  1.00  0.00    -0.197 A  
HETATM   20  C   UNL     1      -8.929   9.023  70.280  1.00  0.00    -0.198 A  
HETATM   21  N   UNL     1      -8.576   8.861  71.563  1.00  0.00    -0.309 NA 
HETATM   22  C   UNL     1      -9.420   8.153  72.329  1.00  0.00    -0.245 A  
HETATM   23  N   UNL     1     -10.491   7.499  71.851  1.00  0.00    -0.200 NA 
HETATM   24  C   UNL     1      -9.159   8.130  73.802  1.00  0.00    -0.152 C  
HETATM   25  C   UNL     1     -10.779   7.653  70.555  1.00  0.00    -0.236 A  
HETATM   26  N   UNL     1     -11.803   6.829  70.077  1.00  0.00    -0.641 NA 
HETATM   27  H1  UNL     1     -12.315   6.193  70.687  1.00  0.00     0.000 HD 
HETATM   28  H2  UNL     1     -11.424   6.282  69.304  1.00  0.00     0.000 HD 
ENDBRANCH  18  19
ENDBRANCH   6  18
TORSDOF 7
ENDMDL
MODEL      133
REMARK 921   NORMALIZED FREE ENERGY PREDICTED BY IDOCK:   -4.92 KCAL/MOL
REMARK 922        TOTAL FREE ENERGY PREDICTED BY IDOCK:   -7.92 KCAL/MOL
REMARK 923 INTER-LIGAND FREE ENERGY PREDICTED BY IDOCK:   -6.84 KCAL/MOL
REMARK 924 INTRA-LIGAND FREE ENERGY PREDICTED BY IDOCK:   -1.07 KCAL/MOL
REMARK 927      BINDING AFFINITY PREDICTED BY RF-SCORE:    0.00 PKD
ROOT
HETATM    1  C   UNL     1     -11.514  14.052  68.505  1.00  0.00    -0.336 C  
HETATM    2  C   UNL     1     -11.336  14.488  67.096  1.00  0.00    -0.350 C  
HETATM    3  C   UNL     1     -11.013  15.767  66.642  1.00  0.00    -0.179 C  
HETATM    4  C   UNL     1     -11.329  14.096  64.835  1.00  0.00    -0.365 C  
HETATM    5  S   UNL     1     -11.080  15.756  64.906  1.00  0.00    -0.327 SA 
HETATM    6  N   UNL     1     -11.453  13.567  66.046  1.00  0.00    -0.317 NA 
ENDROOT
BRANCH   3   7
HETATM    7  C   UNL     1     -10.637  17.058  67.392  1.00  0.00    -0.289 C  
BRANCH   7   8
HETATM    8  C   UNL     1     -10.220  18.142  66.388  1.00  0.00    -0.399 C  
BRANCH   8   9
HETATM    9  O   UNL     1      -8.951  18.071  65.777  1.00  0.00    -0.476 OA 
BRANCH   9  10
HETATM   10  P   UNL     1      -7.758  18.888  66.642  1.00  0.00    -0.266 P  
HETATM   11  O   UNL     1      -8.867  20.197  66.864  1.00  0.00    -0.326 OA 
HETATM   12  O   UNL     1      -7.027  19.793  65.630  1.00  0.00    -0.278 OA 
BRANCH  10  13
HETATM   13  O   UNL     1      -6.649  17.580  66.421  1.00  0.00    -0.204 OA 
HETATM   14  O   UNL     1      -7.426  17.067  68.779  1.00  0.00    -0.221 OA 
HETATM   15  P   UNL     1      -6.707  16.496  67.602  1.00  0.00    -0.168 P  
HETATM   16  O   UNL     1      -7.022  15.153  67.000  1.00  0.00    -0.221 OA 
HETATM   17  O   UNL     1      -5.137  16.392  67.941  1.00  0.00    -0.103 OA 
ENDBRANCH  10  13
ENDBRANCH   9  10
ENDBRANCH   8   9
ENDBRANCH   7   8
ENDBRANCH   3   7
BRANCH   6  18
HETATM   18  C   UNL     1     -11.569  12.102  66.154  1.00  0.00    -0.354 C  
BRANCH  18  19
HETATM   19  C   UNL     1     -10.302  11.389  65.795  1.00  0.00    -0.304 A  
HETATM   20  C   UNL     1     -10.234  10.632  64.647  1.00  0.00    -0.334 A  
HETATM   21  N   UNL     1      -9.102  10.096  64.169  1.00  0.00    -0.229 NA 
HETATM   22  C   UNL     1      -7.987  10.327  64.878  1.00  0.00    -0.146 A  
HETATM   23  N   UNL     1      -7.978  10.925  66.081  1.00  0.00    -0.164 NA 
HETATM   24  C   UNL     1      -6.684   9.920  64.266  1.00  0.00    -0.126 C  
HETATM   25  C   UNL     1      -9.139  11.404  66.538  1.00  0.00    -0.186 A  
HETATM   26  N   UNL     1      -9.105  11.871  67.856  1.00  0.00    -0.176 NA 
HETATM   27  H1  UNL     1      -8.245  11.882  68.405  1.00  0.00     0.000 HD 
HETATM   28  H2  UNL     1      -9.806  11.354  68.386  1.00  0.00     0.000 HD 
ENDBRANCH  18  19
ENDBRANCH   6  18
TORSDOF 7
ENDMDL
MODEL      134
REMARK 921   NORMALIZED FREE ENERGY PREDICTED BY IDOCK:   -4.92 KCAL/MOL
REMARK 922        TOTAL FREE ENERGY PREDICTED BY IDOCK:   -7.91 KCAL/MOL
REMARK 923 INTER-LIGAND FREE ENERGY PREDICTED BY IDOCK:   -7.11 KCAL/MOL
REMARK 924 INTRA-LIGAND FREE ENERGY PREDICTED BY IDOCK:   -0.80 KCAL/MOL
REMARK 927      BINDING AFFINITY PREDICTED BY RF-SCORE:    0.00 PKD
ROOT
HETATM    1  C   UNL     1     -12.699   8.649  72.560  1.00  0.00    -0.357 C  
HETATM    2  C   UNL     1     -11.458   8.961  71.804  1.00  0.00    -0.353 C  
HETATM    3  C   UNL     1     -11.332   9.800  70.698  1.00  0.00    -0.330 C  
HETATM    4  C   UNL     1      -9.208   8.733  71.412  1.00  0.00    -0.255 C  
HETATM    5  S   UNL     1      -9.698   9.688  70.118  1.00  0.00    -0.248 SA 
HETATM    6  N   UNL     1     -10.227   8.423  72.204  1.00  0.00    -0.291 NA 
ENDROOT
BRANCH   3   7
HETATM    7  C   UNL     1     -12.339  10.725  69.990  1.00  0.00    -0.371 C  
BRANCH   7   8
HETATM    8  C   UNL     1     -11.596  11.689  69.055  1.00  0.00    -0.316 C  
BRANCH   8   9
HETATM    9  O   UNL     1     -12.152  12.005  67.799  1.00  0.00    -0.537 OA 
BRANCH   9  10
HETATM   10  P   UNL     1     -11.543  13.438  67.152  1.00  0.00    -0.394 P  
HETATM   11  O   UNL     1     -12.490  13.157  65.732  1.00  0.00    -0.443 OA 
HETATM   12  O   UNL     1     -10.315  13.047  66.306  1.00  0.00    -0.274 OA 
BRANCH  10  13
HETATM   13  O   UNL     1     -10.596  13.719  68.572  1.00  0.00    -0.242 OA 
HETATM   14  O   UNL     1     -10.700  16.087  67.671  1.00  0.00    -0.310 OA 
HETATM   15  P   UNL     1     -10.365  15.277  68.880  1.00  0.00    -0.265 P  
HETATM   16  O   UNL     1     -10.891  15.572  70.258  1.00  0.00    -0.299 OA 
HETATM   17  O   UNL     1      -8.769  15.270  69.085  1.00  0.00    -0.208 OA 
ENDBRANCH  10  13
ENDBRANCH   9  10
ENDBRANCH   8   9
ENDBRANCH   7   8
ENDBRANCH   3   7
BRANCH   6  18
HETATM   18  C   UNL     1      -9.940   7.679  73.443  1.00  0.00    -0.314 C  
BRANCH  18  19
HETATM   19  C   UNL     1      -9.855   6.199  73.228  1.00  0.00    -0.170 A  
HETATM   20  C   UNL     1     -10.996   5.429  73.253  1.00  0.00    -0.307 A  
HETATM   21  N   UNL     1     -11.033   4.133  72.913  1.00  0.00    -0.133 NA 
HETATM   22  C   UNL     1      -9.869   3.583  72.534  1.00  0.00    -0.155 A  
HETATM   23  N   UNL     1      -8.685   4.211  72.618  1.00  0.00    -0.103 NA 
HETATM   24  C   UNL     1      -9.915   2.204  71.955  1.00  0.00    -0.219 C  
HETATM   25  C   UNL     1      -8.692   5.489  73.006  1.00  0.00    -0.121 A  
HETATM   26  N   UNL     1      -7.428   6.045  73.229  1.00  0.00    -0.096 NA 
HETATM   27  H1  UNL     1      -6.569   5.520  73.064  1.00  0.00     0.000 HD 
HETATM   28  H2  UNL     1      -7.405   6.386  74.190  1.00  0.00     0.000 HD 
ENDBRANCH  18  19
ENDBRANCH   6  18
TORSDOF 7
ENDMDL
MODEL      135
REMARK 921   NORMALIZED FREE ENERGY PREDICTED BY IDOCK:   -4.90 KCAL/MOL
REMARK 922        TOTAL FREE ENERGY PREDICTED BY IDOCK:   -7.90 KCAL/MOL
REMARK 923 INTER-LIGAND FREE ENERGY PREDICTED BY IDOCK:   -6.89 KCAL/MOL
REMARK 924 INTRA-LIGAND FREE ENERGY PREDICTED BY IDOCK:   -1.01 KCAL/MOL
REMARK 927      BINDING AFFINITY PREDICTED BY RF-SCORE:    0.00 PKD
ROOT
HETATM    1  C   UNL     1     -12.094  14.673  67.511  1.00  0.00    -0.212 C  
HETATM    2  C   UNL     1     -10.639  14.535  67.777  1.00  0.00    -0.250 C  
HETATM    3  C   UNL     1      -9.811  13.474  67.410  1.00  0.00    -0.227 C  
HETATM    4  C   UNL     1      -8.655  15.282  68.657  1.00  0.00    -0.173 C  
HETATM    5  S   UNL     1      -8.241  13.752  68.099  1.00  0.00    -0.169 SA 
HETATM    6  N   UNL     1      -9.934  15.555  68.431  1.00  0.00    -0.211 NA 
ENDROOT
BRANCH   3   7
HETATM    7  C   UNL     1     -10.069  12.217  66.560  1.00  0.00    -0.229 C  
BRANCH   7   8
HETATM    8  C   UNL     1     -10.979  11.246  67.324  1.00  0.00    -0.286 C  
BRANCH   8   9
HETATM    9  O   UNL     1     -10.721  10.976  68.683  1.00  0.00    -0.175 OA 
BRANCH   9  10
HETATM   10  P   UNL     1     -10.059   9.446  68.934  1.00  0.00    -0.204 P  
HETATM   11  O   UNL     1     -10.745   8.942  67.429  1.00  0.00    -0.272 OA 
HETATM   12  O   UNL     1     -11.155   8.603  69.616  1.00  0.00    -0.154 OA 
BRANCH  10  13
HETATM   13  O   UNL     1      -9.373   9.950  70.440  1.00  0.00    -0.193 OA 
HETATM   14  O   UNL     1      -8.116   7.770  70.123  1.00  0.00    -0.113 OA 
HETATM   15  P   UNL     1      -8.134   9.042  70.905  1.00  0.00    -0.121 P  
HETATM   16  O   UNL     1      -6.935   9.932  71.084  1.00  0.00    -0.338 OA 
HETATM   17  O   UNL     1      -8.592   8.727  72.416  1.00  0.00    -0.395 OA 
ENDBRANCH  10  13
ENDBRANCH   9  10
ENDBRANCH   8   9
ENDBRANCH   7   8
ENDBRANCH   3   7
BRANCH   6  18
HETATM   18  C   UNL     1     -10.425  16.903  68.767  1.00  0.00    -0.343 C  
BRANCH  18  19
HETATM   19  C   UNL     1      -9.671  17.990  68.064  1.00  0.00    -0.309 A  
HETATM   20  C   UNL     1      -9.050  18.983  68.789  1.00  0.00    -0.333 A  
HETATM   21  N   UNL     1      -8.225  19.895  68.256  1.00  0.00    -0.269 NA 
HETATM   22  C   UNL     1      -8.016  19.810  66.934  1.00  0.00    -0.293 A  
HETATM   23  N   UNL     1      -8.687  18.973  66.125  1.00  0.00    -0.458 NA 
HETATM   24  C   UNL     1      -6.948  20.678  66.347  1.00  0.00    -0.268 C  
HETATM   25  C   UNL     1      -9.534  18.112  66.696  1.00  0.00    -0.302 A  
HETATM   26  N   UNL     1     -10.320  17.378  65.802  1.00  0.00    -0.590 NA 
HETATM   27  H1  UNL     1     -10.218  17.468  64.791  1.00  0.00     0.000 HD 
HETATM   28  H2  UNL     1     -11.298  17.553  66.033  1.00  0.00     0.000 HD 
ENDBRANCH  18  19
ENDBRANCH   6  18
TORSDOF 7
ENDMDL
MODEL      136
REMARK 921   NORMALIZED FREE ENERGY PREDICTED BY IDOCK:   -4.89 KCAL/MOL
REMARK 922        TOTAL FREE ENERGY PREDICTED BY IDOCK:   -7.89 KCAL/MOL
REMARK 923 INTER-LIGAND FREE ENERGY PREDICTED BY IDOCK:   -7.16 KCAL/MOL
REMARK 924 INTRA-LIGAND FREE ENERGY PREDICTED BY IDOCK:   -0.72 KCAL/MOL
REMARK 927      BINDING AFFINITY PREDICTED BY RF-SCORE:    0.00 PKD
ROOT
HETATM    1  C   UNL     1     -12.347  10.829  69.439  1.00  0.00    -0.133 C  
HETATM    2  C   UNL     1     -11.070  11.426  68.968  1.00  0.00    -0.243 C  
HETATM    3  C   UNL     1      -9.907  10.750  68.603  1.00  0.00    -0.184 C  
HETATM    4  C   UNL     1      -9.740  13.220  68.440  1.00  0.00    -0.198 C  
HETATM    5  S   UNL     1      -8.675  11.931  68.280  1.00  0.00    -0.156 SA 
HETATM    6  N   UNL     1     -10.948  12.814  68.810  1.00  0.00    -0.247 NA 
ENDROOT
BRANCH   3   7
HETATM    7  C   UNL     1      -9.594   9.249  68.457  1.00  0.00    -0.155 C  
BRANCH   7   8
HETATM    8  C   UNL     1      -9.652   8.566  69.830  1.00  0.00    -0.170 C  
BRANCH   8   9
HETATM    9  O   UNL     1      -9.385   7.185  69.931  1.00  0.00    -0.151 OA 
BRANCH   9  10
HETATM   10  P   UNL     1     -10.655   6.320  70.623  1.00  0.00    -0.281 P  
HETATM   11  O   UNL     1     -11.317   6.096  69.041  1.00  0.00    -0.390 OA 
HETATM   12  O   UNL     1     -11.793   7.332  70.862  1.00  0.00    -0.308 OA 
BRANCH  10  13
HETATM   13  O   UNL     1      -9.993   6.543  72.206  1.00  0.00    -0.165 OA 
HETATM   14  O   UNL     1     -10.863   4.174  72.453  1.00  0.00    -0.052 OA 
HETATM   15  P   UNL     1      -9.971   5.196  73.077  1.00  0.00    -0.177 P  
HETATM   16  O   UNL     1      -8.552   4.925  73.496  1.00  0.00    -0.106 OA 
HETATM   17  O   UNL     1     -10.658   5.745  74.426  1.00  0.00    -0.230 OA 
ENDBRANCH  10  13
ENDBRANCH   9  10
ENDBRANCH   8   9
ENDBRANCH   7   8
ENDBRANCH   3   7
BRANCH   6  18
HETATM   18  C   UNL     1     -12.024  13.817  68.889  1.00  0.00    -0.359 C  
BRANCH  18  19
HETATM   19  C   UNL     1     -12.187  14.392  70.262  1.00  0.00    -0.397 A  
HETATM   20  C   UNL     1     -13.002  13.769  71.182  1.00  0.00    -0.298 A  
HETATM   21  N   UNL     1     -13.079  14.119  72.473  1.00  0.00    -0.449 NA 
HETATM   22  C   UNL     1     -12.306  15.145  72.860  1.00  0.00    -0.391 A  
HETATM   23  N   UNL     1     -11.593  15.904  72.011  1.00  0.00    -0.441 NA 
HETATM   24  C   UNL     1     -12.215  15.425  74.327  1.00  0.00    -0.751 C  
HETATM   25  C   UNL     1     -11.582  15.543  70.724  1.00  0.00    -0.367 A  
HETATM   26  N   UNL     1     -10.960  16.453  69.863  1.00  0.00    -0.361 NA 
HETATM   27  H1  UNL     1     -10.513  17.304  70.205  1.00  0.00     0.000 HD 
HETATM   28  H2  UNL     1     -11.641  16.723  69.153  1.00  0.00     0.000 HD 
ENDBRANCH  18  19
ENDBRANCH   6  18
TORSDOF 7
ENDMDL
MODEL      137
REMARK 921   NORMALIZED FREE ENERGY PREDICTED BY IDOCK:   -4.88 KCAL/MOL
REMARK 922        TOTAL FREE ENERGY PREDICTED BY IDOCK:   -7.87 KCAL/MOL
REMARK 923 INTER-LIGAND FREE ENERGY PREDICTED BY IDOCK:   -6.84 KCAL/MOL
REMARK 924 INTRA-LIGAND FREE ENERGY PREDICTED BY IDOCK:   -1.03 KCAL/MOL
REMARK 927      BINDING AFFINITY PREDICTED BY RF-SCORE:    0.00 PKD
ROOT
HETATM    1  C   UNL     1     -11.868  12.458  66.138  1.00  0.00    -0.442 C  
HETATM    2  C   UNL     1     -10.526  12.638  66.750  1.00  0.00    -0.240 C  
HETATM    3  C   UNL     1      -9.370  11.906  66.480  1.00  0.00    -0.216 C  
HETATM    4  C   UNL     1      -9.077  13.671  68.199  1.00  0.00    -0.195 C  
HETATM    5  S   UNL     1      -8.131  12.428  67.580  1.00  0.00    -0.184 SA 
HETATM    6  N   UNL     1     -10.302  13.656  67.687  1.00  0.00    -0.237 NA 
ENDROOT
BRANCH   3   7
HETATM    7  C   UNL     1      -9.067  10.811  65.440  1.00  0.00    -0.216 C  
BRANCH   7   8
HETATM    8  C   UNL     1      -8.675   9.509  66.152  1.00  0.00    -0.145 C  
BRANCH   8   9
HETATM    9  O   UNL     1      -9.540   8.398  66.094  1.00  0.00    -0.221 OA 
BRANCH   9  10
HETATM   10  P   UNL     1     -10.108   7.926  67.610  1.00  0.00    -0.241 P  
HETATM   11  O   UNL     1     -11.129   9.323  67.621  1.00  0.00    -0.108 OA 
HETATM   12  O   UNL     1      -9.237   8.662  68.648  1.00  0.00    -0.139 OA 
BRANCH  10  13
HETATM   13  O   UNL     1      -9.087   6.530  67.598  1.00  0.00    -0.115 OA 
HETATM   14  O   UNL     1     -10.903   5.700  69.161  1.00  0.00    -0.284 OA 
HETATM   15  P   UNL     1      -9.743   5.262  68.330  1.00  0.00    -0.149 P  
HETATM   16  O   UNL     1      -9.800   4.124  67.347  1.00  0.00    -0.179 OA 
HETATM   17  O   UNL     1      -8.522   4.856  69.297  1.00  0.00    -0.086 OA 
ENDBRANCH  10  13
ENDBRANCH   9  10
ENDBRANCH   8   9
ENDBRANCH   7   8
ENDBRANCH   3   7
BRANCH   6  18
HETATM   18  C   UNL     1     -11.219  14.750  68.051  1.00  0.00    -0.299 C  
BRANCH  18  19
HETATM   19  C   UNL     1     -11.493  14.816  69.522  1.00  0.00    -0.331 A  
HETATM   20  C   UNL     1     -11.259  15.981  70.219  1.00  0.00    -0.389 A  
HETATM   21  N   UNL     1     -11.626  16.178  71.493  1.00  0.00    -0.461 NA 
HETATM   22  C   UNL     1     -12.253  15.157  72.097  1.00  0.00    -0.373 A  
HETATM   23  N   UNL     1     -12.395  13.939  71.550  1.00  0.00    -0.293 NA 
HETATM   24  C   UNL     1     -12.855  15.418  73.443  1.00  0.00    -0.662 C  
HETATM   25  C   UNL     1     -11.973  13.776  70.293  1.00  0.00    -0.326 A  
HETATM   26  N   UNL     1     -11.997  12.457  69.829  1.00  0.00    -0.310 NA 
HETATM   27  H1  UNL     1     -12.352  11.689  70.399  1.00  0.00     0.000 HD 
HETATM   28  H2  UNL     1     -11.051  12.215  69.535  1.00  0.00     0.000 HD 
ENDBRANCH  18  19
ENDBRANCH   6  18
TORSDOF 7
ENDMDL
MODEL      138
REMARK 921   NORMALIZED FREE ENERGY PREDICTED BY IDOCK:   -4.87 KCAL/MOL
REMARK 922        TOTAL FREE ENERGY PREDICTED BY IDOCK:   -7.86 KCAL/MOL
REMARK 923 INTER-LIGAND FREE ENERGY PREDICTED BY IDOCK:   -7.19 KCAL/MOL
REMARK 924 INTRA-LIGAND FREE ENERGY PREDICTED BY IDOCK:   -0.66 KCAL/MOL
REMARK 927      BINDING AFFINITY PREDICTED BY RF-SCORE:    0.00 PKD
ROOT
HETATM    1  C   UNL     1     -11.932  13.887  70.089  1.00  0.00    -0.402 C  
HETATM    2  C   UNL     1     -11.507  13.768  68.670  1.00  0.00    -0.301 C  
HETATM    3  C   UNL     1     -11.457  12.608  67.899  1.00  0.00    -0.309 C  
HETATM    4  C   UNL     1     -10.723  14.655  66.704  1.00  0.00    -0.305 C  
HETATM    5  S   UNL     1     -10.747  13.010  66.365  1.00  0.00    -0.285 SA 
HETATM    6  N   UNL     1     -11.136  14.906  67.941  1.00  0.00    -0.287 NA 
ENDROOT
BRANCH   3   7
HETATM    7  C   UNL     1     -11.902  11.162  68.187  1.00  0.00    -0.238 C  
BRANCH   7   8
HETATM    8  C   UNL     1     -10.912  10.493  69.150  1.00  0.00    -0.240 C  
BRANCH   8   9
HETATM    9  O   UNL     1     -11.323   9.371  69.899  1.00  0.00    -0.202 OA 
BRANCH   9  10
HETATM   10  P   UNL     1     -10.030   8.458  70.478  1.00  0.00    -0.195 P  
HETATM   11  O   UNL     1     -10.430   8.974  72.080  1.00  0.00    -0.346 OA 
HETATM   12  O   UNL     1      -8.824   9.415  70.564  1.00  0.00    -0.223 OA 
BRANCH  10  13
HETATM   13  O   UNL     1      -9.629   7.942  68.877  1.00  0.00    -0.153 OA 
HETATM   14  O   UNL     1     -11.115   6.009  69.574  1.00  0.00    -0.373 OA 
HETATM   15  P   UNL     1     -10.471   6.663  68.396  1.00  0.00    -0.254 P  
HETATM   16  O   UNL     1     -11.205   7.024  67.134  1.00  0.00    -0.315 OA 
HETATM   17  O   UNL     1      -9.264   5.736  67.872  1.00  0.00    -0.110 OA 
ENDBRANCH  10  13
ENDBRANCH   9  10
ENDBRANCH   8   9
ENDBRANCH   7   8
ENDBRANCH   3   7
BRANCH   6  18
HETATM   18  C   UNL     1     -11.273  16.314  68.353  1.00  0.00    -0.349 C  
BRANCH  18  19
HETATM   19  C   UNL     1      -9.955  16.986  68.582  1.00  0.00    -0.294 A  
HETATM   20  C   UNL     1      -8.886  16.269  69.071  1.00  0.00    -0.243 A  
HETATM   21  N   UNL     1      -7.636  16.747  69.152  1.00  0.00    -0.221 NA 
HETATM   22  C   UNL     1      -7.451  18.005  68.726  1.00  0.00    -0.264 A  
HETATM   23  N   UNL     1      -8.452  18.828  68.371  1.00  0.00    -0.332 NA 
HETATM   24  C   UNL     1      -6.041  18.494  68.611  1.00  0.00    -0.208 C  
HETATM   25  C   UNL     1      -9.687  18.320  68.349  1.00  0.00    -0.357 A  
HETATM   26  N   UNL     1     -10.705  19.255  68.130  1.00  0.00    -0.388 NA 
HETATM   27  H1  UNL     1     -10.507  20.241  67.958  1.00  0.00     0.000 HD 
HETATM   28  H2  UNL     1     -11.351  19.200  68.918  1.00  0.00     0.000 HD 
ENDBRANCH  18  19
ENDBRANCH   6  18
TORSDOF 7
ENDMDL
MODEL      139
REMARK 921   NORMALIZED FREE ENERGY PREDICTED BY IDOCK:   -4.87 KCAL/MOL
REMARK 922        TOTAL FREE ENERGY PREDICTED BY IDOCK:   -7.85 KCAL/MOL
REMARK 923 INTER-LIGAND FREE ENERGY PREDICTED BY IDOCK:   -7.15 KCAL/MOL
REMARK 924 INTRA-LIGAND FREE ENERGY PREDICTED BY IDOCK:   -0.70 KCAL/MOL
REMARK 927      BINDING AFFINITY PREDICTED BY RF-SCORE:    0.00 PKD
ROOT
HETATM    1  C   UNL     1     -10.891  12.463  67.339  1.00  0.00    -0.273 C  
HETATM    2  C   UNL     1     -11.285  11.891  68.653  1.00  0.00    -0.257 C  
HETATM    3  C   UNL     1     -10.863  10.684  69.208  1.00  0.00    -0.239 C  
HETATM    4  C   UNL     1     -12.462  11.949  70.622  1.00  0.00    -0.257 C  
HETATM    5  S   UNL     1     -11.743  10.432  70.685  1.00  0.00    -0.369 SA 
HETATM    6  N   UNL     1     -12.144  12.596  69.507  1.00  0.00    -0.240 NA 
ENDROOT
BRANCH   3   7
HETATM    7  C   UNL     1      -9.824   9.647  68.744  1.00  0.00    -0.173 C  
BRANCH   7   8
HETATM    8  C   UNL     1      -9.936   8.376  69.597  1.00  0.00    -0.193 C  
BRANCH   8   9
HETATM    9  O   UNL     1      -9.446   7.154  69.091  1.00  0.00    -0.148 OA 
BRANCH   9  10
HETATM   10  P   UNL     1      -9.055   6.051  70.304  1.00  0.00    -0.153 P  
HETATM   11  O   UNL     1      -7.497   5.860  69.577  1.00  0.00    -0.073 OA 
HETATM   12  O   UNL     1      -9.390   4.653  69.746  1.00  0.00    -0.118 OA 
BRANCH  10  13
HETATM   13  O   UNL     1     -10.613   6.242  71.031  1.00  0.00    -0.220 OA 
HETATM   14  O   UNL     1      -9.279   5.572  73.081  1.00  0.00    -0.133 OA 
HETATM   15  P   UNL     1     -10.576   6.161  72.633  1.00  0.00    -0.245 P  
HETATM   16  O   UNL     1     -11.151   7.437  73.186  1.00  0.00    -0.353 OA 
HETATM   17  O   UNL     1     -11.754   5.090  72.869  1.00  0.00    -0.256 OA 
ENDBRANCH  10  13
ENDBRANCH   9  10
ENDBRANCH   8   9
ENDBRANCH   7   8
ENDBRANCH   3   7
BRANCH   6  18
HETATM   18  C   UNL     1     -12.610  13.985  69.355  1.00  0.00     0.120 C  
BRANCH  18  19
HETATM   19  C   UNL     1     -12.570  14.758  70.637  1.00  0.00    -0.414 A  
HETATM   20  C   UNL     1     -13.740  15.089  71.284  1.00  0.00    -0.450 A  
HETATM   21  N   UNL     1     -13.792  15.634  72.507  1.00  0.00    -0.566 NA 
HETATM   22  C   UNL     1     -12.614  15.860  73.109  1.00  0.00    -0.513 A  
HETATM   23  N   UNL     1     -11.425  15.707  72.504  1.00  0.00    -0.385 NA 
HETATM   24  C   UNL     1     -12.643  16.271  74.548  1.00  0.00    -0.471 C  
HETATM   25  C   UNL     1     -11.425  15.204  71.266  1.00  0.00    -0.349 A  
HETATM   26  N   UNL     1     -10.182  15.215  70.625  1.00  0.00    -0.421 NA 
HETATM   27  H1  UNL     1      -9.336  15.545  71.091  1.00  0.00     0.000 HD 
HETATM   28  H2  UNL     1     -10.285  15.742  69.758  1.00  0.00     0.000 HD 
ENDBRANCH  18  19
ENDBRANCH   6  18
TORSDOF 7
ENDMDL
MODEL      140
REMARK 921   NORMALIZED FREE ENERGY PREDICTED BY IDOCK:   -4.84 KCAL/MOL
REMARK 922        TOTAL FREE ENERGY PREDICTED BY IDOCK:   -7.81 KCAL/MOL
REMARK 923 INTER-LIGAND FREE ENERGY PREDICTED BY IDOCK:   -7.17 KCAL/MOL
REMARK 924 INTRA-LIGAND FREE ENERGY PREDICTED BY IDOCK:   -0.64 KCAL/MOL
REMARK 927      BINDING AFFINITY PREDICTED BY RF-SCORE:    0.00 PKD
ROOT
HETATM    1  C   UNL     1     -11.563  14.320  70.000  1.00  0.00    -0.325 C  
HETATM    2  C   UNL     1     -10.550  13.829  69.030  1.00  0.00    -0.139 C  
HETATM    3  C   UNL     1      -9.312  14.401  68.741  1.00  0.00    -0.150 C  
HETATM    4  C   UNL     1      -9.814  12.350  67.437  1.00  0.00    -0.199 C  
HETATM    5  S   UNL     1      -8.599  13.511  67.429  1.00  0.00    -0.216 SA 
HETATM    6  N   UNL     1     -10.768  12.645  68.311  1.00  0.00    -0.223 NA 
ENDROOT
BRANCH   3   7
HETATM    7  C   UNL     1      -8.560  15.591  69.363  1.00  0.00    -0.259 C  
BRANCH   7   8
HETATM    8  C   UNL     1      -8.886  16.877  68.591  1.00  0.00    -0.262 C  
BRANCH   8   9
HETATM    9  O   UNL     1      -7.848  17.775  68.268  1.00  0.00    -0.258 OA 
BRANCH   9  10
HETATM   10  P   UNL     1      -7.725  18.069  66.612  1.00  0.00    -0.268 P  
HETATM   11  O   UNL     1      -6.685  16.693  66.482  1.00  0.00    -0.199 OA 
HETATM   12  O   UNL     1      -6.463  18.932  66.415  1.00  0.00    -0.185 OA 
BRANCH  10  13
HETATM   13  O   UNL     1      -8.765  19.445  66.742  1.00  0.00    -0.291 OA 
HETATM   14  O   UNL     1     -10.301  17.886  65.459  1.00  0.00    -0.616 OA 
HETATM   15  P   UNL     1     -10.265  19.152  66.251  1.00  0.00    -0.460 P  
HETATM   16  O   UNL     1     -11.203  19.455  67.387  1.00  0.00    -0.348 OA 
HETATM   17  O   UNL     1     -10.465  20.403  65.259  1.00  0.00    -0.145 OA 
ENDBRANCH  10  13
ENDBRANCH   9  10
ENDBRANCH   8   9
ENDBRANCH   7   8
ENDBRANCH   3   7
BRANCH   6  18
HETATM   18  C   UNL     1     -11.851  11.667  68.512  1.00  0.00    -0.292 C  
BRANCH  18  19
HETATM   19  C   UNL     1     -11.480  10.575  69.468  1.00  0.00    -0.339 A  
HETATM   20  C   UNL     1     -10.661   9.545  69.060  1.00  0.00    -0.219 A  
HETATM   21  N   UNL     1     -10.151   8.621  69.886  1.00  0.00    -0.190 NA 
HETATM   22  C   UNL     1     -10.482   8.733  71.181  1.00  0.00    -0.245 A  
HETATM   23  N   UNL     1     -11.386   9.610  71.648  1.00  0.00    -0.347 NA 
HETATM   24  C   UNL     1      -9.769   7.846  72.154  1.00  0.00    -0.257 C  
HETATM   25  C   UNL     1     -11.902  10.482  70.778  1.00  0.00    -0.365 A  
HETATM   26  N   UNL     1     -12.950  11.263  71.278  1.00  0.00    -0.370 NA 
HETATM   27  H1  UNL     1     -13.261  11.194  72.247  1.00  0.00     0.000 HD 
HETATM   28  H2  UNL     1     -13.761  11.112  70.679  1.00  0.00     0.000 HD 
ENDBRANCH  18  19
ENDBRANCH   6  18
TORSDOF 7
ENDMDL
MODEL      141
REMARK 921   NORMALIZED FREE ENERGY PREDICTED BY IDOCK:   -4.83 KCAL/MOL
REMARK 922        TOTAL FREE ENERGY PREDICTED BY IDOCK:   -7.80 KCAL/MOL
REMARK 923 INTER-LIGAND FREE ENERGY PREDICTED BY IDOCK:   -6.90 KCAL/MOL
REMARK 924 INTRA-LIGAND FREE ENERGY PREDICTED BY IDOCK:   -0.90 KCAL/MOL
REMARK 927      BINDING AFFINITY PREDICTED BY RF-SCORE:    0.00 PKD
ROOT
HETATM    1  C   UNL     1     -10.840  15.222  64.991  1.00  0.00    -0.457 C  
HETATM    2  C   UNL     1     -10.881  15.184  66.476  1.00  0.00    -0.317 C  
HETATM    3  C   UNL     1     -10.849  14.054  67.292  1.00  0.00    -0.284 C  
HETATM    4  C   UNL     1     -11.012  16.198  68.531  1.00  0.00    -0.338 C  
HETATM    5  S   UNL     1     -11.076  14.569  68.936  1.00  0.00    -0.269 SA 
HETATM    6  N   UNL     1     -10.920  16.373  67.218  1.00  0.00    -0.191 NA 
ENDROOT
BRANCH   3   7
HETATM    7  C   UNL     1     -10.656  12.560  66.972  1.00  0.00    -0.251 C  
BRANCH   7   8
HETATM    8  C   UNL     1     -11.231  11.703  68.108  1.00  0.00    -0.263 C  
BRANCH   8   9
HETATM    9  O   UNL     1     -11.276  10.301  67.965  1.00  0.00    -0.293 OA 
BRANCH   9  10
HETATM   10  P   UNL     1     -10.594   9.485  69.273  1.00  0.00    -0.197 P  
HETATM   11  O   UNL     1      -9.044   9.660  68.526  1.00  0.00    -0.130 OA 
HETATM   12  O   UNL     1     -10.524   7.998  68.870  1.00  0.00    -0.217 OA 
BRANCH  10  13
HETATM   13  O   UNL     1     -12.145   9.310  70.020  1.00  0.00     0.163 OA 
HETATM   14  O   UNL     1     -10.667   8.730  71.997  1.00  0.00    -0.325 OA 
HETATM   15  P   UNL     1     -12.061   9.098  71.608  1.00  0.00    -0.399 P  
HETATM   16  O   UNL     1     -12.856  10.187  72.275  1.00  0.00    -0.341 OA 
HETATM   17  O   UNL     1     -13.008   7.805  71.750  1.00  0.00    -0.322 OA 
ENDBRANCH  10  13
ENDBRANCH   9  10
ENDBRANCH   8   9
ENDBRANCH   7   8
ENDBRANCH   3   7
BRANCH   6  18
HETATM   18  C   UNL     1     -10.746  17.745  66.712  1.00  0.00    -0.139 C  
BRANCH  18  19
HETATM   19  C   UNL     1      -9.489  18.394  67.204  1.00  0.00    -0.282 A  
HETATM   20  C   UNL     1      -9.552  19.540  67.965  1.00  0.00    -0.359 A  
HETATM   21  N   UNL     1      -8.496  20.092  68.578  1.00  0.00    -0.117 NA 
HETATM   22  C   UNL     1      -7.320  19.467  68.417  1.00  0.00    -0.312 A  
HETATM   23  N   UNL     1      -7.132  18.433  67.580  1.00  0.00    -0.204 NA 
HETATM   24  C   UNL     1      -6.169  19.937  69.251  1.00  0.00    -0.352 C  
HETATM   25  C   UNL     1      -8.208  17.945  66.955  1.00  0.00    -0.237 A  
HETATM   26  N   UNL     1      -7.935  16.981  65.979  1.00  0.00    -0.470 NA 
HETATM   27  H1  UNL     1      -6.988  16.649  65.795  1.00  0.00     0.000 HD 
HETATM   28  H2  UNL     1      -8.325  17.313  65.098  1.00  0.00     0.000 HD 
ENDBRANCH  18  19
ENDBRANCH   6  18
TORSDOF 7
ENDMDL
MODEL      142
REMARK 921   NORMALIZED FREE ENERGY PREDICTED BY IDOCK:   -4.82 KCAL/MOL
REMARK 922        TOTAL FREE ENERGY PREDICTED BY IDOCK:   -7.78 KCAL/MOL
REMARK 923 INTER-LIGAND FREE ENERGY PREDICTED BY IDOCK:   -7.06 KCAL/MOL
REMARK 924 INTRA-LIGAND FREE ENERGY PREDICTED BY IDOCK:   -0.72 KCAL/MOL
REMARK 927      BINDING AFFINITY PREDICTED BY RF-SCORE:    0.00 PKD
ROOT
HETATM    1  C   UNL     1      -8.402  11.428  66.588  1.00  0.00    -0.172 C  
HETATM    2  C   UNL     1      -9.705  11.848  67.167  1.00  0.00    -0.185 C  
HETATM    3  C   UNL     1     -10.276  13.119  67.128  1.00  0.00    -0.244 C  
HETATM    4  C   UNL     1     -11.638  11.430  68.332  1.00  0.00    -0.315 C  
HETATM    5  S   UNL     1     -11.725  13.089  68.085  1.00  0.00    -0.350 SA 
HETATM    6  N   UNL     1     -10.531  10.915  67.809  1.00  0.00    -0.192 NA 
ENDROOT
BRANCH   3   7
HETATM    7  C   UNL     1      -9.845  14.417  66.421  1.00  0.00    -0.309 C  
BRANCH   7   8
HETATM    8  C   UNL     1     -10.356  15.634  67.205  1.00  0.00    -0.285 C  
BRANCH   8   9
HETATM    9  O   UNL     1      -9.508  16.263  68.140  1.00  0.00    -0.210 OA 
BRANCH   9  10
HETATM   10  P   UNL     1      -9.148  17.858  67.731  1.00  0.00    -0.266 P  
HETATM   11  O   UNL     1     -10.845  18.178  67.637  1.00  0.00    -0.392 OA 
HETATM   12  O   UNL     1      -9.139  17.921  66.191  1.00  0.00    -0.462 OA 
BRANCH  10  13
HETATM   13  O   UNL     1      -7.451  17.538  67.825  1.00  0.00    -0.185 OA 
HETATM   14  O   UNL     1      -7.549  19.656  69.216  1.00  0.00    -0.336 OA 
HETATM   15  P   UNL     1      -6.686  18.489  68.866  1.00  0.00    -0.264 P  
HETATM   16  O   UNL     1      -5.998  17.621  69.885  1.00  0.00    -0.248 OA 
HETATM   17  O   UNL     1      -5.478  18.988  67.927  1.00  0.00    -0.176 OA 
ENDBRANCH  10  13
ENDBRANCH   9  10
ENDBRANCH   8   9
ENDBRANCH   7   8
ENDBRANCH   3   7
BRANCH   6  18
HETATM   18  C   UNL     1     -10.362   9.452  67.850  1.00  0.00    -0.225 C  
BRANCH  18  19
HETATM   19  C   UNL     1     -10.072   8.936  69.225  1.00  0.00    -0.205 A  
HETATM   20  C   UNL     1      -9.119   9.548  70.009  1.00  0.00    -0.227 A  
HETATM   21  N   UNL     1      -8.912   9.256  71.301  1.00  0.00    -0.305 NA 
HETATM   22  C   UNL     1      -9.695   8.304  71.830  1.00  0.00    -0.232 A  
HETATM   23  N   UNL     1     -10.547   7.553  71.112  1.00  0.00    -0.221 NA 
HETATM   24  C   UNL     1      -9.629   8.102  73.312  1.00  0.00    -0.261 C  
HETATM   25  C   UNL     1     -10.687   7.851  69.817  1.00  0.00    -0.233 A  
HETATM   26  N   UNL     1     -11.459   6.943  69.085  1.00  0.00    -0.560 NA 
HETATM   27  H1  UNL     1     -11.913   6.142  69.522  1.00  0.00     0.000 HD 
HETATM   28  H2  UNL     1     -10.884   6.595  68.318  1.00  0.00     0.000 HD 
ENDBRANCH  18  19
ENDBRANCH   6  18
TORSDOF 7
ENDMDL
MODEL      143
REMARK 921   NORMALIZED FREE ENERGY PREDICTED BY IDOCK:   -4.82 KCAL/MOL
REMARK 922        TOTAL FREE ENERGY PREDICTED BY IDOCK:   -7.78 KCAL/MOL
REMARK 923 INTER-LIGAND FREE ENERGY PREDICTED BY IDOCK:   -7.24 KCAL/MOL
REMARK 924 INTRA-LIGAND FREE ENERGY PREDICTED BY IDOCK:   -0.54 KCAL/MOL
REMARK 927      BINDING AFFINITY PREDICTED BY RF-SCORE:    0.00 PKD
ROOT
HETATM    1  C   UNL     1     -10.655  17.815  67.445  1.00  0.00    -0.341 C  
HETATM    2  C   UNL     1      -9.668  16.842  67.981  1.00  0.00    -0.256 C  
HETATM    3  C   UNL     1      -8.469  16.444  67.390  1.00  0.00    -0.178 C  
HETATM    4  C   UNL     1      -8.945  15.346  69.564  1.00  0.00    -0.229 C  
HETATM    5  S   UNL     1      -7.782  15.180  68.364  1.00  0.00    -0.124 SA 
HETATM    6  N   UNL     1      -9.870  16.238  69.229  1.00  0.00    -0.259 NA 
ENDROOT
BRANCH   3   7
HETATM    7  C   UNL     1      -7.739  16.925  66.123  1.00  0.00    -0.259 C  
BRANCH   7   8
HETATM    8  C   UNL     1      -6.296  17.317  66.468  1.00  0.00    -0.227 C  
BRANCH   8   9
HETATM    9  O   UNL     1      -5.742  18.488  65.909  1.00  0.00    -0.152 OA 
BRANCH   9  10
HETATM   10  P   UNL     1      -6.461  19.897  66.492  1.00  0.00    -0.199 P  
HETATM   11  O   UNL     1      -7.356  20.007  65.016  1.00  0.00    -0.304 OA 
HETATM   12  O   UNL     1      -5.611  21.070  65.963  1.00  0.00    -0.205 OA 
BRANCH  10  13
HETATM   13  O   UNL     1      -5.565  19.787  67.968  1.00  0.00    -0.201 OA 
HETATM   14  O   UNL     1      -7.920  19.696  68.906  1.00  0.00    -0.339 OA 
HETATM   15  P   UNL     1      -6.484  19.457  69.241  1.00  0.00    -0.323 P  
HETATM   16  O   UNL     1      -5.974  18.195  69.881  1.00  0.00    -0.238 OA 
HETATM   17  O   UNL     1      -5.975  20.613  70.239  1.00  0.00    -0.492 OA 
ENDBRANCH  10  13
ENDBRANCH   9  10
ENDBRANCH   8   9
ENDBRANCH   7   8
ENDBRANCH   3   7
BRANCH   6  18
HETATM   18  C   UNL     1     -10.900  16.575  70.227  1.00  0.00    -0.147 C  
BRANCH  18  19
HETATM   19  C   UNL     1     -11.703  15.387  70.661  1.00  0.00    -0.373 A  
HETATM   20  C   UNL     1     -11.931  14.348  69.787  1.00  0.00    -0.332 A  
HETATM   21  N   UNL     1     -12.495  13.184  70.138  1.00  0.00    -0.184 NA 
HETATM   22  C   UNL     1     -12.850  13.058  71.426  1.00  0.00    -0.292 A  
HETATM   23  N   UNL     1     -12.801  14.064  72.315  1.00  0.00    -0.332 NA 
HETATM   24  C   UNL     1     -13.289  11.705  71.891  1.00  0.00    -0.403 C  
HETATM   25  C   UNL     1     -12.273  15.221  71.907  1.00  0.00    -0.361 A  
HETATM   26  N   UNL     1     -12.392  16.276  72.817  1.00  0.00    -0.487 NA 
HETATM   27  H1  UNL     1     -12.814  16.153  73.738  1.00  0.00     0.000 HD 
HETATM   28  H2  UNL     1     -12.886  17.035  72.348  1.00  0.00     0.000 HD 
ENDBRANCH  18  19
ENDBRANCH   6  18
TORSDOF 7
ENDMDL
MODEL      144
REMARK 921   NORMALIZED FREE ENERGY PREDICTED BY IDOCK:   -4.81 KCAL/MOL
REMARK 922        TOTAL FREE ENERGY PREDICTED BY IDOCK:   -7.77 KCAL/MOL
REMARK 923 INTER-LIGAND FREE ENERGY PREDICTED BY IDOCK:   -6.72 KCAL/MOL
REMARK 924 INTRA-LIGAND FREE ENERGY PREDICTED BY IDOCK:   -1.05 KCAL/MOL
REMARK 927      BINDING AFFINITY PREDICTED BY RF-SCORE:    0.00 PKD
ROOT
HETATM    1  C   UNL     1     -11.586   8.114  70.954  1.00  0.00    -0.283 C  
HETATM    2  C   UNL     1     -10.555   8.958  70.295  1.00  0.00    -0.218 C  
HETATM    3  C   UNL     1      -9.216   8.638  70.076  1.00  0.00    -0.157 C  
HETATM    4  C   UNL     1      -9.869  10.890  69.265  1.00  0.00    -0.090 C  
HETATM    5  S   UNL     1      -8.429  10.035  69.408  1.00  0.00    -0.179 SA 
HETATM    6  N   UNL     1     -10.892  10.215  69.774  1.00  0.00    -0.259 NA 
ENDROOT
BRANCH   3   7
HETATM    7  C   UNL     1      -8.417   7.344  70.316  1.00  0.00    -0.136 C  
BRANCH   7   8
HETATM    8  C   UNL     1      -8.720   6.329  69.206  1.00  0.00    -0.124 C  
BRANCH   8   9
HETATM    9  O   UNL     1      -8.763   6.759  67.864  1.00  0.00    -0.121 OA 
BRANCH   9  10
HETATM   10  P   UNL     1     -10.171   6.286  67.067  1.00  0.00    -0.251 P  
HETATM   11  O   UNL     1     -10.631   7.950  66.969  1.00  0.00    -0.337 OA 
HETATM   12  O   UNL     1     -11.257   6.139  68.151  1.00  0.00    -0.314 OA 
BRANCH  10  13
HETATM   13  O   UNL     1      -9.711   4.621  67.165  1.00  0.00    -0.166 OA 
HETATM   14  O   UNL     1      -8.864   5.146  64.833  1.00  0.00    -0.154 OA 
HETATM   15  P   UNL     1      -8.789   4.147  65.940  1.00  0.00    -0.133 P  
HETATM   16  O   UNL     1      -7.499   3.611  66.497  1.00  0.00    -0.075 OA 
HETATM   17  O   UNL     1      -9.589   2.818  65.509  1.00  0.00    -0.045 OA 
ENDBRANCH  10  13
ENDBRANCH   9  10
ENDBRANCH   8   9
ENDBRANCH   7   8
ENDBRANCH   3   7
BRANCH   6  18
HETATM   18  C   UNL     1     -12.241  10.787  69.628  1.00  0.00    -0.254 C  
BRANCH  18  19
HETATM   19  C   UNL     1     -12.489  11.942  70.549  1.00  0.00    -0.301 A  
HETATM   20  C   UNL     1     -12.053  13.204  70.210  1.00  0.00    -0.328 A  
HETATM   21  N   UNL     1     -12.370  14.314  70.892  1.00  0.00    -0.335 NA 
HETATM   22  C   UNL     1     -13.159  14.150  71.964  1.00  0.00    -0.387 A  
HETATM   23  N   UNL     1     -13.512  12.950  72.455  1.00  0.00    -0.549 NA 
HETATM   24  C   UNL     1     -13.696  15.383  72.620  1.00  0.00    -0.640 C  
HETATM   25  C   UNL     1     -13.134  11.869  71.767  1.00  0.00    -0.360 A  
HETATM   26  N   UNL     1     -13.388  10.649  72.401  1.00  0.00    -0.524 NA 
HETATM   27  H1  UNL     1     -13.864  10.595  73.301  1.00  0.00     0.000 HD 
HETATM   28  H2  UNL     1     -12.500  10.155  72.489  1.00  0.00     0.000 HD 
ENDBRANCH  18  19
ENDBRANCH   6  18
TORSDOF 7
ENDMDL
MODEL      145
REMARK 921   NORMALIZED FREE ENERGY PREDICTED BY IDOCK:   -4.81 KCAL/MOL
REMARK 922        TOTAL FREE ENERGY PREDICTED BY IDOCK:   -7.77 KCAL/MOL
REMARK 923 INTER-LIGAND FREE ENERGY PREDICTED BY IDOCK:   -6.76 KCAL/MOL
REMARK 924 INTRA-LIGAND FREE ENERGY PREDICTED BY IDOCK:   -1.01 KCAL/MOL
REMARK 927      BINDING AFFINITY PREDICTED BY RF-SCORE:    0.00 PKD
ROOT
HETATM    1  C   UNL     1     -12.154  13.217  66.050  1.00  0.00    -0.491 C  
HETATM    2  C   UNL     1     -10.827  13.253  66.719  1.00  0.00    -0.281 C  
HETATM    3  C   UNL     1      -9.761  12.375  66.526  1.00  0.00    -0.240 C  
HETATM    4  C   UNL     1      -9.324  14.153  68.201  1.00  0.00    -0.206 C  
HETATM    5  S   UNL     1      -8.514  12.782  67.666  1.00  0.00    -0.192 SA 
HETATM    6  N   UNL     1     -10.517  14.270  67.632  1.00  0.00    -0.247 NA 
ENDROOT
BRANCH   3   7
HETATM    7  C   UNL     1      -9.553  11.213  65.537  1.00  0.00    -0.263 C  
BRANCH   7   8
HETATM    8  C   UNL     1     -10.197   9.935  66.090  1.00  0.00    -0.207 C  
BRANCH   8   9
HETATM    9  O   UNL     1      -9.929   9.540  67.417  1.00  0.00    -0.167 OA 
BRANCH   9  10
HETATM   10  P   UNL     1      -9.415   7.939  67.535  1.00  0.00    -0.159 P  
HETATM   11  O   UNL     1     -10.753   7.625  68.585  1.00  0.00    -0.163 OA 
HETATM   12  O   UNL     1      -8.523   7.859  68.791  1.00  0.00    -0.127 OA 
BRANCH  10  13
HETATM   13  O   UNL     1      -8.076   8.253  66.486  1.00  0.00    -0.101 OA 
HETATM   14  O   UNL     1      -8.651   5.903  65.728  1.00  0.00    -0.145 OA 
HETATM   15  P   UNL     1      -7.875   7.125  65.363  1.00  0.00    -0.130 P  
HETATM   16  O   UNL     1      -7.938   7.784  64.012  1.00  0.00    -0.132 OA 
HETATM   17  O   UNL     1      -6.305   6.834  65.562  1.00  0.00    -0.040 OA 
ENDBRANCH  10  13
ENDBRANCH   9  10
ENDBRANCH   8   9
ENDBRANCH   7   8
ENDBRANCH   3   7
BRANCH   6  18
HETATM   18  C   UNL     1     -11.306  15.482  67.918  1.00  0.00    -0.308 C  
BRANCH  18  19
HETATM   19  C   UNL     1     -10.575  16.746  67.584  1.00  0.00    -0.325 A  
HETATM   20  C   UNL     1     -10.341  17.689  68.560  1.00  0.00    -0.370 A  
HETATM   21  N   UNL     1      -9.561  18.766  68.390  1.00  0.00    -0.346 NA 
HETATM   22  C   UNL     1      -8.992  18.904  67.183  1.00  0.00    -0.284 A  
HETATM   23  N   UNL     1      -9.275  18.120  66.130  1.00  0.00    -0.509 NA 
HETATM   24  C   UNL     1      -7.958  19.976  67.027  1.00  0.00    -0.350 C  
HETATM   25  C   UNL     1     -10.094  17.085  66.336  1.00  0.00    -0.317 A  
HETATM   26  N   UNL     1     -10.481  16.401  65.179  1.00  0.00    -0.657 NA 
HETATM   27  H1  UNL     1     -10.125  16.652  64.257  1.00  0.00     0.000 HD 
HETATM   28  H2  UNL     1     -11.500  16.417  65.135  1.00  0.00     0.000 HD 
ENDBRANCH  18  19
ENDBRANCH   6  18
TORSDOF 7
ENDMDL
MODEL      146
REMARK 921   NORMALIZED FREE ENERGY PREDICTED BY IDOCK:   -4.81 KCAL/MOL
REMARK 922        TOTAL FREE ENERGY PREDICTED BY IDOCK:   -7.76 KCAL/MOL
REMARK 923 INTER-LIGAND FREE ENERGY PREDICTED BY IDOCK:   -6.91 KCAL/MOL
REMARK 924 INTRA-LIGAND FREE ENERGY PREDICTED BY IDOCK:   -0.85 KCAL/MOL
REMARK 927      BINDING AFFINITY PREDICTED BY RF-SCORE:    0.00 PKD
ROOT
HETATM    1  C   UNL     1     -11.742  13.836  68.181  1.00  0.00    -0.392 C  
HETATM    2  C   UNL     1     -10.293  13.508  68.181  1.00  0.00    -0.247 C  
HETATM    3  C   UNL     1      -9.237  14.348  68.534  1.00  0.00    -0.198 C  
HETATM    4  C   UNL     1      -8.535  12.077  67.821  1.00  0.00    -0.157 C  
HETATM    5  S   UNL     1      -7.750  13.511  68.209  1.00  0.00    -0.146 SA 
HETATM    6  N   UNL     1      -9.854  12.222  67.837  1.00  0.00    -0.195 NA 
ENDROOT
BRANCH   3   7
HETATM    7  C   UNL     1      -9.209  15.772  69.118  1.00  0.00    -0.256 C  
BRANCH   7   8
HETATM    8  C   UNL     1      -7.822  16.396  68.909  1.00  0.00    -0.234 C  
BRANCH   8   9
HETATM    9  O   UNL     1      -7.572  17.159  67.750  1.00  0.00    -0.170 OA 
BRANCH   9  10
HETATM   10  P   UNL     1      -7.020  18.714  68.094  1.00  0.00    -0.256 P  
HETATM   11  O   UNL     1      -5.420  18.196  67.690  1.00  0.00    -0.144 OA 
HETATM   12  O   UNL     1      -6.561  18.698  69.566  1.00  0.00    -0.256 OA 
BRANCH  10  13
HETATM   13  O   UNL     1      -8.620  19.232  68.498  1.00  0.00    -0.345 OA 
HETATM   14  O   UNL     1      -8.711  19.535  65.982  1.00  0.00    -0.387 OA 
HETATM   15  P   UNL     1      -9.553  19.462  67.213  1.00  0.00    -0.368 P  
HETATM   16  O   UNL     1     -10.767  18.583  67.345  1.00  0.00    -0.425 OA 
HETATM   17  O   UNL     1     -10.117  20.929  67.557  1.00  0.00    -0.297 OA 
ENDBRANCH  10  13
ENDBRANCH   9  10
ENDBRANCH   8   9
ENDBRANCH   7   8
ENDBRANCH   3   7
BRANCH   6  18
HETATM   18  C   UNL     1     -10.685  11.024  67.622  1.00  0.00    -0.238 C  
BRANCH  18  19
HETATM   19  C   UNL     1     -10.832  10.188  68.856  1.00  0.00    -0.256 A  
HETATM   20  C   UNL     1     -11.392  10.724  69.995  1.00  0.00    -0.319 A  
HETATM   21  N   UNL     1     -11.709  10.008  71.082  1.00  0.00    -0.374 NA 
HETATM   22  C   UNL     1     -11.449   8.693  71.027  1.00  0.00    -0.278 A  
HETATM   23  N   UNL     1     -10.774   8.107  70.024  1.00  0.00    -0.243 NA 
HETATM   24  C   UNL     1     -11.976   7.839  72.137  1.00  0.00    -0.362 C  
HETATM   25  C   UNL     1     -10.439   8.871  68.980  1.00  0.00    -0.214 A  
HETATM   26  N   UNL     1      -9.604   8.253  68.043  1.00  0.00    -0.150 NA 
HETATM   27  H1  UNL     1      -9.314   7.280  68.135  1.00  0.00     0.000 HD 
HETATM   28  H2  UNL     1      -8.763   8.822  67.955  1.00  0.00     0.000 HD 
ENDBRANCH  18  19
ENDBRANCH   6  18
TORSDOF 7
ENDMDL
MODEL      147
REMARK 921   NORMALIZED FREE ENERGY PREDICTED BY IDOCK:   -4.78 KCAL/MOL
REMARK 922        TOTAL FREE ENERGY PREDICTED BY IDOCK:   -7.72 KCAL/MOL
REMARK 923 INTER-LIGAND FREE ENERGY PREDICTED BY IDOCK:   -6.85 KCAL/MOL
REMARK 924 INTRA-LIGAND FREE ENERGY PREDICTED BY IDOCK:   -0.87 KCAL/MOL
REMARK 927      BINDING AFFINITY PREDICTED BY RF-SCORE:    0.00 PKD
ROOT
HETATM    1  C   UNL     1     -13.693   9.046  71.978  1.00  0.00    -0.516 C  
HETATM    2  C   UNL     1     -12.244   9.138  71.664  1.00  0.00    -0.361 C  
HETATM    3  C   UNL     1     -11.245   8.232  72.016  1.00  0.00    -0.323 C  
HETATM    4  C   UNL     1     -10.429  10.199  70.742  1.00  0.00     0.093 C  
HETATM    5  S   UNL     1      -9.715   8.899  71.531  1.00  0.00    -0.292 SA 
HETATM    6  N   UNL     1     -11.747  10.204  70.901  1.00  0.00    -0.350 NA 
ENDROOT
BRANCH   3   7
HETATM    7  C   UNL     1     -11.302   6.855  72.704  1.00  0.00    -0.272 C  
BRANCH   7   8
HETATM    8  C   UNL     1     -10.207   5.941  72.136  1.00  0.00    -0.195 C  
BRANCH   8   9
HETATM    9  O   UNL     1     -10.537   4.998  71.142  1.00  0.00    -0.179 OA 
BRANCH   9  10
HETATM   10  P   UNL     1      -9.426   4.964  69.875  1.00  0.00    -0.198 P  
HETATM   11  O   UNL     1     -10.578   5.798  68.891  1.00  0.00    -0.239 OA 
HETATM   12  O   UNL     1      -9.753   3.708  69.041  1.00  0.00    -0.147 OA 
BRANCH  10  13
HETATM   13  O   UNL     1      -8.274   4.129  70.858  1.00  0.00    -0.069 OA 
HETATM   14  O   UNL     1      -6.683   5.478  69.415  1.00  0.00    -0.054 OA 
HETATM   15  P   UNL     1      -6.772   4.660  70.662  1.00  0.00    -0.037 P  
HETATM   16  O   UNL     1      -6.249   5.111  71.998  1.00  0.00    -0.031 OA 
HETATM   17  O   UNL     1      -6.026   3.253  70.426  1.00  0.00    -0.017 OA 
ENDBRANCH  10  13
ENDBRANCH   9  10
ENDBRANCH   8   9
ENDBRANCH   7   8
ENDBRANCH   3   7
BRANCH   6  18
HETATM   18  C   UNL     1     -12.528  11.223  70.179  1.00  0.00    -0.221 C  
BRANCH  18  19
HETATM   19  C   UNL     1     -12.661  12.506  70.941  1.00  0.00    -0.331 A  
HETATM   20  C   UNL     1     -13.556  12.603  71.983  1.00  0.00    -0.332 A  
HETATM   21  N   UNL     1     -13.625  13.651  72.816  1.00  0.00    -0.686 NA 
HETATM   22  C   UNL     1     -12.758  14.649  72.591  1.00  0.00    -0.375 A  
HETATM   23  N   UNL     1     -11.951  14.710  71.518  1.00  0.00    -0.351 NA 
HETATM   24  C   UNL     1     -12.670  15.732  73.621  1.00  0.00    -0.729 C  
HETATM   25  C   UNL     1     -11.950  13.662  70.690  1.00  0.00    -0.252 A  
HETATM   26  N   UNL     1     -11.218  13.843  69.512  1.00  0.00    -0.388 NA 
HETATM   27  H1  UNL     1     -10.692  14.698  69.327  1.00  0.00     0.000 HD 
HETATM   28  H2  UNL     1     -11.851  13.691  68.727  1.00  0.00     0.000 HD 
ENDBRANCH  18  19
ENDBRANCH   6  18
TORSDOF 7
ENDMDL
MODEL      148
REMARK 921   NORMALIZED FREE ENERGY PREDICTED BY IDOCK:   -4.77 KCAL/MOL
REMARK 922        TOTAL FREE ENERGY PREDICTED BY IDOCK:   -7.70 KCAL/MOL
REMARK 923 INTER-LIGAND FREE ENERGY PREDICTED BY IDOCK:   -7.15 KCAL/MOL
REMARK 924 INTRA-LIGAND FREE ENERGY PREDICTED BY IDOCK:   -0.55 KCAL/MOL
REMARK 927      BINDING AFFINITY PREDICTED BY RF-SCORE:    0.00 PKD
ROOT
HETATM    1  C   UNL     1      -9.331  15.546  66.430  1.00  0.00    -0.330 C  
HETATM    2  C   UNL     1      -8.403  14.677  67.199  1.00  0.00    -0.211 C  
HETATM    3  C   UNL     1      -8.676  13.420  67.739  1.00  0.00    -0.197 C  
HETATM    4  C   UNL     1      -6.371  14.234  68.171  1.00  0.00    -0.132 C  
HETATM    5  S   UNL     1      -7.294  12.919  68.664  1.00  0.00    -0.071 SA 
HETATM    6  N   UNL     1      -7.077  15.072  67.421  1.00  0.00    -0.196 NA 
ENDROOT
BRANCH   3   7
HETATM    7  C   UNL     1      -9.908  12.504  67.635  1.00  0.00    -0.202 C  
BRANCH   7   8
HETATM    8  C   UNL     1     -10.726  12.578  68.932  1.00  0.00    -0.165 C  
BRANCH   8   9
HETATM    9  O   UNL     1     -12.007  13.166  68.912  1.00  0.00    -0.309 OA 
BRANCH   9  10
HETATM   10  P   UNL     1     -12.066  14.639  69.730  1.00  0.00    -0.291 P  
HETATM   11  O   UNL     1     -11.877  15.447  68.213  1.00  0.00    -0.339 OA 
HETATM   12  O   UNL     1     -10.605  15.033  70.024  1.00  0.00    -0.226 OA 
BRANCH  10  13
HETATM   13  O   UNL     1     -12.256  13.830  71.248  1.00  0.00    -0.340 OA 
HETATM   14  O   UNL     1     -14.141  15.516  71.440  1.00  0.00    -0.523 OA 
HETATM   15  P   UNL     1     -13.589  14.260  72.031  1.00  0.00    -0.527 P  
HETATM   16  O   UNL     1     -14.409  13.025  72.286  1.00  0.00    -0.294 OA 
HETATM   17  O   UNL     1     -12.952  14.588  73.472  1.00  0.00    -0.551 OA 
ENDBRANCH  10  13
ENDBRANCH   9  10
ENDBRANCH   8   9
ENDBRANCH   7   8
ENDBRANCH   3   7
BRANCH   6  18
HETATM   18  C   UNL     1      -6.377  16.222  66.822  1.00  0.00     0.124 C  
BRANCH  18  19
HETATM   19  C   UNL     1      -7.107  17.515  67.015  1.00  0.00    -0.210 A  
HETATM   20  C   UNL     1      -7.458  18.282  65.926  1.00  0.00    -0.167 A  
HETATM   21  N   UNL     1      -8.248  19.363  65.995  1.00  0.00    -0.432 NA 
HETATM   22  C   UNL     1      -8.703  19.692  67.213  1.00  0.00    -0.312 A  
HETATM   23  N   UNL     1      -8.300  19.095  68.347  1.00  0.00    -0.337 NA 
HETATM   24  C   UNL     1      -9.746  20.763  67.293  1.00  0.00    -0.487 C  
HETATM   25  C   UNL     1      -7.476  18.050  68.233  1.00  0.00    -0.266 A  
HETATM   26  N   UNL     1      -6.963  17.570  69.442  1.00  0.00    -0.167 NA 
HETATM   27  H1  UNL     1      -7.236  17.965  70.341  1.00  0.00     0.000 HD 
HETATM   28  H2  UNL     1      -5.946  17.605  69.382  1.00  0.00     0.000 HD 
ENDBRANCH  18  19
ENDBRANCH   6  18
TORSDOF 7
ENDMDL
MODEL      149
REMARK 921   NORMALIZED FREE ENERGY PREDICTED BY IDOCK:   -4.76 KCAL/MOL
REMARK 922        TOTAL FREE ENERGY PREDICTED BY IDOCK:   -7.69 KCAL/MOL
REMARK 923 INTER-LIGAND FREE ENERGY PREDICTED BY IDOCK:   -6.73 KCAL/MOL
REMARK 924 INTRA-LIGAND FREE ENERGY PREDICTED BY IDOCK:   -0.96 KCAL/MOL
REMARK 927      BINDING AFFINITY PREDICTED BY RF-SCORE:    0.00 PKD
ROOT
HETATM    1  C   UNL     1      -8.939   9.539  70.641  1.00  0.00    -0.226 C  
HETATM    2  C   UNL     1     -10.329   9.296  71.107  1.00  0.00    -0.322 C  
HETATM    3  C   UNL     1     -11.488   9.939  70.677  1.00  0.00    -0.334 C  
HETATM    4  C   UNL     1     -11.869   8.225  72.430  1.00  0.00    -0.396 C  
HETATM    5  S   UNL     1     -12.811   9.379  71.654  1.00  0.00    -0.407 SA 
HETATM    6  N   UNL     1     -10.597   8.300  72.057  1.00  0.00    -0.271 NA 
ENDROOT
BRANCH   3   7
HETATM    7  C   UNL     1     -11.736  10.972  69.562  1.00  0.00    -0.400 C  
BRANCH   7   8
HETATM    8  C   UNL     1     -11.432  10.348  68.194  1.00  0.00    -0.118 C  
BRANCH   8   9
HETATM    9  O   UNL     1     -11.632  11.109  67.023  1.00  0.00    -0.463 OA 
BRANCH   9  10
HETATM   10  P   UNL     1     -10.191  11.517  66.250  1.00  0.00    -0.248 P  
HETATM   11  O   UNL     1     -10.277  10.023  65.382  1.00  0.00    -0.289 OA 
HETATM   12  O   UNL     1      -9.057  10.873  67.073  1.00  0.00    -0.148 OA 
BRANCH  10  13
HETATM   13  O   UNL     1     -10.105  13.010  67.118  1.00  0.00    -0.239 OA 
HETATM   14  O   UNL     1     -11.360  13.800  65.061  1.00  0.00    -0.310 OA 
HETATM   15  P   UNL     1     -10.986  14.177  66.457  1.00  0.00    -0.321 P  
HETATM   16  O   UNL     1     -11.969  14.669  67.483  1.00  0.00    -0.375 OA 
HETATM   17  O   UNL     1      -9.880  15.346  66.411  1.00  0.00    -0.251 OA 
ENDBRANCH  10  13
ENDBRANCH   9  10
ENDBRANCH   8   9
ENDBRANCH   7   8
ENDBRANCH   3   7
BRANCH   6  18
HETATM   18  C   UNL     1      -9.663   7.283  72.571  1.00  0.00    -0.154 C  
BRANCH  18  19
HETATM   19  C   UNL     1      -9.778   5.972  71.856  1.00  0.00    -0.173 A  
HETATM   20  C   UNL     1      -9.391   5.864  70.538  1.00  0.00    -0.163 A  
HETATM   21  N   UNL     1      -9.307   4.703  69.874  1.00  0.00    -0.128 NA 
HETATM   22  C   UNL     1      -9.630   3.598  70.563  1.00  0.00    -0.186 A  
HETATM   23  N   UNL     1     -10.156   3.616  71.800  1.00  0.00    -0.139 NA 
HETATM   24  C   UNL     1      -9.351   2.277  69.918  1.00  0.00    -0.171 C  
HETATM   25  C   UNL     1     -10.263   4.802  72.405  1.00  0.00    -0.194 A  
HETATM   26  N   UNL     1     -10.959   4.784  73.618  1.00  0.00    -0.306 NA 
HETATM   27  H1  UNL     1     -11.317   3.919  74.024  1.00  0.00     0.000 HD 
HETATM   28  H2  UNL     1     -11.738   5.436  73.538  1.00  0.00     0.000 HD 
ENDBRANCH  18  19
ENDBRANCH   6  18
TORSDOF 7
ENDMDL
MODEL      150
REMARK 921   NORMALIZED FREE ENERGY PREDICTED BY IDOCK:   -4.76 KCAL/MOL
REMARK 922        TOTAL FREE ENERGY PREDICTED BY IDOCK:   -7.69 KCAL/MOL
REMARK 923 INTER-LIGAND FREE ENERGY PREDICTED BY IDOCK:   -6.96 KCAL/MOL
REMARK 924 INTRA-LIGAND FREE ENERGY PREDICTED BY IDOCK:   -0.73 KCAL/MOL
REMARK 927      BINDING AFFINITY PREDICTED BY RF-SCORE:    0.00 PKD
ROOT
HETATM    1  C   UNL     1     -12.463  12.594  64.994  1.00  0.00    -0.556 C  
HETATM    2  C   UNL     1     -11.176  12.481  65.729  1.00  0.00    -0.320 C  
HETATM    3  C   UNL     1     -10.081  11.686  65.395  1.00  0.00    -0.259 C  
HETATM    4  C   UNL     1      -9.779  13.015  67.469  1.00  0.00    -0.206 C  
HETATM    5  S   UNL     1      -8.909  11.819  66.671  1.00  0.00    -0.181 SA 
HETATM    6  N   UNL     1     -10.942  13.253  66.875  1.00  0.00    -0.280 NA 
ENDROOT
BRANCH   3   7
HETATM    7  C   UNL     1      -9.791  10.797  64.172  1.00  0.00    -0.384 C  
BRANCH   7   8
HETATM    8  C   UNL     1      -8.831   9.666  64.564  1.00  0.00    -0.223 C  
BRANCH   8   9
HETATM    9  O   UNL     1      -9.280   8.638  65.418  1.00  0.00    -0.154 OA 
BRANCH   9  10
HETATM   10  P   UNL     1      -8.097   7.476  65.726  1.00  0.00    -0.139 P  
HETATM   11  O   UNL     1      -6.909   8.580  65.125  1.00  0.00    -0.066 OA 
HETATM   12  O   UNL     1      -7.906   6.691  64.413  1.00  0.00    -0.108 OA 
BRANCH  10  13
HETATM   13  O   UNL     1      -9.286   6.372  66.326  1.00  0.00    -0.158 OA 
HETATM   14  O   UNL     1      -7.247   5.489  67.550  1.00  0.00    -0.072 OA 
HETATM   15  P   UNL     1      -8.739   5.438  67.511  1.00  0.00    -0.104 P  
HETATM   16  O   UNL     1      -9.615   5.641  68.718  1.00  0.00    -0.122 OA 
HETATM   17  O   UNL     1      -9.205   4.003  66.951  1.00  0.00    -0.141 OA 
ENDBRANCH  10  13
ENDBRANCH   9  10
ENDBRANCH   8   9
ENDBRANCH   7   8
ENDBRANCH   3   7
BRANCH   6  18
HETATM   18  C   UNL     1     -11.773  14.353  67.395  1.00  0.00    -0.397 C  
BRANCH  18  19
HETATM   19  C   UNL     1     -11.147  15.700  67.200  1.00  0.00    -0.218 A  
HETATM   20  C   UNL     1     -10.734  16.098  65.948  1.00  0.00    -0.255 A  
HETATM   21  N   UNL     1     -10.316  17.337  65.656  1.00  0.00    -0.619 NA 
HETATM   22  C   UNL     1     -10.309  18.218  66.668  1.00  0.00    -0.381 A  
HETATM   23  N   UNL     1     -10.554  17.887  67.947  1.00  0.00    -0.394 NA 
HETATM   24  C   UNL     1     -10.047  19.652  66.331  1.00  0.00    -0.573 C  
HETATM   25  C   UNL     1     -10.922  16.628  68.197  1.00  0.00    -0.327 A  
HETATM   26  N   UNL     1     -11.008  16.298  69.553  1.00  0.00    -0.325 NA 
HETATM   27  H1  UNL     1     -10.843  16.984  70.289  1.00  0.00     0.000 HD 
HETATM   28  H2  UNL     1     -10.387  15.507  69.719  1.00  0.00     0.000 HD 
ENDBRANCH  18  19
ENDBRANCH   6  18
TORSDOF 7
ENDMDL
MODEL      151
REMARK 921   NORMALIZED FREE ENERGY PREDICTED BY IDOCK:   -4.76 KCAL/MOL
REMARK 922        TOTAL FREE ENERGY PREDICTED BY IDOCK:   -7.69 KCAL/MOL
REMARK 923 INTER-LIGAND FREE ENERGY PREDICTED BY IDOCK:   -6.88 KCAL/MOL
REMARK 924 INTRA-LIGAND FREE ENERGY PREDICTED BY IDOCK:   -0.81 KCAL/MOL
REMARK 927      BINDING AFFINITY PREDICTED BY RF-SCORE:    0.00 PKD
ROOT
HETATM    1  C   UNL     1      -7.211   9.801  68.040  1.00  0.00    -0.080 C  
HETATM    2  C   UNL     1      -8.548  10.357  68.372  1.00  0.00    -0.128 C  
HETATM    3  C   UNL     1      -8.944  11.693  68.315  1.00  0.00    -0.185 C  
HETATM    4  C   UNL     1     -10.719  10.137  69.083  1.00  0.00    -0.226 C  
HETATM    5  S   UNL     1     -10.557  11.805  68.952  1.00  0.00    -0.138 SA 
HETATM    6  N   UNL     1      -9.595   9.510  68.759  1.00  0.00    -0.155 NA 
ENDROOT
BRANCH   3   7
HETATM    7  C   UNL     1      -8.224  12.958  67.812  1.00  0.00    -0.174 C  
BRANCH   7   8
HETATM    8  C   UNL     1      -9.249  14.065  67.529  1.00  0.00    -0.197 C  
BRANCH   8   9
HETATM    9  O   UNL     1      -9.397  15.126  68.446  1.00  0.00    -0.187 OA 
BRANCH   9  10
HETATM   10  P   UNL     1     -10.791  16.035  68.179  1.00  0.00    -0.330 P  
HETATM   11  O   UNL     1     -11.301  15.656  69.788  1.00  0.00    -0.275 OA 
HETATM   12  O   UNL     1     -11.871  15.045  67.697  1.00  0.00    -0.328 OA 
BRANCH  10  13
HETATM   13  O   UNL     1     -10.281  16.413  66.570  1.00  0.00    -0.283 OA 
HETATM   14  O   UNL     1     -10.865  18.745  67.377  1.00  0.00    -0.449 OA 
HETATM   15  P   UNL     1     -10.156  17.990  66.302  1.00  0.00    -0.284 P  
HETATM   16  O   UNL     1      -8.749  18.287  65.860  1.00  0.00    -0.500 OA 
HETATM   17  O   UNL     1     -11.003  18.092  64.937  1.00  0.00    -0.776 OA 
ENDBRANCH  10  13
ENDBRANCH   9  10
ENDBRANCH   8   9
ENDBRANCH   7   8
ENDBRANCH   3   7
BRANCH   6  18
HETATM   18  C   UNL     1      -9.611   8.037  68.720  1.00  0.00    -0.149 C  
BRANCH  18  19
HETATM   19  C   UNL     1      -9.787   7.420  70.073  1.00  0.00    -0.179 A  
HETATM   20  C   UNL     1      -8.740   7.400  70.968  1.00  0.00    -0.139 A  
HETATM   21  N   UNL     1      -8.854   7.017  72.247  1.00  0.00    -0.132 NA 
HETATM   22  C   UNL     1     -10.075   6.633  72.647  1.00  0.00    -0.174 A  
HETATM   23  N   UNL     1     -11.120   6.480  71.816  1.00  0.00    -0.246 NA 
HETATM   24  C   UNL     1     -10.280   6.399  74.111  1.00  0.00    -0.361 C  
HETATM   25  C   UNL     1     -10.945   6.831  70.538  1.00  0.00    -0.280 A  
HETATM   26  N   UNL     1     -12.006   6.503  69.688  1.00  0.00    -0.520 NA 
HETATM   27  H1  UNL     1     -12.862   6.068  70.032  1.00  0.00     0.000 HD 
HETATM   28  H2  UNL     1     -11.635   5.913  68.943  1.00  0.00     0.000 HD 
ENDBRANCH  18  19
ENDBRANCH   6  18
TORSDOF 7
ENDMDL
MODEL      152
REMARK 921   NORMALIZED FREE ENERGY PREDICTED BY IDOCK:   -4.75 KCAL/MOL
REMARK 922        TOTAL FREE ENERGY PREDICTED BY IDOCK:   -7.69 KCAL/MOL
REMARK 923 INTER-LIGAND FREE ENERGY PREDICTED BY IDOCK:   -6.91 KCAL/MOL
REMARK 924 INTRA-LIGAND FREE ENERGY PREDICTED BY IDOCK:   -0.78 KCAL/MOL
REMARK 927      BINDING AFFINITY PREDICTED BY RF-SCORE:    0.00 PKD
ROOT
HETATM    1  C   UNL     1     -12.625  10.069  71.345  1.00  0.00    -0.518 C  
HETATM    2  C   UNL     1     -11.337   9.997  70.607  1.00  0.00    -0.348 C  
HETATM    3  C   UNL     1     -11.014  10.633  69.409  1.00  0.00    -0.255 C  
HETATM    4  C   UNL     1      -9.192   9.227  70.337  1.00  0.00    -0.247 C  
HETATM    5  S   UNL     1      -9.440  10.087  68.915  1.00  0.00    -0.181 SA 
HETATM    6  N   UNL     1     -10.263   9.257  71.121  1.00  0.00    -0.311 NA 
ENDROOT
BRANCH   3   7
HETATM    7  C   UNL     1     -11.779  11.656  68.550  1.00  0.00    -0.378 C  
BRANCH   7   8
HETATM    8  C   UNL     1     -11.611  13.064  69.139  1.00  0.00    -0.316 C  
BRANCH   8   9
HETATM    9  O   UNL     1     -10.490  13.839  68.775  1.00  0.00    -0.240 OA 
BRANCH   9  10
HETATM   10  P   UNL     1     -10.908  15.369  68.203  1.00  0.00    -0.308 P  
HETATM   11  O   UNL     1      -9.866  16.060  69.398  1.00  0.00    -0.242 OA 
HETATM   12  O   UNL     1     -12.084  15.853  69.075  1.00  0.00    -0.328 OA 
BRANCH  10  13
HETATM   13  O   UNL     1     -11.951  14.678  67.009  1.00  0.00    -0.382 OA 
HETATM   14  O   UNL     1      -9.888  15.060  65.585  1.00  0.00    -0.329 OA 
HETATM   15  P   UNL     1     -11.201  14.349  65.629  1.00  0.00    -0.343 P  
HETATM   16  O   UNL     1     -11.370  12.884  65.334  1.00  0.00    -0.291 OA 
HETATM   17  O   UNL     1     -12.219  15.055  64.602  1.00  0.00    -0.380 OA 
ENDBRANCH  10  13
ENDBRANCH   9  10
ENDBRANCH   8   9
ENDBRANCH   7   8
ENDBRANCH   3   7
BRANCH   6  18
HETATM   18  C   UNL     1     -10.164   8.638  72.454  1.00  0.00    -0.249 C  
BRANCH  18  19
HETATM   19  C   UNL     1      -9.912   7.163  72.395  1.00  0.00    -0.190 A  
HETATM   20  C   UNL     1     -10.742   6.347  71.659  1.00  0.00    -0.232 A  
HETATM   21  N   UNL     1     -10.499   5.050  71.420  1.00  0.00    -0.181 NA 
HETATM   22  C   UNL     1      -9.373   4.548  71.948  1.00  0.00    -0.140 A  
HETATM   23  N   UNL     1      -8.581   5.223  72.798  1.00  0.00    -0.120 NA 
HETATM   24  C   UNL     1      -8.972   3.168  71.531  1.00  0.00    -0.151 C  
HETATM   25  C   UNL     1      -8.888   6.500  73.042  1.00  0.00    -0.128 A  
HETATM   26  N   UNL     1      -8.130   7.106  74.049  1.00  0.00    -0.118 NA 
HETATM   27  H1  UNL     1      -7.373   6.617  74.526  1.00  0.00     0.000 HD 
HETATM   28  H2  UNL     1      -8.777   7.448  74.760  1.00  0.00     0.000 HD 
ENDBRANCH  18  19
ENDBRANCH   6  18
TORSDOF 7
ENDMDL
MODEL      153
REMARK 921   NORMALIZED FREE ENERGY PREDICTED BY IDOCK:   -4.75 KCAL/MOL
REMARK 922        TOTAL FREE ENERGY PREDICTED BY IDOCK:   -7.68 KCAL/MOL
REMARK 923 INTER-LIGAND FREE ENERGY PREDICTED BY IDOCK:   -6.69 KCAL/MOL
REMARK 924 INTRA-LIGAND FREE ENERGY PREDICTED BY IDOCK:   -0.98 KCAL/MOL
REMARK 927      BINDING AFFINITY PREDICTED BY RF-SCORE:    0.00 PKD
ROOT
HETATM    1  C   UNL     1      -8.785  11.077  66.014  1.00  0.00    -0.192 C  
HETATM    2  C   UNL     1      -9.767  11.447  67.067  1.00  0.00    -0.190 C  
HETATM    3  C   UNL     1     -10.697  10.612  67.684  1.00  0.00    -0.267 C  
HETATM    4  C   UNL     1     -10.763  12.965  68.470  1.00  0.00    -0.254 C  
HETATM    5  S   UNL     1     -11.690  11.587  68.724  1.00  0.00    -0.335 SA 
HETATM    6  N   UNL     1      -9.804  12.752  67.578  1.00  0.00    -0.207 NA 
ENDROOT
BRANCH   3   7
HETATM    7  C   UNL     1     -10.939   9.095  67.586  1.00  0.00    -0.024 C  
BRANCH   7   8
HETATM    8  C   UNL     1     -10.118   8.364  68.656  1.00  0.00    -0.193 C  
BRANCH   8   9
HETATM    9  O   UNL     1     -10.734   7.983  69.866  1.00  0.00    -0.244 OA 
BRANCH   9  10
HETATM   10  P   UNL     1      -9.947   8.594  71.226  1.00  0.00    -0.301 P  
HETATM   11  O   UNL     1     -11.286   9.659  71.478  1.00  0.00    -0.372 OA 
HETATM   12  O   UNL     1      -9.161   9.834  70.754  1.00  0.00    -0.109 OA 
BRANCH  10  13
HETATM   13  O   UNL     1      -8.607   7.529  70.973  1.00  0.00    -0.130 OA 
HETATM   14  O   UNL     1      -7.936   8.512  73.212  1.00  0.00    -0.363 OA 
HETATM   15  P   UNL     1      -7.650   7.403  72.255  1.00  0.00    -0.094 P  
HETATM   16  O   UNL     1      -7.577   5.953  72.651  1.00  0.00    -0.095 OA 
HETATM   17  O   UNL     1      -6.229   7.667  71.547  1.00  0.00    -0.036 OA 
ENDBRANCH  10  13
ENDBRANCH   9  10
ENDBRANCH   8   9
ENDBRANCH   7   8
ENDBRANCH   3   7
BRANCH   6  18
HETATM   18  C   UNL     1      -8.838  13.836  67.327  1.00  0.00    -0.220 C  
BRANCH  18  19
HETATM   19  C   UNL     1      -9.494  15.117  66.913  1.00  0.00    -0.253 A  
HETATM   20  C   UNL     1      -9.626  16.151  67.813  1.00  0.00    -0.223 A  
HETATM   21  N   UNL     1     -10.049  17.380  67.486  1.00  0.00    -0.310 NA 
HETATM   22  C   UNL     1     -10.358  17.580  66.196  1.00  0.00    -0.329 A  
HETATM   23  N   UNL     1     -10.402  16.601  65.278  1.00  0.00    -0.636 NA 
HETATM   24  C   UNL     1     -10.634  18.986  65.764  1.00  0.00    -0.388 C  
HETATM   25  C   UNL     1     -10.014  15.381  65.662  1.00  0.00    -0.362 A  
HETATM   26  N   UNL     1     -10.229  14.371  64.719  1.00  0.00    -0.566 NA 
HETATM   27  H1  UNL     1     -10.614  14.566  63.794  1.00  0.00     0.000 HD 
HETATM   28  H2  UNL     1     -10.815  13.659  65.155  1.00  0.00     0.000 HD 
ENDBRANCH  18  19
ENDBRANCH   6  18
TORSDOF 7
ENDMDL
MODEL      154
REMARK 921   NORMALIZED FREE ENERGY PREDICTED BY IDOCK:   -4.73 KCAL/MOL
REMARK 922        TOTAL FREE ENERGY PREDICTED BY IDOCK:   -7.65 KCAL/MOL
REMARK 923 INTER-LIGAND FREE ENERGY PREDICTED BY IDOCK:   -6.70 KCAL/MOL
REMARK 924 INTRA-LIGAND FREE ENERGY PREDICTED BY IDOCK:   -0.95 KCAL/MOL
REMARK 927      BINDING AFFINITY PREDICTED BY RF-SCORE:    0.00 PKD
ROOT
HETATM    1  C   UNL     1      -8.340  12.553  66.868  1.00  0.00    -0.097 C  
HETATM    2  C   UNL     1      -9.763  12.740  66.483  1.00  0.00    -0.255 C  
HETATM    3  C   UNL     1     -10.540  11.899  65.686  1.00  0.00    -0.268 C  
HETATM    4  C   UNL     1     -11.731  13.921  66.494  1.00  0.00    -0.393 C  
HETATM    5  S   UNL     1     -12.078  12.666  65.431  1.00  0.00    -0.442 SA 
HETATM    6  N   UNL     1     -10.491  13.840  66.959  1.00  0.00    -0.272 NA 
ENDROOT
BRANCH   3   7
HETATM    7  C   UNL     1     -10.254  10.519  65.066  1.00  0.00    -0.365 C  
BRANCH   7   8
HETATM    8  C   UNL     1      -9.812   9.537  66.159  1.00  0.00    -0.272 C  
BRANCH   8   9
HETATM    9  O   UNL     1     -10.632   9.339  67.289  1.00  0.00    -0.264 OA 
BRANCH   9  10
HETATM   10  P   UNL     1      -9.917   8.354  68.455  1.00  0.00    -0.196 P  
HETATM   11  O   UNL     1     -10.840   7.024  67.844  1.00  0.00    -0.218 OA 
HETATM   12  O   UNL     1     -10.872   8.348  69.665  1.00  0.00    -0.224 OA 
BRANCH  10  13
HETATM   13  O   UNL     1      -8.995   9.683  69.067  1.00  0.00    -0.136 OA 
HETATM   14  O   UNL     1      -7.604   7.765  69.971  1.00  0.00    -0.082 OA 
HETATM   15  P   UNL     1      -7.597   9.236  69.716  1.00  0.00    -0.109 P  
HETATM   16  O   UNL     1      -6.488   9.956  68.998  1.00  0.00    -0.047 OA 
HETATM   17  O   UNL     1      -7.699  10.017  71.120  1.00  0.00     0.007 OA 
ENDBRANCH  10  13
ENDBRANCH   9  10
ENDBRANCH   8   9
ENDBRANCH   7   8
ENDBRANCH   3   7
BRANCH   6  18
HETATM   18  C   UNL     1     -10.071  14.809  67.986  1.00  0.00    -0.218 C  
BRANCH  18  19
HETATM   19  C   UNL     1     -10.080  16.223  67.493  1.00  0.00    -0.258 A  
HETATM   20  C   UNL     1     -10.721  17.205  68.215  1.00  0.00    -0.363 A  
HETATM   21  N   UNL     1     -10.642  18.513  67.934  1.00  0.00    -0.380 NA 
HETATM   22  C   UNL     1      -9.887  18.852  66.879  1.00  0.00    -0.329 A  
HETATM   23  N   UNL     1      -9.344  17.961  66.032  1.00  0.00    -0.527 NA 
HETATM   24  C   UNL     1      -9.612  20.308  66.666  1.00  0.00    -0.522 C  
HETATM   25  C   UNL     1      -9.488  16.666  66.327  1.00  0.00    -0.293 A  
HETATM   26  N   UNL     1      -9.047  15.784  65.336  1.00  0.00    -0.175 NA 
HETATM   27  H1  UNL     1      -8.609  16.111  64.475  1.00  0.00     0.000 HD 
HETATM   28  H2  UNL     1      -9.833  15.188  65.079  1.00  0.00     0.000 HD 
ENDBRANCH  18  19
ENDBRANCH   6  18
TORSDOF 7
ENDMDL
MODEL      155
REMARK 921   NORMALIZED FREE ENERGY PREDICTED BY IDOCK:   -4.73 KCAL/MOL
REMARK 922        TOTAL FREE ENERGY PREDICTED BY IDOCK:   -7.65 KCAL/MOL
REMARK 923 INTER-LIGAND FREE ENERGY PREDICTED BY IDOCK:   -6.73 KCAL/MOL
REMARK 924 INTRA-LIGAND FREE ENERGY PREDICTED BY IDOCK:   -0.92 KCAL/MOL
REMARK 927      BINDING AFFINITY PREDICTED BY RF-SCORE:    0.00 PKD
ROOT
HETATM    1  C   UNL     1      -8.244  13.216  67.270  1.00  0.00    -0.172 C  
HETATM    2  C   UNL     1      -9.582  13.546  67.826  1.00  0.00    -0.219 C  
HETATM    3  C   UNL     1      -9.876  14.475  68.823  1.00  0.00    -0.220 C  
HETATM    4  C   UNL     1     -11.856  13.264  67.946  1.00  0.00    -0.349 C  
HETATM    5  S   UNL     1     -11.569  14.350  69.195  1.00  0.00    -0.327 SA 
HETATM    6  N   UNL     1     -10.734  12.925  67.324  1.00  0.00    -0.243 NA 
ENDROOT
BRANCH   3   7
HETATM    7  C   UNL     1      -8.998  15.500  69.564  1.00  0.00    -0.244 C  
BRANCH   7   8
HETATM    8  C   UNL     1      -8.517  16.581  68.585  1.00  0.00    -0.243 C  
BRANCH   8   9
HETATM    9  O   UNL     1      -9.456  17.455  68.000  1.00  0.00    -0.266 OA 
BRANCH   9  10
HETATM   10  P   UNL     1      -8.992  17.989  66.470  1.00  0.00    -0.198 P  
HETATM   11  O   UNL     1      -7.388  18.216  67.076  1.00  0.00    -0.198 OA 
HETATM   12  O   UNL     1      -9.123  19.525  66.486  1.00  0.00    -0.330 OA 
BRANCH  10  13
HETATM   13  O   UNL     1     -10.596  17.762  65.864  1.00  0.00    -0.421 OA 
HETATM   14  O   UNL     1      -9.564  15.563  65.134  1.00  0.00    -0.224 OA 
HETATM   15  P   UNL     1     -10.863  16.274  65.326  1.00  0.00    -0.090 P  
HETATM   16  O   UNL     1     -12.029  15.698  66.083  1.00  0.00     0.441 OA 
HETATM   17  O   UNL     1     -11.492  16.625  63.886  1.00  0.00    -1.186 OA 
ENDBRANCH  10  13
ENDBRANCH   9  10
ENDBRANCH   8   9
ENDBRANCH   7   8
ENDBRANCH   3   7
BRANCH   6  18
HETATM   18  C   UNL     1     -10.834  12.061  66.135  1.00  0.00    -0.286 C  
BRANCH  18  19
HETATM   19  C   UNL     1     -10.320  10.675  66.375  1.00  0.00    -0.291 A  
HETATM   20  C   UNL     1     -10.856   9.901  67.381  1.00  0.00    -0.227 A  
HETATM   21  N   UNL     1     -10.572   8.604  67.561  1.00  0.00    -0.256 NA 
HETATM   22  C   UNL     1      -9.707   8.057  66.693  1.00  0.00    -0.243 A  
HETATM   23  N   UNL     1      -9.024   8.762  65.776  1.00  0.00    -0.196 NA 
HETATM   24  C   UNL     1      -9.529   6.572  66.740  1.00  0.00    -0.188 C  
HETATM   25  C   UNL     1      -9.308  10.063  65.663  1.00  0.00    -0.204 A  
HETATM   26  N   UNL     1      -8.462  10.779  64.810  1.00  0.00    -0.345 NA 
HETATM   27  H1  UNL     1      -7.714  10.326  64.284  1.00  0.00     0.000 HD 
HETATM   28  H2  UNL     1      -8.047  11.538  65.351  1.00  0.00     0.000 HD 
ENDBRANCH  18  19
ENDBRANCH   6  18
TORSDOF 7
ENDMDL
MODEL      156
REMARK 921   NORMALIZED FREE ENERGY PREDICTED BY IDOCK:   -4.73 KCAL/MOL
REMARK 922        TOTAL FREE ENERGY PREDICTED BY IDOCK:   -7.65 KCAL/MOL
REMARK 923 INTER-LIGAND FREE ENERGY PREDICTED BY IDOCK:   -6.94 KCAL/MOL
REMARK 924 INTRA-LIGAND FREE ENERGY PREDICTED BY IDOCK:   -0.71 KCAL/MOL
REMARK 927      BINDING AFFINITY PREDICTED BY RF-SCORE:    0.00 PKD
ROOT
HETATM    1  C   UNL     1      -8.396  11.208  66.790  1.00  0.00    -0.152 C  
HETATM    2  C   UNL     1      -9.731  11.664  67.257  1.00  0.00    -0.180 C  
HETATM    3  C   UNL     1     -10.244  12.960  67.209  1.00  0.00    -0.234 C  
HETATM    4  C   UNL     1     -11.782  11.293  68.218  1.00  0.00    -0.274 C  
HETATM    5  S   UNL     1     -11.780  12.962  68.023  1.00  0.00    -0.349 SA 
HETATM    6  N   UNL     1     -10.651  10.748  67.784  1.00  0.00    -0.211 NA 
ENDROOT
BRANCH   3   7
HETATM    7  C   UNL     1      -9.696  14.260  66.592  1.00  0.00    -0.297 C  
BRANCH   7   8
HETATM    8  C   UNL     1      -8.579  14.828  67.477  1.00  0.00    -0.187 C  
BRANCH   8   9
HETATM    9  O   UNL     1      -7.655  15.742  66.929  1.00  0.00    -0.223 OA 
BRANCH   9  10
HETATM   10  P   UNL     1      -7.261  16.993  67.988  1.00  0.00    -0.178 P  
HETATM   11  O   UNL     1      -5.694  16.286  68.181  1.00  0.00    -0.095 OA 
HETATM   12  O   UNL     1      -7.573  16.477  69.407  1.00  0.00    -0.215 OA 
BRANCH  10  13
HETATM   13  O   UNL     1      -8.828  17.699  67.795  1.00  0.00    -0.234 OA 
HETATM   14  O   UNL     1      -7.692  18.646  65.736  1.00  0.00    -0.491 OA 
HETATM   15  P   UNL     1      -9.022  18.430  66.380  1.00  0.00    -0.134 P  
HETATM   16  O   UNL     1     -10.199  17.808  65.681  1.00  0.00    -0.590 OA 
HETATM   17  O   UNL     1      -9.598  19.843  66.892  1.00  0.00    -0.345 OA 
ENDBRANCH  10  13
ENDBRANCH   9  10
ENDBRANCH   8   9
ENDBRANCH   7   8
ENDBRANCH   3   7
BRANCH   6  18
HETATM   18  C   UNL     1     -10.544   9.279  67.789  1.00  0.00    -0.246 C  
BRANCH  18  19
HETATM   19  C   UNL     1     -10.428   8.707  69.168  1.00  0.00    -0.223 A  
HETATM   20  C   UNL     1      -9.659   9.340  70.119  1.00  0.00    -0.220 A  
HETATM   21  N   UNL     1      -9.629   8.990  71.413  1.00  0.00    -0.290 NA 
HETATM   22  C   UNL     1     -10.403   7.954  71.768  1.00  0.00    -0.209 A  
HETATM   23  N   UNL     1     -11.071   7.186  70.891  1.00  0.00    -0.254 NA 
HETATM   24  C   UNL     1     -10.549   7.672  73.231  1.00  0.00    -0.411 C  
HETATM   25  C   UNL     1     -11.035   7.547  69.605  1.00  0.00    -0.153 A  
HETATM   26  N   UNL     1     -11.609   6.629  68.720  1.00  0.00    -0.546 NA 
HETATM   27  H1  UNL     1     -12.058   5.772  69.044  1.00  0.00     0.000 HD 
HETATM   28  H2  UNL     1     -10.897   6.369  68.038  1.00  0.00     0.000 HD 
ENDBRANCH  18  19
ENDBRANCH   6  18
TORSDOF 7
ENDMDL
MODEL      157
REMARK 921   NORMALIZED FREE ENERGY PREDICTED BY IDOCK:   -4.73 KCAL/MOL
REMARK 922        TOTAL FREE ENERGY PREDICTED BY IDOCK:   -7.65 KCAL/MOL
REMARK 923 INTER-LIGAND FREE ENERGY PREDICTED BY IDOCK:   -6.80 KCAL/MOL
REMARK 924 INTRA-LIGAND FREE ENERGY PREDICTED BY IDOCK:   -0.85 KCAL/MOL
REMARK 927      BINDING AFFINITY PREDICTED BY RF-SCORE:    0.00 PKD
ROOT
HETATM    1  C   UNL     1     -11.844  11.063  70.508  1.00  0.00    -0.464 C  
HETATM    2  C   UNL     1     -10.758  10.636  69.588  1.00  0.00    -0.244 C  
HETATM    3  C   UNL     1      -9.619   9.901  69.911  1.00  0.00    -0.227 C  
HETATM    4  C   UNL     1      -9.768  10.547  67.520  1.00  0.00    -0.166 C  
HETATM    5  S   UNL     1      -8.614   9.813  68.496  1.00  0.00    -0.122 SA 
HETATM    6  N   UNL     1     -10.827  10.933  68.220  1.00  0.00    -0.207 NA 
ENDROOT
BRANCH   3   7
HETATM    7  C   UNL     1      -9.172   9.218  71.217  1.00  0.00    -0.161 C  
BRANCH   7   8
HETATM    8  C   UNL     1      -9.401   7.704  71.121  1.00  0.00    -0.154 C  
BRANCH   8   9
HETATM    9  O   UNL     1     -10.645   7.216  70.672  1.00  0.00    -0.219 OA 
BRANCH   9  10
HETATM   10  P   UNL     1     -11.561   6.519  71.904  1.00  0.00    -0.327 P  
HETATM   11  O   UNL     1     -12.937   7.395  71.327  1.00  0.00    -0.351 OA 
HETATM   12  O   UNL     1     -11.532   7.512  73.083  1.00  0.00    -0.282 OA 
BRANCH  10  13
HETATM   13  O   UNL     1     -10.185   5.644  72.481  1.00  0.00    -0.182 OA 
HETATM   14  O   UNL     1     -12.028   4.246  73.519  1.00  0.00    -0.072 OA 
HETATM   15  P   UNL     1     -10.571   4.260  73.195  1.00  0.00    -0.210 P  
HETATM   16  O   UNL     1      -9.862   3.143  72.480  1.00  0.00    -0.132 OA 
HETATM   17  O   UNL     1      -9.728   4.424  74.557  1.00  0.00    -0.122 OA 
ENDBRANCH  10  13
ENDBRANCH   9  10
ENDBRANCH   8   9
ENDBRANCH   7   8
ENDBRANCH   3   7
BRANCH   6  18
HETATM   18  C   UNL     1     -11.974  11.498  67.487  1.00  0.00     0.086 C  
BRANCH  18  19
HETATM   19  C   UNL     1     -11.754  12.918  67.065  1.00  0.00    -0.447 A  
HETATM   20  C   UNL     1     -11.184  13.820  67.935  1.00  0.00    -0.274 A  
HETATM   21  N   UNL     1     -10.805  15.058  67.590  1.00  0.00    -0.283 NA 
HETATM   22  C   UNL     1     -11.012  15.410  66.312  1.00  0.00    -0.278 A  
HETATM   23  N   UNL     1     -11.691  14.656  65.431  1.00  0.00    -0.348 NA 
HETATM   24  C   UNL     1     -10.416  16.701  65.847  1.00  0.00    -0.324 C  
HETATM   25  C   UNL     1     -12.089  13.447  65.834  1.00  0.00    -0.439 A  
HETATM   26  N   UNL     1     -12.925  12.772  64.938  1.00  0.00    -0.853 NA 
HETATM   27  H1  UNL     1     -13.172  13.163  64.029  1.00  0.00     0.000 HD 
HETATM   28  H2  UNL     1     -13.792  12.553  65.428  1.00  0.00     0.000 HD 
ENDBRANCH  18  19
ENDBRANCH   6  18
TORSDOF 7
ENDMDL
MODEL      158
REMARK 921   NORMALIZED FREE ENERGY PREDICTED BY IDOCK:   -4.73 KCAL/MOL
REMARK 922        TOTAL FREE ENERGY PREDICTED BY IDOCK:   -7.65 KCAL/MOL
REMARK 923 INTER-LIGAND FREE ENERGY PREDICTED BY IDOCK:   -6.14 KCAL/MOL
REMARK 924 INTRA-LIGAND FREE ENERGY PREDICTED BY IDOCK:   -1.51 KCAL/MOL
REMARK 927      BINDING AFFINITY PREDICTED BY RF-SCORE:    0.00 PKD
ROOT
HETATM    1  C   UNL     1     -10.943   5.859  70.006  1.00  0.00    -0.430 C  
HETATM    2  C   UNL     1     -10.100   6.724  70.871  1.00  0.00    -0.190 C  
HETATM    3  C   UNL     1      -8.708   6.739  70.949  1.00  0.00    -0.142 C  
HETATM    4  C   UNL     1      -9.828   8.351  72.468  1.00  0.00    -0.289 C  
HETATM    5  S   UNL     1      -8.250   7.829  72.223  1.00  0.00    -0.129 SA 
HETATM    6  N   UNL     1     -10.688   7.685  71.705  1.00  0.00    -0.213 NA 
ENDROOT
BRANCH   3   7
HETATM    7  C   UNL     1      -7.626   6.001  70.140  1.00  0.00    -0.095 C  
BRANCH   7   8
HETATM    8  C   UNL     1      -7.582   6.547  68.706  1.00  0.00    -0.100 C  
BRANCH   8   9
HETATM    9  O   UNL     1      -8.365   7.670  68.366  1.00  0.00    -0.124 OA 
BRANCH   9  10
HETATM   10  P   UNL     1      -8.827   7.681  66.744  1.00  0.00    -0.149 P  
HETATM   11  O   UNL     1      -8.751   9.409  66.773  1.00  0.00    -0.126 OA 
HETATM   12  O   UNL     1     -10.361   7.835  66.729  1.00  0.00    -0.301 OA 
BRANCH  10  13
HETATM   13  O   UNL     1      -8.902   5.953  66.715  1.00  0.00    -0.116 OA 
HETATM   14  O   UNL     1      -8.306   6.381  64.288  1.00  0.00    -0.057 OA 
HETATM   15  P   UNL     1      -8.377   5.321  65.338  1.00  0.00    -0.146 P  
HETATM   16  O   UNL     1      -7.250   4.375  65.648  1.00  0.00    -0.069 OA 
HETATM   17  O   UNL     1      -9.609   4.337  65.014  1.00  0.00    -0.161 OA 
ENDBRANCH  10  13
ENDBRANCH   9  10
ENDBRANCH   8   9
ENDBRANCH   7   8
ENDBRANCH   3   7
BRANCH   6  18
HETATM   18  C   UNL     1     -12.100   8.103  71.727  1.00  0.00    -0.315 C  
BRANCH  18  19
HETATM   19  C   UNL     1     -12.292   9.536  71.337  1.00  0.00    -0.451 A  
HETATM   20  C   UNL     1     -13.087  10.362  72.100  1.00  0.00    -0.324 A  
HETATM   21  N   UNL     1     -13.184  11.686  71.918  1.00  0.00    -0.454 NA 
HETATM   22  C   UNL     1     -12.451  12.206  70.921  1.00  0.00    -0.279 A  
HETATM   23  N   UNL     1     -11.763  11.465  70.036  1.00  0.00    -0.322 NA 
HETATM   24  C   UNL     1     -12.378  13.697  70.824  1.00  0.00    -0.446 C  
HETATM   25  C   UNL     1     -11.733  10.144  70.231  1.00  0.00    -0.282 A  
HETATM   26  N   UNL     1     -11.142   9.410  69.198  1.00  0.00    -0.433 NA 
HETATM   27  H1  UNL     1     -10.729   9.860  68.381  1.00  0.00     0.000 HD 
HETATM   28  H2  UNL     1     -11.829   8.733  68.866  1.00  0.00     0.000 HD 
ENDBRANCH  18  19
ENDBRANCH   6  18
TORSDOF 7
ENDMDL
MODEL      159
REMARK 921   NORMALIZED FREE ENERGY PREDICTED BY IDOCK:   -4.72 KCAL/MOL
REMARK 922        TOTAL FREE ENERGY PREDICTED BY IDOCK:   -7.64 KCAL/MOL
REMARK 923 INTER-LIGAND FREE ENERGY PREDICTED BY IDOCK:   -6.54 KCAL/MOL
REMARK 924 INTRA-LIGAND FREE ENERGY PREDICTED BY IDOCK:   -1.10 KCAL/MOL
REMARK 927      BINDING AFFINITY PREDICTED BY RF-SCORE:    0.00 PKD
ROOT
HETATM    1  C   UNL     1     -10.750  14.945  65.787  1.00  0.00    -0.338 C  
HETATM    2  C   UNL     1     -11.010  15.108  67.241  1.00  0.00    -0.327 C  
HETATM    3  C   UNL     1     -10.969  16.290  67.979  1.00  0.00    -0.328 C  
HETATM    4  C   UNL     1     -11.527  14.276  69.317  1.00  0.00    -0.289 C  
HETATM    5  S   UNL     1     -11.203  15.890  69.653  1.00  0.00    -0.354 SA 
HETATM    6  N   UNL     1     -11.380  14.006  68.026  1.00  0.00    -0.278 NA 
ENDROOT
BRANCH   3   7
HETATM    7  C   UNL     1     -10.770  17.757  67.557  1.00  0.00    -0.315 C  
BRANCH   7   8
HETATM    8  C   UNL     1      -9.277  18.043  67.349  1.00  0.00    -0.253 C  
BRANCH   8   9
HETATM    9  O   UNL     1      -8.378  17.859  68.420  1.00  0.00    -0.288 OA 
BRANCH   9  10
HETATM   10  P   UNL     1      -6.944  17.106  67.952  1.00  0.00    -0.173 P  
HETATM   11  O   UNL     1      -6.298  18.662  67.560  1.00  0.00    -0.191 OA 
HETATM   12  O   UNL     1      -7.054  16.865  66.434  1.00  0.00    -0.242 OA 
BRANCH  10  13
HETATM   13  O   UNL     1      -7.590  15.550  68.345  1.00  0.00    -0.112 OA 
HETATM   14  O   UNL     1      -5.160  14.913  67.995  1.00  0.00    -0.110 OA 
HETATM   15  P   UNL     1      -6.459  14.432  68.554  1.00  0.00    -0.118 P  
HETATM   16  O   UNL     1      -6.612  13.853  69.934  1.00  0.00    -0.111 OA 
HETATM   17  O   UNL     1      -7.051  13.279  67.600  1.00  0.00    -0.133 OA 
ENDBRANCH  10  13
ENDBRANCH   9  10
ENDBRANCH   8   9
ENDBRANCH   7   8
ENDBRANCH   3   7
BRANCH   6  18
HETATM   18  C   UNL     1     -11.733  12.656  67.556  1.00  0.00    -0.368 C  
BRANCH  18  19
HETATM   19  C   UNL     1     -10.989  11.574  68.276  1.00  0.00    -0.272 A  
HETATM   20  C   UNL     1      -9.675  11.309  67.962  1.00  0.00    -0.179 A  
HETATM   21  N   UNL     1      -8.890  10.477  68.661  1.00  0.00    -0.139 NA 
HETATM   22  C   UNL     1      -9.452   9.879  69.722  1.00  0.00    -0.226 A  
HETATM   23  N   UNL     1     -10.760   9.960  70.020  1.00  0.00    -0.270 NA 
HETATM   24  C   UNL     1      -8.552   9.110  70.637  1.00  0.00    -0.266 C  
HETATM   25  C   UNL     1     -11.513  10.767  69.267  1.00  0.00    -0.298 A  
HETATM   26  N   UNL     1     -12.887  10.693  69.516  1.00  0.00    -0.560 NA 
HETATM   27  H1  UNL     1     -13.273  10.097  70.248  1.00  0.00     0.000 HD 
HETATM   28  H2  UNL     1     -13.348  10.448  68.639  1.00  0.00     0.000 HD 
ENDBRANCH  18  19
ENDBRANCH   6  18
TORSDOF 7
ENDMDL
MODEL      160
REMARK 921   NORMALIZED FREE ENERGY PREDICTED BY IDOCK:   -4.70 KCAL/MOL
REMARK 922        TOTAL FREE ENERGY PREDICTED BY IDOCK:   -7.61 KCAL/MOL
REMARK 923 INTER-LIGAND FREE ENERGY PREDICTED BY IDOCK:   -6.21 KCAL/MOL
REMARK 924 INTRA-LIGAND FREE ENERGY PREDICTED BY IDOCK:   -1.40 KCAL/MOL
REMARK 927      BINDING AFFINITY PREDICTED BY RF-SCORE:    0.00 PKD
ROOT
HETATM    1  C   UNL     1     -10.415   7.941  68.908  1.00  0.00    -0.205 C  
HETATM    2  C   UNL     1     -11.074   9.203  69.335  1.00  0.00    -0.008 C  
HETATM    3  C   UNL     1     -11.629   9.484  70.582  1.00  0.00    -0.283 C  
HETATM    4  C   UNL     1     -11.818  11.338  68.944  1.00  0.00    -0.345 C  
HETATM    5  S   UNL     1     -12.397  11.040  70.493  1.00  0.00    -0.377 SA 
HETATM    6  N   UNL     1     -11.155  10.295  68.460  1.00  0.00    -0.253 NA 
ENDROOT
BRANCH   3   7
HETATM    7  C   UNL     1     -11.651   8.689  71.900  1.00  0.00    -0.420 C  
BRANCH   7   8
HETATM    8  C   UNL     1     -10.232   8.592  72.476  1.00  0.00    -0.253 C  
BRANCH   8   9
HETATM    9  O   UNL     1      -9.415   7.495  72.131  1.00  0.00    -0.143 OA 
BRANCH   9  10
HETATM   10  P   UNL     1      -7.769   7.841  72.240  1.00  0.00    -0.116 P  
HETATM   11  O   UNL     1      -7.571   6.417  73.202  1.00  0.00    -0.094 OA 
HETATM   12  O   UNL     1      -7.578   8.643  73.543  1.00  0.00    -0.376 OA 
BRANCH  10  13
HETATM   13  O   UNL     1      -7.967   9.266  71.279  1.00  0.00    -0.322 OA 
HETATM   14  O   UNL     1      -5.529   8.771  70.787  1.00  0.00    -0.027 OA 
HETATM   15  P   UNL     1      -6.707   9.570  70.334  1.00  0.00    -0.119 P  
HETATM   16  O   UNL     1      -7.184   9.623  68.908  1.00  0.00    -0.069 OA 
HETATM   17  O   UNL     1      -6.470  11.119  70.704  1.00  0.00    -0.309 OA 
ENDBRANCH  10  13
ENDBRANCH   9  10
ENDBRANCH   8   9
ENDBRANCH   7   8
ENDBRANCH   3   7
BRANCH   6  18
HETATM   18  C   UNL     1     -10.494  10.440  67.152  1.00  0.00    -0.256 C  
BRANCH  18  19
HETATM   19  C   UNL     1     -10.176  11.864  66.813  1.00  0.00    -0.232 A  
HETATM   20  C   UNL     1     -10.678  12.432  65.663  1.00  0.00    -0.264 A  
HETATM   21  N   UNL     1     -10.580  13.735  65.366  1.00  0.00    -0.307 NA 
HETATM   22  C   UNL     1      -9.945  14.504  66.263  1.00  0.00    -0.305 A  
HETATM   23  N   UNL     1      -9.298  14.021  67.337  1.00  0.00    -0.212 NA 
HETATM   24  C   UNL     1      -9.999  15.986  66.061  1.00  0.00    -0.365 C  
HETATM   25  C   UNL     1      -9.386  12.708  67.567  1.00  0.00    -0.188 A  
HETATM   26  N   UNL     1      -8.568  12.235  68.599  1.00  0.00    -0.356 NA 
HETATM   27  H1  UNL     1      -7.984  12.859  69.156  1.00  0.00     0.000 HD 
HETATM   28  H2  UNL     1      -7.966  11.511  68.209  1.00  0.00     0.000 HD 
ENDBRANCH  18  19
ENDBRANCH   6  18
TORSDOF 7
ENDMDL
MODEL      161
REMARK 921   NORMALIZED FREE ENERGY PREDICTED BY IDOCK:   -4.70 KCAL/MOL
REMARK 922        TOTAL FREE ENERGY PREDICTED BY IDOCK:   -7.61 KCAL/MOL
REMARK 923 INTER-LIGAND FREE ENERGY PREDICTED BY IDOCK:   -6.74 KCAL/MOL
REMARK 924 INTRA-LIGAND FREE ENERGY PREDICTED BY IDOCK:   -0.87 KCAL/MOL
REMARK 927      BINDING AFFINITY PREDICTED BY RF-SCORE:    0.00 PKD
ROOT
HETATM    1  C   UNL     1      -8.061  12.608  66.929  1.00  0.00    -0.015 C  
HETATM    2  C   UNL     1      -9.539  12.504  67.048  1.00  0.00    -0.216 C  
HETATM    3  C   UNL     1     -10.260  11.837  68.038  1.00  0.00    -0.193 C  
HETATM    4  C   UNL     1     -11.671  12.927  66.311  1.00  0.00    -0.399 C  
HETATM    5  S   UNL     1     -11.944  11.903  67.615  1.00  0.00     0.121 SA 
HETATM    6  N   UNL     1     -10.375  13.148  66.126  1.00  0.00    -0.278 NA 
ENDROOT
BRANCH   3   7
HETATM    7  C   UNL     1      -9.817  11.125  69.329  1.00  0.00    -0.000 C  
BRANCH   7   8
HETATM    8  C   UNL     1      -9.382   9.688  69.010  1.00  0.00    -0.159 C  
BRANCH   8   9
HETATM    9  O   UNL     1     -10.360   8.716  68.716  1.00  0.00    -0.208 OA 
BRANCH   9  10
HETATM   10  P   UNL     1      -9.703   7.191  68.424  1.00  0.00    -0.148 P  
HETATM   11  O   UNL     1     -10.943   6.507  69.418  1.00  0.00    -0.275 OA 
HETATM   12  O   UNL     1      -8.733   6.904  69.587  1.00  0.00    -0.139 OA 
BRANCH  10  13
HETATM   13  O   UNL     1      -8.464   7.874  67.430  1.00  0.00    -0.121 OA 
HETATM   14  O   UNL     1      -9.208   5.980  65.917  1.00  0.00    -0.146 OA 
HETATM   15  P   UNL     1      -8.422   7.249  65.952  1.00  0.00    -0.121 P  
HETATM   16  O   UNL     1      -8.592   8.366  64.959  1.00  0.00    -0.169 OA 
HETATM   17  O   UNL     1      -6.853   6.903  65.859  1.00  0.00    -0.054 OA 
ENDBRANCH  10  13
ENDBRANCH   9  10
ENDBRANCH   8   9
ENDBRANCH   7   8
ENDBRANCH   3   7
BRANCH   6  18
HETATM   18  C   UNL     1      -9.978  14.113  65.086  1.00  0.00    -0.229 C  
BRANCH  18  19
HETATM   19  C   UNL     1     -10.196  15.537  65.497  1.00  0.00    -0.415 A  
HETATM   20  C   UNL     1      -9.610  16.023  66.645  1.00  0.00    -0.239 A  
HETATM   21  N   UNL     1      -9.618  17.316  67.000  1.00  0.00    -0.254 NA 
HETATM   22  C   UNL     1     -10.245  18.159  66.166  1.00  0.00    -0.367 A  
HETATM   23  N   UNL     1     -10.966  17.761  65.105  1.00  0.00    -0.609 NA 
HETATM   24  C   UNL     1     -10.094  19.625  66.426  1.00  0.00    -0.573 C  
HETATM   25  C   UNL     1     -10.967  16.456  64.816  1.00  0.00    -0.231 A  
HETATM   26  N   UNL     1     -11.856  16.077  63.806  1.00  0.00    -1.306 NA 
HETATM   27  H1  UNL     1     -12.426  16.757  63.302  1.00  0.00     0.000 HD 
HETATM   28  H2  UNL     1     -12.483  15.372  64.193  1.00  0.00     0.000 HD 
ENDBRANCH  18  19
ENDBRANCH   6  18
TORSDOF 7
ENDMDL
MODEL      162
REMARK 921   NORMALIZED FREE ENERGY PREDICTED BY IDOCK:   -4.70 KCAL/MOL
REMARK 922        TOTAL FREE ENERGY PREDICTED BY IDOCK:   -7.61 KCAL/MOL
REMARK 923 INTER-LIGAND FREE ENERGY PREDICTED BY IDOCK:   -6.66 KCAL/MOL
REMARK 924 INTRA-LIGAND FREE ENERGY PREDICTED BY IDOCK:   -0.95 KCAL/MOL
REMARK 927      BINDING AFFINITY PREDICTED BY RF-SCORE:    0.00 PKD
ROOT
HETATM    1  C   UNL     1     -11.760  13.127  69.379  1.00  0.00    -0.386 C  
HETATM    2  C   UNL     1     -10.409  12.990  68.776  1.00  0.00    -0.129 C  
HETATM    3  C   UNL     1      -9.488  14.007  68.529  1.00  0.00    -0.191 C  
HETATM    4  C   UNL     1      -8.719  11.751  67.841  1.00  0.00    -0.164 C  
HETATM    5  S   UNL     1      -8.139  13.319  67.677  1.00  0.00    -0.189 SA 
HETATM    6  N   UNL     1      -9.913  11.728  68.421  1.00  0.00    -0.200 NA 
ENDROOT
BRANCH   3   7
HETATM    7  C   UNL     1      -9.497  15.507  68.876  1.00  0.00    -0.223 C  
BRANCH   7   8
HETATM    8  C   UNL     1     -10.095  16.310  67.713  1.00  0.00    -0.252 C  
BRANCH   8   9
HETATM    9  O   UNL     1     -11.012  15.688  66.840  1.00  0.00    -0.315 OA 
BRANCH   9  10
HETATM   10  P   UNL     1     -10.605  15.880  65.215  1.00  0.00    -0.281 P  
HETATM   11  O   UNL     1      -9.108  16.590  65.712  1.00  0.00    -0.487 OA 
HETATM   12  O   UNL     1     -11.049  17.302  64.819  1.00  0.00    -0.954 OA 
BRANCH  10  13
HETATM   13  O   UNL     1     -12.102  15.169  64.719  1.00  0.00    -0.309 OA 
HETATM   14  O   UNL     1     -10.514  13.323  64.011  1.00  0.00    -0.374 OA 
HETATM   15  P   UNL     1     -11.952  13.640  64.255  1.00  0.00    -0.397 P  
HETATM   16  O   UNL     1     -12.863  12.796  65.104  1.00  0.00    -0.726 OA 
HETATM   17  O   UNL     1     -12.725  13.717  62.845  1.00  0.00    -0.558 OA 
ENDBRANCH  10  13
ENDBRANCH   9  10
ENDBRANCH   8   9
ENDBRANCH   7   8
ENDBRANCH   3   7
BRANCH   6  18
HETATM   18  C   UNL     1     -10.507  10.417  68.732  1.00  0.00    -0.199 C  
BRANCH  18  19
HETATM   19  C   UNL     1     -10.062   9.337  67.795  1.00  0.00    -0.253 A  
HETATM   20  C   UNL     1      -9.400   8.229  68.277  1.00  0.00    -0.134 A  
HETATM   21  N   UNL     1      -9.112   7.148  67.538  1.00  0.00    -0.123 NA 
HETATM   22  C   UNL     1      -9.503   7.182  66.255  1.00  0.00    -0.067 A  
HETATM   23  N   UNL     1     -10.020   8.269  65.661  1.00  0.00     0.488 NA 
HETATM   24  C   UNL     1      -9.381   5.917  65.465  1.00  0.00     0.123 C  
HETATM   25  C   UNL     1     -10.248   9.340  66.427  1.00  0.00    -0.228 A  
HETATM   26  N   UNL     1     -10.635  10.490  65.732  1.00  0.00    -0.127 NA 
HETATM   27  H1  UNL     1     -10.773  10.491  64.721  1.00  0.00     0.000 HD 
HETATM   28  H2  UNL     1      -9.967  11.227  65.956  1.00  0.00     0.000 HD 
ENDBRANCH  18  19
ENDBRANCH   6  18
TORSDOF 7
ENDMDL
MODEL      163
REMARK 921   NORMALIZED FREE ENERGY PREDICTED BY IDOCK:   -4.70 KCAL/MOL
REMARK 922        TOTAL FREE ENERGY PREDICTED BY IDOCK:   -7.61 KCAL/MOL
REMARK 923 INTER-LIGAND FREE ENERGY PREDICTED BY IDOCK:   -6.74 KCAL/MOL
REMARK 924 INTRA-LIGAND FREE ENERGY PREDICTED BY IDOCK:   -0.86 KCAL/MOL
REMARK 927      BINDING AFFINITY PREDICTED BY RF-SCORE:    0.00 PKD
ROOT
HETATM    1  C   UNL     1      -9.169   9.648  64.743  1.00  0.00    -0.298 C  
HETATM    2  C   UNL     1      -9.007  10.293  66.072  1.00  0.00    -0.152 C  
HETATM    3  C   UNL     1      -9.348  11.598  66.424  1.00  0.00    -0.213 C  
HETATM    4  C   UNL     1      -8.346  10.276  68.269  1.00  0.00    -0.116 C  
HETATM    5  S   UNL     1      -8.808  11.876  68.052  1.00  0.00    -0.183 SA 
HETATM    6  N   UNL     1      -8.494   9.568  67.156  1.00  0.00    -0.130 NA 
ENDROOT
BRANCH   3   7
HETATM    7  C   UNL     1     -10.071  12.715  65.650  1.00  0.00    -0.285 C  
BRANCH   7   8
HETATM    8  C   UNL     1      -9.886  14.056  66.373  1.00  0.00    -0.296 C  
BRANCH   8   9
HETATM    9  O   UNL     1     -10.983  14.647  67.034  1.00  0.00    -0.302 OA 
BRANCH   9  10
HETATM   10  P   UNL     1     -10.526  15.865  68.105  1.00  0.00    -0.291 P  
HETATM   11  O   UNL     1     -10.449  14.680  69.362  1.00  0.00    -0.227 OA 
HETATM   12  O   UNL     1     -11.821  16.365  68.775  1.00  0.00    -0.201 OA 
BRANCH  10  13
HETATM   13  O   UNL     1     -10.603  17.050  66.848  1.00  0.00    -0.295 OA 
HETATM   14  O   UNL     1      -9.328  18.380  68.590  1.00  0.00    -0.324 OA 
HETATM   15  P   UNL     1      -9.707  18.347  67.146  1.00  0.00    -0.330 P  
HETATM   16  O   UNL     1      -8.725  18.516  66.019  1.00  0.00    -0.497 OA 
HETATM   17  O   UNL     1     -10.801  19.493  66.860  1.00  0.00    -0.476 OA 
ENDBRANCH  10  13
ENDBRANCH   9  10
ENDBRANCH   8   9
ENDBRANCH   7   8
ENDBRANCH   3   7
BRANCH   6  18
HETATM   18  C   UNL     1      -8.233   8.119  67.216  1.00  0.00    -0.121 C  
BRANCH  18  19
HETATM   19  C   UNL     1      -9.041   7.423  68.268  1.00  0.00    -0.128 A  
HETATM   20  C   UNL     1      -8.433   6.951  69.410  1.00  0.00    -0.133 A  
HETATM   21  N   UNL     1      -9.099   6.465  70.467  1.00  0.00    -0.154 NA 
HETATM   22  C   UNL     1     -10.437   6.448  70.372  1.00  0.00    -0.218 A  
HETATM   23  N   UNL     1     -11.110   6.748  69.248  1.00  0.00    -0.255 NA 
HETATM   24  C   UNL     1     -11.212   6.106  71.606  1.00  0.00    -0.342 C  
HETATM   25  C   UNL     1     -10.399   7.185  68.205  1.00  0.00    -0.196 A  
HETATM   26  N   UNL     1     -11.125   7.330  67.018  1.00  0.00    -0.576 NA 
HETATM   27  H1  UNL     1     -12.129   7.155  66.971  1.00  0.00     0.000 HD 
HETATM   28  H2  UNL     1     -10.675   6.753  66.307  1.00  0.00     0.000 HD 
ENDBRANCH  18  19
ENDBRANCH   6  18
TORSDOF 7
ENDMDL
MODEL      164
REMARK 921   NORMALIZED FREE ENERGY PREDICTED BY IDOCK:   -4.68 KCAL/MOL
REMARK 922        TOTAL FREE ENERGY PREDICTED BY IDOCK:   -7.58 KCAL/MOL
REMARK 923 INTER-LIGAND FREE ENERGY PREDICTED BY IDOCK:   -6.37 KCAL/MOL
REMARK 924 INTRA-LIGAND FREE ENERGY PREDICTED BY IDOCK:   -1.20 KCAL/MOL
REMARK 927      BINDING AFFINITY PREDICTED BY RF-SCORE:    0.00 PKD
ROOT
HETATM    1  C   UNL     1     -10.094  15.113  65.565  1.00  0.00    -0.402 C  
HETATM    2  C   UNL     1      -8.902  14.776  66.386  1.00  0.00    -0.117 C  
HETATM    3  C   UNL     1      -8.570  13.531  66.920  1.00  0.00    -0.099 C  
HETATM    4  C   UNL     1      -6.952  15.334  67.460  1.00  0.00    -0.196 C  
HETATM    5  S   UNL     1      -7.161  13.730  67.916  1.00  0.00    -0.176 SA 
HETATM    6  N   UNL     1      -7.935  15.750  66.671  1.00  0.00    -0.235 NA 
ENDROOT
BRANCH   3   7
HETATM    7  C   UNL     1      -9.213  12.141  66.762  1.00  0.00    -0.207 C  
BRANCH   7   8
HETATM    8  C   UNL     1      -9.977  11.770  68.040  1.00  0.00    -0.188 C  
BRANCH   8   9
HETATM    9  O   UNL     1     -10.415  12.791  68.909  1.00  0.00    -0.187 OA 
BRANCH   9  10
HETATM   10  P   UNL     1     -12.081  13.042  68.841  1.00  0.00     0.079 P  
HETATM   11  O   UNL     1     -12.248  11.482  68.113  1.00  0.00    -0.576 OA 
HETATM   12  O   UNL     1     -12.377  13.628  67.446  1.00  0.00    -0.297 OA 
BRANCH  10  13
HETATM   13  O   UNL     1     -11.913  14.602  69.569  1.00  0.00    -0.297 OA 
HETATM   14  O   UNL     1     -13.146  13.406  71.434  1.00  0.00    -0.340 OA 
HETATM   15  P   UNL     1     -12.353  14.629  71.111  1.00  0.00    -0.388 P  
HETATM   16  O   UNL     1     -11.185  15.110  71.929  1.00  0.00    -0.397 OA 
HETATM   17  O   UNL     1     -13.335  15.904  71.081  1.00  0.00    -0.516 OA 
ENDBRANCH  10  13
ENDBRANCH   9  10
ENDBRANCH   8   9
ENDBRANCH   7   8
ENDBRANCH   3   7
BRANCH   6  18
HETATM   18  C   UNL     1      -7.838  17.104  66.098  1.00  0.00    -0.268 C  
BRANCH  18  19
HETATM   19  C   UNL     1      -8.436  18.155  66.982  1.00  0.00    -0.254 A  
HETATM   20  C   UNL     1      -9.760  18.508  66.842  1.00  0.00    -0.322 A  
HETATM   21  N   UNL     1     -10.414  19.315  67.689  1.00  0.00    -0.432 NA 
HETATM   22  C   UNL     1      -9.706  19.793  68.723  1.00  0.00    -0.340 A  
HETATM   23  N   UNL     1      -8.381  19.624  68.862  1.00  0.00    -0.277 NA 
HETATM   24  C   UNL     1     -10.456  20.524  69.792  1.00  0.00     0.534 C  
HETATM   25  C   UNL     1      -7.762  18.849  67.967  1.00  0.00    -0.271 A  
HETATM   26  N   UNL     1      -6.367  18.836  68.063  1.00  0.00    -0.207 NA 
HETATM   27  H1  UNL     1      -5.870  19.348  68.792  1.00  0.00     0.000 HD 
HETATM   28  H2  UNL     1      -5.992  19.132  67.163  1.00  0.00     0.000 HD 
ENDBRANCH  18  19
ENDBRANCH   6  18
TORSDOF 7
ENDMDL
MODEL      165
REMARK 921   NORMALIZED FREE ENERGY PREDICTED BY IDOCK:   -4.68 KCAL/MOL
REMARK 922        TOTAL FREE ENERGY PREDICTED BY IDOCK:   -7.58 KCAL/MOL
REMARK 923 INTER-LIGAND FREE ENERGY PREDICTED BY IDOCK:   -6.52 KCAL/MOL
REMARK 924 INTRA-LIGAND FREE ENERGY PREDICTED BY IDOCK:   -1.05 KCAL/MOL
REMARK 927      BINDING AFFINITY PREDICTED BY RF-SCORE:    0.00 PKD
ROOT
HETATM    1  C   UNL     1      -9.784   8.902  68.622  1.00  0.00    -0.169 C  
HETATM    2  C   UNL     1     -10.771   9.663  69.431  1.00  0.00    -0.228 C  
HETATM    3  C   UNL     1     -11.047   9.508  70.789  1.00  0.00    -0.323 C  
HETATM    4  C   UNL     1     -12.408  11.253  69.667  1.00  0.00    -0.194 C  
HETATM    5  S   UNL     1     -12.386  10.541  71.188  1.00  0.00    -0.419 SA 
HETATM    6  N   UNL     1     -11.523  10.694  68.851  1.00  0.00    -0.271 NA 
ENDROOT
BRANCH   3   7
HETATM    7  C   UNL     1     -10.393   8.638  71.878  1.00  0.00    -0.405 C  
BRANCH   7   8
HETATM    8  C   UNL     1     -11.138   7.303  71.998  1.00  0.00    -0.244 C  
BRANCH   8   9
HETATM    9  O   UNL     1     -11.197   6.437  70.886  1.00  0.00    -0.290 OA 
BRANCH   9  10
HETATM   10  P   UNL     1     -10.057   5.197  70.958  1.00  0.00    -0.213 P  
HETATM   11  O   UNL     1     -10.713   4.733  72.490  1.00  0.00    -0.209 OA 
HETATM   12  O   UNL     1      -8.853   5.757  71.741  1.00  0.00    -0.135 OA 
BRANCH  10  13
HETATM   13  O   UNL     1      -9.402   5.661  69.427  1.00  0.00    -0.122 OA 
HETATM   14  O   UNL     1      -9.482   3.148  69.097  1.00  0.00    -0.161 OA 
HETATM   15  P   UNL     1      -9.323   4.448  68.379  1.00  0.00    -0.151 P  
HETATM   16  O   UNL     1     -10.108   4.827  67.153  1.00  0.00    -0.194 OA 
HETATM   17  O   UNL     1      -7.793   4.608  67.907  1.00  0.00    -0.081 OA 
ENDBRANCH  10  13
ENDBRANCH   9  10
ENDBRANCH   8   9
ENDBRANCH   7   8
ENDBRANCH   3   7
BRANCH   6  18
HETATM   18  C   UNL     1     -11.347  11.281  67.511  1.00  0.00    -0.288 C  
BRANCH  18  19
HETATM   19  C   UNL     1     -11.035  12.745  67.552  1.00  0.00    -0.280 A  
HETATM   20  C   UNL     1     -11.894  13.653  66.973  1.00  0.00    -0.408 A  
HETATM   21  N   UNL     1     -11.778  14.982  67.103  1.00  0.00    -0.281 NA 
HETATM   22  C   UNL     1     -10.750  15.421  67.844  1.00  0.00    -0.286 A  
HETATM   23  N   UNL     1      -9.781  14.623  68.324  1.00  0.00    -0.209 NA 
HETATM   24  C   UNL     1     -10.712  16.880  68.176  1.00  0.00    -0.375 C  
HETATM   25  C   UNL     1      -9.916  13.308  68.131  1.00  0.00    -0.234 A  
HETATM   26  N   UNL     1      -8.809  12.541  68.508  1.00  0.00    -0.353 NA 
HETATM   27  H1  UNL     1      -7.982  12.957  68.936  1.00  0.00     0.000 HD 
HETATM   28  H2  UNL     1      -8.504  12.015  67.689  1.00  0.00     0.000 HD 
ENDBRANCH  18  19
ENDBRANCH   6  18
TORSDOF 7
ENDMDL
MODEL      166
REMARK 921   NORMALIZED FREE ENERGY PREDICTED BY IDOCK:   -4.67 KCAL/MOL
REMARK 922        TOTAL FREE ENERGY PREDICTED BY IDOCK:   -7.57 KCAL/MOL
REMARK 923 INTER-LIGAND FREE ENERGY PREDICTED BY IDOCK:   -6.54 KCAL/MOL
REMARK 924 INTRA-LIGAND FREE ENERGY PREDICTED BY IDOCK:   -1.03 KCAL/MOL
REMARK 927      BINDING AFFINITY PREDICTED BY RF-SCORE:    0.00 PKD
ROOT
HETATM    1  C   UNL     1     -11.857  13.834  67.909  1.00  0.00    -0.413 C  
HETATM    2  C   UNL     1     -10.399  13.559  67.830  1.00  0.00    -0.241 C  
HETATM    3  C   UNL     1      -9.783  12.396  67.368  1.00  0.00    -0.193 C  
HETATM    4  C   UNL     1      -8.202  14.144  68.145  1.00  0.00    -0.149 C  
HETATM    5  S   UNL     1      -8.073  12.548  67.637  1.00  0.00    -0.185 SA 
HETATM    6  N   UNL     1      -9.468  14.537  68.208  1.00  0.00    -0.201 NA 
ENDROOT
BRANCH   3   7
HETATM    7  C   UNL     1     -10.351  11.123  66.714  1.00  0.00    -0.284 C  
BRANCH   7   8
HETATM    8  C   UNL     1     -10.816  10.141  67.798  1.00  0.00    -0.292 C  
BRANCH   8   9
HETATM    9  O   UNL     1     -10.615  10.460  69.157  1.00  0.00    -0.199 OA 
BRANCH   9  10
HETATM   10  P   UNL     1     -11.794   9.804  70.168  1.00  0.00     0.081 P  
HETATM   11  O   UNL     1     -12.927  10.941  69.524  1.00  0.00    -0.121 OA 
HETATM   12  O   UNL     1     -11.795  10.660  71.450  1.00  0.00    -0.263 OA 
BRANCH  10  13
HETATM   13  O   UNL     1     -10.661   8.666  70.811  1.00  0.00    -0.197 OA 
HETATM   14  O   UNL     1     -12.819   7.447  71.346  1.00  0.00    -0.358 OA 
HETATM   15  P   UNL     1     -11.338   7.279  71.251  1.00  0.00    -0.288 P  
HETATM   16  O   UNL     1     -10.669   6.164  70.495  1.00  0.00    -0.240 OA 
HETATM   17  O   UNL     1     -10.724   7.146  72.733  1.00  0.00    -0.243 OA 
ENDBRANCH  10  13
ENDBRANCH   9  10
ENDBRANCH   8   9
ENDBRANCH   7   8
ENDBRANCH   3   7
BRANCH   6  18
HETATM   18  C   UNL     1      -9.741  15.947  68.534  1.00  0.00    -0.211 C  
BRANCH  18  19
HETATM   19  C   UNL     1      -8.896  16.902  67.748  1.00  0.00    -0.217 A  
HETATM   20  C   UNL     1      -8.087  17.808  68.398  1.00  0.00    -0.297 A  
HETATM   21  N   UNL     1      -7.184  18.583  67.781  1.00  0.00    -0.218 NA 
HETATM   22  C   UNL     1      -7.091  18.446  66.450  1.00  0.00    -0.239 A  
HETATM   23  N   UNL     1      -7.933  17.700  65.716  1.00  0.00    -0.541 NA 
HETATM   24  C   UNL     1      -5.958  19.141  65.763  1.00  0.00    -0.219 C  
HETATM   25  C   UNL     1      -8.847  16.979  66.371  1.00  0.00    -0.278 A  
HETATM   26  N   UNL     1      -9.795  16.350  65.558  1.00  0.00    -0.533 NA 
HETATM   27  H1  UNL     1      -9.759  16.406  64.540  1.00  0.00     0.000 HD 
HETATM   28  H2  UNL     1     -10.718  16.668  65.854  1.00  0.00     0.000 HD 
ENDBRANCH  18  19
ENDBRANCH   6  18
TORSDOF 7
ENDMDL
MODEL      167
REMARK 921   NORMALIZED FREE ENERGY PREDICTED BY IDOCK:   -4.67 KCAL/MOL
REMARK 922        TOTAL FREE ENERGY PREDICTED BY IDOCK:   -7.56 KCAL/MOL
REMARK 923 INTER-LIGAND FREE ENERGY PREDICTED BY IDOCK:   -6.70 KCAL/MOL
REMARK 924 INTRA-LIGAND FREE ENERGY PREDICTED BY IDOCK:   -0.86 KCAL/MOL
REMARK 927      BINDING AFFINITY PREDICTED BY RF-SCORE:    0.00 PKD
ROOT
HETATM    1  C   UNL     1     -11.659  11.010  69.261  1.00  0.00    -0.384 C  
HETATM    2  C   UNL     1     -11.037  11.348  67.954  1.00  0.00    -0.261 C  
HETATM    3  C   UNL     1     -10.737  12.619  67.466  1.00  0.00    -0.225 C  
HETATM    4  C   UNL     1     -10.156  10.770  65.915  1.00  0.00    -0.256 C  
HETATM    5  S   UNL     1     -10.165  12.449  65.834  1.00  0.00    -0.255 SA 
HETATM    6  N   UNL     1     -10.644  10.334  67.070  1.00  0.00    -0.251 NA 
ENDROOT
BRANCH   3   7
HETATM    7  C   UNL     1     -10.828  14.014  68.109  1.00  0.00    -0.260 C  
BRANCH   7   8
HETATM    8  C   UNL     1     -11.345  15.031  67.082  1.00  0.00    -0.320 C  
BRANCH   8   9
HETATM    9  O   UNL     1     -11.146  16.408  67.307  1.00  0.00    -0.180 OA 
BRANCH   9  10
HETATM   10  P   UNL     1     -10.066  17.103  66.215  1.00  0.00    -0.268 P  
HETATM   11  O   UNL     1     -10.907  16.303  64.932  1.00  0.00    -0.625 OA 
HETATM   12  O   UNL     1      -8.939  16.073  66.002  1.00  0.00    -0.337 OA 
BRANCH  10  13
HETATM   13  O   UNL     1      -9.225  17.903  67.497  1.00  0.00    -0.247 OA 
HETATM   14  O   UNL     1     -10.303  19.915  66.393  1.00  0.00    -0.454 OA 
HETATM   15  P   UNL     1      -9.608  19.455  67.632  1.00  0.00    -0.361 P  
HETATM   16  O   UNL     1     -10.127  19.698  69.022  1.00  0.00    -0.445 OA 
HETATM   17  O   UNL     1      -8.128  20.087  67.672  1.00  0.00    -0.296 OA 
ENDBRANCH  10  13
ENDBRANCH   9  10
ENDBRANCH   8   9
ENDBRANCH   7   8
ENDBRANCH   3   7
BRANCH   6  18
HETATM   18  C   UNL     1     -10.603   8.885  67.336  1.00  0.00    -0.235 C  
BRANCH  18  19
HETATM   19  C   UNL     1      -9.219   8.380  67.603  1.00  0.00    -0.147 A  
HETATM   20  C   UNL     1      -8.559   8.742  68.756  1.00  0.00    -0.137 A  
HETATM   21  N   UNL     1      -7.393   8.212  69.150  1.00  0.00    -0.080 NA 
HETATM   22  C   UNL     1      -6.862   7.277  68.348  1.00  0.00    -0.073 A  
HETATM   23  N   UNL     1      -7.354   6.964  67.138  1.00  0.00    -0.088 NA 
HETATM   24  C   UNL     1      -5.675   6.523  68.860  1.00  0.00    -0.017 C  
HETATM   25  C   UNL     1      -8.495   7.553  66.768  1.00  0.00    -0.124 A  
HETATM   26  N   UNL     1      -8.877   7.316  65.443  1.00  0.00    -0.372 NA 
HETATM   27  H1  UNL     1      -8.342   6.705  64.826  1.00  0.00     0.000 HD 
HETATM   28  H2  UNL     1      -8.969   8.220  64.981  1.00  0.00     0.000 HD 
ENDBRANCH  18  19
ENDBRANCH   6  18
TORSDOF 7
ENDMDL
MODEL      168
REMARK 921   NORMALIZED FREE ENERGY PREDICTED BY IDOCK:   -4.66 KCAL/MOL
REMARK 922        TOTAL FREE ENERGY PREDICTED BY IDOCK:   -7.55 KCAL/MOL
REMARK 923 INTER-LIGAND FREE ENERGY PREDICTED BY IDOCK:   -6.77 KCAL/MOL
REMARK 924 INTRA-LIGAND FREE ENERGY PREDICTED BY IDOCK:   -0.79 KCAL/MOL
REMARK 927      BINDING AFFINITY PREDICTED BY RF-SCORE:    0.00 PKD
ROOT
HETATM    1  C   UNL     1     -12.847   9.245  72.178  1.00  0.00    -0.485 C  
HETATM    2  C   UNL     1     -11.507   9.207  71.538  1.00  0.00    -0.367 C  
HETATM    3  C   UNL     1     -11.106   9.870  70.378  1.00  0.00    -0.319 C  
HETATM    4  C   UNL     1      -9.333   8.480  71.419  1.00  0.00    -0.211 C  
HETATM    5  S   UNL     1      -9.490   9.359  69.996  1.00  0.00    -0.244 SA 
HETATM    6  N   UNL     1     -10.461   8.478  72.120  1.00  0.00    -0.325 NA 
ENDROOT
BRANCH   3   7
HETATM    7  C   UNL     1     -11.824  10.894  69.480  1.00  0.00    -0.404 C  
BRANCH   7   8
HETATM    8  C   UNL     1     -10.795  11.817  68.814  1.00  0.00    -0.227 C  
BRANCH   8   9
HETATM    9  O   UNL     1     -11.239  12.933  68.075  1.00  0.00    -0.240 OA 
BRANCH   9  10
HETATM   10  P   UNL     1     -11.047  12.738  66.412  1.00  0.00    -0.313 P  
HETATM   11  O   UNL     1     -11.886  14.232  66.177  1.00  0.00    -0.378 OA 
HETATM   12  O   UNL     1     -12.325  12.040  65.905  1.00  0.00    -0.463 OA 
BRANCH  10  13
HETATM   13  O   UNL     1     -10.208  11.244  66.647  1.00  0.00    -0.214 OA 
HETATM   14  O   UNL     1      -9.541  11.719  64.246  1.00  0.00    -0.177 OA 
HETATM   15  P   UNL     1      -9.217  10.879  65.438  1.00  0.00    -0.203 P  
HETATM   16  O   UNL     1      -7.829  10.714  65.994  1.00  0.00    -0.149 OA 
HETATM   17  O   UNL     1      -9.689   9.365  65.161  1.00  0.00    -0.229 OA 
ENDBRANCH  10  13
ENDBRANCH   9  10
ENDBRANCH   8   9
ENDBRANCH   7   8
ENDBRANCH   3   7
BRANCH   6  18
HETATM   18  C   UNL     1     -10.450   7.838  73.447  1.00  0.00    -0.207 C  
BRANCH  18  19
HETATM   19  C   UNL     1     -10.327   6.347  73.376  1.00  0.00    -0.267 A  
HETATM   20  C   UNL     1      -9.125   5.737  73.656  1.00  0.00    -0.127 A  
HETATM   21  N   UNL     1      -8.967   4.411  73.773  1.00  0.00    -0.103 NA 
HETATM   22  C   UNL     1     -10.066   3.662  73.598  1.00  0.00    -0.128 A  
HETATM   23  N   UNL     1     -11.245   4.153  73.181  1.00  0.00    -0.180 NA 
HETATM   24  C   UNL     1      -9.967   2.205  73.925  1.00  0.00    -0.142 C  
HETATM   25  C   UNL     1     -11.342   5.477  73.033  1.00  0.00    -0.266 A  
HETATM   26  N   UNL     1     -12.533   5.918  72.446  1.00  0.00    -0.399 NA 
HETATM   27  H1  UNL     1     -13.283   5.275  72.193  1.00  0.00     0.000 HD 
HETATM   28  H2  UNL     1     -12.288   6.454  71.614  1.00  0.00     0.000 HD 
ENDBRANCH  18  19
ENDBRANCH   6  18
TORSDOF 7
ENDMDL
MODEL      169
REMARK 921   NORMALIZED FREE ENERGY PREDICTED BY IDOCK:   -4.65 KCAL/MOL
REMARK 922        TOTAL FREE ENERGY PREDICTED BY IDOCK:   -7.55 KCAL/MOL
REMARK 923 INTER-LIGAND FREE ENERGY PREDICTED BY IDOCK:   -8.05 KCAL/MOL
REMARK 924 INTRA-LIGAND FREE ENERGY PREDICTED BY IDOCK:    0.51 KCAL/MOL
REMARK 927      BINDING AFFINITY PREDICTED BY RF-SCORE:    0.00 PKD
ROOT
HETATM    1  C   UNL     1     -10.644  15.716  65.215  1.00  0.00    -0.448 C  
HETATM    2  C   UNL     1     -10.665  16.027  66.668  1.00  0.00    -0.247 C  
HETATM    3  C   UNL     1     -10.705  15.118  67.725  1.00  0.00    -0.279 C  
HETATM    4  C   UNL     1     -10.690  17.497  68.430  1.00  0.00    -0.280 C  
HETATM    5  S   UNL     1     -10.869  16.016  69.203  1.00  0.00    -0.306 SA 
HETATM    6  N   UNL     1     -10.604  17.355  67.113  1.00  0.00    -0.306 NA 
ENDROOT
BRANCH   3   7
HETATM    7  C   UNL     1     -10.628  13.581  67.761  1.00  0.00    -0.252 C  
BRANCH   7   8
HETATM    8  C   UNL     1     -11.864  12.979  67.080  1.00  0.00    -0.377 C  
BRANCH   8   9
HETATM    9  O   UNL     1     -11.709  11.895  66.192  1.00  0.00    -0.484 OA 
BRANCH   9  10
HETATM   10  P   UNL     1     -11.546  12.379  64.585  1.00  0.00    -0.363 P  
HETATM   11  O   UNL     1     -13.270  12.467  64.475  1.00  0.00    -0.834 OA 
HETATM   12  O   UNL     1     -11.643  11.099  63.732  1.00  0.00    -0.050 OA 
BRANCH  10  13
HETATM   13  O   UNL     1      -9.822  12.292  64.696  1.00  0.00    -0.205 OA 
HETATM   14  O   UNL     1     -10.407   9.972  65.535  1.00  0.00    -0.241 OA 
HETATM   15  P   UNL     1      -9.284  10.818  65.033  1.00  0.00    -0.212 P  
HETATM   16  O   UNL     1      -8.342  10.395  63.939  1.00  0.00    -0.168 OA 
HETATM   17  O   UNL     1      -8.300  11.172  66.256  1.00  0.00    -0.168 OA 
ENDBRANCH  10  13
ENDBRANCH   9  10
ENDBRANCH   8   9
ENDBRANCH   7   8
ENDBRANCH   3   7
BRANCH   6  18
HETATM   18  C   UNL     1     -10.337  18.555  66.302  1.00  0.00    -0.427 C  
BRANCH  18  19
HETATM   19  C   UNL     1      -9.069  19.251  66.691  1.00  0.00    -0.374 A  
HETATM   20  C   UNL     1      -9.106  20.540  67.175  1.00  0.00    -0.322 A  
HETATM   21  N   UNL     1      -8.046  21.176  67.694  1.00  0.00    -0.055 NA 
HETATM   22  C   UNL     1      -6.895  20.489  67.726  1.00  0.00    -0.322 A  
HETATM   23  N   UNL     1      -6.727  19.288  67.148  1.00  0.00    -0.194 NA 
HETATM   24  C   UNL     1      -5.753  21.091  68.483  1.00  0.00    -0.375 C  
HETATM   25  C   UNL     1      -7.801  18.712  66.602  1.00  0.00    -0.255 A  
HETATM   26  N   UNL     1      -7.540  17.544  65.878  1.00  0.00    -0.511 NA 
HETATM   27  H1  UNL     1      -6.603  17.146  65.812  1.00  0.00     0.000 HD 
HETATM   28  H2  UNL     1      -7.885  17.685  64.928  1.00  0.00     0.000 HD 
ENDBRANCH  18  19
ENDBRANCH   6  18
TORSDOF 7
ENDMDL
MODEL      170
REMARK 921   NORMALIZED FREE ENERGY PREDICTED BY IDOCK:   -4.65 KCAL/MOL
REMARK 922        TOTAL FREE ENERGY PREDICTED BY IDOCK:   -7.54 KCAL/MOL
REMARK 923 INTER-LIGAND FREE ENERGY PREDICTED BY IDOCK:   -6.63 KCAL/MOL
REMARK 924 INTRA-LIGAND FREE ENERGY PREDICTED BY IDOCK:   -0.91 KCAL/MOL
REMARK 927      BINDING AFFINITY PREDICTED BY RF-SCORE:    0.00 PKD
ROOT
HETATM    1  C   UNL     1      -9.985  13.993  67.831  1.00  0.00    -0.237 C  
HETATM    2  C   UNL     1     -10.443  13.392  66.552  1.00  0.00    -0.283 C  
HETATM    3  C   UNL     1     -10.534  14.019  65.310  1.00  0.00    -0.382 C  
HETATM    4  C   UNL     1     -11.253  11.644  65.305  1.00  0.00    -0.199 C  
HETATM    5  S   UNL     1     -11.269  12.906  64.196  1.00  0.00    -0.414 SA 
HETATM    6  N   UNL     1     -10.808  12.040  66.491  1.00  0.00    -0.265 NA 
ENDROOT
BRANCH   3   7
HETATM    7  C   UNL     1     -10.112  15.421  64.833  1.00  0.00    -0.059 C  
BRANCH   7   8
HETATM    8  C   UNL     1     -10.803  16.493  65.686  1.00  0.00    -0.160 C  
BRANCH   8   9
HETATM    9  O   UNL     1     -10.471  17.851  65.497  1.00  0.00    -0.650 OA 
BRANCH   9  10
HETATM   10  P   UNL     1      -9.568  18.489  66.770  1.00  0.00    -0.350 P  
HETATM   11  O   UNL     1     -11.001  19.265  67.350  1.00  0.00    -0.484 OA 
HETATM   12  O   UNL     1      -9.100  19.885  66.315  1.00  0.00    -0.366 OA 
BRANCH  10  13
HETATM   13  O   UNL     1      -8.135  17.713  66.190  1.00  0.00    -0.417 OA 
HETATM   14  O   UNL     1      -7.562  17.847  68.657  1.00  0.00    -0.272 OA 
HETATM   15  P   UNL     1      -7.172  17.202  67.368  1.00  0.00    -0.173 P  
HETATM   16  O   UNL     1      -6.966  15.721  67.203  1.00  0.00    -0.203 OA 
HETATM   17  O   UNL     1      -5.780  17.830  66.860  1.00  0.00    -0.128 OA 
ENDBRANCH  10  13
ENDBRANCH   9  10
ENDBRANCH   8   9
ENDBRANCH   7   8
ENDBRANCH   3   7
BRANCH   6  18
HETATM   18  C   UNL     1     -10.633  11.021  67.541  1.00  0.00    -0.227 C  
BRANCH  18  19
HETATM   19  C   UNL     1      -9.879   9.818  67.067  1.00  0.00    -0.245 A  
HETATM   20  C   UNL     1     -10.484   8.580  67.055  1.00  0.00    -0.292 A  
HETATM   21  N   UNL     1      -9.943   7.487  66.500  1.00  0.00    -0.183 NA 
HETATM   22  C   UNL     1      -8.737   7.641  65.933  1.00  0.00    -0.152 A  
HETATM   23  N   UNL     1      -8.008   8.766  66.023  1.00  0.00    -0.104 NA 
HETATM   24  C   UNL     1      -8.202   6.497  65.130  1.00  0.00    -0.126 C  
HETATM   25  C   UNL     1      -8.571   9.817  66.626  1.00  0.00    -0.128 A  
HETATM   26  N   UNL     1      -7.716  10.904  66.832  1.00  0.00    -0.128 NA 
HETATM   27  H1  UNL     1      -6.750  10.903  66.506  1.00  0.00     0.000 HD 
HETATM   28  H2  UNL     1      -7.706  11.105  67.832  1.00  0.00     0.000 HD 
ENDBRANCH  18  19
ENDBRANCH   6  18
TORSDOF 7
ENDMDL
MODEL      171
REMARK 921   NORMALIZED FREE ENERGY PREDICTED BY IDOCK:   -4.64 KCAL/MOL
REMARK 922        TOTAL FREE ENERGY PREDICTED BY IDOCK:   -7.52 KCAL/MOL
REMARK 923 INTER-LIGAND FREE ENERGY PREDICTED BY IDOCK:   -6.96 KCAL/MOL
REMARK 924 INTRA-LIGAND FREE ENERGY PREDICTED BY IDOCK:   -0.56 KCAL/MOL
REMARK 927      BINDING AFFINITY PREDICTED BY RF-SCORE:    0.00 PKD
ROOT
HETATM    1  C   UNL     1     -10.822   7.096  70.413  1.00  0.00    -0.269 C  
HETATM    2  C   UNL     1     -10.565   7.681  69.071  1.00  0.00    -0.174 C  
HETATM    3  C   UNL     1     -10.281   9.013  68.773  1.00  0.00    -0.208 C  
HETATM    4  C   UNL     1     -10.369   7.523  66.790  1.00  0.00    -0.262 C  
HETATM    5  S   UNL     1     -10.219   9.177  67.044  1.00  0.00    -0.265 SA 
HETATM    6  N   UNL     1     -10.553   6.868  67.930  1.00  0.00    -0.214 NA 
ENDROOT
BRANCH   3   7
HETATM    7  C   UNL     1     -10.034  10.238  69.673  1.00  0.00    -0.240 C  
BRANCH   7   8
HETATM    8  C   UNL     1     -11.321  11.066  69.793  1.00  0.00    -0.292 C  
BRANCH   8   9
HETATM    9  O   UNL     1     -12.097  11.314  68.642  1.00  0.00    -0.543 OA 
BRANCH   9  10
HETATM   10  P   UNL     1     -11.776  12.815  67.944  1.00  0.00    -0.300 P  
HETATM   11  O   UNL     1     -12.183  12.144  66.403  1.00  0.00    -0.592 OA 
HETATM   12  O   UNL     1     -10.307  12.773  67.477  1.00  0.00    -0.216 OA 
BRANCH  10  13
HETATM   13  O   UNL     1     -11.369  13.486  69.485  1.00  0.00    -0.257 OA 
HETATM   14  O   UNL     1     -12.023  15.613  68.269  1.00  0.00    -0.246 OA 
HETATM   15  P   UNL     1     -11.755  15.037  69.621  1.00  0.00    -0.362 P  
HETATM   16  O   UNL     1     -12.681  15.196  70.796  1.00  0.00    -0.350 OA 
HETATM   17  O   UNL     1     -10.355  15.609  70.171  1.00  0.00    -0.303 OA 
ENDBRANCH  10  13
ENDBRANCH   9  10
ENDBRANCH   8   9
ENDBRANCH   7   8
ENDBRANCH   3   7
BRANCH   6  18
HETATM   18  C   UNL     1     -10.595   5.396  67.884  1.00  0.00    -0.090 C  
BRANCH  18  19
HETATM   19  C   UNL     1      -9.607   4.814  66.920  1.00  0.00    -0.185 A  
HETATM   20  C   UNL     1      -8.258   4.874  67.188  1.00  0.00    -0.106 A  
HETATM   21  N   UNL     1      -7.321   4.242  66.467  1.00  0.00    -0.079 NA 
HETATM   22  C   UNL     1      -7.759   3.518  65.426  1.00  0.00    -0.081 A  
HETATM   23  N   UNL     1      -9.033   3.516  65.001  1.00  0.00    -0.127 NA 
HETATM   24  C   UNL     1      -6.766   2.640  64.731  1.00  0.00    -0.039 C  
HETATM   25  C   UNL     1      -9.924   4.199  65.725  1.00  0.00    -0.190 A  
HETATM   26  N   UNL     1     -11.197   4.296  65.154  1.00  0.00    -0.975 NA 
HETATM   27  H1  UNL     1     -11.431   3.841  64.271  1.00  0.00     0.000 HD 
HETATM   28  H2  UNL     1     -11.420   5.287  65.062  1.00  0.00     0.000 HD 
ENDBRANCH  18  19
ENDBRANCH   6  18
TORSDOF 7
ENDMDL
MODEL      172
REMARK 921   NORMALIZED FREE ENERGY PREDICTED BY IDOCK:   -4.62 KCAL/MOL
REMARK 922        TOTAL FREE ENERGY PREDICTED BY IDOCK:   -7.50 KCAL/MOL
REMARK 923 INTER-LIGAND FREE ENERGY PREDICTED BY IDOCK:   -7.00 KCAL/MOL
REMARK 924 INTRA-LIGAND FREE ENERGY PREDICTED BY IDOCK:   -0.50 KCAL/MOL
REMARK 927      BINDING AFFINITY PREDICTED BY RF-SCORE:    0.00 PKD
ROOT
HETATM    1  C   UNL     1     -11.909  12.328  68.375  1.00  0.00    -0.358 C  
HETATM    2  C   UNL     1     -10.522  12.662  67.959  1.00  0.00    -0.224 C  
HETATM    3  C   UNL     1      -9.386  11.863  68.089  1.00  0.00    -0.191 C  
HETATM    4  C   UNL     1      -8.958  14.079  67.057  1.00  0.00    -0.235 C  
HETATM    5  S   UNL     1      -8.010  12.795  67.582  1.00  0.00    -0.179 SA 
HETATM    6  N   UNL     1     -10.243  13.880  67.324  1.00  0.00    -0.248 NA 
ENDROOT
BRANCH   3   7
HETATM    7  C   UNL     1      -9.201  10.411  68.567  1.00  0.00    -0.145 C  
BRANCH   7   8
HETATM    8  C   UNL     1      -9.127   9.468  67.359  1.00  0.00    -0.130 C  
BRANCH   8   9
HETATM    9  O   UNL     1      -8.507   8.209  67.497  1.00  0.00    -0.124 OA 
BRANCH   9  10
HETATM   10  P   UNL     1      -9.612   6.942  67.613  1.00  0.00    -0.134 P  
HETATM   11  O   UNL     1      -9.012   6.329  66.111  1.00  0.00    -0.153 OA 
HETATM   12  O   UNL     1     -10.866   7.384  66.832  1.00  0.00    -0.357 OA 
BRANCH  10  13
HETATM   13  O   UNL     1     -10.213   7.554  69.115  1.00  0.00    -0.191 OA 
HETATM   14  O   UNL     1     -10.355   5.068  69.596  1.00  0.00    -0.260 OA 
HETATM   15  P   UNL     1     -10.392   6.418  70.234  1.00  0.00    -0.233 P  
HETATM   16  O   UNL     1      -9.569   6.800  71.434  1.00  0.00    -0.168 OA 
HETATM   17  O   UNL     1     -11.899   6.743  70.698  1.00  0.00    -0.370 OA 
ENDBRANCH  10  13
ENDBRANCH   9  10
ENDBRANCH   8   9
ENDBRANCH   7   8
ENDBRANCH   3   7
BRANCH   6  18
HETATM   18  C   UNL     1     -11.215  14.869  66.828  1.00  0.00    -0.338 C  
BRANCH  18  19
HETATM   19  C   UNL     1     -10.706  16.276  66.902  1.00  0.00    -0.217 A  
HETATM   20  C   UNL     1     -10.273  16.918  65.763  1.00  0.00    -0.268 A  
HETATM   21  N   UNL     1      -9.956  18.219  65.711  1.00  0.00    -0.523 NA 
HETATM   22  C   UNL     1     -10.077  18.908  66.855  1.00  0.00    -0.364 A  
HETATM   23  N   UNL     1     -10.350  18.342  68.043  1.00  0.00    -0.386 NA 
HETATM   24  C   UNL     1      -9.931  20.396  66.783  1.00  0.00    -0.525 C  
HETATM   25  C   UNL     1     -10.614  17.032  68.053  1.00  0.00    -0.373 A  
HETATM   26  N   UNL     1     -10.732  16.466  69.326  1.00  0.00    -0.304 NA 
HETATM   27  H1  UNL     1     -10.664  17.025  70.177  1.00  0.00     0.000 HD 
HETATM   28  H2  UNL     1     -10.050  15.711  69.395  1.00  0.00     0.000 HD 
ENDBRANCH  18  19
ENDBRANCH   6  18
TORSDOF 7
ENDMDL
MODEL      173
REMARK 921   NORMALIZED FREE ENERGY PREDICTED BY IDOCK:   -4.61 KCAL/MOL
REMARK 922        TOTAL FREE ENERGY PREDICTED BY IDOCK:   -7.48 KCAL/MOL
REMARK 923 INTER-LIGAND FREE ENERGY PREDICTED BY IDOCK:   -6.58 KCAL/MOL
REMARK 924 INTRA-LIGAND FREE ENERGY PREDICTED BY IDOCK:   -0.90 KCAL/MOL
REMARK 927      BINDING AFFINITY PREDICTED BY RF-SCORE:    0.00 PKD
ROOT
HETATM    1  C   UNL     1     -10.470  15.151  65.328  1.00  0.00    -0.434 C  
HETATM    2  C   UNL     1     -10.500  15.512  66.769  1.00  0.00    -0.295 C  
HETATM    3  C   UNL     1     -10.392  14.648  67.858  1.00  0.00    -0.237 C  
HETATM    4  C   UNL     1     -10.684  17.033  68.478  1.00  0.00    -0.352 C  
HETATM    5  S   UNL     1     -10.642  15.573  69.308  1.00  0.00    -0.255 SA 
HETATM    6  N   UNL     1     -10.609  16.853  67.165  1.00  0.00    -0.290 NA 
ENDROOT
BRANCH   3   7
HETATM    7  C   UNL     1     -10.107  13.138  67.946  1.00  0.00    -0.232 C  
BRANCH   7   8
HETATM    8  C   UNL     1     -11.346  12.345  67.510  1.00  0.00    -0.315 C  
BRANCH   8   9
HETATM    9  O   UNL     1     -11.227  10.967  67.234  1.00  0.00    -0.324 OA 
BRANCH   9  10
HETATM   10  P   UNL     1      -9.868  10.597  66.307  1.00  0.00    -0.232 P  
HETATM   11  O   UNL     1     -10.563  11.490  64.999  1.00  0.00    -0.277 OA 
HETATM   12  O   UNL     1     -10.217   9.325  65.510  1.00  0.00    -0.026 OA 
BRANCH  10  13
HETATM   13  O   UNL     1      -9.174   9.704  67.616  1.00  0.00    -0.131 OA 
HETATM   14  O   UNL     1      -7.219   9.658  66.001  1.00  0.00    -0.094 OA 
HETATM   15  P   UNL     1      -7.607   9.416  67.422  1.00  0.00    -0.095 P  
HETATM   16  O   UNL     1      -6.870   9.991  68.601  1.00  0.00    -0.053 OA 
HETATM   17  O   UNL     1      -7.594   7.833  67.712  1.00  0.00    -0.107 OA 
ENDBRANCH  10  13
ENDBRANCH   9  10
ENDBRANCH   8   9
ENDBRANCH   7   8
ENDBRANCH   3   7
BRANCH   6  18
HETATM   18  C   UNL     1     -10.526  18.046  66.305  1.00  0.00    -0.335 C  
BRANCH  18  19
HETATM   19  C   UNL     1      -9.296  18.862  66.558  1.00  0.00    -0.351 A  
HETATM   20  C   UNL     1      -9.405  20.189  66.912  1.00  0.00    -0.394 A  
HETATM   21  N   UNL     1      -8.373  20.945  67.311  1.00  0.00    -0.168 NA 
HETATM   22  C   UNL     1      -7.174  20.343  67.354  1.00  0.00    -0.310 A  
HETATM   23  N   UNL     1      -6.945  19.103  66.890  1.00  0.00    -0.199 NA 
HETATM   24  C   UNL     1      -6.047  21.096  67.988  1.00  0.00    -0.373 C  
HETATM   25  C   UNL     1      -7.998  18.403  66.459  1.00  0.00    -0.271 A  
HETATM   26  N   UNL     1      -7.684  17.187  65.843  1.00  0.00    -0.427 NA 
HETATM   27  H1  UNL     1      -6.725  16.848  65.770  1.00  0.00     0.000 HD 
HETATM   28  H2  UNL     1      -8.080  17.206  64.903  1.00  0.00     0.000 HD 
ENDBRANCH  18  19
ENDBRANCH   6  18
TORSDOF 7
ENDMDL
MODEL      174
REMARK 921   NORMALIZED FREE ENERGY PREDICTED BY IDOCK:   -4.60 KCAL/MOL
REMARK 922        TOTAL FREE ENERGY PREDICTED BY IDOCK:   -7.47 KCAL/MOL
REMARK 923 INTER-LIGAND FREE ENERGY PREDICTED BY IDOCK:   -6.67 KCAL/MOL
REMARK 924 INTRA-LIGAND FREE ENERGY PREDICTED BY IDOCK:   -0.80 KCAL/MOL
REMARK 927      BINDING AFFINITY PREDICTED BY RF-SCORE:    0.00 PKD
ROOT
HETATM    1  C   UNL     1     -10.690   8.654  67.344  1.00  0.00    -0.212 C  
HETATM    2  C   UNL     1      -9.830   9.014  68.501  1.00  0.00    -0.169 C  
HETATM    3  C   UNL     1      -8.813   9.968  68.532  1.00  0.00    -0.120 C  
HETATM    4  C   UNL     1      -9.149   8.768  70.678  1.00  0.00    -0.186 C  
HETATM    5  S   UNL     1      -8.034   9.875  70.082  1.00  0.00    -0.091 SA 
HETATM    6  N   UNL     1     -10.019   8.400  69.747  1.00  0.00    -0.188 NA 
ENDROOT
BRANCH   3   7
HETATM    7  C   UNL     1      -8.335  10.994  67.489  1.00  0.00    -0.118 C  
BRANCH   7   8
HETATM    8  C   UNL     1      -9.445  12.018  67.215  1.00  0.00    -0.181 C  
BRANCH   8   9
HETATM    9  O   UNL     1      -9.251  13.005  66.227  1.00  0.00    -0.185 OA 
BRANCH   9  10
HETATM   10  P   UNL     1     -10.624  13.270  65.285  1.00  0.00    -0.341 P  
HETATM   11  O   UNL     1     -11.240  11.744  65.819  1.00  0.00    -0.322 OA 
HETATM   12  O   UNL     1     -10.359  12.590  63.927  1.00  0.00    -0.405 OA 
BRANCH  10  13
HETATM   13  O   UNL     1     -10.009  14.796  64.752  1.00  0.00    -0.229 OA 
HETATM   14  O   UNL     1     -11.344  15.570  66.763  1.00  0.00    -0.211 OA 
HETATM   15  P   UNL     1     -10.298  15.989  65.784  1.00  0.00    -0.373 P  
HETATM   16  O   UNL     1      -8.984  16.607  66.177  1.00  0.00    -0.327 OA 
HETATM   17  O   UNL     1     -10.926  17.068  64.768  1.00  0.00    -0.835 OA 
ENDBRANCH  10  13
ENDBRANCH   9  10
ENDBRANCH   8   9
ENDBRANCH   7   8
ENDBRANCH   3   7
BRANCH   6  18
HETATM   18  C   UNL     1     -11.127   7.514  70.145  1.00  0.00    -0.231 C  
BRANCH  18  19
HETATM   19  C   UNL     1     -10.663   6.158  70.579  1.00  0.00    -0.340 A  
HETATM   20  C   UNL     1     -10.052   5.313  69.678  1.00  0.00    -0.257 A  
HETATM   21  N   UNL     1      -9.465   4.157  70.016  1.00  0.00    -0.172 NA 
HETATM   22  C   UNL     1      -9.495   3.830  71.317  1.00  0.00    -0.159 A  
HETATM   23  N   UNL     1     -10.190   4.513  72.242  1.00  0.00    -0.190 NA 
HETATM   24  C   UNL     1      -8.675   2.657  71.752  1.00  0.00    -0.109 C  
HETATM   25  C   UNL     1     -10.797   5.636  71.849  1.00  0.00    -0.242 A  
HETATM   26  N   UNL     1     -11.633   6.219  72.807  1.00  0.00    -0.482 NA 
HETATM   27  H1  UNL     1     -11.732   5.833  73.747  1.00  0.00     0.000 HD 
HETATM   28  H2  UNL     1     -12.566   6.292  72.401  1.00  0.00     0.000 HD 
ENDBRANCH  18  19
ENDBRANCH   6  18
TORSDOF 7
ENDMDL
MODEL      175
REMARK 921   NORMALIZED FREE ENERGY PREDICTED BY IDOCK:   -4.60 KCAL/MOL
REMARK 922        TOTAL FREE ENERGY PREDICTED BY IDOCK:   -7.46 KCAL/MOL
REMARK 923 INTER-LIGAND FREE ENERGY PREDICTED BY IDOCK:   -6.72 KCAL/MOL
REMARK 924 INTRA-LIGAND FREE ENERGY PREDICTED BY IDOCK:   -0.74 KCAL/MOL
REMARK 927      BINDING AFFINITY PREDICTED BY RF-SCORE:    0.00 PKD
ROOT
HETATM    1  C   UNL     1      -9.073  14.038  68.124  1.00  0.00    -0.192 C  
HETATM    2  C   UNL     1     -10.218  14.087  67.178  1.00  0.00    -0.258 C  
HETATM    3  C   UNL     1     -11.415  13.377  67.265  1.00  0.00    -0.340 C  
HETATM    4  C   UNL     1     -11.246  14.847  65.272  1.00  0.00    -0.369 C  
HETATM    5  S   UNL     1     -12.334  13.692  65.825  1.00  0.00    -0.482 SA 
HETATM    6  N   UNL     1     -10.188  14.942  66.068  1.00  0.00    -0.283 NA 
ENDROOT
BRANCH   3   7
HETATM    7  C   UNL     1     -11.982  12.449  68.355  1.00  0.00    -0.269 C  
BRANCH   7   8
HETATM    8  C   UNL     1     -11.359  11.053  68.228  1.00  0.00    -0.299 C  
BRANCH   8   9
HETATM    9  O   UNL     1     -10.251  10.711  69.030  1.00  0.00    -0.196 OA 
BRANCH   9  10
HETATM   10  P   UNL     1     -10.198   9.070  69.413  1.00  0.00    -0.213 P  
HETATM   11  O   UNL     1     -11.386   9.355  70.637  1.00  0.00    -0.263 OA 
HETATM   12  O   UNL     1      -9.178   8.923  70.560  1.00  0.00    -0.170 OA 
BRANCH  10  13
HETATM   13  O   UNL     1      -9.010   8.785  68.189  1.00  0.00    -0.140 OA 
HETATM   14  O   UNL     1     -10.980   7.582  67.140  1.00  0.00    -0.293 OA 
HETATM   15  P   UNL     1      -9.619   8.128  66.858  1.00  0.00    -0.250 P  
HETATM   16  O   UNL     1      -9.302   9.030  65.696  1.00  0.00    -0.236 OA 
HETATM   17  O   UNL     1      -8.586   6.907  66.673  1.00  0.00    -0.116 OA 
ENDBRANCH  10  13
ENDBRANCH   9  10
ENDBRANCH   8   9
ENDBRANCH   7   8
ENDBRANCH   3   7
BRANCH   6  18
HETATM   18  C   UNL     1      -9.193  15.989  65.776  1.00  0.00    -0.180 C  
BRANCH  18  19
HETATM   19  C   UNL     1      -9.340  17.194  66.653  1.00  0.00    -0.277 A  
HETATM   20  C   UNL     1     -10.465  17.983  66.564  1.00  0.00    -0.334 A  
HETATM   21  N   UNL     1     -10.751  18.979  67.415  1.00  0.00    -0.479 NA 
HETATM   22  C   UNL     1      -9.865  19.195  68.399  1.00  0.00    -0.404 A  
HETATM   23  N   UNL     1      -8.674  18.577  68.480  1.00  0.00    -0.328 NA 
HETATM   24  C   UNL     1     -10.254  20.155  69.478  1.00  0.00     0.025 C  
HETATM   25  C   UNL     1      -8.414  17.623  67.582  1.00  0.00    -0.224 A  
HETATM   26  N   UNL     1      -7.106  17.127  67.612  1.00  0.00    -0.150 NA 
HETATM   27  H1  UNL     1      -6.422  17.445  68.299  1.00  0.00     0.000 HD 
HETATM   28  H2  UNL     1      -6.702  17.263  66.685  1.00  0.00     0.000 HD 
ENDBRANCH  18  19
ENDBRANCH   6  18
TORSDOF 7
ENDMDL
MODEL      176
REMARK 921   NORMALIZED FREE ENERGY PREDICTED BY IDOCK:   -4.58 KCAL/MOL
REMARK 922        TOTAL FREE ENERGY PREDICTED BY IDOCK:   -7.45 KCAL/MOL
REMARK 923 INTER-LIGAND FREE ENERGY PREDICTED BY IDOCK:   -6.49 KCAL/MOL
REMARK 924 INTRA-LIGAND FREE ENERGY PREDICTED BY IDOCK:   -0.96 KCAL/MOL
REMARK 927      BINDING AFFINITY PREDICTED BY RF-SCORE:    0.00 PKD
ROOT
HETATM    1  C   UNL     1     -12.214  12.493  64.692  1.00  0.00    -0.524 C  
HETATM    2  C   UNL     1     -11.354  12.247  65.879  1.00  0.00    -0.360 C  
HETATM    3  C   UNL     1     -10.455  11.198  66.068  1.00  0.00    -0.256 C  
HETATM    4  C   UNL     1     -10.593  12.775  67.979  1.00  0.00    -0.226 C  
HETATM    5  S   UNL     1      -9.831  11.307  67.686  1.00  0.00    -0.177 SA 
HETATM    6  N   UNL     1     -11.360  13.141  66.959  1.00  0.00    -0.298 NA 
ENDROOT
BRANCH   3   7
HETATM    7  C   UNL     1      -9.981  10.071  65.132  1.00  0.00    -0.350 C  
BRANCH   7   8
HETATM    8  C   UNL     1      -8.574  10.385  64.607  1.00  0.00    -0.185 C  
BRANCH   8   9
HETATM    9  O   UNL     1      -7.450   9.842  65.264  1.00  0.00    -0.108 OA 
BRANCH   9  10
HETATM   10  P   UNL     1      -6.625   8.710  64.326  1.00  0.00    -0.071 P  
HETATM   11  O   UNL     1      -5.381   9.884  64.070  1.00  0.00    -0.071 OA 
HETATM   12  O   UNL     1      -7.046   8.964  62.865  1.00  0.00    -0.090 OA 
BRANCH  10  13
HETATM   13  O   UNL     1      -7.869   7.536  64.582  1.00  0.00    -0.118 OA 
HETATM   14  O   UNL     1      -6.424   7.055  66.610  1.00  0.00    -0.047 OA 
HETATM   15  P   UNL     1      -7.771   6.812  66.011  1.00  0.00    -0.101 P  
HETATM   16  O   UNL     1      -9.065   7.032  66.745  1.00  0.00    -0.131 OA 
HETATM   17  O   UNL     1      -7.869   5.278  65.535  1.00  0.00    -0.089 OA 
ENDBRANCH  10  13
ENDBRANCH   9  10
ENDBRANCH   8   9
ENDBRANCH   7   8
ENDBRANCH   3   7
BRANCH   6  18
HETATM   18  C   UNL     1     -12.012  14.461  67.021  1.00  0.00    -0.395 C  
BRANCH  18  19
HETATM   19  C   UNL     1     -11.043  15.596  66.902  1.00  0.00    -0.181 A  
HETATM   20  C   UNL     1     -10.729  16.359  68.005  1.00  0.00    -0.334 A  
HETATM   21  N   UNL     1      -9.759  17.283  68.026  1.00  0.00    -0.268 NA 
HETATM   22  C   UNL     1      -9.073  17.453  66.886  1.00  0.00    -0.245 A  
HETATM   23  N   UNL     1      -9.399  16.864  65.723  1.00  0.00    -0.528 NA 
HETATM   24  C   UNL     1      -7.856  18.323  66.936  1.00  0.00    -0.247 C  
HETATM   25  C   UNL     1     -10.404  15.984  65.741  1.00  0.00    -0.378 A  
HETATM   26  N   UNL     1     -10.806  15.523  64.483  1.00  0.00    -0.707 NA 
HETATM   27  H1  UNL     1     -10.333  15.809  63.625  1.00  0.00     0.000 HD 
HETATM   28  H2  UNL     1     -11.798  15.734  64.377  1.00  0.00     0.000 HD 
ENDBRANCH  18  19
ENDBRANCH   6  18
TORSDOF 7
ENDMDL
MODEL      177
REMARK 921   NORMALIZED FREE ENERGY PREDICTED BY IDOCK:   -4.56 KCAL/MOL
REMARK 922        TOTAL FREE ENERGY PREDICTED BY IDOCK:   -7.41 KCAL/MOL
REMARK 923 INTER-LIGAND FREE ENERGY PREDICTED BY IDOCK:   -6.94 KCAL/MOL
REMARK 924 INTRA-LIGAND FREE ENERGY PREDICTED BY IDOCK:   -0.47 KCAL/MOL
REMARK 927      BINDING AFFINITY PREDICTED BY RF-SCORE:    0.00 PKD
ROOT
HETATM    1  C   UNL     1      -8.436   9.466  68.762  1.00  0.00    -0.122 C  
HETATM    2  C   UNL     1      -9.727   9.782  69.426  1.00  0.00    -0.202 C  
HETATM    3  C   UNL     1     -10.824  10.437  68.868  1.00  0.00    -0.236 C  
HETATM    4  C   UNL     1     -11.133   9.775  71.240  1.00  0.00    -0.304 C  
HETATM    5  S   UNL     1     -12.004  10.678  70.121  1.00  0.00    -0.349 SA 
HETATM    6  N   UNL     1      -9.965   9.380  70.747  1.00  0.00    -0.284 NA 
ENDROOT
BRANCH   3   7
HETATM    7  C   UNL     1     -11.111  10.925  67.436  1.00  0.00    -0.373 C  
BRANCH   7   8
HETATM    8  C   UNL     1     -10.441  12.286  67.204  1.00  0.00    -0.219 C  
BRANCH   8   9
HETATM    9  O   UNL     1     -10.309  13.188  68.280  1.00  0.00    -0.240 OA 
BRANCH   9  10
HETATM   10  P   UNL     1     -11.152  14.628  68.039  1.00  0.00    -0.307 P  
HETATM   11  O   UNL     1     -12.385  14.042  69.101  1.00  0.00    -0.313 OA 
HETATM   12  O   UNL     1     -12.142  14.365  66.886  1.00  0.00    -0.425 OA 
BRANCH  10  13
HETATM   13  O   UNL     1      -9.919  15.214  66.976  1.00  0.00    -0.237 OA 
HETATM   14  O   UNL     1     -10.471  17.368  68.195  1.00  0.00    -0.355 OA 
HETATM   15  P   UNL     1      -9.465  16.717  67.304  1.00  0.00    -0.239 P  
HETATM   16  O   UNL     1      -7.985  16.719  67.572  1.00  0.00    -0.166 OA 
HETATM   17  O   UNL     1      -9.577  17.352  65.829  1.00  0.00    -0.526 OA 
ENDBRANCH  10  13
ENDBRANCH   9  10
ENDBRANCH   8   9
ENDBRANCH   7   8
ENDBRANCH   3   7
BRANCH   6  18
HETATM   18  C   UNL     1      -9.132   8.488  71.572  1.00  0.00    -0.216 C  
BRANCH  18  19
HETATM   19  C   UNL     1      -9.908   7.358  72.176  1.00  0.00    -0.205 A  
HETATM   20  C   UNL     1     -10.858   6.694  71.432  1.00  0.00    -0.242 A  
HETATM   21  N   UNL     1     -11.479   5.577  71.835  1.00  0.00    -0.089 NA 
HETATM   22  C   UNL     1     -11.134   5.106  73.043  1.00  0.00    -0.314 A  
HETATM   23  N   UNL     1     -10.330   5.760  73.897  1.00  0.00    -0.250 NA 
HETATM   24  C   UNL     1     -11.653   3.757  73.431  1.00  0.00    -0.079 C  
HETATM   25  C   UNL     1      -9.769   6.894  73.468  1.00  0.00    -0.220 A  
HETATM   26  N   UNL     1      -9.073   7.613  74.445  1.00  0.00    -0.431 NA 
HETATM   27  H1  UNL     1      -8.970   7.270  75.400  1.00  0.00     0.000 HD 
HETATM   28  H2  UNL     1      -9.482   8.547  74.492  1.00  0.00     0.000 HD 
ENDBRANCH  18  19
ENDBRANCH   6  18
TORSDOF 7
ENDMDL
MODEL      178
REMARK 921   NORMALIZED FREE ENERGY PREDICTED BY IDOCK:   -4.56 KCAL/MOL
REMARK 922        TOTAL FREE ENERGY PREDICTED BY IDOCK:   -7.41 KCAL/MOL
REMARK 923 INTER-LIGAND FREE ENERGY PREDICTED BY IDOCK:   -6.43 KCAL/MOL
REMARK 924 INTRA-LIGAND FREE ENERGY PREDICTED BY IDOCK:   -0.98 KCAL/MOL
REMARK 927      BINDING AFFINITY PREDICTED BY RF-SCORE:    0.00 PKD
ROOT
HETATM    1  C   UNL     1      -8.472  10.403  69.171  1.00  0.00    -0.168 C  
HETATM    2  C   UNL     1      -9.585   9.566  69.690  1.00  0.00    -0.202 C  
HETATM    3  C   UNL     1     -10.861   9.991  70.056  1.00  0.00    -0.302 C  
HETATM    4  C   UNL     1     -10.476   7.557  70.352  1.00  0.00    -0.223 C  
HETATM    5  S   UNL     1     -11.707   8.634  70.736  1.00  0.00    -0.151 SA 
HETATM    6  N   UNL     1      -9.429   8.179  69.823  1.00  0.00    -0.159 NA 
ENDROOT
BRANCH   3   7
HETATM    7  C   UNL     1     -11.558  11.360  69.949  1.00  0.00    -0.402 C  
BRANCH   7   8
HETATM    8  C   UNL     1     -11.619  11.802  68.481  1.00  0.00    -0.321 C  
BRANCH   8   9
HETATM    9  O   UNL     1     -12.127  13.078  68.160  1.00  0.00    -0.307 OA 
BRANCH   9  10
HETATM   10  P   UNL     1     -11.484  13.700  66.731  1.00  0.00    -0.385 P  
HETATM   11  O   UNL     1     -10.923  15.071  67.624  1.00  0.00    -0.286 OA 
HETATM   12  O   UNL     1     -12.559  14.634  66.140  1.00  0.00    -0.169 OA 
BRANCH  10  13
HETATM   13  O   UNL     1     -12.045  12.329  65.838  1.00  0.00    -0.609 OA 
HETATM   14  O   UNL     1     -10.387  13.262  64.162  1.00  0.00    -0.407 OA 
HETATM   15  P   UNL     1     -11.201  12.057  64.501  1.00  0.00    -0.327 P  
HETATM   16  O   UNL     1     -10.643  10.662  64.567  1.00  0.00    -0.304 OA 
HETATM   17  O   UNL     1     -12.412  11.924  63.449  1.00  0.00    -0.578 OA 
ENDBRANCH  10  13
ENDBRANCH   9  10
ENDBRANCH   8   9
ENDBRANCH   7   8
ENDBRANCH   3   7
BRANCH   6  18
HETATM   18  C   UNL     1      -8.309   7.357  69.335  1.00  0.00    -0.132 C  
BRANCH  18  19
HETATM   19  C   UNL     1      -8.667   6.537  68.134  1.00  0.00    -0.117 A  
HETATM   20  C   UNL     1      -8.804   5.170  68.243  1.00  0.00    -0.102 A  
HETATM   21  N   UNL     1      -9.276   4.384  67.266  1.00  0.00    -0.133 NA 
HETATM   22  C   UNL     1      -9.625   4.997  66.124  1.00  0.00    -0.168 A  
HETATM   23  N   UNL     1      -9.392   6.296  65.873  1.00  0.00    -0.044 NA 
HETATM   24  C   UNL     1     -10.344   4.181  65.096  1.00  0.00    -0.198 C  
HETATM   25  C   UNL     1      -8.876   7.031  66.862  1.00  0.00    -0.124 A  
HETATM   26  N   UNL     1      -8.507   8.330  66.500  1.00  0.00    -0.114 NA 
HETATM   27  H1  UNL     1      -8.662   8.695  65.560  1.00  0.00     0.000 HD 
HETATM   28  H2  UNL     1      -7.517   8.443  66.718  1.00  0.00     0.000 HD 
ENDBRANCH  18  19
ENDBRANCH   6  18
TORSDOF 7
ENDMDL
MODEL      179
REMARK 921   NORMALIZED FREE ENERGY PREDICTED BY IDOCK:   -4.56 KCAL/MOL
REMARK 922        TOTAL FREE ENERGY PREDICTED BY IDOCK:   -7.41 KCAL/MOL
REMARK 923 INTER-LIGAND FREE ENERGY PREDICTED BY IDOCK:   -6.95 KCAL/MOL
REMARK 924 INTRA-LIGAND FREE ENERGY PREDICTED BY IDOCK:   -0.46 KCAL/MOL
REMARK 927      BINDING AFFINITY PREDICTED BY RF-SCORE:    0.00 PKD
ROOT
HETATM    1  C   UNL     1     -10.149  15.159  65.304  1.00  0.00    -0.365 C  
HETATM    2  C   UNL     1     -10.818  15.012  66.622  1.00  0.00    -0.318 C  
HETATM    3  C   UNL     1     -10.880  15.955  67.647  1.00  0.00    -0.312 C  
HETATM    4  C   UNL     1     -12.020  13.813  68.167  1.00  0.00    -0.358 C  
HETATM    5  S   UNL     1     -11.648  15.214  69.018  1.00  0.00    -0.344 SA 
HETATM    6  N   UNL     1     -11.519  13.839  66.938  1.00  0.00    -0.331 NA 
ENDROOT
BRANCH   3   7
HETATM    7  C   UNL     1     -10.413  17.420  67.724  1.00  0.00    -0.376 C  
BRANCH   7   8
HETATM    8  C   UNL     1      -8.888  17.491  67.573  1.00  0.00    -0.229 C  
BRANCH   8   9
HETATM    9  O   UNL     1      -8.064  17.141  68.663  1.00  0.00    -0.250 OA 
BRANCH   9  10
HETATM   10  P   UNL     1      -6.693  16.278  68.199  1.00  0.00    -0.140 P  
HETATM   11  O   UNL     1      -5.978  17.764  67.677  1.00  0.00    -0.144 OA 
HETATM   12  O   UNL     1      -6.874  15.940  66.706  1.00  0.00    -0.243 OA 
BRANCH  10  13
HETATM   13  O   UNL     1      -7.407  14.792  68.722  1.00  0.00    -0.114 OA 
HETATM   14  O   UNL     1      -5.422  13.868  67.443  1.00  0.00    -0.345 OA 
HETATM   15  P   UNL     1      -6.488  13.510  68.426  1.00  0.00    -0.127 P  
HETATM   16  O   UNL     1      -6.224  12.804  69.727  1.00  0.00    -0.128 OA 
HETATM   17  O   UNL     1      -7.576  12.568  67.706  1.00  0.00    -0.113 OA 
ENDBRANCH  10  13
ENDBRANCH   9  10
ENDBRANCH   8   9
ENDBRANCH   7   8
ENDBRANCH   3   7
BRANCH   6  18
HETATM   18  C   UNL     1     -11.851  12.727  66.031  1.00  0.00    -0.439 C  
BRANCH  18  19
HETATM   19  C   UNL     1     -11.053  11.490  66.308  1.00  0.00    -0.321 A  
HETATM   20  C   UNL     1     -11.260  10.777  67.468  1.00  0.00    -0.274 A  
HETATM   21  N   UNL     1     -10.711   9.581  67.720  1.00  0.00    -0.262 NA 
HETATM   22  C   UNL     1      -9.916   9.077  66.765  1.00  0.00    -0.263 A  
HETATM   23  N   UNL     1      -9.540   9.759  65.670  1.00  0.00    -0.244 NA 
HETATM   24  C   UNL     1      -9.457   7.661  66.925  1.00  0.00    -0.222 C  
HETATM   25  C   UNL     1     -10.077  10.967  65.484  1.00  0.00    -0.261 A  
HETATM   26  N   UNL     1      -9.534  11.696  64.420  1.00  0.00    -0.426 NA 
HETATM   27  H1  UNL     1      -8.813  11.309  63.811  1.00  0.00     0.000 HD 
HETATM   28  H2  UNL     1      -9.185  12.578  64.795  1.00  0.00     0.000 HD 
ENDBRANCH  18  19
ENDBRANCH   6  18
TORSDOF 7
ENDMDL
MODEL      180
REMARK 921   NORMALIZED FREE ENERGY PREDICTED BY IDOCK:   -4.54 KCAL/MOL
REMARK 922        TOTAL FREE ENERGY PREDICTED BY IDOCK:   -7.39 KCAL/MOL
REMARK 923 INTER-LIGAND FREE ENERGY PREDICTED BY IDOCK:   -6.46 KCAL/MOL
REMARK 924 INTRA-LIGAND FREE ENERGY PREDICTED BY IDOCK:   -0.92 KCAL/MOL
REMARK 927      BINDING AFFINITY PREDICTED BY RF-SCORE:    0.00 PKD
ROOT
HETATM    1  C   UNL     1      -9.446   9.088  67.367  1.00  0.00    -0.179 C  
HETATM    2  C   UNL     1     -10.344  10.014  68.103  1.00  0.00    -0.194 C  
HETATM    3  C   UNL     1     -10.521  10.100  69.483  1.00  0.00    -0.241 C  
HETATM    4  C   UNL     1     -11.910  11.691  68.180  1.00  0.00    -0.244 C  
HETATM    5  S   UNL     1     -11.794  11.241  69.795  1.00  0.00    -0.392 SA 
HETATM    6  N   UNL     1     -11.107  10.965  67.411  1.00  0.00    -0.310 NA 
ENDROOT
BRANCH   3   7
HETATM    7  C   UNL     1      -9.813   9.396  70.655  1.00  0.00    -0.340 C  
BRANCH   7   8
HETATM    8  C   UNL     1     -10.718   8.298  71.229  1.00  0.00    -0.227 C  
BRANCH   8   9
HETATM    9  O   UNL     1     -10.294   6.954  71.182  1.00  0.00    -0.203 OA 
BRANCH   9  10
HETATM   10  P   UNL     1      -9.992   6.305  72.708  1.00  0.00    -0.180 P  
HETATM   11  O   UNL     1     -11.015   7.524  73.387  1.00  0.00    -0.380 OA 
HETATM   12  O   UNL     1      -8.806   7.098  73.292  1.00  0.00    -0.127 OA 
BRANCH  10  13
HETATM   13  O   UNL     1      -8.970   5.087  72.029  1.00  0.00    -0.130 OA 
HETATM   14  O   UNL     1     -10.773   3.606  73.023  1.00  0.00    -0.174 OA 
HETATM   15  P   UNL     1      -9.619   3.620  72.076  1.00  0.00    -0.161 P  
HETATM   16  O   UNL     1      -9.683   3.084  70.671  1.00  0.00    -0.159 OA 
HETATM   17  O   UNL     1      -8.390   2.810  72.727  1.00  0.00    -0.069 OA 
ENDBRANCH  10  13
ENDBRANCH   9  10
ENDBRANCH   8   9
ENDBRANCH   7   8
ENDBRANCH   3   7
BRANCH   6  18
HETATM   18  C   UNL     1     -11.016  11.313  65.982  1.00  0.00    -0.174 C  
BRANCH  18  19
HETATM   19  C   UNL     1     -10.709  12.761  65.752  1.00  0.00    -0.296 A  
HETATM   20  C   UNL     1     -11.592  13.554  65.053  1.00  0.00    -0.327 A  
HETATM   21  N   UNL     1     -11.478  14.884  64.941  1.00  0.00    -0.395 NA 
HETATM   22  C   UNL     1     -10.426  15.446  65.556  1.00  0.00    -0.380 A  
HETATM   23  N   UNL     1      -9.438  14.744  66.135  1.00  0.00    -0.304 NA 
HETATM   24  C   UNL     1     -10.384  16.940  65.623  1.00  0.00    -0.254 C  
HETATM   25  C   UNL     1      -9.573  13.416  66.183  1.00  0.00    -0.202 A  
HETATM   26  N   UNL     1      -8.450  12.726  66.649  1.00  0.00    -0.419 NA 
HETATM   27  H1  UNL     1      -7.610  13.210  66.968  1.00  0.00     0.000 HD 
HETATM   28  H2  UNL     1      -8.171  12.062  65.926  1.00  0.00     0.000 HD 
ENDBRANCH  18  19
ENDBRANCH   6  18
TORSDOF 7
ENDMDL
MODEL      181
REMARK 921   NORMALIZED FREE ENERGY PREDICTED BY IDOCK:   -4.53 KCAL/MOL
REMARK 922        TOTAL FREE ENERGY PREDICTED BY IDOCK:   -7.38 KCAL/MOL
REMARK 923 INTER-LIGAND FREE ENERGY PREDICTED BY IDOCK:   -5.92 KCAL/MOL
REMARK 924 INTRA-LIGAND FREE ENERGY PREDICTED BY IDOCK:   -1.45 KCAL/MOL
REMARK 927      BINDING AFFINITY PREDICTED BY RF-SCORE:    0.00 PKD
ROOT
HETATM    1  C   UNL     1     -11.560  13.082  69.165  1.00  0.00    -0.368 C  
HETATM    2  C   UNL     1     -11.135  13.361  67.769  1.00  0.00    -0.268 C  
HETATM    3  C   UNL     1     -10.957  12.436  66.740  1.00  0.00    -0.263 C  
HETATM    4  C   UNL     1     -10.473  14.782  66.093  1.00  0.00    -0.304 C  
HETATM    5  S   UNL     1     -10.310  13.277  65.365  1.00  0.00    -0.301 SA 
HETATM    6  N   UNL     1     -10.902  14.677  67.345  1.00  0.00    -0.291 NA 
ENDROOT
BRANCH   3   7
HETATM    7  C   UNL     1     -11.231  10.923  66.661  1.00  0.00    -0.060 C  
BRANCH   7   8
HETATM    8  C   UNL     1     -10.062  10.217  65.961  1.00  0.00    -0.248 C  
BRANCH   8   9
HETATM    9  O   UNL     1      -9.721   8.901  66.337  1.00  0.00    -0.220 OA 
BRANCH   9  10
HETATM   10  P   UNL     1      -8.159   8.781  66.960  1.00  0.00    -0.098 P  
HETATM   11  O   UNL     1      -7.739   7.776  65.616  1.00  0.00    -0.091 OA 
HETATM   12  O   UNL     1      -8.129   7.500  67.817  1.00  0.00    -0.116 OA 
BRANCH  10  13
HETATM   13  O   UNL     1      -8.578   9.786  68.304  1.00  0.00    -0.117 OA 
HETATM   14  O   UNL     1      -6.100  10.304  68.159  1.00  0.00    -0.048 OA 
HETATM   15  P   UNL     1      -7.389  10.763  68.758  1.00  0.00    -0.122 P  
HETATM   16  O   UNL     1      -7.886  12.181  68.689  1.00  0.00    -0.130 OA 
HETATM   17  O   UNL     1      -7.380  10.448  70.337  1.00  0.00    -0.245 OA 
ENDBRANCH  10  13
ENDBRANCH   9  10
ENDBRANCH   8   9
ENDBRANCH   7   8
ENDBRANCH   3   7
BRANCH   6  18
HETATM   18  C   UNL     1     -11.198  15.917  68.083  1.00  0.00    -0.339 C  
BRANCH  18  19
HETATM   19  C   UNL     1     -10.024  16.844  68.159  1.00  0.00    -0.285 A  
HETATM   20  C   UNL     1     -10.097  18.102  67.602  1.00  0.00    -0.359 A  
HETATM   21  N   UNL     1      -9.162  19.048  67.764  1.00  0.00    -0.294 NA 
HETATM   22  C   UNL     1      -8.102  18.717  68.516  1.00  0.00    -0.341 A  
HETATM   23  N   UNL     1      -7.873  17.476  68.977  1.00  0.00    -0.181 NA 
HETATM   24  C   UNL     1      -7.149  19.810  68.883  1.00  0.00    -0.358 C  
HETATM   25  C   UNL     1      -8.813  16.553  68.753  1.00  0.00    -0.255 A  
HETATM   26  N   UNL     1      -8.455  15.249  69.111  1.00  0.00    -0.219 NA 
HETATM   27  H1  UNL     1      -7.560  15.034  69.549  1.00  0.00     0.000 HD 
HETATM   28  H2  UNL     1      -8.543  14.664  68.280  1.00  0.00     0.000 HD 
ENDBRANCH  18  19
ENDBRANCH   6  18
TORSDOF 7
ENDMDL
MODEL      182
REMARK 921   NORMALIZED FREE ENERGY PREDICTED BY IDOCK:   -4.52 KCAL/MOL
REMARK 922        TOTAL FREE ENERGY PREDICTED BY IDOCK:   -7.35 KCAL/MOL
REMARK 923 INTER-LIGAND FREE ENERGY PREDICTED BY IDOCK:   -6.47 KCAL/MOL
REMARK 924 INTRA-LIGAND FREE ENERGY PREDICTED BY IDOCK:   -0.89 KCAL/MOL
REMARK 927      BINDING AFFINITY PREDICTED BY RF-SCORE:    0.00 PKD
ROOT
HETATM    1  C   UNL     1     -12.613   9.809  71.563  1.00  0.00    -0.493 C  
HETATM    2  C   UNL     1     -11.267   9.699  70.942  1.00  0.00    -0.352 C  
HETATM    3  C   UNL     1     -10.167   8.995  71.430  1.00  0.00    -0.329 C  
HETATM    4  C   UNL     1      -9.746  10.185  69.294  1.00  0.00    -0.224 C  
HETATM    5  S   UNL     1      -8.812   9.326  70.395  1.00  0.00    -0.246 SA 
HETATM    6  N   UNL     1     -11.001  10.310  69.709  1.00  0.00    -0.269 NA 
ENDROOT
BRANCH   3   7
HETATM    7  C   UNL     1     -10.003   8.054  72.638  1.00  0.00    -0.358 C  
BRANCH   7   8
HETATM    8  C   UNL     1      -8.536   8.032  73.088  1.00  0.00    -0.220 C  
BRANCH   8   9
HETATM    9  O   UNL     1      -7.699   6.977  72.672  1.00  0.00    -0.089 OA 
BRANCH   9  10
HETATM   10  P   UNL     1      -8.526   5.522  72.468  1.00  0.00    -0.116 P  
HETATM   11  O   UNL     1      -8.344   5.222  74.161  1.00  0.00    -0.109 OA 
HETATM   12  O   UNL     1      -7.454   4.437  72.248  1.00  0.00    -0.069 OA 
BRANCH  10  13
HETATM   13  O   UNL     1      -8.709   5.823  70.774  1.00  0.00    -0.127 OA 
HETATM   14  O   UNL     1     -10.150   3.746  70.983  1.00  0.00    -0.119 OA 
HETATM   15  P   UNL     1      -9.818   4.891  70.083  1.00  0.00    -0.260 P  
HETATM   16  O   UNL     1     -10.850   5.778  69.442  1.00  0.00    -0.318 OA 
HETATM   17  O   UNL     1      -8.963   4.350  68.831  1.00  0.00    -0.097 OA 
ENDBRANCH  10  13
ENDBRANCH   9  10
ENDBRANCH   8   9
ENDBRANCH   7   8
ENDBRANCH   3   7
BRANCH   6  18
HETATM   18  C   UNL     1     -11.971  10.947  68.801  1.00  0.00    -0.160 C  
BRANCH  18  19
HETATM   19  C   UNL     1     -11.471  12.235  68.223  1.00  0.00    -0.367 A  
HETATM   20  C   UNL     1     -11.124  12.309  66.892  1.00  0.00    -0.290 A  
HETATM   21  N   UNL     1     -10.824  13.452  66.259  1.00  0.00    -0.287 NA 
HETATM   22  C   UNL     1     -10.871  14.572  66.995  1.00  0.00    -0.297 A  
HETATM   23  N   UNL     1     -11.055  14.583  68.326  1.00  0.00    -0.252 NA 
HETATM   24  C   UNL     1     -10.745  15.877  66.274  1.00  0.00    -0.261 C  
HETATM   25  C   UNL     1     -11.305  13.414  68.922  1.00  0.00    -0.287 A  
HETATM   26  N   UNL     1     -11.330  13.459  70.320  1.00  0.00    -0.469 NA 
HETATM   27  H1  UNL     1     -11.208  14.330  70.836  1.00  0.00     0.000 HD 
HETATM   28  H2  UNL     1     -10.637  12.794  70.663  1.00  0.00     0.000 HD 
ENDBRANCH  18  19
ENDBRANCH   6  18
TORSDOF 7
ENDMDL
MODEL      183
REMARK 921   NORMALIZED FREE ENERGY PREDICTED BY IDOCK:   -4.51 KCAL/MOL
REMARK 922        TOTAL FREE ENERGY PREDICTED BY IDOCK:   -7.34 KCAL/MOL
REMARK 923 INTER-LIGAND FREE ENERGY PREDICTED BY IDOCK:   -6.32 KCAL/MOL
REMARK 924 INTRA-LIGAND FREE ENERGY PREDICTED BY IDOCK:   -1.03 KCAL/MOL
REMARK 927      BINDING AFFINITY PREDICTED BY RF-SCORE:    0.00 PKD
ROOT
HETATM    1  C   UNL     1      -9.841  14.285  68.241  1.00  0.00    -0.235 C  
HETATM    2  C   UNL     1      -8.708  13.399  67.867  1.00  0.00    -0.187 C  
HETATM    3  C   UNL     1      -7.360  13.579  68.174  1.00  0.00    -0.121 C  
HETATM    4  C   UNL     1      -7.835  11.544  66.836  1.00  0.00    -0.163 C  
HETATM    5  S   UNL     1      -6.452  12.336  67.367  1.00  0.00    -0.155 SA 
HETATM    6  N   UNL     1      -8.936  12.212  67.157  1.00  0.00    -0.182 NA 
ENDROOT
BRANCH   3   7
HETATM    7  C   UNL     1      -6.635  14.620  69.047  1.00  0.00    -0.102 C  
BRANCH   7   8
HETATM    8  C   UNL     1      -6.805  16.019  68.441  1.00  0.00    -0.124 C  
BRANCH   8   9
HETATM    9  O   UNL     1      -6.979  16.157  67.049  1.00  0.00    -0.201 OA 
BRANCH   9  10
HETATM   10  P   UNL     1      -7.594  17.664  66.610  1.00  0.00    -0.286 P  
HETATM   11  O   UNL     1      -8.739  16.860  65.593  1.00  0.00    -0.460 OA 
HETATM   12  O   UNL     1      -6.863  18.073  65.316  1.00  0.00    -0.420 OA 
BRANCH  10  13
HETATM   13  O   UNL     1      -6.449  18.468  67.626  1.00  0.00    -0.199 OA 
HETATM   14  O   UNL     1      -8.225  20.274  67.496  1.00  0.00    -0.319 OA 
HETATM   15  P   UNL     1      -7.006  19.841  68.243  1.00  0.00    -0.307 P  
HETATM   16  O   UNL     1      -6.931  19.753  69.743  1.00  0.00    -0.317 OA 
HETATM   17  O   UNL     1      -5.781  20.814  67.865  1.00  0.00    -0.230 OA 
ENDBRANCH  10  13
ENDBRANCH   9  10
ENDBRANCH   8   9
ENDBRANCH   7   8
ENDBRANCH   3   7
BRANCH   6  18
HETATM   18  C   UNL     1     -10.237  11.591  66.853  1.00  0.00    -0.217 C  
BRANCH  18  19
HETATM   19  C   UNL     1     -10.414  10.256  67.509  1.00  0.00    -0.293 A  
HETATM   20  C   UNL     1     -10.485   9.113  66.744  1.00  0.00    -0.196 A  
HETATM   21  N   UNL     1     -10.479   7.872  67.250  1.00  0.00    -0.304 NA 
HETATM   22  C   UNL     1     -10.402   7.773  68.586  1.00  0.00    -0.199 A  
HETATM   23  N   UNL     1     -10.476   8.825  69.418  1.00  0.00    -0.221 NA 
HETATM   24  C   UNL     1     -10.187   6.410  69.165  1.00  0.00    -0.217 C  
HETATM   25  C   UNL     1     -10.527  10.042  68.868  1.00  0.00    -0.210 A  
HETATM   26  N   UNL     1     -10.763  11.086  69.767  1.00  0.00    -0.452 NA 
HETATM   27  H1  UNL     1     -10.846  10.927  70.772  1.00  0.00     0.000 HD 
HETATM   28  H2  UNL     1     -11.602  11.577  69.459  1.00  0.00     0.000 HD 
ENDBRANCH  18  19
ENDBRANCH   6  18
TORSDOF 7
ENDMDL
MODEL      184
REMARK 921   NORMALIZED FREE ENERGY PREDICTED BY IDOCK:   -4.51 KCAL/MOL
REMARK 922        TOTAL FREE ENERGY PREDICTED BY IDOCK:   -7.34 KCAL/MOL
REMARK 923 INTER-LIGAND FREE ENERGY PREDICTED BY IDOCK:   -6.54 KCAL/MOL
REMARK 924 INTRA-LIGAND FREE ENERGY PREDICTED BY IDOCK:   -0.81 KCAL/MOL
REMARK 927      BINDING AFFINITY PREDICTED BY RF-SCORE:    0.00 PKD
ROOT
HETATM    1  C   UNL     1     -12.478  12.885  65.617  1.00  0.00    -0.400 C  
HETATM    2  C   UNL     1     -11.187  12.909  66.352  1.00  0.00    -0.300 C  
HETATM    3  C   UNL     1     -10.845  13.722  67.432  1.00  0.00    -0.277 C  
HETATM    4  C   UNL     1      -9.036  12.189  66.701  1.00  0.00    -0.198 C  
HETATM    5  S   UNL     1      -9.170  13.449  67.805  1.00  0.00    -0.222 SA 
HETATM    6  N   UNL     1     -10.155  12.025  66.007  1.00  0.00    -0.224 NA 
ENDROOT
BRANCH   3   7
HETATM    7  C   UNL     1     -11.667  14.725  68.263  1.00  0.00    -0.340 C  
BRANCH   7   8
HETATM    8  C   UNL     1     -10.918  16.061  68.358  1.00  0.00    -0.331 C  
BRANCH   8   9
HETATM    9  O   UNL     1     -10.774  16.861  67.206  1.00  0.00    -0.297 OA 
BRANCH   9  10
HETATM   10  P   UNL     1      -9.507  17.966  67.327  1.00  0.00    -0.277 P  
HETATM   11  O   UNL     1     -10.664  19.248  67.220  1.00  0.00    -0.455 OA 
HETATM   12  O   UNL     1      -9.103  18.327  65.883  1.00  0.00    -0.503 OA 
BRANCH  10  13
HETATM   13  O   UNL     1      -8.351  16.685  67.434  1.00  0.00    -0.168 OA 
HETATM   14  O   UNL     1      -7.030  18.528  68.570  1.00  0.00    -0.250 OA 
HETATM   15  P   UNL     1      -7.083  17.052  68.346  1.00  0.00    -0.207 P  
HETATM   16  O   UNL     1      -6.981  16.034  69.449  1.00  0.00    -0.201 OA 
HETATM   17  O   UNL     1      -5.902  16.628  67.338  1.00  0.00    -0.131 OA 
ENDBRANCH  10  13
ENDBRANCH   9  10
ENDBRANCH   8   9
ENDBRANCH   7   8
ENDBRANCH   3   7
BRANCH   6  18
HETATM   18  C   UNL     1     -10.231  10.888  65.073  1.00  0.00    -0.303 C  
BRANCH  18  19
HETATM   19  C   UNL     1      -9.926   9.575  65.726  1.00  0.00    -0.316 A  
HETATM   20  C   UNL     1     -10.659   9.155  66.814  1.00  0.00    -0.136 A  
HETATM   21  N   UNL     1     -10.564   7.933  67.355  1.00  0.00    -0.285 NA 
HETATM   22  C   UNL     1      -9.690   7.093  66.781  1.00  0.00    -0.192 A  
HETATM   23  N   UNL     1      -8.830   7.457  65.814  1.00  0.00    -0.121 NA 
HETATM   24  C   UNL     1      -9.709   5.665  67.228  1.00  0.00    -0.147 C  
HETATM   25  C   UNL     1      -8.932   8.700  65.337  1.00  0.00    -0.130 A  
HETATM   26  N   UNL     1      -7.917   9.076  64.451  1.00  0.00    -0.125 NA 
HETATM   27  H1  UNL     1      -7.182   8.429  64.164  1.00  0.00     0.000 HD 
HETATM   28  H2  UNL     1      -7.467   9.909  64.831  1.00  0.00     0.000 HD 
ENDBRANCH  18  19
ENDBRANCH   6  18
TORSDOF 7
ENDMDL
MODEL      185
REMARK 921   NORMALIZED FREE ENERGY PREDICTED BY IDOCK:   -4.48 KCAL/MOL
REMARK 922        TOTAL FREE ENERGY PREDICTED BY IDOCK:   -7.30 KCAL/MOL
REMARK 923 INTER-LIGAND FREE ENERGY PREDICTED BY IDOCK:   -6.31 KCAL/MOL
REMARK 924 INTRA-LIGAND FREE ENERGY PREDICTED BY IDOCK:   -1.00 KCAL/MOL
REMARK 927      BINDING AFFINITY PREDICTED BY RF-SCORE:    0.00 PKD
ROOT
HETATM    1  C   UNL     1     -11.416  12.152  69.017  1.00  0.00    -0.351 C  
HETATM    2  C   UNL     1     -10.105  12.423  68.374  1.00  0.00    -0.217 C  
HETATM    3  C   UNL     1      -8.909  11.734  68.573  1.00  0.00    -0.122 C  
HETATM    4  C   UNL     1      -8.741  13.620  66.968  1.00  0.00    -0.192 C  
HETATM    5  S   UNL     1      -7.658  12.559  67.692  1.00  0.00    -0.159 SA 
HETATM    6  N   UNL     1      -9.976  13.444  67.422  1.00  0.00    -0.227 NA 
ENDROOT
BRANCH   3   7
HETATM    7  C   UNL     1      -8.575  10.467  69.381  1.00  0.00    -0.100 C  
BRANCH   7   8
HETATM    8  C   UNL     1      -8.678   9.230  68.480  1.00  0.00    -0.128 C  
BRANCH   8   9
HETATM    9  O   UNL     1      -7.892   9.154  67.312  1.00  0.00    -0.098 OA 
BRANCH   9  10
HETATM   10  P   UNL     1      -8.620   8.252  66.087  1.00  0.00    -0.155 P  
HETATM   11  O   UNL     1      -8.004   9.387  64.936  1.00  0.00    -0.111 OA 
HETATM   12  O   UNL     1     -10.004   8.887  65.843  1.00  0.00    -0.245 OA 
BRANCH  10  13
HETATM   13  O   UNL     1      -9.236   7.118  67.239  1.00  0.00    -0.126 OA 
HETATM   14  O   UNL     1      -8.875   5.556  65.274  1.00  0.00    -0.156 OA 
HETATM   15  P   UNL     1      -9.129   5.595  66.745  1.00  0.00    -0.128 P  
HETATM   16  O   UNL     1      -8.324   4.824  67.754  1.00  0.00    -0.103 OA 
HETATM   17  O   UNL     1     -10.640   5.120  67.033  1.00  0.00    -0.223 OA 
ENDBRANCH  10  13
ENDBRANCH   9  10
ENDBRANCH   8   9
ENDBRANCH   7   8
ENDBRANCH   3   7
BRANCH   6  18
HETATM   18  C   UNL     1     -11.060  14.228  66.804  1.00  0.00    -0.314 C  
BRANCH  18  19
HETATM   19  C   UNL     1     -10.753  15.692  66.732  1.00  0.00    -0.300 A  
HETATM   20  C   UNL     1     -10.563  16.301  65.511  1.00  0.00    -0.353 A  
HETATM   21  N   UNL     1     -10.446  17.626  65.345  1.00  0.00    -0.621 NA 
HETATM   22  C   UNL     1     -10.519  18.375  66.455  1.00  0.00    -0.381 A  
HETATM   23  N   UNL     1     -10.556  17.865  67.698  1.00  0.00    -0.401 NA 
HETATM   24  C   UNL     1     -10.599  19.859  66.282  1.00  0.00    -0.534 C  
HETATM   25  C   UNL     1     -10.626  16.536  67.816  1.00  0.00    -0.332 A  
HETATM   26  N   UNL     1     -10.501  16.054  69.123  1.00  0.00    -0.232 NA 
HETATM   27  H1  UNL     1     -10.407  16.678  69.924  1.00  0.00     0.000 HD 
HETATM   28  H2  UNL     1      -9.714  15.406  69.140  1.00  0.00     0.000 HD 
ENDBRANCH  18  19
ENDBRANCH   6  18
TORSDOF 7
ENDMDL
MODEL      186
REMARK 921   NORMALIZED FREE ENERGY PREDICTED BY IDOCK:   -4.48 KCAL/MOL
REMARK 922        TOTAL FREE ENERGY PREDICTED BY IDOCK:   -7.30 KCAL/MOL
REMARK 923 INTER-LIGAND FREE ENERGY PREDICTED BY IDOCK:   -6.97 KCAL/MOL
REMARK 924 INTRA-LIGAND FREE ENERGY PREDICTED BY IDOCK:   -0.33 KCAL/MOL
REMARK 927      BINDING AFFINITY PREDICTED BY RF-SCORE:    0.00 PKD
ROOT
HETATM    1  C   UNL     1     -12.102  11.159  69.327  1.00  0.00    -0.377 C  
HETATM    2  C   UNL     1     -10.634  10.995  69.172  1.00  0.00    -0.219 C  
HETATM    3  C   UNL     1      -9.796  11.681  68.293  1.00  0.00    -0.199 C  
HETATM    4  C   UNL     1      -8.634  10.003  69.705  1.00  0.00    -0.173 C  
HETATM    5  S   UNL     1      -8.205  10.995  68.418  1.00  0.00    -0.143 SA 
HETATM    6  N   UNL     1      -9.928  10.097  69.985  1.00  0.00    -0.217 NA 
ENDROOT
BRANCH   3   7
HETATM    7  C   UNL     1     -10.057  12.850  67.327  1.00  0.00    -0.231 C  
BRANCH   7   8
HETATM    8  C   UNL     1     -11.338  13.590  67.735  1.00  0.00    -0.296 C  
BRANCH   8   9
HETATM    9  O   UNL     1     -11.391  14.996  67.634  1.00  0.00    -0.317 OA 
BRANCH   9  10
HETATM   10  P   UNL     1     -11.098  15.771  69.102  1.00  0.00    -0.338 P  
HETATM   11  O   UNL     1      -9.951  16.784  68.296  1.00  0.00    -0.252 OA 
HETATM   12  O   UNL     1      -9.888  15.057  69.738  1.00  0.00    -0.149 OA 
BRANCH  10  13
HETATM   13  O   UNL     1     -12.244  14.758  69.909  1.00  0.00    -0.308 OA 
HETATM   14  O   UNL     1     -11.916  16.519  71.703  1.00  0.00    -0.337 OA 
HETATM   15  P   UNL     1     -12.797  15.392  71.275  1.00  0.00    -0.496 P  
HETATM   16  O   UNL     1     -14.295  15.491  71.180  1.00  0.00    -0.516 OA 
HETATM   17  O   UNL     1     -12.569  14.139  72.258  1.00  0.00    -0.292 OA 
ENDBRANCH  10  13
ENDBRANCH   9  10
ENDBRANCH   8   9
ENDBRANCH   7   8
ENDBRANCH   3   7
BRANCH   6  18
HETATM   18  C   UNL     1     -10.438   9.369  71.159  1.00  0.00    -0.322 C  
BRANCH  18  19
HETATM   19  C   UNL     1     -10.332   7.882  71.015  1.00  0.00    -0.221 A  
HETATM   20  C   UNL     1     -10.972   7.239  69.979  1.00  0.00    -0.253 A  
HETATM   21  N   UNL     1     -10.802   5.943  69.681  1.00  0.00    -0.348 NA 
HETATM   22  C   UNL     1      -9.951   5.259  70.462  1.00  0.00    -0.229 A  
HETATM   23  N   UNL     1      -9.396   5.760  71.578  1.00  0.00    -0.146 NA 
HETATM   24  C   UNL     1      -9.584   3.874  70.032  1.00  0.00    -0.269 C  
HETATM   25  C   UNL     1      -9.632   7.044  71.860  1.00  0.00    -0.150 A  
HETATM   26  N   UNL     1      -9.165   7.469  73.108  1.00  0.00    -0.172 NA 
HETATM   27  H1  UNL     1      -8.647   6.850  73.731  1.00  0.00     0.000 HD 
HETATM   28  H2  UNL     1      -9.961   7.839  73.627  1.00  0.00     0.000 HD 
ENDBRANCH  18  19
ENDBRANCH   6  18
TORSDOF 7
ENDMDL
MODEL      187
REMARK 921   NORMALIZED FREE ENERGY PREDICTED BY IDOCK:   -4.48 KCAL/MOL
REMARK 922        TOTAL FREE ENERGY PREDICTED BY IDOCK:   -7.29 KCAL/MOL
REMARK 923 INTER-LIGAND FREE ENERGY PREDICTED BY IDOCK:   -6.69 KCAL/MOL
REMARK 924 INTRA-LIGAND FREE ENERGY PREDICTED BY IDOCK:   -0.61 KCAL/MOL
REMARK 927      BINDING AFFINITY PREDICTED BY RF-SCORE:    0.00 PKD
ROOT
HETATM    1  C   UNL     1     -11.529  11.340  69.577  1.00  0.00    -0.376 C  
HETATM    2  C   UNL     1     -10.088  11.117  69.286  1.00  0.00    -0.041 C  
HETATM    3  C   UNL     1      -9.350   9.957  69.517  1.00  0.00    -0.220 C  
HETATM    4  C   UNL     1      -8.039  11.817  68.527  1.00  0.00    -0.140 C  
HETATM    5  S   UNL     1      -7.688  10.290  69.135  1.00  0.00    -0.132 SA 
HETATM    6  N   UNL     1      -9.322  12.121  68.678  1.00  0.00    -0.091 NA 
ENDROOT
BRANCH   3   7
HETATM    7  C   UNL     1      -9.762   8.558  70.010  1.00  0.00    -0.172 C  
BRANCH   7   8
HETATM    8  C   UNL     1     -10.207   8.632  71.477  1.00  0.00    -0.274 C  
BRANCH   8   9
HETATM    9  O   UNL     1     -10.183   7.465  72.270  1.00  0.00    -0.190 OA 
BRANCH   9  10
HETATM   10  P   UNL     1     -11.187   6.248  71.676  1.00  0.00    -0.284 P  
HETATM   11  O   UNL     1     -12.527   7.330  71.827  1.00  0.00    -0.320 OA 
HETATM   12  O   UNL     1     -11.754   5.512  72.907  1.00  0.00    -0.278 OA 
BRANCH  10  13
HETATM   13  O   UNL     1      -9.846   5.165  71.526  1.00  0.00    -0.162 OA 
HETATM   14  O   UNL     1     -10.473   5.387  69.079  1.00  0.00    -0.218 OA 
HETATM   15  P   UNL     1      -9.398   4.922  70.005  1.00  0.00    -0.177 P  
HETATM   16  O   UNL     1      -7.951   5.310  69.868  1.00  0.00    -0.081 OA 
HETATM   17  O   UNL     1      -9.353   3.313  69.999  1.00  0.00    -0.144 OA 
ENDBRANCH  10  13
ENDBRANCH   9  10
ENDBRANCH   8   9
ENDBRANCH   7   8
ENDBRANCH   3   7
BRANCH   6  18
HETATM   18  C   UNL     1      -9.807  13.385  68.096  1.00  0.00    -0.234 C  
BRANCH  18  19
HETATM   19  C   UNL     1     -10.542  13.189  66.806  1.00  0.00    -0.267 A  
HETATM   20  C   UNL     1      -9.918  12.583  65.738  1.00  0.00    -0.259 A  
HETATM   21  N   UNL     1     -10.544  12.225  64.609  1.00  0.00    -0.288 NA 
HETATM   22  C   UNL     1     -11.858  12.489  64.546  1.00  0.00    -0.383 A  
HETATM   23  N   UNL     1     -12.520  13.204  65.471  1.00  0.00    -0.470 NA 
HETATM   24  C   UNL     1     -12.622  11.919  63.393  1.00  0.00    -0.555 C  
HETATM   25  C   UNL     1     -11.843  13.580  66.559  1.00  0.00    -0.399 A  
HETATM   26  N   UNL     1     -12.530  14.452  67.409  1.00  0.00    -0.531 NA 
HETATM   27  H1  UNL     1     -13.492  14.741  67.227  1.00  0.00     0.000 HD 
HETATM   28  H2  UNL     1     -11.966  15.296  67.510  1.00  0.00     0.000 HD 
ENDBRANCH  18  19
ENDBRANCH   6  18
TORSDOF 7
ENDMDL
MODEL      188
REMARK 921   NORMALIZED FREE ENERGY PREDICTED BY IDOCK:   -4.47 KCAL/MOL
REMARK 922        TOTAL FREE ENERGY PREDICTED BY IDOCK:   -7.29 KCAL/MOL
REMARK 923 INTER-LIGAND FREE ENERGY PREDICTED BY IDOCK:   -6.03 KCAL/MOL
REMARK 924 INTRA-LIGAND FREE ENERGY PREDICTED BY IDOCK:   -1.26 KCAL/MOL
REMARK 927      BINDING AFFINITY PREDICTED BY RF-SCORE:    0.00 PKD
ROOT
HETATM    1  C   UNL     1     -11.194  13.099  68.593  1.00  0.00    -0.314 C  
HETATM    2  C   UNL     1     -11.139  13.797  67.283  1.00  0.00    -0.304 C  
HETATM    3  C   UNL     1     -11.226  13.222  66.016  1.00  0.00    -0.297 C  
HETATM    4  C   UNL     1     -10.928  15.685  65.995  1.00  0.00    -0.213 C  
HETATM    5  S   UNL     1     -10.953  14.468  64.837  1.00  0.00    -0.408 SA 
HETATM    6  N   UNL     1     -11.025  15.193  67.224  1.00  0.00    -0.321 NA 
ENDROOT
BRANCH   3   7
HETATM    7  C   UNL     1     -11.508  11.778  65.560  1.00  0.00    -0.241 C  
BRANCH   7   8
HETATM    8  C   UNL     1     -10.242  10.925  65.715  1.00  0.00    -0.259 C  
BRANCH   8   9
HETATM    9  O   UNL     1     -10.220   9.879  66.661  1.00  0.00    -0.223 OA 
BRANCH   9  10
HETATM   10  P   UNL     1      -8.733   9.728  67.439  1.00  0.00    -0.131 P  
HETATM   11  O   UNL     1      -9.570   9.196  68.856  1.00  0.00    -0.149 OA 
HETATM   12  O   UNL     1      -8.495  11.057  68.185  1.00  0.00    -0.124 OA 
BRANCH  10  13
HETATM   13  O   UNL     1      -7.896  10.261  66.023  1.00  0.00    -0.121 OA 
HETATM   14  O   UNL     1      -5.973   9.144  67.243  1.00  0.00    -0.049 OA 
HETATM   15  P   UNL     1      -6.401   9.686  65.919  1.00  0.00    -0.085 P  
HETATM   16  O   UNL     1      -6.272   8.931  64.624  1.00  0.00    -0.065 OA 
HETATM   17  O   UNL     1      -5.612  11.059  65.629  1.00  0.00    -0.136 OA 
ENDBRANCH  10  13
ENDBRANCH   9  10
ENDBRANCH   8   9
ENDBRANCH   7   8
ENDBRANCH   3   7
BRANCH   6  18
HETATM   18  C   UNL     1     -11.126  16.143  68.346  1.00  0.00    -0.359 C  
BRANCH  18  19
HETATM   19  C   UNL     1      -9.956  17.074  68.429  1.00  0.00    -0.289 A  
HETATM   20  C   UNL     1     -10.141  18.433  68.304  1.00  0.00    -0.383 A  
HETATM   21  N   UNL     1      -9.183  19.344  68.525  1.00  0.00    -0.364 NA 
HETATM   22  C   UNL     1      -7.981  18.869  68.885  1.00  0.00    -0.265 A  
HETATM   23  N   UNL     1      -7.666  17.563  68.890  1.00  0.00    -0.245 NA 
HETATM   24  C   UNL     1      -6.955  19.860  69.336  1.00  0.00    -0.295 C  
HETATM   25  C   UNL     1      -8.643  16.693  68.618  1.00  0.00    -0.253 A  
HETATM   26  N   UNL     1      -8.228  15.365  68.481  1.00  0.00    -0.138 NA 
HETATM   27  H1  UNL     1      -7.257  15.083  68.622  1.00  0.00     0.000 HD 
HETATM   28  H2  UNL     1      -8.513  15.045  67.556  1.00  0.00     0.000 HD 
ENDBRANCH  18  19
ENDBRANCH   6  18
TORSDOF 7
ENDMDL
MODEL      189
REMARK 921   NORMALIZED FREE ENERGY PREDICTED BY IDOCK:   -4.45 KCAL/MOL
REMARK 922        TOTAL FREE ENERGY PREDICTED BY IDOCK:   -7.26 KCAL/MOL
REMARK 923 INTER-LIGAND FREE ENERGY PREDICTED BY IDOCK:   -6.53 KCAL/MOL
REMARK 924 INTRA-LIGAND FREE ENERGY PREDICTED BY IDOCK:   -0.73 KCAL/MOL
REMARK 927      BINDING AFFINITY PREDICTED BY RF-SCORE:    0.00 PKD
ROOT
HETATM    1  C   UNL     1     -12.457  10.376  71.198  1.00  0.00    -0.509 C  
HETATM    2  C   UNL     1     -11.177  10.170  70.471  1.00  0.00    -0.336 C  
HETATM    3  C   UNL     1     -10.062   9.459  70.911  1.00  0.00    -0.296 C  
HETATM    4  C   UNL     1      -9.795  10.481  68.665  1.00  0.00    -0.178 C  
HETATM    5  S   UNL     1      -8.795   9.663  69.739  1.00  0.00    -0.224 SA 
HETATM    6  N   UNL     1     -11.002  10.684  69.179  1.00  0.00    -0.229 NA 
ENDROOT
BRANCH   3   7
HETATM    7  C   UNL     1      -9.821   8.598  72.164  1.00  0.00    -0.387 C  
BRANCH   7   8
HETATM    8  C   UNL     1      -9.282   7.220  71.756  1.00  0.00    -0.142 C  
BRANCH   8   9
HETATM    9  O   UNL     1     -10.119   6.325  71.059  1.00  0.00    -0.181 OA 
BRANCH   9  10
HETATM   10  P   UNL     1      -9.357   4.868  70.685  1.00  0.00    -0.188 P  
HETATM   11  O   UNL     1      -8.428   5.704  69.489  1.00  0.00    -0.108 OA 
HETATM   12  O   UNL     1     -10.147   4.250  69.515  1.00  0.00    -0.147 OA 
BRANCH  10  13
HETATM   13  O   UNL     1     -10.285   4.032  71.881  1.00  0.00    -0.167 OA 
HETATM   14  O   UNL     1      -8.169   2.637  71.953  1.00  0.00    -0.056 OA 
HETATM   15  P   UNL     1      -9.438   2.931  72.684  1.00  0.00    -0.120 P  
HETATM   16  O   UNL     1      -9.502   3.259  74.151  1.00  0.00    -0.091 OA 
HETATM   17  O   UNL     1     -10.435   1.676  72.539  1.00  0.00    -0.144 OA 
ENDBRANCH  10  13
ENDBRANCH   9  10
ENDBRANCH   8   9
ENDBRANCH   7   8
ENDBRANCH   3   7
BRANCH   6  18
HETATM   18  C   UNL     1     -12.028  11.295  68.316  1.00  0.00    -0.145 C  
BRANCH  18  19
HETATM   19  C   UNL     1     -11.729  12.722  67.973  1.00  0.00    -0.405 A  
HETATM   20  C   UNL     1     -11.399  13.619  68.965  1.00  0.00    -0.287 A  
HETATM   21  N   UNL     1     -10.962  14.864  68.733  1.00  0.00    -0.243 NA 
HETATM   22  C   UNL     1     -10.854  15.229  67.447  1.00  0.00    -0.304 A  
HETATM   23  N   UNL     1     -11.287  14.479  66.420  1.00  0.00    -0.343 NA 
HETATM   24  C   UNL     1     -10.177  16.531  67.154  1.00  0.00    -0.284 C  
HETATM   25  C   UNL     1     -11.758  13.262  66.703  1.00  0.00    -0.377 A  
HETATM   26  N   UNL     1     -12.341  12.590  65.623  1.00  0.00    -0.638 NA 
HETATM   27  H1  UNL     1     -12.363  12.989  64.685  1.00  0.00     0.000 HD 
HETATM   28  H2  UNL     1     -13.299  12.357  65.884  1.00  0.00     0.000 HD 
ENDBRANCH  18  19
ENDBRANCH   6  18
TORSDOF 7
ENDMDL
MODEL      190
REMARK 921   NORMALIZED FREE ENERGY PREDICTED BY IDOCK:   -4.45 KCAL/MOL
REMARK 922        TOTAL FREE ENERGY PREDICTED BY IDOCK:   -7.26 KCAL/MOL
REMARK 923 INTER-LIGAND FREE ENERGY PREDICTED BY IDOCK:   -5.91 KCAL/MOL
REMARK 924 INTRA-LIGAND FREE ENERGY PREDICTED BY IDOCK:   -1.34 KCAL/MOL
REMARK 927      BINDING AFFINITY PREDICTED BY RF-SCORE:    0.00 PKD
ROOT
HETATM    1  C   UNL     1      -8.231  12.922  67.006  1.00  0.00    -0.086 C  
HETATM    2  C   UNL     1      -9.654  13.293  67.215  1.00  0.00    -0.234 C  
HETATM    3  C   UNL     1     -10.588  12.637  68.016  1.00  0.00    -0.221 C  
HETATM    4  C   UNL     1     -11.485  14.621  66.824  1.00  0.00    -0.364 C  
HETATM    5  S   UNL     1     -12.132  13.398  67.778  1.00  0.00    -0.161 SA 
HETATM    6  N   UNL     1     -10.189  14.435  66.604  1.00  0.00    -0.272 NA 
ENDROOT
BRANCH   3   7
HETATM    7  C   UNL     1     -10.455  11.452  68.990  1.00  0.00    -0.196 C  
BRANCH   7   8
HETATM    8  C   UNL     1     -10.880  10.153  68.294  1.00  0.00    -0.252 C  
BRANCH   8   9
HETATM    9  O   UNL     1     -10.786  10.053  66.891  1.00  0.00    -0.212 OA 
BRANCH   9  10
HETATM   10  P   UNL     1      -9.571   8.999  66.387  1.00  0.00    -0.278 P  
HETATM   11  O   UNL     1     -10.073   7.891  67.616  1.00  0.00    -0.175 OA 
HETATM   12  O   UNL     1      -8.344   9.293  67.273  1.00  0.00    -0.123 OA 
BRANCH  10  13
HETATM   13  O   UNL     1      -9.069  10.107  65.157  1.00  0.00    -0.171 OA 
HETATM   14  O   UNL     1      -8.083   7.970  64.214  1.00  0.00    -0.151 OA 
HETATM   15  P   UNL     1      -8.430   9.382  63.876  1.00  0.00    -0.189 P  
HETATM   16  O   UNL     1      -9.221   9.782  62.660  1.00  0.00    -0.281 OA 
HETATM   17  O   UNL     1      -7.075  10.241  63.737  1.00  0.00    -0.125 OA 
ENDBRANCH  10  13
ENDBRANCH   9  10
ENDBRANCH   8   9
ENDBRANCH   7   8
ENDBRANCH   3   7
BRANCH   6  18
HETATM   18  C   UNL     1      -9.454  15.481  65.872  1.00  0.00    -0.342 C  
BRANCH  18  19
HETATM   19  C   UNL     1      -9.489  16.810  66.562  1.00  0.00    -0.287 A  
HETATM   20  C   UNL     1     -10.131  17.879  65.977  1.00  0.00    -0.253 A  
HETATM   21  N   UNL     1     -10.349  19.050  66.591  1.00  0.00    -0.398 NA 
HETATM   22  C   UNL     1      -9.899  19.156  67.850  1.00  0.00    -0.341 A  
HETATM   23  N   UNL     1      -9.137  18.226  68.451  1.00  0.00    -0.310 NA 
HETATM   24  C   UNL     1     -10.306  20.367  68.628  1.00  0.00    -0.099 C  
HETATM   25  C   UNL     1      -8.908  17.093  67.782  1.00  0.00    -0.225 A  
HETATM   26  N   UNL     1      -7.983  16.232  68.381  1.00  0.00    -0.166 NA 
HETATM   27  H1  UNL     1      -7.554  16.441  69.283  1.00  0.00     0.000 HD 
HETATM   28  H2  UNL     1      -7.233  16.066  67.711  1.00  0.00     0.000 HD 
ENDBRANCH  18  19
ENDBRANCH   6  18
TORSDOF 7
ENDMDL
MODEL      191
REMARK 921   NORMALIZED FREE ENERGY PREDICTED BY IDOCK:   -4.44 KCAL/MOL
REMARK 922        TOTAL FREE ENERGY PREDICTED BY IDOCK:   -7.24 KCAL/MOL
REMARK 923 INTER-LIGAND FREE ENERGY PREDICTED BY IDOCK:   -6.49 KCAL/MOL
REMARK 924 INTRA-LIGAND FREE ENERGY PREDICTED BY IDOCK:   -0.75 KCAL/MOL
REMARK 927      BINDING AFFINITY PREDICTED BY RF-SCORE:    0.00 PKD
ROOT
HETATM    1  C   UNL     1     -11.741  13.806  69.560  1.00  0.00    -0.380 C  
HETATM    2  C   UNL     1     -11.399  12.564  68.821  1.00  0.00    -0.293 C  
HETATM    3  C   UNL     1     -10.619  12.454  67.670  1.00  0.00    -0.216 C  
HETATM    4  C   UNL     1     -11.513  10.294  68.501  1.00  0.00    -0.100 C  
HETATM    5  S   UNL     1     -10.666  10.800  67.141  1.00  0.00    -0.267 SA 
HETATM    6  N   UNL     1     -11.838  11.316  69.284  1.00  0.00    -0.329 NA 
ENDROOT
BRANCH   3   7
HETATM    7  C   UNL     1      -9.798  13.492  66.883  1.00  0.00    -0.257 C  
BRANCH   7   8
HETATM    8  C   UNL     1      -8.314  13.378  67.257  1.00  0.00    -0.176 C  
BRANCH   8   9
HETATM    9  O   UNL     1      -7.942  13.335  68.616  1.00  0.00    -0.123 OA 
BRANCH   9  10
HETATM   10  P   UNL     1      -6.288  13.093  68.837  1.00  0.00    -0.105 P  
HETATM   11  O   UNL     1      -6.147  14.748  69.319  1.00  0.00    -0.099 OA 
HETATM   12  O   UNL     1      -5.607  13.510  67.518  1.00  0.00    -0.320 OA 
BRANCH  10  13
HETATM   13  O   UNL     1      -6.429  11.438  68.354  1.00  0.00    -0.049 OA 
HETATM   14  O   UNL     1      -6.260  11.122  70.865  1.00  0.00    -0.361 OA 
HETATM   15  P   UNL     1      -6.623  10.433  69.590  1.00  0.00    -0.118 P  
HETATM   16  O   UNL     1      -7.903   9.671  69.387  1.00  0.00    -0.087 OA 
HETATM   17  O   UNL     1      -5.485   9.353  69.231  1.00  0.00    -0.036 OA 
ENDBRANCH  10  13
ENDBRANCH   9  10
ENDBRANCH   8   9
ENDBRANCH   7   8
ENDBRANCH   3   7
BRANCH   6  18
HETATM   18  C   UNL     1     -12.491  11.022  70.571  1.00  0.00    -0.344 C  
BRANCH  18  19
HETATM   19  C   UNL     1     -12.022   9.739  71.185  1.00  0.00    -0.463 A  
HETATM   20  C   UNL     1     -10.676   9.507  71.362  1.00  0.00    -0.278 A  
HETATM   21  N   UNL     1     -10.178   8.466  72.044  1.00  0.00    -0.265 NA 
HETATM   22  C   UNL     1     -11.073   7.616  72.570  1.00  0.00    -0.336 A  
HETATM   23  N   UNL     1     -12.393   7.678  72.329  1.00  0.00    -0.237 NA 
HETATM   24  C   UNL     1     -10.560   6.566  73.505  1.00  0.00    -0.312 C  
HETATM   25  C   UNL     1     -12.838   8.708  71.605  1.00  0.00    -0.345 A  
HETATM   26  N   UNL     1     -14.189   8.639  71.250  1.00  0.00    -0.600 NA 
HETATM   27  H1  UNL     1     -14.793   7.877  71.561  1.00  0.00     0.000 HD 
HETATM   28  H2  UNL     1     -14.245   8.685  70.233  1.00  0.00     0.000 HD 
ENDBRANCH  18  19
ENDBRANCH   6  18
TORSDOF 7
ENDMDL
MODEL      192
REMARK 921   NORMALIZED FREE ENERGY PREDICTED BY IDOCK:   -4.43 KCAL/MOL
REMARK 922        TOTAL FREE ENERGY PREDICTED BY IDOCK:   -7.23 KCAL/MOL
REMARK 923 INTER-LIGAND FREE ENERGY PREDICTED BY IDOCK:   -6.43 KCAL/MOL
REMARK 924 INTRA-LIGAND FREE ENERGY PREDICTED BY IDOCK:   -0.80 KCAL/MOL
REMARK 927      BINDING AFFINITY PREDICTED BY RF-SCORE:    0.00 PKD
ROOT
HETATM    1  C   UNL     1      -7.549   8.813  65.952  1.00  0.00    -0.090 C  
HETATM    2  C   UNL     1      -8.807   9.182  66.653  1.00  0.00    -0.128 C  
HETATM    3  C   UNL     1      -9.865   9.936  66.147  1.00  0.00    -0.260 C  
HETATM    4  C   UNL     1     -10.185   9.178  68.488  1.00  0.00    -0.198 C  
HETATM    5  S   UNL     1     -11.007  10.192  67.431  1.00  0.00    -0.141 SA 
HETATM    6  N   UNL     1      -9.054   8.731  67.957  1.00  0.00    -0.140 NA 
ENDROOT
BRANCH   3   7
HETATM    7  C   UNL     1     -10.137  10.514  64.746  1.00  0.00    -0.406 C  
BRANCH   7   8
HETATM    8  C   UNL     1     -10.379  12.027  64.843  1.00  0.00    -0.278 C  
BRANCH   8   9
HETATM    9  O   UNL     1     -11.700  12.515  64.924  1.00  0.00    -0.330 OA 
BRANCH   9  10
HETATM   10  P   UNL     1     -11.786  14.070  65.568  1.00  0.00    -0.405 P  
HETATM   11  O   UNL     1     -12.463  14.612  64.071  1.00  0.00    -0.796 OA 
HETATM   12  O   UNL     1     -10.491  14.790  65.143  1.00  0.00    -0.369 OA 
BRANCH  10  13
HETATM   13  O   UNL     1     -11.110  13.528  67.065  1.00  0.00    -0.287 OA 
HETATM   14  O   UNL     1     -11.903  15.828  67.780  1.00  0.00    -0.102 OA 
HETATM   15  P   UNL     1     -11.428  14.509  68.294  1.00  0.00    -0.341 P  
HETATM   16  O   UNL     1     -12.139  13.721  69.359  1.00  0.00    -0.326 OA 
HETATM   17  O   UNL     1      -9.941  14.677  68.886  1.00  0.00    -0.232 OA 
ENDBRANCH  10  13
ENDBRANCH   9  10
ENDBRANCH   8   9
ENDBRANCH   7   8
ENDBRANCH   3   7
BRANCH   6  18
HETATM   18  C   UNL     1      -8.272   7.743  68.722  1.00  0.00    -0.128 C  
BRANCH  18  19
HETATM   19  C   UNL     1      -8.301   7.993  70.198  1.00  0.00    -0.126 A  
HETATM   20  C   UNL     1      -9.088   7.213  71.017  1.00  0.00    -0.151 A  
HETATM   21  N   UNL     1      -9.051   7.260  72.356  1.00  0.00    -0.130 NA 
HETATM   22  C   UNL     1      -8.188   8.131  72.899  1.00  0.00    -0.175 A  
HETATM   23  N   UNL     1      -7.490   9.032  72.188  1.00  0.00    -0.332 NA 
HETATM   24  C   UNL     1      -7.977   8.061  74.379  1.00  0.00    -0.299 C  
HETATM   25  C   UNL     1      -7.593   8.977  70.857  1.00  0.00    -0.124 A  
HETATM   26  N   UNL     1      -6.976  10.031  70.175  1.00  0.00    -0.133 NA 
HETATM   27  H1  UNL     1      -6.452  10.758  70.662  1.00  0.00     0.000 HD 
HETATM   28  H2  UNL     1      -7.686  10.488  69.603  1.00  0.00     0.000 HD 
ENDBRANCH  18  19
ENDBRANCH   6  18
TORSDOF 7
ENDMDL
MODEL      193
REMARK 921   NORMALIZED FREE ENERGY PREDICTED BY IDOCK:   -4.41 KCAL/MOL
REMARK 922        TOTAL FREE ENERGY PREDICTED BY IDOCK:   -7.21 KCAL/MOL
REMARK 923 INTER-LIGAND FREE ENERGY PREDICTED BY IDOCK:   -6.35 KCAL/MOL
REMARK 924 INTRA-LIGAND FREE ENERGY PREDICTED BY IDOCK:   -0.86 KCAL/MOL
REMARK 927      BINDING AFFINITY PREDICTED BY RF-SCORE:    0.00 PKD
ROOT
HETATM    1  C   UNL     1      -7.629  10.953  68.090  1.00  0.00    -0.094 C  
HETATM    2  C   UNL     1      -8.942  10.559  68.663  1.00  0.00    -0.162 C  
HETATM    3  C   UNL     1      -9.283   9.330  69.226  1.00  0.00    -0.152 C  
HETATM    4  C   UNL     1     -11.134  10.982  69.195  1.00  0.00    -0.243 C  
HETATM    5  S   UNL     1     -10.980   9.358  69.596  1.00  0.00    -0.151 SA 
HETATM    6  N   UNL     1     -10.000  11.477  68.714  1.00  0.00    -0.190 NA 
ENDROOT
BRANCH   3   7
HETATM    7  C   UNL     1      -8.446   8.076  69.539  1.00  0.00    -0.131 C  
BRANCH   7   8
HETATM    8  C   UNL     1      -7.866   8.175  70.956  1.00  0.00    -0.090 C  
BRANCH   8   9
HETATM    9  O   UNL     1      -8.685   8.628  72.012  1.00  0.00    -0.229 OA 
BRANCH   9  10
HETATM   10  P   UNL     1      -8.540   7.689  73.404  1.00  0.00    -0.242 P  
HETATM   11  O   UNL     1      -7.746   9.018  74.174  1.00  0.00    -0.347 OA 
HETATM   12  O   UNL     1      -7.156   7.015  73.334  1.00  0.00    -0.074 OA 
BRANCH  10  13
HETATM   13  O   UNL     1      -9.335   6.359  72.634  1.00  0.00    -0.143 OA 
HETATM   14  O   UNL     1     -11.364   7.597  73.517  1.00  0.00    -0.216 OA 
HETATM   15  P   UNL     1     -10.929   6.526  72.571  1.00  0.00    -0.265 P  
HETATM   16  O   UNL     1     -11.358   6.458  71.131  1.00  0.00    -0.293 OA 
HETATM   17  O   UNL     1     -11.366   5.092  73.158  1.00  0.00    -0.314 OA 
ENDBRANCH  10  13
ENDBRANCH   9  10
ENDBRANCH   8   9
ENDBRANCH   7   8
ENDBRANCH   3   7
BRANCH   6  18
HETATM   18  C   UNL     1      -9.945  12.919  68.417  1.00  0.00    -0.211 C  
BRANCH  18  19
HETATM   19  C   UNL     1     -10.539  13.264  67.086  1.00  0.00    -0.259 A  
HETATM   20  C   UNL     1      -9.941  12.826  65.926  1.00  0.00    -0.266 A  
HETATM   21  N   UNL     1     -10.489  12.949  64.708  1.00  0.00    -0.334 NA 
HETATM   22  C   UNL     1     -11.690  13.543  64.652  1.00  0.00    -0.381 A  
HETATM   23  N   UNL     1     -12.282  14.130  65.706  1.00  0.00    -0.431 NA 
HETATM   24  C   UNL     1     -12.415  13.510  63.344  1.00  0.00    -0.152 C  
HETATM   25  C   UNL     1     -11.677  14.021  66.891  1.00  0.00    -0.410 A  
HETATM   26  N   UNL     1     -12.248  14.781  67.917  1.00  0.00    -0.572 NA 
HETATM   27  H1  UNL     1     -13.089  15.340  67.772  1.00  0.00     0.000 HD 
HETATM   28  H2  UNL     1     -11.525  15.397  68.286  1.00  0.00     0.000 HD 
ENDBRANCH  18  19
ENDBRANCH   6  18
TORSDOF 7
ENDMDL
MODEL      194
REMARK 921   NORMALIZED FREE ENERGY PREDICTED BY IDOCK:   -4.41 KCAL/MOL
REMARK 922        TOTAL FREE ENERGY PREDICTED BY IDOCK:   -7.21 KCAL/MOL
REMARK 923 INTER-LIGAND FREE ENERGY PREDICTED BY IDOCK:   -6.69 KCAL/MOL
REMARK 924 INTRA-LIGAND FREE ENERGY PREDICTED BY IDOCK:   -0.52 KCAL/MOL
REMARK 927      BINDING AFFINITY PREDICTED BY RF-SCORE:    0.00 PKD
ROOT
HETATM    1  C   UNL     1     -10.025   9.366  71.171  1.00  0.00    -0.311 C  
HETATM    2  C   UNL     1      -9.957   8.795  69.801  1.00  0.00    -0.190 C  
HETATM    3  C   UNL     1     -10.509   9.328  68.636  1.00  0.00    -0.209 C  
HETATM    4  C   UNL     1      -9.315   7.178  68.304  1.00  0.00    -0.130 C  
HETATM    5  S   UNL     1     -10.264   8.185  67.351  1.00  0.00    -0.283 SA 
HETATM    6  N   UNL     1      -9.248   7.610  69.557  1.00  0.00    -0.150 NA 
ENDROOT
BRANCH   3   7
HETATM    7  C   UNL     1     -11.231  10.659  68.357  1.00  0.00    -0.347 C  
BRANCH   7   8
HETATM    8  C   UNL     1     -10.216  11.719  67.907  1.00  0.00    -0.191 C  
BRANCH   8   9
HETATM    9  O   UNL     1     -10.666  13.014  67.575  1.00  0.00    -0.234 OA 
BRANCH   9  10
HETATM   10  P   UNL     1     -10.041  13.571  66.112  1.00  0.00    -0.300 P  
HETATM   11  O   UNL     1      -8.449  13.352  66.750  1.00  0.00    -0.108 OA 
HETATM   12  O   UNL     1      -9.809  15.085  66.286  1.00  0.00    -0.253 OA 
BRANCH  10  13
HETATM   13  O   UNL     1     -11.634  13.791  65.474  1.00  0.00    -0.314 OA 
HETATM   14  O   UNL     1     -10.582  12.538  63.536  1.00  0.00    -0.432 OA 
HETATM   15  P   UNL     1     -11.887  12.978  64.113  1.00  0.00    -0.482 P  
HETATM   16  O   UNL     1     -13.063  12.063  64.319  1.00  0.00    -0.671 OA 
HETATM   17  O   UNL     1     -12.492  14.164  63.209  1.00  0.00    -0.758 OA 
ENDBRANCH  10  13
ENDBRANCH   9  10
ENDBRANCH   8   9
ENDBRANCH   7   8
ENDBRANCH   3   7
BRANCH   6  18
HETATM   18  C   UNL     1      -8.364   6.892  70.492  1.00  0.00    -0.129 C  
BRANCH  18  19
HETATM   19  C   UNL     1      -9.117   6.073  71.494  1.00  0.00    -0.148 A  
HETATM   20  C   UNL     1      -9.949   5.058  71.076  1.00  0.00    -0.211 A  
HETATM   21  N   UNL     1     -10.530   4.177  71.902  1.00  0.00    -0.033 NA 
HETATM   22  C   UNL     1     -10.268   4.323  73.210  1.00  0.00    -0.156 A  
HETATM   23  N   UNL     1      -9.591   5.364  73.723  1.00  0.00    -0.138 NA 
HETATM   24  C   UNL     1     -10.731   3.239  74.131  1.00  0.00    -0.255 C  
HETATM   25  C   UNL     1      -9.068   6.243  72.863  1.00  0.00    -0.130 A  
HETATM   26  N   UNL     1      -8.515   7.384  73.451  1.00  0.00    -0.127 NA 
HETATM   27  H1  UNL     1      -8.478   7.509  74.463  1.00  0.00     0.000 HD 
HETATM   28  H2  UNL     1      -8.986   8.197  73.054  1.00  0.00     0.000 HD 
ENDBRANCH  18  19
ENDBRANCH   6  18
TORSDOF 7
ENDMDL
MODEL      195
REMARK 921   NORMALIZED FREE ENERGY PREDICTED BY IDOCK:   -4.41 KCAL/MOL
REMARK 922        TOTAL FREE ENERGY PREDICTED BY IDOCK:   -7.21 KCAL/MOL
REMARK 923 INTER-LIGAND FREE ENERGY PREDICTED BY IDOCK:   -6.70 KCAL/MOL
REMARK 924 INTRA-LIGAND FREE ENERGY PREDICTED BY IDOCK:   -0.50 KCAL/MOL
REMARK 927      BINDING AFFINITY PREDICTED BY RF-SCORE:    0.00 PKD
ROOT
HETATM    1  C   UNL     1     -12.218  10.641  69.802  1.00  0.00    -0.318 C  
HETATM    2  C   UNL     1     -11.352  10.901  68.623  1.00  0.00    -0.295 C  
HETATM    3  C   UNL     1     -11.155  12.118  67.973  1.00  0.00    -0.244 C  
HETATM    4  C   UNL     1      -9.902  10.221  66.979  1.00  0.00    -0.193 C  
HETATM    5  S   UNL     1     -10.170  11.828  66.571  1.00  0.00    -0.214 SA 
HETATM    6  N   UNL     1     -10.586   9.870  68.062  1.00  0.00    -0.226 NA 
ENDROOT
BRANCH   3   7
HETATM    7  C   UNL     1     -11.638  13.545  68.294  1.00  0.00    -0.381 C  
BRANCH   7   8
HETATM    8  C   UNL     1     -11.344  14.475  67.110  1.00  0.00    -0.350 C  
BRANCH   8   9
HETATM    9  O   UNL     1     -10.838  15.769  67.352  1.00  0.00    -0.315 OA 
BRANCH   9  10
HETATM   10  P   UNL     1      -9.459  16.115  66.445  1.00  0.00    -0.348 P  
HETATM   11  O   UNL     1     -10.395  17.236  65.519  1.00  0.00    -0.614 OA 
HETATM   12  O   UNL     1      -9.506  15.191  65.212  1.00  0.00    -0.128 OA 
BRANCH  10  13
HETATM   13  O   UNL     1      -8.524  14.993  67.371  1.00  0.00    -0.159 OA 
HETATM   14  O   UNL     1      -6.659  16.497  66.539  1.00  0.00    -0.250 OA 
HETATM   15  P   UNL     1      -6.989  15.433  67.533  1.00  0.00    -0.154 P  
HETATM   16  O   UNL     1      -6.676  15.533  69.001  1.00  0.00    -0.117 OA 
HETATM   17  O   UNL     1      -6.275  14.059  67.093  1.00  0.00    -0.200 OA 
ENDBRANCH  10  13
ENDBRANCH   9  10
ENDBRANCH   8   9
ENDBRANCH   7   8
ENDBRANCH   3   7
BRANCH   6  18
HETATM   18  C   UNL     1     -10.372   8.519  68.609  1.00  0.00    -0.198 C  
BRANCH  18  19
HETATM   19  C   UNL     1     -10.059   8.525  70.073  1.00  0.00    -0.195 A  
HETATM   20  C   UNL     1     -10.928   7.945  70.971  1.00  0.00    -0.244 A  
HETATM   21  N   UNL     1     -10.653   7.763  72.270  1.00  0.00    -0.239 NA 
HETATM   22  C   UNL     1      -9.451   8.185  72.689  1.00  0.00    -0.276 A  
HETATM   23  N   UNL     1      -8.599   8.890  71.926  1.00  0.00    -0.371 NA 
HETATM   24  C   UNL     1      -9.035   7.812  74.077  1.00  0.00    -0.273 C  
HETATM   25  C   UNL     1      -8.936   9.087  70.648  1.00  0.00    -0.220 A  
HETATM   26  N   UNL     1      -8.097   9.957  69.945  1.00  0.00    -0.180 NA 
HETATM   27  H1  UNL     1      -7.268  10.372  70.370  1.00  0.00     0.000 HD 
HETATM   28  H2  UNL     1      -8.673  10.716  69.581  1.00  0.00     0.000 HD 
ENDBRANCH  18  19
ENDBRANCH   6  18
TORSDOF 7
ENDMDL
MODEL      196
REMARK 921   NORMALIZED FREE ENERGY PREDICTED BY IDOCK:   -4.41 KCAL/MOL
REMARK 922        TOTAL FREE ENERGY PREDICTED BY IDOCK:   -7.20 KCAL/MOL
REMARK 923 INTER-LIGAND FREE ENERGY PREDICTED BY IDOCK:   -6.30 KCAL/MOL
REMARK 924 INTRA-LIGAND FREE ENERGY PREDICTED BY IDOCK:   -0.90 KCAL/MOL
REMARK 927      BINDING AFFINITY PREDICTED BY RF-SCORE:    0.00 PKD
ROOT
HETATM    1  C   UNL     1     -13.232  10.174  71.317  1.00  0.00    -0.453 C  
HETATM    2  C   UNL     1     -11.830   9.843  70.951  1.00  0.00    -0.356 C  
HETATM    3  C   UNL     1     -10.958   8.994  71.631  1.00  0.00    -0.365 C  
HETATM    4  C   UNL     1      -9.981  10.045  69.607  1.00  0.00    -0.236 C  
HETATM    5  S   UNL     1      -9.404   9.086  70.860  1.00  0.00    -0.274 SA 
HETATM    6  N   UNL     1     -11.255  10.372  69.787  1.00  0.00    -0.272 NA 
ENDROOT
BRANCH   3   7
HETATM    7  C   UNL     1     -11.161   8.074  72.849  1.00  0.00    -0.389 C  
BRANCH   7   8
HETATM    8  C   UNL     1     -10.107   6.959  72.843  1.00  0.00    -0.189 C  
BRANCH   8   9
HETATM    9  O   UNL     1      -9.842   6.248  74.032  1.00  0.00    -0.184 OA 
BRANCH   9  10
HETATM   10  P   UNL     1      -8.899   4.873  73.778  1.00  0.00    -0.105 P  
HETATM   11  O   UNL     1      -7.583   5.676  74.562  1.00  0.00    -0.094 OA 
HETATM   12  O   UNL     1      -8.139   5.104  72.457  1.00  0.00    -0.107 OA 
BRANCH  10  13
HETATM   13  O   UNL     1     -10.215   4.070  72.993  1.00  0.00    -0.145 OA 
HETATM   14  O   UNL     1      -8.853   2.047  73.687  1.00  0.00    -0.065 OA 
HETATM   15  P   UNL     1     -10.195   2.479  73.195  1.00  0.00    -0.146 P  
HETATM   16  O   UNL     1     -11.493   2.064  73.833  1.00  0.00    -0.186 OA 
HETATM   17  O   UNL     1     -10.370   2.018  71.663  1.00  0.00    -0.052 OA 
ENDBRANCH  10  13
ENDBRANCH   9  10
ENDBRANCH   8   9
ENDBRANCH   7   8
ENDBRANCH   3   7
BRANCH   6  18
HETATM   18  C   UNL     1     -11.936  11.122  68.718  1.00  0.00    -0.268 C  
BRANCH  18  19
HETATM   19  C   UNL     1     -11.356  12.486  68.502  1.00  0.00    -0.337 A  
HETATM   20  C   UNL     1     -10.631  12.759  67.363  1.00  0.00    -0.229 A  
HETATM   21  N   UNL     1     -10.217  13.984  67.014  1.00  0.00    -0.259 NA 
HETATM   22  C   UNL     1     -10.543  14.984  67.847  1.00  0.00    -0.259 A  
HETATM   23  N   UNL     1     -11.118  14.797  69.047  1.00  0.00    -0.244 NA 
HETATM   24  C   UNL     1     -10.276  16.382  67.385  1.00  0.00    -0.281 C  
HETATM   25  C   UNL     1     -11.472  13.551  69.372  1.00  0.00    -0.282 A  
HETATM   26  N   UNL     1     -11.917  13.390  70.688  1.00  0.00    -0.526 NA 
HETATM   27  H1  UNL     1     -12.002  14.177  71.332  1.00  0.00     0.000 HD 
HETATM   28  H2  UNL     1     -11.324  12.688  71.132  1.00  0.00     0.000 HD 
ENDBRANCH  18  19
ENDBRANCH   6  18
TORSDOF 7
ENDMDL
MODEL      197
REMARK 921   NORMALIZED FREE ENERGY PREDICTED BY IDOCK:   -4.41 KCAL/MOL
REMARK 922        TOTAL FREE ENERGY PREDICTED BY IDOCK:   -7.20 KCAL/MOL
REMARK 923 INTER-LIGAND FREE ENERGY PREDICTED BY IDOCK:   -6.47 KCAL/MOL
REMARK 924 INTRA-LIGAND FREE ENERGY PREDICTED BY IDOCK:   -0.73 KCAL/MOL
REMARK 927      BINDING AFFINITY PREDICTED BY RF-SCORE:    0.00 PKD
ROOT
HETATM    1  C   UNL     1     -11.523   6.295  69.907  1.00  0.00    -0.459 C  
HETATM    2  C   UNL     1     -10.549   7.418  69.920  1.00  0.00    -0.236 C  
HETATM    3  C   UNL     1     -10.784   8.735  70.314  1.00  0.00    -0.227 C  
HETATM    4  C   UNL     1      -8.465   8.303  69.544  1.00  0.00    -0.125 C  
HETATM    5  S   UNL     1      -9.351   9.660  69.986  1.00  0.00    -0.238 SA 
HETATM    6  N   UNL     1      -9.215   7.207  69.544  1.00  0.00    -0.149 NA 
ENDROOT
BRANCH   3   7
HETATM    7  C   UNL     1     -12.015   9.415  70.941  1.00  0.00    -0.351 C  
BRANCH   7   8
HETATM    8  C   UNL     1     -12.095  10.877  70.482  1.00  0.00    -0.371 C  
BRANCH   8   9
HETATM    9  O   UNL     1     -12.429  11.167  69.143  1.00  0.00    -0.418 OA 
BRANCH   9  10
HETATM   10  P   UNL     1     -11.999  12.731  68.683  1.00  0.00    -0.023 P  
HETATM   11  O   UNL     1     -11.926  12.189  67.042  1.00  0.00    -0.593 OA 
HETATM   12  O   UNL     1     -10.458  12.766  68.648  1.00  0.00    -0.244 OA 
BRANCH  10  13
HETATM   13  O   UNL     1     -12.071  13.273  70.324  1.00  0.00    -0.343 OA 
HETATM   14  O   UNL     1     -11.960  15.519  69.151  1.00  0.00    -0.348 OA 
HETATM   15  P   UNL     1     -12.265  14.861  70.456  1.00  0.00    -0.387 P  
HETATM   16  O   UNL     1     -13.513  15.122  71.254  1.00  0.00    -0.421 OA 
HETATM   17  O   UNL     1     -11.082  15.183  71.500  1.00  0.00    -0.327 OA 
ENDBRANCH  10  13
ENDBRANCH   9  10
ENDBRANCH   8   9
ENDBRANCH   7   8
ENDBRANCH   3   7
BRANCH   6  18
HETATM   18  C   UNL     1      -8.556   5.916  69.281  1.00  0.00    -0.112 C  
BRANCH  18  19
HETATM   19  C   UNL     1      -8.865   5.370  67.921  1.00  0.00    -0.105 A  
HETATM   20  C   UNL     1      -9.453   4.131  67.789  1.00  0.00    -0.175 A  
HETATM   21  N   UNL     1      -9.909   3.638  66.629  1.00  0.00    -0.070 NA 
HETATM   22  C   UNL     1      -9.765   4.422  65.550  1.00  0.00    -0.200 A  
HETATM   23  N   UNL     1      -9.077   5.576  65.553  1.00  0.00    -0.132 NA 
HETATM   24  C   UNL     1     -10.444   3.991  64.289  1.00  0.00    -0.207 C  
HETATM   25  C   UNL     1      -8.601   6.006  66.725  1.00  0.00    -0.110 A  
HETATM   26  N   UNL     1      -7.761   7.121  66.646  1.00  0.00    -0.096 NA 
HETATM   27  H1  UNL     1      -7.566   7.592  65.762  1.00  0.00     0.000 HD 
HETATM   28  H2  UNL     1      -6.868   6.867  67.067  1.00  0.00     0.000 HD 
ENDBRANCH  18  19
ENDBRANCH   6  18
TORSDOF 7
ENDMDL
MODEL      198
REMARK 921   NORMALIZED FREE ENERGY PREDICTED BY IDOCK:   -4.40 KCAL/MOL
REMARK 922        TOTAL FREE ENERGY PREDICTED BY IDOCK:   -7.19 KCAL/MOL
REMARK 923 INTER-LIGAND FREE ENERGY PREDICTED BY IDOCK:   -6.35 KCAL/MOL
REMARK 924 INTRA-LIGAND FREE ENERGY PREDICTED BY IDOCK:   -0.84 KCAL/MOL
REMARK 927      BINDING AFFINITY PREDICTED BY RF-SCORE:    0.00 PKD
ROOT
HETATM    1  C   UNL     1      -9.498   9.759  65.074  1.00  0.00    -0.337 C  
HETATM    2  C   UNL     1     -10.196  10.303  66.267  1.00  0.00    -0.221 C  
HETATM    3  C   UNL     1     -10.504  11.638  66.529  1.00  0.00    -0.239 C  
HETATM    4  C   UNL     1     -11.216  10.062  68.309  1.00  0.00    -0.132 C  
HETATM    5  S   UNL     1     -11.183  11.732  68.126  1.00  0.00    -0.286 SA 
HETATM    6  N   UNL     1     -10.663   9.444  67.272  1.00  0.00    -0.243 NA 
ENDROOT
BRANCH   3   7
HETATM    7  C   UNL     1     -10.346  12.914  65.682  1.00  0.00    -0.295 C  
BRANCH   7   8
HETATM    8  C   UNL     1     -10.129  14.126  66.598  1.00  0.00    -0.275 C  
BRANCH   8   9
HETATM    9  O   UNL     1      -9.254  15.155  66.193  1.00  0.00    -0.295 OA 
BRANCH   9  10
HETATM   10  P   UNL     1      -9.670  16.659  66.831  1.00  0.00    -0.278 P  
HETATM   11  O   UNL     1     -10.890  15.880  67.777  1.00  0.00    -0.311 OA 
HETATM   12  O   UNL     1     -10.817  17.201  65.955  1.00  0.00    -0.160 OA 
BRANCH  10  13
HETATM   13  O   UNL     1      -8.449  17.438  65.885  1.00  0.00    -0.530 OA 
HETATM   14  O   UNL     1      -8.674  19.140  67.750  1.00  0.00    -0.290 OA 
HETATM   15  P   UNL     1      -7.807  18.717  66.611  1.00  0.00    -0.272 P  
HETATM   16  O   UNL     1      -6.322  18.504  66.722  1.00  0.00    -0.174 OA 
HETATM   17  O   UNL     1      -7.941  19.789  65.418  1.00  0.00    -0.319 OA 
ENDBRANCH  10  13
ENDBRANCH   9  10
ENDBRANCH   8   9
ENDBRANCH   7   8
ENDBRANCH   3   7
BRANCH   6  18
HETATM   18  C   UNL     1     -10.714   7.973  67.234  1.00  0.00    -0.210 C  
BRANCH  18  19
HETATM   19  C   UNL     1     -10.251   7.340  68.510  1.00  0.00    -0.197 A  
HETATM   20  C   UNL     1     -11.156   6.732  69.351  1.00  0.00    -0.261 A  
HETATM   21  N   UNL     1     -10.812   6.006  70.424  1.00  0.00    -0.295 NA 
HETATM   22  C   UNL     1      -9.498   5.887  70.667  1.00  0.00    -0.171 A  
HETATM   23  N   UNL     1      -8.551   6.560  69.993  1.00  0.00    -0.138 NA 
HETATM   24  C   UNL     1      -9.078   4.919  71.728  1.00  0.00    -0.166 C  
HETATM   25  C   UNL     1      -8.946   7.308  68.959  1.00  0.00    -0.134 A  
HETATM   26  N   UNL     1      -7.947   8.109  68.396  1.00  0.00    -0.121 NA 
HETATM   27  H1  UNL     1      -6.982   8.085  68.727  1.00  0.00     0.000 HD 
HETATM   28  H2  UNL     1      -8.266   9.076  68.436  1.00  0.00     0.000 HD 
ENDBRANCH  18  19
ENDBRANCH   6  18
TORSDOF 7
ENDMDL
MODEL      199
REMARK 921   NORMALIZED FREE ENERGY PREDICTED BY IDOCK:   -4.39 KCAL/MOL
REMARK 922        TOTAL FREE ENERGY PREDICTED BY IDOCK:   -7.17 KCAL/MOL
REMARK 923 INTER-LIGAND FREE ENERGY PREDICTED BY IDOCK:   -6.31 KCAL/MOL
REMARK 924 INTRA-LIGAND FREE ENERGY PREDICTED BY IDOCK:   -0.87 KCAL/MOL
REMARK 927      BINDING AFFINITY PREDICTED BY RF-SCORE:    0.00 PKD
ROOT
HETATM    1  C   UNL     1      -9.016  10.183  66.081  1.00  0.00    -0.171 C  
HETATM    2  C   UNL     1      -8.690  10.086  67.528  1.00  0.00    -0.125 C  
HETATM    3  C   UNL     1      -7.859  10.929  68.264  1.00  0.00    -0.118 C  
HETATM    4  C   UNL     1      -8.848   9.073  69.581  1.00  0.00    -0.145 C  
HETATM    5  S   UNL     1      -7.708  10.274  69.866  1.00  0.00    -0.056 SA 
HETATM    6  N   UNL     1      -9.267   9.085  68.322  1.00  0.00    -0.136 NA 
ENDROOT
BRANCH   3   7
HETATM    7  C   UNL     1      -7.132  12.235  67.893  1.00  0.00    -0.105 C  
BRANCH   7   8
HETATM    8  C   UNL     1      -8.113  13.414  67.953  1.00  0.00    -0.162 C  
BRANCH   8   9
HETATM    9  O   UNL     1      -9.450  13.187  68.339  1.00  0.00    -0.213 OA 
BRANCH   9  10
HETATM   10  P   UNL     1     -10.531  14.269  67.631  1.00  0.00    -0.251 P  
HETATM   11  O   UNL     1      -9.981  15.483  68.733  1.00  0.00    -0.200 OA 
HETATM   12  O   UNL     1     -11.821  14.211  68.473  1.00  0.00    -0.329 OA 
BRANCH  10  13
HETATM   13  O   UNL     1     -11.080  13.055  66.528  1.00  0.00    -0.278 OA 
HETATM   14  O   UNL     1     -11.313  15.097  65.043  1.00  0.00    -0.373 OA 
HETATM   15  P   UNL     1     -11.285  13.604  65.034  1.00  0.00    -0.357 P  
HETATM   16  O   UNL     1     -10.426  12.789  64.107  1.00  0.00    -0.385 OA 
HETATM   17  O   UNL     1     -12.769  13.048  64.752  1.00  0.00    -0.651 OA 
ENDBRANCH  10  13
ENDBRANCH   9  10
ENDBRANCH   8   9
ENDBRANCH   7   8
ENDBRANCH   3   7
BRANCH   6  18
HETATM   18  C   UNL     1     -10.349   8.159  67.943  1.00  0.00    -0.220 C  
BRANCH  18  19
HETATM   19  C   UNL     1     -10.173   6.789  68.521  1.00  0.00    -0.186 A  
HETATM   20  C   UNL     1      -9.193   5.952  68.035  1.00  0.00    -0.112 A  
HETATM   21  N   UNL     1      -8.862   4.781  68.597  1.00  0.00    -0.097 NA 
HETATM   22  C   UNL     1      -9.548   4.431  69.695  1.00  0.00    -0.205 A  
HETATM   23  N   UNL     1     -10.614   5.107  70.155  1.00  0.00    -0.236 NA 
HETATM   24  C   UNL     1      -9.066   3.238  70.458  1.00  0.00    -0.192 C  
HETATM   25  C   UNL     1     -10.936   6.246  69.535  1.00  0.00    -0.379 A  
HETATM   26  N   UNL     1     -12.140   6.823  69.950  1.00  0.00    -0.625 NA 
HETATM   27  H1  UNL     1     -12.703   6.421  70.700  1.00  0.00     0.000 HD 
HETATM   28  H2  UNL     1     -12.737   6.917  69.129  1.00  0.00     0.000 HD 
ENDBRANCH  18  19
ENDBRANCH   6  18
TORSDOF 7
ENDMDL
MODEL      200
REMARK 921   NORMALIZED FREE ENERGY PREDICTED BY IDOCK:   -4.37 KCAL/MOL
REMARK 922        TOTAL FREE ENERGY PREDICTED BY IDOCK:   -7.14 KCAL/MOL
REMARK 923 INTER-LIGAND FREE ENERGY PREDICTED BY IDOCK:   -6.14 KCAL/MOL
REMARK 924 INTRA-LIGAND FREE ENERGY PREDICTED BY IDOCK:   -1.00 KCAL/MOL
REMARK 927      BINDING AFFINITY PREDICTED BY RF-SCORE:    0.00 PKD
ROOT
HETATM    1  C   UNL     1     -10.620  10.015  70.069  1.00  0.00    -0.344 C  
HETATM    2  C   UNL     1      -9.368   9.924  69.275  1.00  0.00    -0.206 C  
HETATM    3  C   UNL     1      -8.805  10.913  68.469  1.00  0.00    -0.153 C  
HETATM    4  C   UNL     1      -7.524   8.788  68.514  1.00  0.00    -0.089 C  
HETATM    5  S   UNL     1      -7.431  10.229  67.655  1.00  0.00    -0.089 SA 
HETATM    6  N   UNL     1      -8.585   8.762  69.312  1.00  0.00    -0.129 NA 
ENDROOT
BRANCH   3   7
HETATM    7  C   UNL     1      -9.192  12.384  68.227  1.00  0.00    -0.189 C  
BRANCH   7   8
HETATM    8  C   UNL     1      -9.146  12.696  66.725  1.00  0.00    -0.214 C  
BRANCH   8   9
HETATM    9  O   UNL     1     -10.334  12.639  65.968  1.00  0.00    -0.259 OA 
BRANCH   9  10
HETATM   10  P   UNL     1     -11.442  13.836  66.392  1.00  0.00    -0.370 P  
HETATM   11  O   UNL     1     -12.365  12.635  67.227  1.00  0.00    -0.352 OA 
HETATM   12  O   UNL     1     -12.545  13.811  65.315  1.00  0.00    -0.489 OA 
BRANCH  10  13
HETATM   13  O   UNL     1     -10.519  15.038  65.557  1.00  0.00    -0.311 OA 
HETATM   14  O   UNL     1     -11.160  16.369  67.618  1.00  0.00    -0.266 OA 
HETATM   15  P   UNL     1     -10.243  16.349  66.440  1.00  0.00    -0.319 P  
HETATM   16  O   UNL     1      -8.756  16.554  66.533  1.00  0.00    -0.228 OA 
HETATM   17  O   UNL     1     -10.708  17.475  65.388  1.00  0.00    -0.612 OA 
ENDBRANCH  10  13
ENDBRANCH   9  10
ENDBRANCH   8   9
ENDBRANCH   7   8
ENDBRANCH   3   7
BRANCH   6  18
HETATM   18  C   UNL     1      -8.746   7.607  70.212  1.00  0.00    -0.144 C  
BRANCH  18  19
HETATM   19  C   UNL     1      -8.893   6.310  69.477  1.00  0.00    -0.135 A  
HETATM   20  C   UNL     1      -7.886   5.371  69.519  1.00  0.00    -0.085 A  
HETATM   21  N   UNL     1      -7.999   4.129  69.029  1.00  0.00    -0.067 NA 
HETATM   22  C   UNL     1      -9.176   3.814  68.468  1.00  0.00    -0.156 A  
HETATM   23  N   UNL     1     -10.161   4.702  68.251  1.00  0.00    -0.056 NA 
HETATM   24  C   UNL     1      -9.404   2.382  68.100  1.00  0.00    -0.263 C  
HETATM   25  C   UNL     1      -9.985   5.942  68.716  1.00  0.00    -0.152 A  
HETATM   26  N   UNL     1     -10.963   6.862  68.326  1.00  0.00    -0.461 NA 
HETATM   27  H1  UNL     1     -11.769   6.590  67.764  1.00  0.00     0.000 HD 
HETATM   28  H2  UNL     1     -10.493   7.629  67.845  1.00  0.00     0.000 HD 
ENDBRANCH  18  19
ENDBRANCH   6  18
TORSDOF 7
ENDMDL
MODEL      201
REMARK 921   NORMALIZED FREE ENERGY PREDICTED BY IDOCK:   -4.35 KCAL/MOL
REMARK 922        TOTAL FREE ENERGY PREDICTED BY IDOCK:   -7.12 KCAL/MOL
REMARK 923 INTER-LIGAND FREE ENERGY PREDICTED BY IDOCK:   -6.51 KCAL/MOL
REMARK 924 INTRA-LIGAND FREE ENERGY PREDICTED BY IDOCK:   -0.61 KCAL/MOL
REMARK 927      BINDING AFFINITY PREDICTED BY RF-SCORE:    0.00 PKD
ROOT
HETATM    1  C   UNL     1      -8.861  11.742  66.646  1.00  0.00    -0.189 C  
HETATM    2  C   UNL     1      -7.874  11.981  67.731  1.00  0.00    -0.145 C  
HETATM    3  C   UNL     1      -7.638  13.177  68.409  1.00  0.00    -0.133 C  
HETATM    4  C   UNL     1      -6.197  11.293  69.138  1.00  0.00    -0.058 C  
HETATM    5  S   UNL     1      -6.281  12.939  69.467  1.00  0.00    -0.106 SA 
HETATM    6  N   UNL     1      -7.076  10.934  68.211  1.00  0.00    -0.073 NA 
ENDROOT
BRANCH   3   7
HETATM    7  C   UNL     1      -8.347  14.543  68.360  1.00  0.00    -0.153 C  
BRANCH   7   8
HETATM    8  C   UNL     1      -8.034  15.247  67.033  1.00  0.00    -0.208 C  
BRANCH   8   9
HETATM    9  O   UNL     1      -8.971  15.196  65.981  1.00  0.00    -0.259 OA 
BRANCH   9  10
HETATM   10  P   UNL     1     -10.203  16.335  66.143  1.00  0.00    -0.362 P  
HETATM   11  O   UNL     1     -11.340  15.036  66.253  1.00  0.00    -0.341 OA 
HETATM   12  O   UNL     1     -10.756  16.584  64.726  1.00  0.00    -0.719 OA 
BRANCH  10  13
HETATM   13  O   UNL     1      -9.066  17.634  66.033  1.00  0.00    -0.493 OA 
HETATM   14  O   UNL     1     -10.905  18.804  67.329  1.00  0.00    -0.443 OA 
HETATM   15  P   UNL     1      -9.472  18.906  66.924  1.00  0.00    -0.345 P  
HETATM   16  O   UNL     1      -8.349  19.191  67.884  1.00  0.00    -0.283 OA 
HETATM   17  O   UNL     1      -9.316  20.062  65.815  1.00  0.00    -0.282 OA 
ENDBRANCH  10  13
ENDBRANCH   9  10
ENDBRANCH   8   9
ENDBRANCH   7   8
ENDBRANCH   3   7
BRANCH   6  18
HETATM   18  C   UNL     1      -7.199   9.501  67.890  1.00  0.00    -0.082 C  
BRANCH  18  19
HETATM   19  C   UNL     1      -8.449   8.885  68.438  1.00  0.00    -0.129 A  
HETATM   20  C   UNL     1      -9.333   8.247  67.597  1.00  0.00    -0.137 A  
HETATM   21  N   UNL     1     -10.387   7.533  68.019  1.00  0.00    -0.198 NA 
HETATM   22  C   UNL     1     -10.564   7.460  69.346  1.00  0.00    -0.226 A  
HETATM   23  N   UNL     1      -9.845   8.166  70.235  1.00  0.00    -0.183 NA 
HETATM   24  C   UNL     1     -11.602   6.508  69.852  1.00  0.00    -0.433 C  
HETATM   25  C   UNL     1      -8.833   8.899  69.764  1.00  0.00    -0.144 A  
HETATM   26  N   UNL     1      -8.222   9.734  70.705  1.00  0.00    -0.388 NA 
HETATM   27  H1  UNL     1      -8.505   9.744  71.685  1.00  0.00     0.000 HD 
HETATM   28  H2  UNL     1      -8.279  10.690  70.355  1.00  0.00     0.000 HD 
ENDBRANCH  18  19
ENDBRANCH   6  18
TORSDOF 7
ENDMDL
MODEL      202
REMARK 921   NORMALIZED FREE ENERGY PREDICTED BY IDOCK:   -4.35 KCAL/MOL
REMARK 922        TOTAL FREE ENERGY PREDICTED BY IDOCK:   -7.12 KCAL/MOL
REMARK 923 INTER-LIGAND FREE ENERGY PREDICTED BY IDOCK:   -7.18 KCAL/MOL
REMARK 924 INTRA-LIGAND FREE ENERGY PREDICTED BY IDOCK:    0.06 KCAL/MOL
REMARK 927      BINDING AFFINITY PREDICTED BY RF-SCORE:    0.00 PKD
ROOT
HETATM    1  C   UNL     1      -8.540  14.906  66.308  1.00  0.00     0.127 C  
HETATM    2  C   UNL     1      -7.665  14.280  67.332  1.00  0.00    -0.173 C  
HETATM    3  C   UNL     1      -7.525  12.920  67.605  1.00  0.00    -0.148 C  
HETATM    4  C   UNL     1      -6.141  14.393  69.044  1.00  0.00    -0.091 C  
HETATM    5  S   UNL     1      -6.494  12.751  68.993  1.00  0.00    -0.100 SA 
HETATM    6  N   UNL     1      -6.826  15.070  68.131  1.00  0.00    -0.119 NA 
ENDROOT
BRANCH   3   7
HETATM    7  C   UNL     1      -8.098  11.669  66.914  1.00  0.00    -0.164 C  
BRANCH   7   8
HETATM    8  C   UNL     1      -9.518  11.393  67.426  1.00  0.00    -0.167 C  
BRANCH   8   9
HETATM    9  O   UNL     1     -10.106  12.277  68.354  1.00  0.00    -0.214 OA 
BRANCH   9  10
HETATM   10  P   UNL     1     -11.781  12.381  68.192  1.00  0.00    -0.257 P  
HETATM   11  O   UNL     1     -11.866  12.954  69.821  1.00  0.00    -0.312 OA 
HETATM   12  O   UNL     1     -12.353  11.051  68.722  1.00  0.00    -0.533 OA 
BRANCH  10  13
HETATM   13  O   UNL     1     -11.696  11.807  66.562  1.00  0.00    -0.530 OA 
HETATM   14  O   UNL     1     -12.558  14.152  66.130  1.00  0.00    -0.465 OA 
HETATM   15  P   UNL     1     -11.947  12.959  65.473  1.00  0.00    -0.467 P  
HETATM   16  O   UNL     1     -10.748  13.025  64.567  1.00  0.00    -0.340 OA 
HETATM   17  O   UNL     1     -13.057  12.226  64.568  1.00  0.00    -0.791 OA 
ENDBRANCH  10  13
ENDBRANCH   9  10
ENDBRANCH   8   9
ENDBRANCH   7   8
ENDBRANCH   3   7
BRANCH   6  18
HETATM   18  C   UNL     1      -6.546  16.508  67.979  1.00  0.00    -0.137 C  
BRANCH  18  19
HETATM   19  C   UNL     1      -7.781  17.322  67.744  1.00  0.00    -0.196 A  
HETATM   20  C   UNL     1      -8.810  17.299  68.659  1.00  0.00    -0.261 A  
HETATM   21  N   UNL     1      -9.873  18.114  68.610  1.00  0.00    -0.365 NA 
HETATM   22  C   UNL     1      -9.907  18.990  67.595  1.00  0.00    -0.332 A  
HETATM   23  N   UNL     1      -9.029  18.989  66.578  1.00  0.00    -0.322 NA 
HETATM   24  C   UNL     1     -10.969  20.044  67.629  1.00  0.00    -0.062 C  
HETATM   25  C   UNL     1      -8.010  18.127  66.647  1.00  0.00    -0.251 A  
HETATM   26  N   UNL     1      -7.220  18.056  65.495  1.00  0.00    -0.507 NA 
HETATM   27  H1  UNL     1      -7.390  18.651  64.684  1.00  0.00     0.000 HD 
HETATM   28  H2  UNL     1      -7.224  17.087  65.176  1.00  0.00     0.000 HD 
ENDBRANCH  18  19
ENDBRANCH   6  18
TORSDOF 7
ENDMDL
MODEL      203
REMARK 921   NORMALIZED FREE ENERGY PREDICTED BY IDOCK:   -4.34 KCAL/MOL
REMARK 922        TOTAL FREE ENERGY PREDICTED BY IDOCK:   -7.10 KCAL/MOL
REMARK 923 INTER-LIGAND FREE ENERGY PREDICTED BY IDOCK:   -5.92 KCAL/MOL
REMARK 924 INTRA-LIGAND FREE ENERGY PREDICTED BY IDOCK:   -1.18 KCAL/MOL
REMARK 927      BINDING AFFINITY PREDICTED BY RF-SCORE:    0.00 PKD
ROOT
HETATM    1  C   UNL     1     -11.182   6.076  69.864  1.00  0.00    -0.438 C  
HETATM    2  C   UNL     1     -10.430   6.867  70.872  1.00  0.00    -0.211 C  
HETATM    3  C   UNL     1      -9.062   6.811  71.139  1.00  0.00    -0.151 C  
HETATM    4  C   UNL     1     -10.310   8.420  72.558  1.00  0.00    -0.301 C  
HETATM    5  S   UNL     1      -8.737   7.829  72.509  1.00  0.00    -0.161 SA 
HETATM    6  N   UNL     1     -11.084   7.826  71.658  1.00  0.00    -0.234 NA 
ENDROOT
BRANCH   3   7
HETATM    7  C   UNL     1      -7.912   6.049  70.455  1.00  0.00    -0.107 C  
BRANCH   7   8
HETATM    8  C   UNL     1      -7.709   6.582  69.030  1.00  0.00    -0.109 C  
BRANCH   8   9
HETATM    9  O   UNL     1      -6.743   7.581  68.793  1.00  0.00    -0.050 OA 
BRANCH   9  10
HETATM   10  P   UNL     1      -6.866   8.263  67.256  1.00  0.00    -0.072 P  
HETATM   11  O   UNL     1      -7.593   6.794  66.703  1.00  0.00    -0.083 OA 
HETATM   12  O   UNL     1      -5.605   7.828  66.484  1.00  0.00    -0.027 OA 
BRANCH  10  13
HETATM   13  O   UNL     1      -6.140   9.732  67.809  1.00  0.00    -0.051 OA 
HETATM   14  O   UNL     1      -7.629  10.670  65.983  1.00  0.00    -0.140 OA 
HETATM   15  P   UNL     1      -6.805  11.045  67.171  1.00  0.00    -0.115 P  
HETATM   16  O   UNL     1      -7.302  11.918  68.291  1.00  0.00    -0.080 OA 
HETATM   17  O   UNL     1      -5.473  11.800  66.675  1.00  0.00    -0.208 OA 
ENDBRANCH  10  13
ENDBRANCH   9  10
ENDBRANCH   8   9
ENDBRANCH   7   8
ENDBRANCH   3   7
BRANCH   6  18
HETATM   18  C   UNL     1     -12.466   8.311  71.505  1.00  0.00    -0.312 C  
BRANCH  18  19
HETATM   19  C   UNL     1     -12.539   9.768  71.165  1.00  0.00    -0.438 A  
HETATM   20  C   UNL     1     -13.278  10.627  71.948  1.00  0.00    -0.423 A  
HETATM   21  N   UNL     1     -13.267  11.960  71.813  1.00  0.00    -0.414 NA 
HETATM   22  C   UNL     1     -12.482  12.455  70.845  1.00  0.00    -0.274 A  
HETATM   23  N   UNL     1     -11.841  11.695  69.941  1.00  0.00    -0.337 NA 
HETATM   24  C   UNL     1     -12.290  13.939  70.804  1.00  0.00    -0.449 C  
HETATM   25  C   UNL     1     -11.918  10.369  70.089  1.00  0.00    -0.276 A  
HETATM   26  N   UNL     1     -11.371   9.627  69.037  1.00  0.00    -0.460 NA 
HETATM   27  H1  UNL     1     -10.912  10.072  68.242  1.00  0.00     0.000 HD 
HETATM   28  H2  UNL     1     -12.104   9.019  68.672  1.00  0.00     0.000 HD 
ENDBRANCH  18  19
ENDBRANCH   6  18
TORSDOF 7
ENDMDL
MODEL      204
REMARK 921   NORMALIZED FREE ENERGY PREDICTED BY IDOCK:   -4.33 KCAL/MOL
REMARK 922        TOTAL FREE ENERGY PREDICTED BY IDOCK:   -7.09 KCAL/MOL
REMARK 923 INTER-LIGAND FREE ENERGY PREDICTED BY IDOCK:   -6.07 KCAL/MOL
REMARK 924 INTRA-LIGAND FREE ENERGY PREDICTED BY IDOCK:   -1.02 KCAL/MOL
REMARK 927      BINDING AFFINITY PREDICTED BY RF-SCORE:    0.00 PKD
ROOT
HETATM    1  C   UNL     1     -12.503  10.477  70.825  1.00  0.00    -0.472 C  
HETATM    2  C   UNL     1     -11.433   9.751  70.093  1.00  0.00    -0.216 C  
HETATM    3  C   UNL     1     -11.108   9.865  68.742  1.00  0.00    -0.135 C  
HETATM    4  C   UNL     1      -9.713   8.234  69.989  1.00  0.00    -0.176 C  
HETATM    5  S   UNL     1      -9.885   8.684  68.379  1.00  0.00    -0.178 SA 
HETATM    6  N   UNL     1     -10.586   8.860  70.768  1.00  0.00    -0.211 NA 
ENDROOT
BRANCH   3   7
HETATM    7  C   UNL     1     -11.627  10.802  67.636  1.00  0.00    -0.087 C  
BRANCH   7   8
HETATM    8  C   UNL     1     -10.788  12.087  67.604  1.00  0.00    -0.231 C  
BRANCH   8   9
HETATM    9  O   UNL     1     -10.974  13.063  68.604  1.00  0.00    -0.247 OA 
BRANCH   9  10
HETATM   10  P   UNL     1     -10.398  14.582  68.155  1.00  0.00    -0.241 P  
HETATM   11  O   UNL     1     -11.853  15.278  68.780  1.00  0.00    -0.338 OA 
HETATM   12  O   UNL     1     -10.968  14.866  66.751  1.00  0.00    -0.314 OA 
BRANCH  10  13
HETATM   13  O   UNL     1      -8.943  13.886  67.530  1.00  0.00    -0.178 OA 
HETATM   14  O   UNL     1      -7.952  15.356  69.344  1.00  0.00    -0.216 OA 
HETATM   15  P   UNL     1      -7.649  14.225  68.417  1.00  0.00    -0.145 P  
HETATM   16  O   UNL     1      -7.022  12.930  68.855  1.00  0.00    -0.095 OA 
HETATM   17  O   UNL     1      -6.663  14.742  67.256  1.00  0.00    -0.279 OA 
ENDBRANCH  10  13
ENDBRANCH   9  10
ENDBRANCH   8   9
ENDBRANCH   7   8
ENDBRANCH   3   7
BRANCH   6  18
HETATM   18  C   UNL     1     -10.490   8.652  72.224  1.00  0.00    -0.306 C  
BRANCH  18  19
HETATM   19  C   UNL     1     -10.510   7.205  72.609  1.00  0.00    -0.269 A  
HETATM   20  C   UNL     1      -9.348   6.575  72.997  1.00  0.00    -0.135 A  
HETATM   21  N   UNL     1      -9.302   5.337  73.509  1.00  0.00    -0.133 NA 
HETATM   22  C   UNL     1     -10.476   4.701  73.635  1.00  0.00    -0.224 A  
HETATM   23  N   UNL     1     -11.638   5.173  73.153  1.00  0.00    -0.285 NA 
HETATM   24  C   UNL     1     -10.482   3.408  74.390  1.00  0.00    -0.254 C  
HETATM   25  C   UNL     1     -11.626   6.393  72.609  1.00  0.00    -0.158 A  
HETATM   26  N   UNL     1     -12.819   6.770  71.982  1.00  0.00    -0.547 NA 
HETATM   27  H1  UNL     1     -13.644   6.170  71.982  1.00  0.00     0.000 HD 
HETATM   28  H2  UNL     1     -12.600   6.998  71.012  1.00  0.00     0.000 HD 
ENDBRANCH  18  19
ENDBRANCH   6  18
TORSDOF 7
ENDMDL
MODEL      205
REMARK 921   NORMALIZED FREE ENERGY PREDICTED BY IDOCK:   -4.31 KCAL/MOL
REMARK 922        TOTAL FREE ENERGY PREDICTED BY IDOCK:   -7.06 KCAL/MOL
REMARK 923 INTER-LIGAND FREE ENERGY PREDICTED BY IDOCK:   -6.18 KCAL/MOL
REMARK 924 INTRA-LIGAND FREE ENERGY PREDICTED BY IDOCK:   -0.89 KCAL/MOL
REMARK 927      BINDING AFFINITY PREDICTED BY RF-SCORE:    0.00 PKD
ROOT
HETATM    1  C   UNL     1     -11.152  11.819  64.739  1.00  0.00    -0.356 C  
HETATM    2  C   UNL     1     -11.302  11.828  66.218  1.00  0.00    -0.287 C  
HETATM    3  C   UNL     1     -10.965  10.807  67.106  1.00  0.00    -0.260 C  
HETATM    4  C   UNL     1     -11.934  12.819  68.188  1.00  0.00    -0.246 C  
HETATM    5  S   UNL     1     -11.486  11.281  68.694  1.00  0.00    -0.324 SA 
HETATM    6  N   UNL     1     -11.795  12.963  66.876  1.00  0.00    -0.385 NA 
ENDROOT
BRANCH   3   7
HETATM    7  C   UNL     1     -10.260   9.455  66.897  1.00  0.00    -0.318 C  
BRANCH   7   8
HETATM    8  C   UNL     1      -9.277   9.194  68.046  1.00  0.00    -0.134 C  
BRANCH   8   9
HETATM    9  O   UNL     1      -8.117   8.428  67.808  1.00  0.00    -0.119 OA 
BRANCH   9  10
HETATM   10  P   UNL     1      -6.782   9.368  67.391  1.00  0.00    -0.068 P  
HETATM   11  O   UNL     1      -6.044   7.956  66.718  1.00  0.00    -0.046 OA 
HETATM   12  O   UNL     1      -5.776   9.235  68.551  1.00  0.00    -0.041 OA 
BRANCH  10  13
HETATM   13  O   UNL     1      -7.520  10.780  68.064  1.00  0.00    -0.087 OA 
HETATM   14  O   UNL     1      -5.697  11.883  66.689  1.00  0.00    -0.247 OA 
HETATM   15  P   UNL     1      -6.967  12.146  67.429  1.00  0.00    -0.131 P  
HETATM   16  O   UNL     1      -8.130  12.905  66.851  1.00  0.00    -0.097 OA 
HETATM   17  O   UNL     1      -6.635  12.950  68.783  1.00  0.00    -0.078 OA 
ENDBRANCH  10  13
ENDBRANCH   9  10
ENDBRANCH   8   9
ENDBRANCH   7   8
ENDBRANCH   3   7
BRANCH   6  18
HETATM   18  C   UNL     1     -12.045  14.293  66.294  1.00  0.00    -0.413 C  
BRANCH  18  19
HETATM   19  C   UNL     1     -10.932  15.261  66.551  1.00  0.00    -0.295 A  
HETATM   20  C   UNL     1      -9.887  15.368  65.660  1.00  0.00    -0.352 A  
HETATM   21  N   UNL     1      -8.940  16.314  65.726  1.00  0.00    -0.420 NA 
HETATM   22  C   UNL     1      -9.044  17.192  66.735  1.00  0.00    -0.247 A  
HETATM   23  N   UNL     1      -9.938  17.081  67.732  1.00  0.00    -0.271 NA 
HETATM   24  C   UNL     1      -8.127  18.375  66.717  1.00  0.00    -0.266 C  
HETATM   25  C   UNL     1     -10.835  16.095  67.647  1.00  0.00    -0.297 A  
HETATM   26  N   UNL     1     -11.635  15.927  68.781  1.00  0.00    -0.390 NA 
HETATM   27  H1  UNL     1     -11.563  16.543  69.591  1.00  0.00     0.000 HD 
HETATM   28  H2  UNL     1     -11.513  14.969  69.108  1.00  0.00     0.000 HD 
ENDBRANCH  18  19
ENDBRANCH   6  18
TORSDOF 7
ENDMDL
MODEL      206
REMARK 921   NORMALIZED FREE ENERGY PREDICTED BY IDOCK:   -4.30 KCAL/MOL
REMARK 922        TOTAL FREE ENERGY PREDICTED BY IDOCK:   -7.05 KCAL/MOL
REMARK 923 INTER-LIGAND FREE ENERGY PREDICTED BY IDOCK:   -6.08 KCAL/MOL
REMARK 924 INTRA-LIGAND FREE ENERGY PREDICTED BY IDOCK:   -0.97 KCAL/MOL
REMARK 927      BINDING AFFINITY PREDICTED BY RF-SCORE:    0.00 PKD
ROOT
HETATM    1  C   UNL     1     -11.062   9.638  69.334  1.00  0.00    -0.170 C  
HETATM    2  C   UNL     1     -10.138   9.208  68.252  1.00  0.00    -0.191 C  
HETATM    3  C   UNL     1     -10.164   8.004  67.549  1.00  0.00    -0.245 C  
HETATM    4  C   UNL     1      -8.331   9.535  66.876  1.00  0.00    -0.116 C  
HETATM    5  S   UNL     1      -8.773   7.956  66.509  1.00  0.00    -0.155 SA 
HETATM    6  N   UNL     1      -9.121  10.062  67.803  1.00  0.00    -0.131 NA 
ENDROOT
BRANCH   3   7
HETATM    7  C   UNL     1     -11.158   6.828  67.562  1.00  0.00    -0.340 C  
BRANCH   7   8
HETATM    8  C   UNL     1     -10.514   5.606  68.228  1.00  0.00    -0.192 C  
BRANCH   8   9
HETATM    9  O   UNL     1     -10.833   5.295  69.567  1.00  0.00    -0.202 OA 
BRANCH   9  10
HETATM   10  P   UNL     1      -9.552   5.570  70.628  1.00  0.00    -0.187 P  
HETATM   11  O   UNL     1      -8.455   5.244  69.331  1.00  0.00    -0.093 OA 
HETATM   12  O   UNL     1      -9.154   4.193  71.195  1.00  0.00    -0.111 OA 
BRANCH  10  13
HETATM   13  O   UNL     1     -10.648   5.896  71.925  1.00  0.00    -0.216 OA 
HETATM   14  O   UNL     1      -9.357   8.078  71.918  1.00  0.00    -0.143 OA 
HETATM   15  P   UNL     1     -10.594   7.418  72.431  1.00  0.00    -0.292 P  
HETATM   16  O   UNL     1     -11.972   8.009  72.305  1.00  0.00    -0.329 OA 
HETATM   17  O   UNL     1     -10.442   7.163  74.013  1.00  0.00    -0.353 OA 
ENDBRANCH  10  13
ENDBRANCH   9  10
ENDBRANCH   8   9
ENDBRANCH   7   8
ENDBRANCH   3   7
BRANCH   6  18
HETATM   18  C   UNL     1      -8.928  11.479  68.155  1.00  0.00    -0.172 C  
BRANCH  18  19
HETATM   19  C   UNL     1      -9.883  12.392  67.449  1.00  0.00    -0.199 A  
HETATM   20  C   UNL     1      -9.759  12.612  66.095  1.00  0.00    -0.251 A  
HETATM   21  N   UNL     1     -10.659  13.279  65.359  1.00  0.00    -0.288 NA 
HETATM   22  C   UNL     1     -11.732  13.749  66.012  1.00  0.00    -0.363 A  
HETATM   23  N   UNL     1     -11.869  13.711  67.348  1.00  0.00    -0.381 NA 
HETATM   24  C   UNL     1     -12.848  14.313  65.189  1.00  0.00    -0.259 C  
HETATM   25  C   UNL     1     -10.923  13.076  68.045  1.00  0.00    -0.250 A  
HETATM   26  N   UNL     1     -11.029  13.203  69.434  1.00  0.00    -0.450 NA 
HETATM   27  H1  UNL     1     -11.798  13.708  69.875  1.00  0.00     0.000 HD 
HETATM   28  H2  UNL     1     -10.157  13.605  69.776  1.00  0.00     0.000 HD 
ENDBRANCH  18  19
ENDBRANCH   6  18
TORSDOF 7
ENDMDL
MODEL      207
REMARK 921   NORMALIZED FREE ENERGY PREDICTED BY IDOCK:   -4.30 KCAL/MOL
REMARK 922        TOTAL FREE ENERGY PREDICTED BY IDOCK:   -7.04 KCAL/MOL
REMARK 923 INTER-LIGAND FREE ENERGY PREDICTED BY IDOCK:   -5.55 KCAL/MOL
REMARK 924 INTRA-LIGAND FREE ENERGY PREDICTED BY IDOCK:   -1.50 KCAL/MOL
REMARK 927      BINDING AFFINITY PREDICTED BY RF-SCORE:    0.00 PKD
ROOT
HETATM    1  C   UNL     1     -10.369   8.134  68.826  1.00  0.00    -0.220 C  
HETATM    2  C   UNL     1     -11.001   9.315  69.469  1.00  0.00    -0.151 C  
HETATM    3  C   UNL     1     -11.374   9.449  70.805  1.00  0.00    -0.300 C  
HETATM    4  C   UNL     1     -11.870  11.438  69.407  1.00  0.00    -0.351 C  
HETATM    5  S   UNL     1     -12.201  10.967  70.985  1.00  0.00    -0.339 SA 
HETATM    6  N   UNL     1     -11.250  10.480  68.729  1.00  0.00    -0.257 NA 
ENDROOT
BRANCH   3   7
HETATM    7  C   UNL     1     -11.172   8.532  72.026  1.00  0.00    -0.418 C  
BRANCH   7   8
HETATM    8  C   UNL     1      -9.700   8.554  72.458  1.00  0.00    -0.256 C  
BRANCH   8   9
HETATM    9  O   UNL     1      -8.837   7.520  72.037  1.00  0.00    -0.115 OA 
BRANCH   9  10
HETATM   10  P   UNL     1      -7.308   8.079  71.598  1.00  0.00    -0.091 P  
HETATM   11  O   UNL     1      -7.168   8.810  73.159  1.00  0.00    -0.347 OA 
HETATM   12  O   UNL     1      -7.507   9.504  71.044  1.00  0.00    -0.300 OA 
BRANCH  10  13
HETATM   13  O   UNL     1      -7.449   7.348  70.037  1.00  0.00    -0.081 OA 
HETATM   14  O   UNL     1      -6.438   5.403  71.314  1.00  0.00    -0.033 OA 
HETATM   15  P   UNL     1      -7.135   5.774  70.046  1.00  0.00    -0.071 P  
HETATM   16  O   UNL     1      -8.337   5.047  69.508  1.00  0.00    -0.087 OA 
HETATM   17  O   UNL     1      -6.085   5.710  68.827  1.00  0.00    -0.022 OA 
ENDBRANCH  10  13
ENDBRANCH   9  10
ENDBRANCH   8   9
ENDBRANCH   7   8
ENDBRANCH   3   7
BRANCH   6  18
HETATM   18  C   UNL     1     -10.795  10.781  67.361  1.00  0.00    -0.290 C  
BRANCH  18  19
HETATM   19  C   UNL     1     -10.057  12.081  67.264  1.00  0.00    -0.208 A  
HETATM   20  C   UNL     1     -10.472  13.049  66.377  1.00  0.00    -0.276 A  
HETATM   21  N   UNL     1      -9.974  14.293  66.338  1.00  0.00    -0.282 NA 
HETATM   22  C   UNL     1      -9.013  14.578  67.230  1.00  0.00    -0.210 A  
HETATM   23  N   UNL     1      -8.444  13.663  68.032  1.00  0.00    -0.164 NA 
HETATM   24  C   UNL     1      -8.585  16.007  67.349  1.00  0.00    -0.194 C  
HETATM   25  C   UNL     1      -8.943  12.424  68.003  1.00  0.00    -0.194 A  
HETATM   26  N   UNL     1      -8.216  11.479  68.734  1.00  0.00    -0.292 NA 
HETATM   27  H1  UNL     1      -7.393  11.733  69.280  1.00  0.00     0.000 HD 
HETATM   28  H2  UNL     1      -7.946  10.733  68.094  1.00  0.00     0.000 HD 
ENDBRANCH  18  19
ENDBRANCH   6  18
TORSDOF 7
ENDMDL
MODEL      208
REMARK 921   NORMALIZED FREE ENERGY PREDICTED BY IDOCK:   -4.29 KCAL/MOL
REMARK 922        TOTAL FREE ENERGY PREDICTED BY IDOCK:   -7.04 KCAL/MOL
REMARK 923 INTER-LIGAND FREE ENERGY PREDICTED BY IDOCK:   -6.31 KCAL/MOL
REMARK 924 INTRA-LIGAND FREE ENERGY PREDICTED BY IDOCK:   -0.72 KCAL/MOL
REMARK 927      BINDING AFFINITY PREDICTED BY RF-SCORE:    0.00 PKD
ROOT
HETATM    1  C   UNL     1      -7.876  14.352  68.649  1.00  0.00    -0.140 C  
HETATM    2  C   UNL     1      -9.286  14.510  68.207  1.00  0.00    -0.203 C  
HETATM    3  C   UNL     1     -10.135  13.515  67.724  1.00  0.00    -0.236 C  
HETATM    4  C   UNL     1     -11.160  15.773  67.807  1.00  0.00    -0.313 C  
HETATM    5  S   UNL     1     -11.615  14.269  67.213  1.00  0.00    -0.394 SA 
HETATM    6  N   UNL     1      -9.922  15.756  68.287  1.00  0.00    -0.219 NA 
ENDROOT
BRANCH   3   7
HETATM    7  C   UNL     1      -9.963  11.990  67.597  1.00  0.00    -0.196 C  
BRANCH   7   8
HETATM    8  C   UNL     1      -9.277  11.651  66.266  1.00  0.00    -0.217 C  
BRANCH   8   9
HETATM    9  O   UNL     1      -8.327  10.610  66.221  1.00  0.00    -0.143 OA 
BRANCH   9  10
HETATM   10  P   UNL     1      -8.765   9.367  65.169  1.00  0.00    -0.199 P  
HETATM   11  O   UNL     1      -7.376   9.740  64.208  1.00  0.00    -0.118 OA 
HETATM   12  O   UNL     1      -9.605  10.017  64.052  1.00  0.00    -0.285 OA 
BRANCH  10  13
HETATM   13  O   UNL     1     -10.153   8.993  66.130  1.00  0.00    -0.290 OA 
HETATM   14  O   UNL     1      -8.549   7.245  67.026  1.00  0.00    -0.119 OA 
HETATM   15  P   UNL     1      -9.850   7.929  67.292  1.00  0.00    -0.245 P  
HETATM   16  O   UNL     1     -10.213   8.551  68.612  1.00  0.00    -0.190 OA 
HETATM   17  O   UNL     1     -11.055   6.897  67.023  1.00  0.00    -0.389 OA 
ENDBRANCH  10  13
ENDBRANCH   9  10
ENDBRANCH   8   9
ENDBRANCH   7   8
ENDBRANCH   3   7
BRANCH   6  18
HETATM   18  C   UNL     1      -9.416  16.975  68.942  1.00  0.00    -0.235 C  
BRANCH  18  19
HETATM   19  C   UNL     1      -8.514  17.781  68.059  1.00  0.00    -0.253 A  
HETATM   20  C   UNL     1      -8.948  18.197  66.819  1.00  0.00    -0.282 A  
HETATM   21  N   UNL     1      -8.274  19.052  66.037  1.00  0.00    -0.464 NA 
HETATM   22  C   UNL     1      -7.108  19.507  66.519  1.00  0.00    -0.219 A  
HETATM   23  N   UNL     1      -6.535  19.048  67.645  1.00  0.00    -0.201 NA 
HETATM   24  C   UNL     1      -6.436  20.613  65.767  1.00  0.00    -0.257 C  
HETATM   25  C   UNL     1      -7.225  18.163  68.369  1.00  0.00    -0.260 A  
HETATM   26  N   UNL     1      -6.520  17.601  69.439  1.00  0.00    -0.250 NA 
HETATM   27  H1  UNL     1      -5.567  17.883  69.668  1.00  0.00     0.000 HD 
HETATM   28  H2  UNL     1      -6.524  16.589  69.314  1.00  0.00     0.000 HD 
ENDBRANCH  18  19
ENDBRANCH   6  18
TORSDOF 7
ENDMDL
MODEL      209
REMARK 921   NORMALIZED FREE ENERGY PREDICTED BY IDOCK:   -4.28 KCAL/MOL
REMARK 922        TOTAL FREE ENERGY PREDICTED BY IDOCK:   -7.02 KCAL/MOL
REMARK 923 INTER-LIGAND FREE ENERGY PREDICTED BY IDOCK:   -5.67 KCAL/MOL
REMARK 924 INTRA-LIGAND FREE ENERGY PREDICTED BY IDOCK:   -1.36 KCAL/MOL
REMARK 927      BINDING AFFINITY PREDICTED BY RF-SCORE:    0.00 PKD
ROOT
HETATM    1  C   UNL     1      -9.049  10.715  65.248  1.00  0.00    -0.221 C  
HETATM    2  C   UNL     1      -8.817  10.796  66.714  1.00  0.00    -0.142 C  
HETATM    3  C   UNL     1      -8.044  11.736  67.395  1.00  0.00    -0.161 C  
HETATM    4  C   UNL     1      -9.099  10.034  68.860  1.00  0.00    -0.159 C  
HETATM    5  S   UNL     1      -7.991  11.280  69.070  1.00  0.00     0.001 SA 
HETATM    6  N   UNL     1      -9.435   9.888  67.584  1.00  0.00    -0.146 NA 
ENDROOT
BRANCH   3   7
HETATM    7  C   UNL     1      -7.306  13.000  66.916  1.00  0.00     0.365 C  
BRANCH   7   8
HETATM    8  C   UNL     1      -7.927  14.245  67.566  1.00  0.00    -0.188 C  
BRANCH   8   9
HETATM    9  O   UNL     1      -9.329  14.344  67.678  1.00  0.00    -0.192 OA 
BRANCH   9  10
HETATM   10  P   UNL     1     -10.005  15.396  66.547  1.00  0.00    -0.306 P  
HETATM   11  O   UNL     1      -8.445  16.111  66.334  1.00  0.00    -0.283 OA 
HETATM   12  O   UNL     1     -10.391  16.674  67.318  1.00  0.00    -0.289 OA 
BRANCH  10  13
HETATM   13  O   UNL     1     -11.566  14.680  66.760  1.00  0.00    -0.365 OA 
HETATM   14  O   UNL     1     -10.831  13.452  64.667  1.00  0.00    -0.348 OA 
HETATM   15  P   UNL     1     -11.834  13.444  65.773  1.00  0.00    -0.427 P  
HETATM   16  O   UNL     1     -12.152  12.232  66.605  1.00  0.00    -0.612 OA 
HETATM   17  O   UNL     1     -13.269  13.881  65.189  1.00  0.00    -0.768 OA 
ENDBRANCH  10  13
ENDBRANCH   9  10
ENDBRANCH   8   9
ENDBRANCH   7   8
ENDBRANCH   3   7
BRANCH   6  18
HETATM   18  C   UNL     1     -10.481   8.905  67.251  1.00  0.00    -0.277 C  
BRANCH  18  19
HETATM   19  C   UNL     1     -10.114   7.507  67.642  1.00  0.00    -0.243 A  
HETATM   20  C   UNL     1     -10.819   6.855  68.629  1.00  0.00    -0.187 A  
HETATM   21  N   UNL     1     -10.665   5.557  68.927  1.00  0.00    -0.192 NA 
HETATM   22  C   UNL     1      -9.759   4.883  68.203  1.00  0.00    -0.148 A  
HETATM   23  N   UNL     1      -8.924   5.463  67.325  1.00  0.00    -0.112 NA 
HETATM   24  C   UNL     1      -9.711   3.397  68.370  1.00  0.00    -0.027 C  
HETATM   25  C   UNL     1      -9.084   6.769  67.093  1.00  0.00    -0.126 A  
HETATM   26  N   UNL     1      -8.094   7.352  66.297  1.00  0.00    -0.112 NA 
HETATM   27  H1  UNL     1      -7.333   6.806  65.892  1.00  0.00     0.000 HD 
HETATM   28  H2  UNL     1      -7.678   8.116  66.829  1.00  0.00     0.000 HD 
ENDBRANCH  18  19
ENDBRANCH   6  18
TORSDOF 7
ENDMDL
MODEL      210
REMARK 921   NORMALIZED FREE ENERGY PREDICTED BY IDOCK:   -4.28 KCAL/MOL
REMARK 922        TOTAL FREE ENERGY PREDICTED BY IDOCK:   -7.02 KCAL/MOL
REMARK 923 INTER-LIGAND FREE ENERGY PREDICTED BY IDOCK:   -6.25 KCAL/MOL
REMARK 924 INTRA-LIGAND FREE ENERGY PREDICTED BY IDOCK:   -0.76 KCAL/MOL
REMARK 927      BINDING AFFINITY PREDICTED BY RF-SCORE:    0.00 PKD
ROOT
HETATM    1  C   UNL     1      -9.799  10.028  65.186  1.00  0.00    -0.388 C  
HETATM    2  C   UNL     1     -10.284  10.103  66.589  1.00  0.00    -0.224 C  
HETATM    3  C   UNL     1     -10.867  11.199  67.223  1.00  0.00    -0.274 C  
HETATM    4  C   UNL     1     -10.628   9.197  68.669  1.00  0.00    -0.174 C  
HETATM    5  S   UNL     1     -11.104  10.792  68.895  1.00  0.00    -0.276 SA 
HETATM    6  N   UNL     1     -10.218   8.980  67.426  1.00  0.00    -0.226 NA 
ENDROOT
BRANCH   3   7
HETATM    7  C   UNL     1     -11.293  12.582  66.698  1.00  0.00    -0.389 C  
BRANCH   7   8
HETATM    8  C   UNL     1     -10.967  13.660  67.741  1.00  0.00    -0.259 C  
BRANCH   8   9
HETATM    9  O   UNL     1     -11.369  14.992  67.512  1.00  0.00    -0.322 OA 
BRANCH   9  10
HETATM   10  P   UNL     1     -10.232  16.121  68.035  1.00  0.00    -0.268 P  
HETATM   11  O   UNL     1      -9.482  14.876  68.973  1.00  0.00    -0.210 OA 
HETATM   12  O   UNL     1     -10.761  16.687  69.368  1.00  0.00    -0.321 OA 
BRANCH  10  13
HETATM   13  O   UNL     1     -10.981  17.366  67.097  1.00  0.00    -0.151 OA 
HETATM   14  O   UNL     1      -8.826  17.104  65.787  1.00  0.00    -0.526 OA 
HETATM   15  P   UNL     1     -10.199  17.687  65.733  1.00  0.00     0.126 P  
HETATM   16  O   UNL     1     -11.148  17.487  64.583  1.00  0.00    -0.978 OA 
HETATM   17  O   UNL     1     -10.100  19.288  65.859  1.00  0.00    -0.431 OA 
ENDBRANCH  10  13
ENDBRANCH   9  10
ENDBRANCH   8   9
ENDBRANCH   7   8
ENDBRANCH   3   7
BRANCH   6  18
HETATM   18  C   UNL     1      -9.869   7.601  67.042  1.00  0.00    -0.215 C  
BRANCH  18  19
HETATM   19  C   UNL     1      -9.110   6.872  68.108  1.00  0.00    -0.124 A  
HETATM   20  C   UNL     1      -9.719   5.869  68.829  1.00  0.00    -0.131 A  
HETATM   21  N   UNL     1      -9.073   5.062  69.681  1.00  0.00    -0.105 NA 
HETATM   22  C   UNL     1      -7.756   5.273  69.820  1.00  0.00    -0.073 A  
HETATM   23  N   UNL     1      -7.105   6.314  69.274  1.00  0.00    -0.071 NA 
HETATM   24  C   UNL     1      -6.974   4.263  70.602  1.00  0.00    -0.037 C  
HETATM   25  C   UNL     1      -7.801   7.119  68.467  1.00  0.00    -0.122 A  
HETATM   26  N   UNL     1      -7.121   8.270  68.056  1.00  0.00    -0.084 NA 
HETATM   27  H1  UNL     1      -6.153   8.452  68.321  1.00  0.00     0.000 HD 
HETATM   28  H2  UNL     1      -7.678   9.076  68.338  1.00  0.00     0.000 HD 
ENDBRANCH  18  19
ENDBRANCH   6  18
TORSDOF 7
ENDMDL
MODEL      211
REMARK 921   NORMALIZED FREE ENERGY PREDICTED BY IDOCK:   -4.27 KCAL/MOL
REMARK 922        TOTAL FREE ENERGY PREDICTED BY IDOCK:   -7.01 KCAL/MOL
REMARK 923 INTER-LIGAND FREE ENERGY PREDICTED BY IDOCK:   -6.55 KCAL/MOL
REMARK 924 INTRA-LIGAND FREE ENERGY PREDICTED BY IDOCK:   -0.46 KCAL/MOL
REMARK 927      BINDING AFFINITY PREDICTED BY RF-SCORE:    0.00 PKD
ROOT
HETATM    1  C   UNL     1      -8.701   7.543  68.654  1.00  0.00    -0.128 C  
HETATM    2  C   UNL     1      -9.700   8.351  69.401  1.00  0.00    -0.177 C  
HETATM    3  C   UNL     1      -9.709   9.734  69.572  1.00  0.00    -0.212 C  
HETATM    4  C   UNL     1     -11.592   8.561  70.684  1.00  0.00    -0.194 C  
HETATM    5  S   UNL     1     -11.010  10.137  70.651  1.00  0.00    -0.205 SA 
HETATM    6  N   UNL     1     -10.809   7.736  69.999  1.00  0.00    -0.248 NA 
ENDROOT
BRANCH   3   7
HETATM    7  C   UNL     1      -8.816  10.847  68.992  1.00  0.00    -0.105 C  
BRANCH   7   8
HETATM    8  C   UNL     1      -9.684  11.906  68.300  1.00  0.00    -0.200 C  
BRANCH   8   9
HETATM    9  O   UNL     1     -10.697  11.500  67.408  1.00  0.00    -0.210 OA 
BRANCH   9  10
HETATM   10  P   UNL     1     -10.164  11.400  65.811  1.00  0.00    -0.268 P  
HETATM   11  O   UNL     1     -10.131   9.678  65.969  1.00  0.00    -0.283 OA 
HETATM   12  O   UNL     1      -8.625  11.348  65.869  1.00  0.00    -0.149 OA 
BRANCH  10  13
HETATM   13  O   UNL     1     -10.197  13.122  65.654  1.00  0.00    -0.281 OA 
HETATM   14  O   UNL     1     -12.673  12.637  65.400  1.00  0.00    -0.635 OA 
HETATM   15  P   UNL     1     -11.683  13.727  65.646  1.00  0.00    -0.387 P  
HETATM   16  O   UNL     1     -11.796  14.723  66.769  1.00  0.00    -0.353 OA 
HETATM   17  O   UNL     1     -11.581  14.656  64.335  1.00  0.00    -0.367 OA 
ENDBRANCH  10  13
ENDBRANCH   9  10
ENDBRANCH   8   9
ENDBRANCH   7   8
ENDBRANCH   3   7
BRANCH   6  18
HETATM   18  C   UNL     1     -11.244   6.337  69.844  1.00  0.00    -0.429 C  
BRANCH  18  19
HETATM   19  C   UNL     1     -10.880   5.479  71.016  1.00  0.00    -0.243 A  
HETATM   20  C   UNL     1     -11.394   5.756  72.264  1.00  0.00    -0.278 A  
HETATM   21  N   UNL     1     -11.252   4.952  73.327  1.00  0.00    -0.331 NA 
HETATM   22  C   UNL     1     -10.560   3.820  73.131  1.00  0.00    -0.182 A  
HETATM   23  N   UNL     1      -9.901   3.535  71.996  1.00  0.00    -0.162 NA 
HETATM   24  C   UNL     1     -10.561   2.811  74.236  1.00  0.00    -0.223 C  
HETATM   25  C   UNL     1     -10.035   4.389  70.977  1.00  0.00    -0.172 A  
HETATM   26  N   UNL     1      -9.206   4.131  69.880  1.00  0.00    -0.124 NA 
HETATM   27  H1  UNL     1      -8.581   3.325  69.851  1.00  0.00     0.000 HD 
HETATM   28  H2  UNL     1      -8.645   4.966  69.712  1.00  0.00     0.000 HD 
ENDBRANCH  18  19
ENDBRANCH   6  18
TORSDOF 7
ENDMDL
MODEL      212
REMARK 921   NORMALIZED FREE ENERGY PREDICTED BY IDOCK:   -4.26 KCAL/MOL
REMARK 922        TOTAL FREE ENERGY PREDICTED BY IDOCK:   -7.00 KCAL/MOL
REMARK 923 INTER-LIGAND FREE ENERGY PREDICTED BY IDOCK:   -6.22 KCAL/MOL
REMARK 924 INTRA-LIGAND FREE ENERGY PREDICTED BY IDOCK:   -0.78 KCAL/MOL
REMARK 927      BINDING AFFINITY PREDICTED BY RF-SCORE:    0.00 PKD
ROOT
HETATM    1  C   UNL     1     -10.535  10.069  66.046  1.00  0.00    -0.145 C  
HETATM    2  C   UNL     1     -10.029   9.843  67.425  1.00  0.00    -0.189 C  
HETATM    3  C   UNL     1     -10.571  10.331  68.613  1.00  0.00    -0.208 C  
HETATM    4  C   UNL     1      -8.525   8.960  68.917  1.00  0.00    -0.131 C  
HETATM    5  S   UNL     1      -9.503   9.895  69.913  1.00  0.00    -0.183 SA 
HETATM    6  N   UNL     1      -8.907   9.032  67.647  1.00  0.00    -0.124 NA 
ENDROOT
BRANCH   3   7
HETATM    7  C   UNL     1     -11.860  11.120  68.906  1.00  0.00    -0.406 C  
BRANCH   7   8
HETATM    8  C   UNL     1     -11.579  12.627  68.833  1.00  0.00    -0.317 C  
BRANCH   8   9
HETATM    9  O   UNL     1     -12.522  13.536  69.354  1.00  0.00    -0.199 OA 
BRANCH   9  10
HETATM   10  P   UNL     1     -11.821  14.966  69.908  1.00  0.00    -0.351 P  
HETATM   11  O   UNL     1     -11.596  15.450  68.262  1.00  0.00    -0.351 OA 
HETATM   12  O   UNL     1     -10.300  14.716  69.951  1.00  0.00    -0.036 OA 
BRANCH  10  13
HETATM   13  O   UNL     1     -12.045  14.481  71.553  1.00  0.00    -0.340 OA 
HETATM   14  O   UNL     1     -14.295  15.574  71.134  1.00  0.00    -0.516 OA 
HETATM   15  P   UNL     1     -13.551  14.679  72.070  1.00  0.00    -0.507 P  
HETATM   16  O   UNL     1     -14.069  13.349  72.544  1.00  0.00    -0.726 OA 
HETATM   17  O   UNL     1     -13.256  15.472  73.439  1.00  0.00    -0.504 OA 
ENDBRANCH  10  13
ENDBRANCH   9  10
ENDBRANCH   8   9
ENDBRANCH   7   8
ENDBRANCH   3   7
BRANCH   6  18
HETATM   18  C   UNL     1      -8.213   8.182  66.665  1.00  0.00    -0.103 C  
BRANCH  18  19
HETATM   19  C   UNL     1      -8.495   6.723  66.854  1.00  0.00    -0.115 A  
HETATM   20  C   UNL     1      -9.786   6.250  66.773  1.00  0.00    -0.156 A  
HETATM   21  N   UNL     1     -10.108   4.949  66.767  1.00  0.00    -0.222 NA 
HETATM   22  C   UNL     1      -9.088   4.082  66.850  1.00  0.00    -0.145 A  
HETATM   23  N   UNL     1      -7.816   4.446  67.079  1.00  0.00    -0.097 NA 
HETATM   24  C   UNL     1      -9.397   2.633  66.640  1.00  0.00    -0.026 C  
HETATM   25  C   UNL     1      -7.549   5.755  67.122  1.00  0.00    -0.099 A  
HETATM   26  N   UNL     1      -6.247   6.077  67.519  1.00  0.00    -0.028 NA 
HETATM   27  H1  UNL     1      -5.548   5.361  67.718  1.00  0.00     0.000 HD 
HETATM   28  H2  UNL     1      -6.314   6.682  68.338  1.00  0.00     0.000 HD 
ENDBRANCH  18  19
ENDBRANCH   6  18
TORSDOF 7
ENDMDL
MODEL      213
REMARK 921   NORMALIZED FREE ENERGY PREDICTED BY IDOCK:   -4.25 KCAL/MOL
REMARK 922        TOTAL FREE ENERGY PREDICTED BY IDOCK:   -6.98 KCAL/MOL
REMARK 923 INTER-LIGAND FREE ENERGY PREDICTED BY IDOCK:   -5.28 KCAL/MOL
REMARK 924 INTRA-LIGAND FREE ENERGY PREDICTED BY IDOCK:   -1.70 KCAL/MOL
REMARK 927      BINDING AFFINITY PREDICTED BY RF-SCORE:    0.00 PKD
ROOT
HETATM    1  C   UNL     1      -8.307   8.963  71.017  1.00  0.00    -0.233 C  
HETATM    2  C   UNL     1      -8.522   7.501  71.178  1.00  0.00    -0.117 C  
HETATM    3  C   UNL     1      -9.230   6.860  72.194  1.00  0.00    -0.135 C  
HETATM    4  C   UNL     1      -8.234   5.322  70.520  1.00  0.00    -0.108 C  
HETATM    5  S   UNL     1      -9.040   5.146  71.984  1.00  0.00    -0.137 SA 
HETATM    6  N   UNL     1      -8.023   6.599  70.228  1.00  0.00    -0.113 NA 
ENDROOT
BRANCH   3   7
HETATM    7  C   UNL     1     -10.077   7.405  73.358  1.00  0.00    -0.389 C  
BRANCH   7   8
HETATM    8  C   UNL     1     -11.521   7.636  72.891  1.00  0.00    -0.290 C  
BRANCH   8   9
HETATM    9  O   UNL     1     -11.764   8.046  71.564  1.00  0.00    -0.267 OA 
BRANCH   9  10
HETATM   10  P   UNL     1     -12.338   9.627  71.459  1.00  0.00    -0.425 P  
HETATM   11  O   UNL     1     -12.934   9.479  73.076  1.00  0.00     0.062 OA 
HETATM   12  O   UNL     1     -13.806   9.529  71.001  1.00  0.00    -0.226 OA 
BRANCH  10  13
HETATM   13  O   UNL     1     -11.741   9.776  69.843  1.00  0.00    -0.154 OA 
HETATM   14  O   UNL     1     -12.037  12.232  70.401  1.00  0.00    -0.355 OA 
HETATM   15  P   UNL     1     -11.404  11.290  69.430  1.00  0.00    -0.323 P  
HETATM   16  O   UNL     1      -9.960  11.359  69.017  1.00  0.00    -0.171 OA 
HETATM   17  O   UNL     1     -12.195  11.362  68.030  1.00  0.00    -0.607 OA 
ENDBRANCH  10  13
ENDBRANCH   9  10
ENDBRANCH   8   9
ENDBRANCH   7   8
ENDBRANCH   3   7
BRANCH   6  18
HETATM   18  C   UNL     1      -7.421   6.921  68.923  1.00  0.00    -0.096 C  
BRANCH  18  19
HETATM   19  C   UNL     1      -8.187   6.349  67.770  1.00  0.00    -0.118 A  
HETATM   20  C   UNL     1      -7.572   5.486  66.890  1.00  0.00    -0.092 A  
HETATM   21  N   UNL     1      -8.218   4.805  65.933  1.00  0.00    -0.111 NA 
HETATM   22  C   UNL     1      -9.543   5.002  65.853  1.00  0.00    -0.164 A  
HETATM   23  N   UNL     1     -10.204   5.928  66.567  1.00  0.00    -0.179 NA 
HETATM   24  C   UNL     1     -10.319   4.107  64.938  1.00  0.00    -0.210 C  
HETATM   25  C   UNL     1      -9.509   6.615  67.477  1.00  0.00    -0.126 A  
HETATM   26  N   UNL     1     -10.205   7.670  68.076  1.00  0.00    -0.194 NA 
HETATM   27  H1  UNL     1     -11.182   7.867  67.860  1.00  0.00     0.000 HD 
HETATM   28  H2  UNL     1      -9.672   8.525  67.913  1.00  0.00     0.000 HD 
ENDBRANCH  18  19
ENDBRANCH   6  18
TORSDOF 7
ENDMDL
MODEL      214
REMARK 921   NORMALIZED FREE ENERGY PREDICTED BY IDOCK:   -4.25 KCAL/MOL
REMARK 922        TOTAL FREE ENERGY PREDICTED BY IDOCK:   -6.98 KCAL/MOL
REMARK 923 INTER-LIGAND FREE ENERGY PREDICTED BY IDOCK:   -6.24 KCAL/MOL
REMARK 924 INTRA-LIGAND FREE ENERGY PREDICTED BY IDOCK:   -0.74 KCAL/MOL
REMARK 927      BINDING AFFINITY PREDICTED BY RF-SCORE:    0.00 PKD
ROOT
HETATM    1  C   UNL     1      -9.474  13.670  66.894  1.00  0.00    -0.263 C  
HETATM    2  C   UNL     1     -10.258  13.809  68.149  1.00  0.00    -0.253 C  
HETATM    3  C   UNL     1     -11.261  12.960  68.615  1.00  0.00    -0.281 C  
HETATM    4  C   UNL     1     -10.806  14.904  70.090  1.00  0.00    -0.134 C  
HETATM    5  S   UNL     1     -11.945  13.669  70.047  1.00  0.00    -0.331 SA 
HETATM    6  N   UNL     1      -9.998  14.862  69.037  1.00  0.00    -0.234 NA 
ENDROOT
BRANCH   3   7
HETATM    7  C   UNL     1     -11.792  11.613  68.093  1.00  0.00    -0.315 C  
BRANCH   7   8
HETATM    8  C   UNL     1     -10.995  10.460  68.717  1.00  0.00    -0.245 C  
BRANCH   8   9
HETATM    9  O   UNL     1     -10.811  10.419  70.114  1.00  0.00    -0.283 OA 
BRANCH   9  10
HETATM   10  P   UNL     1     -10.206   8.940  70.654  1.00  0.00    -0.258 P  
HETATM   11  O   UNL     1     -11.817   8.312  70.623  1.00  0.00    -0.221 OA 
HETATM   12  O   UNL     1     -10.333   8.953  72.190  1.00  0.00    -0.333 OA 
BRANCH  10  13
HETATM   13  O   UNL     1      -8.595   9.569  70.685  1.00  0.00    -0.211 OA 
HETATM   14  O   UNL     1      -8.258   7.649  69.063  1.00  0.00    -0.124 OA 
HETATM   15  P   UNL     1      -7.636   8.902  69.585  1.00  0.00    -0.080 P  
HETATM   16  O   UNL     1      -7.088   9.994  68.707  1.00  0.00    -0.068 OA 
HETATM   17  O   UNL     1      -6.386   8.519  70.525  1.00  0.00    -0.034 OA 
ENDBRANCH  10  13
ENDBRANCH   9  10
ENDBRANCH   8   9
ENDBRANCH   7   8
ENDBRANCH   3   7
BRANCH   6  18
HETATM   18  C   UNL     1      -8.877  15.816  68.986  1.00  0.00    -0.236 C  
BRANCH  18  19
HETATM   19  C   UNL     1      -9.193  17.045  68.191  1.00  0.00    -0.244 A  
HETATM   20  C   UNL     1      -8.597  17.252  66.967  1.00  0.00    -0.227 A  
HETATM   21  N   UNL     1      -8.940  18.234  66.122  1.00  0.00    -0.498 NA 
HETATM   22  C   UNL     1      -9.926  19.050  66.525  1.00  0.00    -0.385 A  
HETATM   23  N   UNL     1     -10.465  19.018  67.756  1.00  0.00    -0.413 NA 
HETATM   24  C   UNL     1     -10.469  20.021  65.525  1.00  0.00    -0.315 C  
HETATM   25  C   UNL     1     -10.058  18.049  68.580  1.00  0.00    -0.394 A  
HETATM   26  N   UNL     1     -10.528  18.156  69.893  1.00  0.00     0.143 NA 
HETATM   27  H1  UNL     1     -11.168  18.898  70.180  1.00  0.00     0.000 HD 
HETATM   28  H2  UNL     1      -9.718  18.188  70.511  1.00  0.00     0.000 HD 
ENDBRANCH  18  19
ENDBRANCH   6  18
TORSDOF 7
ENDMDL
MODEL      215
REMARK 921   NORMALIZED FREE ENERGY PREDICTED BY IDOCK:   -4.25 KCAL/MOL
REMARK 922        TOTAL FREE ENERGY PREDICTED BY IDOCK:   -6.97 KCAL/MOL
REMARK 923 INTER-LIGAND FREE ENERGY PREDICTED BY IDOCK:   -5.58 KCAL/MOL
REMARK 924 INTRA-LIGAND FREE ENERGY PREDICTED BY IDOCK:   -1.40 KCAL/MOL
REMARK 927      BINDING AFFINITY PREDICTED BY RF-SCORE:    0.00 PKD
ROOT
HETATM    1  C   UNL     1     -10.971   6.100  70.439  1.00  0.00    -0.404 C  
HETATM    2  C   UNL     1      -9.712   6.584  69.816  1.00  0.00    -0.158 C  
HETATM    3  C   UNL     1      -9.028   7.764  70.104  1.00  0.00    -0.146 C  
HETATM    4  C   UNL     1      -7.975   6.385  68.329  1.00  0.00    -0.106 C  
HETATM    5  S   UNL     1      -7.708   7.910  68.983  1.00  0.00    -0.103 SA 
HETATM    6  N   UNL     1      -9.055   5.813  68.847  1.00  0.00    -0.115 NA 
ENDROOT
BRANCH   3   7
HETATM    7  C   UNL     1      -9.253   8.847  71.174  1.00  0.00    -0.324 C  
BRANCH   7   8
HETATM    8  C   UNL     1     -10.209   9.921  70.639  1.00  0.00    -0.133 C  
BRANCH   8   9
HETATM    9  O   UNL     1     -10.845   9.727  69.395  1.00  0.00    -0.226 OA 
BRANCH   9  10
HETATM   10  P   UNL     1     -10.691  11.052  68.364  1.00  0.00    -0.245 P  
HETATM   11  O   UNL     1     -10.786  12.090  69.745  1.00  0.00     0.175 OA 
HETATM   12  O   UNL     1     -12.123  11.512  68.028  1.00  0.00    -0.617 OA 
BRANCH  10  13
HETATM   13  O   UNL     1     -10.596  10.014  66.984  1.00  0.00    -0.240 OA 
HETATM   14  O   UNL     1      -8.973  11.820  66.254  1.00  0.00    -0.204 OA 
HETATM   15  P   UNL     1      -9.435  10.432  65.958  1.00  0.00    -0.212 P  
HETATM   16  O   UNL     1      -8.508   9.260  65.787  1.00  0.00    -0.124 OA 
HETATM   17  O   UNL     1     -10.284  10.437  64.590  1.00  0.00    -0.346 OA 
ENDBRANCH  10  13
ENDBRANCH   9  10
ENDBRANCH   8   9
ENDBRANCH   7   8
ENDBRANCH   3   7
BRANCH   6  18
HETATM   18  C   UNL     1      -9.361   4.427  68.454  1.00  0.00    -0.147 C  
BRANCH  18  19
HETATM   19  C   UNL     1      -9.611   4.279  66.984  1.00  0.00    -0.227 A  
HETATM   20  C   UNL     1      -8.837   3.423  66.232  1.00  0.00    -0.134 A  
HETATM   21  N   UNL     1      -9.093   3.109  64.954  1.00  0.00    -0.137 NA 
HETATM   22  C   UNL     1     -10.173   3.683  64.405  1.00  0.00    -0.202 A  
HETATM   23  N   UNL     1     -10.900   4.638  65.009  1.00  0.00    -0.046 NA 
HETATM   24  C   UNL     1     -10.601   3.197  63.055  1.00  0.00    -0.207 C  
HETATM   25  C   UNL     1     -10.580   4.951  66.267  1.00  0.00    -0.255 A  
HETATM   26  N   UNL     1     -11.260   6.055  66.791  1.00  0.00    -0.696 NA 
HETATM   27  H1  UNL     1     -11.976   6.552  66.261  1.00  0.00     0.000 HD 
HETATM   28  H2  UNL     1     -10.562   6.738  67.086  1.00  0.00     0.000 HD 
ENDBRANCH  18  19
ENDBRANCH   6  18
TORSDOF 7
ENDMDL
MODEL      216
REMARK 921   NORMALIZED FREE ENERGY PREDICTED BY IDOCK:   -4.23 KCAL/MOL
REMARK 922        TOTAL FREE ENERGY PREDICTED BY IDOCK:   -6.94 KCAL/MOL
REMARK 923 INTER-LIGAND FREE ENERGY PREDICTED BY IDOCK:   -6.34 KCAL/MOL
REMARK 924 INTRA-LIGAND FREE ENERGY PREDICTED BY IDOCK:   -0.61 KCAL/MOL
REMARK 927      BINDING AFFINITY PREDICTED BY RF-SCORE:    0.00 PKD
ROOT
HETATM    1  C   UNL     1      -9.086  11.283  68.000  1.00  0.00    -0.156 C  
HETATM    2  C   UNL     1     -10.281  11.283  68.882  1.00  0.00    -0.180 C  
HETATM    3  C   UNL     1     -11.327  12.205  68.887  1.00  0.00    -0.283 C  
HETATM    4  C   UNL     1     -11.551  10.405  70.581  1.00  0.00    -0.349 C  
HETATM    5  S   UNL     1     -12.380  11.820  70.214  1.00  0.00    -0.193 SA 
HETATM    6  N   UNL     1     -10.476  10.256  69.817  1.00  0.00    -0.255 NA 
ENDROOT
BRANCH   3   7
HETATM    7  C   UNL     1     -11.649  13.398  67.968  1.00  0.00    -0.369 C  
BRANCH   7   8
HETATM    8  C   UNL     1     -11.753  14.684  68.798  1.00  0.00    -0.324 C  
BRANCH   8   9
HETATM    9  O   UNL     1     -10.690  15.048  69.651  1.00  0.00    -0.252 OA 
BRANCH   9  10
HETATM   10  P   UNL     1      -9.578  16.077  68.912  1.00  0.00    -0.261 P  
HETATM   11  O   UNL     1     -10.645  17.400  69.229  1.00  0.00    -0.302 OA 
HETATM   12  O   UNL     1     -10.008  16.197  67.436  1.00  0.00    -0.239 OA 
BRANCH  10  13
HETATM   13  O   UNL     1      -8.510  14.754  68.594  1.00  0.00    -0.155 OA 
HETATM   14  O   UNL     1      -6.827  16.650  68.598  1.00  0.00    -0.151 OA 
HETATM   15  P   UNL     1      -6.960  15.164  68.654  1.00  0.00    -0.130 P  
HETATM   16  O   UNL     1      -6.280  14.301  69.682  1.00  0.00    -0.110 OA 
HETATM   17  O   UNL     1      -6.468  14.535  67.257  1.00  0.00    -0.298 OA 
ENDBRANCH  10  13
ENDBRANCH   9  10
ENDBRANCH   8   9
ENDBRANCH   7   8
ENDBRANCH   3   7
BRANCH   6  18
HETATM   18  C   UNL     1      -9.702   9.009  69.945  1.00  0.00    -0.183 C  
BRANCH  18  19
HETATM   19  C   UNL     1     -10.047   7.998  68.895  1.00  0.00    -0.209 A  
HETATM   20  C   UNL     1      -9.456   8.061  67.652  1.00  0.00    -0.145 A  
HETATM   21  N   UNL     1      -9.581   7.112  66.714  1.00  0.00    -0.170 NA 
HETATM   22  C   UNL     1     -10.337   6.052  67.036  1.00  0.00    -0.240 A  
HETATM   23  N   UNL     1     -11.068   5.970  68.161  1.00  0.00    -0.258 NA 
HETATM   24  C   UNL     1     -10.328   4.888  66.096  1.00  0.00    -0.329 C  
HETATM   25  C   UNL     1     -10.946   6.962  69.047  1.00  0.00    -0.181 A  
HETATM   26  N   UNL     1     -11.842   6.908  70.119  1.00  0.00    -0.613 NA 
HETATM   27  H1  UNL     1     -12.507   6.142  70.231  1.00  0.00     0.000 HD 
HETATM   28  H2  UNL     1     -12.370   7.781  70.127  1.00  0.00     0.000 HD 
ENDBRANCH  18  19
ENDBRANCH   6  18
TORSDOF 7
ENDMDL
MODEL      217
REMARK 921   NORMALIZED FREE ENERGY PREDICTED BY IDOCK:   -4.22 KCAL/MOL
REMARK 922        TOTAL FREE ENERGY PREDICTED BY IDOCK:   -6.94 KCAL/MOL
REMARK 923 INTER-LIGAND FREE ENERGY PREDICTED BY IDOCK:   -6.13 KCAL/MOL
REMARK 924 INTRA-LIGAND FREE ENERGY PREDICTED BY IDOCK:   -0.81 KCAL/MOL
REMARK 927      BINDING AFFINITY PREDICTED BY RF-SCORE:    0.00 PKD
ROOT
HETATM    1  C   UNL     1     -11.137  13.151  68.898  1.00  0.00    -0.310 C  
HETATM    2  C   UNL     1     -10.830  12.747  67.501  1.00  0.00    -0.239 C  
HETATM    3  C   UNL     1     -10.791  11.452  66.986  1.00  0.00    -0.282 C  
HETATM    4  C   UNL     1     -10.257  13.221  65.330  1.00  0.00    -0.290 C  
HETATM    5  S   UNL     1     -10.234  11.541  65.343  1.00  0.00    -0.277 SA 
HETATM    6  N   UNL     1     -10.574  13.715  66.520  1.00  0.00    -0.280 NA 
ENDROOT
BRANCH   3   7
HETATM    7  C   UNL     1     -11.143  10.088  67.608  1.00  0.00    -0.222 C  
BRANCH   7   8
HETATM    8  C   UNL     1     -10.255   8.993  67.003  1.00  0.00    -0.266 C  
BRANCH   8   9
HETATM    9  O   UNL     1     -10.071   7.782  67.703  1.00  0.00    -0.169 OA 
BRANCH   9  10
HETATM   10  P   UNL     1      -8.471   7.533  68.174  1.00  0.00    -0.123 P  
HETATM   11  O   UNL     1      -8.340   6.316  66.952  1.00  0.00    -0.109 OA 
HETATM   12  O   UNL     1      -8.493   6.380  69.197  1.00  0.00    -0.120 OA 
BRANCH  10  13
HETATM   13  O   UNL     1      -8.603   8.750  69.396  1.00  0.00    -0.129 OA 
HETATM   14  O   UNL     1      -6.155   9.032  68.795  1.00  0.00    -0.044 OA 
HETATM   15  P   UNL     1      -7.298   9.677  69.507  1.00  0.00    -0.112 P  
HETATM   16  O   UNL     1      -7.713  11.108  69.298  1.00  0.00    -0.109 OA 
HETATM   17  O   UNL     1      -7.049   9.590  71.095  1.00  0.00    -0.287 OA 
ENDBRANCH  10  13
ENDBRANCH   9  10
ENDBRANCH   8   9
ENDBRANCH   7   8
ENDBRANCH   3   7
BRANCH   6  18
HETATM   18  C   UNL     1     -10.741  15.174  66.642  1.00  0.00    -0.310 C  
BRANCH  18  19
HETATM   19  C   UNL     1      -9.439  15.913  66.629  1.00  0.00    -0.263 A  
HETATM   20  C   UNL     1      -8.313  15.344  67.181  1.00  0.00    -0.219 A  
HETATM   21  N   UNL     1      -7.081  15.861  67.070  1.00  0.00    -0.205 NA 
HETATM   22  C   UNL     1      -6.974  17.004  66.376  1.00  0.00    -0.232 A  
HETATM   23  N   UNL     1      -8.028  17.706  65.928  1.00  0.00    -0.555 NA 
HETATM   24  C   UNL     1      -5.596  17.493  66.060  1.00  0.00    -0.176 C  
HETATM   25  C   UNL     1      -9.241  17.174  66.102  1.00  0.00    -0.184 A  
HETATM   26  N   UNL     1     -10.307  18.013  65.764  1.00  0.00    -0.618 NA 
HETATM   27  H1  UNL     1     -10.161  18.945  65.375  1.00  0.00     0.000 HD 
HETATM   28  H2  UNL     1     -10.898  18.111  66.589  1.00  0.00     0.000 HD 
ENDBRANCH  18  19
ENDBRANCH   6  18
TORSDOF 7
ENDMDL
MODEL      218
REMARK 921   NORMALIZED FREE ENERGY PREDICTED BY IDOCK:   -4.20 KCAL/MOL
REMARK 922        TOTAL FREE ENERGY PREDICTED BY IDOCK:   -6.90 KCAL/MOL
REMARK 923 INTER-LIGAND FREE ENERGY PREDICTED BY IDOCK:   -6.41 KCAL/MOL
REMARK 924 INTRA-LIGAND FREE ENERGY PREDICTED BY IDOCK:   -0.49 KCAL/MOL
REMARK 927      BINDING AFFINITY PREDICTED BY RF-SCORE:    0.00 PKD
ROOT
HETATM    1  C   UNL     1     -10.079   7.752  67.958  1.00  0.00    -0.227 C  
HETATM    2  C   UNL     1     -10.702   8.798  68.810  1.00  0.00    -0.077 C  
HETATM    3  C   UNL     1     -10.966  10.122  68.462  1.00  0.00    -0.232 C  
HETATM    4  C   UNL     1     -11.620   9.530  70.782  1.00  0.00    -0.308 C  
HETATM    5  S   UNL     1     -11.559  10.943  69.875  1.00  0.00    -0.360 SA 
HETATM    6  N   UNL     1     -11.135   8.494  70.108  1.00  0.00    -0.227 NA 
ENDROOT
BRANCH   3   7
HETATM    7  C   UNL     1     -10.825  10.882  67.131  1.00  0.00    -0.337 C  
BRANCH   7   8
HETATM    8  C   UNL     1     -10.787  12.394  67.394  1.00  0.00    -0.238 C  
BRANCH   8   9
HETATM    9  O   UNL     1     -10.631  13.283  66.311  1.00  0.00    -0.283 OA 
BRANCH   9  10
HETATM   10  P   UNL     1      -9.527  14.517  66.627  1.00  0.00    -0.287 P  
HETATM   11  O   UNL     1      -8.285  13.321  66.763  1.00  0.00    -0.028 OA 
HETATM   12  O   UNL     1      -9.448  14.648  68.162  1.00  0.00    -0.200 OA 
BRANCH  10  13
HETATM   13  O   UNL     1     -10.769  15.714  66.492  1.00  0.00    -0.307 OA 
HETATM   14  O   UNL     1      -8.775  17.106  65.775  1.00  0.00    -0.527 OA 
HETATM   15  P   UNL     1     -10.267  17.069  65.795  1.00  0.00    -0.065 P  
HETATM   16  O   UNL     1     -11.127  17.328  64.588  1.00  0.00    -1.052 OA 
HETATM   17  O   UNL     1     -10.809  18.134  66.873  1.00  0.00    -0.277 OA 
ENDBRANCH  10  13
ENDBRANCH   9  10
ENDBRANCH   8   9
ENDBRANCH   7   8
ENDBRANCH   3   7
BRANCH   6  18
HETATM   18  C   UNL     1     -11.219   7.162  70.731  1.00  0.00    -0.279 C  
BRANCH  18  19
HETATM   19  C   UNL     1     -10.013   6.824  71.551  1.00  0.00    -0.189 A  
HETATM   20  C   UNL     1      -9.642   7.630  72.604  1.00  0.00    -0.181 A  
HETATM   21  N   UNL     1      -8.680   7.318  73.484  1.00  0.00    -0.145 NA 
HETATM   22  C   UNL     1      -8.059   6.144  73.297  1.00  0.00    -0.113 A  
HETATM   23  N   UNL     1      -8.248   5.362  72.221  1.00  0.00    -0.114 NA 
HETATM   24  C   UNL     1      -7.130   5.676  74.374  1.00  0.00    -0.085 C  
HETATM   25  C   UNL     1      -9.186   5.737  71.347  1.00  0.00    -0.143 A  
HETATM   26  N   UNL     1      -9.232   4.979  70.172  1.00  0.00    -0.129 NA 
HETATM   27  H1  UNL     1      -8.621   4.176  70.021  1.00  0.00     0.000 HD 
HETATM   28  H2  UNL     1      -9.107   5.618  69.386  1.00  0.00     0.000 HD 
ENDBRANCH  18  19
ENDBRANCH   6  18
TORSDOF 7
ENDMDL
MODEL      219
REMARK 921   NORMALIZED FREE ENERGY PREDICTED BY IDOCK:   -4.20 KCAL/MOL
REMARK 922        TOTAL FREE ENERGY PREDICTED BY IDOCK:   -6.90 KCAL/MOL
REMARK 923 INTER-LIGAND FREE ENERGY PREDICTED BY IDOCK:   -6.18 KCAL/MOL
REMARK 924 INTRA-LIGAND FREE ENERGY PREDICTED BY IDOCK:   -0.72 KCAL/MOL
REMARK 927      BINDING AFFINITY PREDICTED BY RF-SCORE:    0.00 PKD
ROOT
HETATM    1  C   UNL     1      -5.714  10.346  70.181  1.00  0.00    -0.062 C  
HETATM    2  C   UNL     1      -7.171  10.114  70.008  1.00  0.00    -0.161 C  
HETATM    3  C   UNL     1      -7.964  10.499  68.927  1.00  0.00    -0.128 C  
HETATM    4  C   UNL     1      -9.201   9.320  70.727  1.00  0.00    -0.253 C  
HETATM    5  S   UNL     1      -9.616  10.115  69.306  1.00  0.00    -0.232 SA 
HETATM    6  N   UNL     1      -7.899   9.406  70.974  1.00  0.00    -0.320 NA 
ENDROOT
BRANCH   3   7
HETATM    7  C   UNL     1      -7.614  11.149  67.576  1.00  0.00    -0.108 C  
BRANCH   7   8
HETATM    8  C   UNL     1      -8.750  10.912  66.572  1.00  0.00    -0.163 C  
BRANCH   8   9
HETATM    9  O   UNL     1      -9.345  12.014  65.924  1.00  0.00    -0.225 OA 
BRANCH   9  10
HETATM   10  P   UNL     1     -10.496  11.560  64.778  1.00  0.00    -0.325 P  
HETATM   11  O   UNL     1      -9.951   9.926  64.934  1.00  0.00    -0.306 OA 
HETATM   12  O   UNL     1      -9.781  11.577  63.412  1.00  0.00    -0.322 OA 
BRANCH  10  13
HETATM   13  O   UNL     1     -11.040  13.194  64.623  1.00  0.00    -0.314 OA 
HETATM   14  O   UNL     1     -13.157  11.986  63.925  1.00  0.00    -0.695 OA 
HETATM   15  P   UNL     1     -12.617  13.311  64.349  1.00  0.00    -0.081 P  
HETATM   16  O   UNL     1     -13.226  14.154  65.436  1.00  0.00    -0.741 OA 
HETATM   17  O   UNL     1     -12.590  14.302  63.081  1.00  0.00    -0.615 OA 
ENDBRANCH  10  13
ENDBRANCH   9  10
ENDBRANCH   8   9
ENDBRANCH   7   8
ENDBRANCH   3   7
BRANCH   6  18
HETATM   18  C   UNL     1      -7.363   8.666  72.129  1.00  0.00    -0.020 C  
BRANCH  18  19
HETATM   19  C   UNL     1      -8.039   7.347  72.342  1.00  0.00    -0.115 A  
HETATM   20  C   UNL     1      -8.700   7.089  73.522  1.00  0.00    -0.138 A  
HETATM   21  N   UNL     1      -9.463   6.008  73.733  1.00  0.00    -0.139 NA 
HETATM   22  C   UNL     1      -9.565   5.142  72.713  1.00  0.00    -0.145 A  
HETATM   23  N   UNL     1      -8.844   5.232  71.583  1.00  0.00    -0.134 NA 
HETATM   24  C   UNL     1     -10.567   4.038  72.843  1.00  0.00    -0.237 C  
HETATM   25  C   UNL     1      -8.062   6.305  71.437  1.00  0.00    -0.117 A  
HETATM   26  N   UNL     1      -7.218   6.271  70.322  1.00  0.00    -0.081 NA 
HETATM   27  H1  UNL     1      -7.235   5.501  69.653  1.00  0.00     0.000 HD 
HETATM   28  H2  UNL     1      -6.259   6.371  70.656  1.00  0.00     0.000 HD 
ENDBRANCH  18  19
ENDBRANCH   6  18
TORSDOF 7
ENDMDL
MODEL      220
REMARK 921   NORMALIZED FREE ENERGY PREDICTED BY IDOCK:   -4.19 KCAL/MOL
REMARK 922        TOTAL FREE ENERGY PREDICTED BY IDOCK:   -6.90 KCAL/MOL
REMARK 923 INTER-LIGAND FREE ENERGY PREDICTED BY IDOCK:   -6.44 KCAL/MOL
REMARK 924 INTRA-LIGAND FREE ENERGY PREDICTED BY IDOCK:   -0.46 KCAL/MOL
REMARK 927      BINDING AFFINITY PREDICTED BY RF-SCORE:    0.00 PKD
ROOT
HETATM    1  C   UNL     1     -12.751  12.551  70.669  1.00  0.00    -0.132 C  
HETATM    2  C   UNL     1     -11.796  11.880  69.749  1.00  0.00    -0.340 C  
HETATM    3  C   UNL     1     -11.157  10.656  69.941  1.00  0.00    -0.298 C  
HETATM    4  C   UNL     1     -10.567  11.787  67.813  1.00  0.00    -0.200 C  
HETATM    5  S   UNL     1     -10.038  10.420  68.633  1.00  0.00    -0.187 SA 
HETATM    6  N   UNL     1     -11.475  12.457  68.512  1.00  0.00    -0.280 NA 
ENDROOT
BRANCH   3   7
HETATM    7  C   UNL     1     -11.295   9.587  71.041  1.00  0.00    -0.423 C  
BRANCH   7   8
HETATM    8  C   UNL     1     -10.825   8.227  70.509  1.00  0.00    -0.232 C  
BRANCH   8   9
HETATM    9  O   UNL     1     -11.313   7.043  71.100  1.00  0.00    -0.259 OA 
BRANCH   9  10
HETATM   10  P   UNL     1     -10.310   6.457  72.322  1.00  0.00    -0.201 P  
HETATM   11  O   UNL     1     -11.552   5.333  72.753  1.00  0.00    -0.284 OA 
HETATM   12  O   UNL     1     -10.684   7.229  73.602  1.00  0.00    -0.378 OA 
BRANCH  10  13
HETATM   13  O   UNL     1      -9.067   7.580  71.891  1.00  0.00    -0.127 OA 
HETATM   14  O   UNL     1      -7.742   6.074  73.442  1.00  0.00    -0.100 OA 
HETATM   15  P   UNL     1      -7.612   7.141  72.405  1.00  0.00    -0.090 P  
HETATM   16  O   UNL     1      -6.697   7.044  71.215  1.00  0.00    -0.057 OA 
HETATM   17  O   UNL     1      -7.158   8.514  73.112  1.00  0.00    -0.251 OA 
ENDBRANCH  10  13
ENDBRANCH   9  10
ENDBRANCH   8   9
ENDBRANCH   7   8
ENDBRANCH   3   7
BRANCH   6  18
HETATM   18  C   UNL     1     -12.115  13.623  67.880  1.00  0.00    -0.283 C  
BRANCH  18  19
HETATM   19  C   UNL     1     -11.201  14.805  67.773  1.00  0.00    -0.323 A  
HETATM   20  C   UNL     1     -10.444  14.995  66.638  1.00  0.00    -0.284 A  
HETATM   21  N   UNL     1      -9.727  16.101  66.393  1.00  0.00    -0.266 NA 
HETATM   22  C   UNL     1      -9.770  17.059  67.330  1.00  0.00    -0.252 A  
HETATM   23  N   UNL     1     -10.359  16.906  68.528  1.00  0.00    -0.313 NA 
HETATM   24  C   UNL     1      -9.152  18.380  66.994  1.00  0.00    -0.274 C  
HETATM   25  C   UNL     1     -11.023  15.768  68.746  1.00  0.00    -0.291 A  
HETATM   26  N   UNL     1     -11.478  15.593  70.057  1.00  0.00    -0.313 NA 
HETATM   27  H1  UNL     1     -11.346  16.305  70.775  1.00  0.00     0.000 HD 
HETATM   28  H2  UNL     1     -11.084  14.720  70.407  1.00  0.00     0.000 HD 
ENDBRANCH  18  19
ENDBRANCH   6  18
TORSDOF 7
ENDMDL
MODEL      221
REMARK 921   NORMALIZED FREE ENERGY PREDICTED BY IDOCK:   -4.18 KCAL/MOL
REMARK 922        TOTAL FREE ENERGY PREDICTED BY IDOCK:   -6.87 KCAL/MOL
REMARK 923 INTER-LIGAND FREE ENERGY PREDICTED BY IDOCK:   -5.94 KCAL/MOL
REMARK 924 INTRA-LIGAND FREE ENERGY PREDICTED BY IDOCK:   -0.93 KCAL/MOL
REMARK 927      BINDING AFFINITY PREDICTED BY RF-SCORE:    0.00 PKD
ROOT
HETATM    1  C   UNL     1     -11.011  11.754  65.540  1.00  0.00    -0.344 C  
HETATM    2  C   UNL     1      -9.760  11.597  66.327  1.00  0.00    -0.218 C  
HETATM    3  C   UNL     1      -9.350  12.359  67.420  1.00  0.00    -0.181 C  
HETATM    4  C   UNL     1      -7.751  10.578  66.765  1.00  0.00    -0.118 C  
HETATM    5  S   UNL     1      -7.748  11.851  67.862  1.00  0.00    -0.143 SA 
HETATM    6  N   UNL     1      -8.853  10.572  66.025  1.00  0.00    -0.160 NA 
ENDROOT
BRANCH   3   7
HETATM    7  C   UNL     1     -10.052  13.475  68.216  1.00  0.00    -0.247 C  
BRANCH   7   8
HETATM    8  C   UNL     1      -9.372  14.822  67.938  1.00  0.00    -0.193 C  
BRANCH   8   9
HETATM    9  O   UNL     1      -9.734  15.559  66.791  1.00  0.00    -0.226 OA 
BRANCH   9  10
HETATM   10  P   UNL     1      -9.420  17.208  66.944  1.00  0.00    -0.281 P  
HETATM   11  O   UNL     1     -10.857  17.356  67.895  1.00  0.00    -0.375 OA 
HETATM   12  O   UNL     1     -10.200  17.907  65.812  1.00  0.00    -0.577 OA 
BRANCH  10  13
HETATM   13  O   UNL     1      -7.983  17.059  65.993  1.00  0.00    -0.435 OA 
HETATM   14  O   UNL     1      -7.049  18.376  67.949  1.00  0.00    -0.217 OA 
HETATM   15  P   UNL     1      -6.664  17.562  66.757  1.00  0.00    -0.251 P  
HETATM   16  O   UNL     1      -5.680  16.425  66.803  1.00  0.00    -0.340 OA 
HETATM   17  O   UNL     1      -6.059  18.533  65.626  1.00  0.00    -0.199 OA 
ENDBRANCH  10  13
ENDBRANCH   9  10
ENDBRANCH   8   9
ENDBRANCH   7   8
ENDBRANCH   3   7
BRANCH   6  18
HETATM   18  C   UNL     1      -9.053   9.452  65.089  1.00  0.00    -0.225 C  
BRANCH  18  19
HETATM   19  C   UNL     1      -9.155   8.126  65.778  1.00  0.00    -0.139 A  
HETATM   20  C   UNL     1      -8.359   7.075  65.380  1.00  0.00    -0.118 A  
HETATM   21  N   UNL     1      -8.270   5.912  66.040  1.00  0.00    -0.118 NA 
HETATM   22  C   UNL     1      -9.016   5.796  67.149  1.00  0.00    -0.113 A  
HETATM   23  N   UNL     1      -9.927   6.705  67.533  1.00  0.00    -0.127 NA 
HETATM   24  C   UNL     1      -8.783   4.598  68.015  1.00  0.00    -0.112 C  
HETATM   25  C   UNL     1     -10.014   7.830  66.818  1.00  0.00    -0.261 A  
HETATM   26  N   UNL     1     -11.081   8.666  67.161  1.00  0.00    -0.227 NA 
HETATM   27  H1  UNL     1     -11.715   8.447  67.930  1.00  0.00     0.000 HD 
HETATM   28  H2  UNL     1     -11.645   8.809  66.324  1.00  0.00     0.000 HD 
ENDBRANCH  18  19
ENDBRANCH   6  18
TORSDOF 7
ENDMDL
MODEL      222
REMARK 921   NORMALIZED FREE ENERGY PREDICTED BY IDOCK:   -4.18 KCAL/MOL
REMARK 922        TOTAL FREE ENERGY PREDICTED BY IDOCK:   -6.87 KCAL/MOL
REMARK 923 INTER-LIGAND FREE ENERGY PREDICTED BY IDOCK:   -6.35 KCAL/MOL
REMARK 924 INTRA-LIGAND FREE ENERGY PREDICTED BY IDOCK:   -0.52 KCAL/MOL
REMARK 927      BINDING AFFINITY PREDICTED BY RF-SCORE:    0.00 PKD
ROOT
HETATM    1  C   UNL     1     -12.107  11.442  69.173  1.00  0.00    -0.331 C  
HETATM    2  C   UNL     1     -11.163  10.608  68.384  1.00  0.00    -0.288 C  
HETATM    3  C   UNL     1     -10.540   9.428  68.788  1.00  0.00    -0.208 C  
HETATM    4  C   UNL     1      -9.940  10.161  66.494  1.00  0.00    -0.224 C  
HETATM    5  S   UNL     1      -9.427   8.951  67.542  1.00  0.00    -0.145 SA 
HETATM    6  N   UNL     1     -10.837  10.955  67.066  1.00  0.00    -0.272 NA 
ENDROOT
BRANCH   3   7
HETATM    7  C   UNL     1     -10.689   8.570  70.058  1.00  0.00    -0.234 C  
BRANCH   7   8
HETATM    8  C   UNL     1      -9.304   8.191  70.599  1.00  0.00    -0.154 C  
BRANCH   8   9
HETATM    9  O   UNL     1      -9.120   8.035  71.988  1.00  0.00    -0.132 OA 
BRANCH   9  10
HETATM   10  P   UNL     1      -8.252   6.645  72.383  1.00  0.00    -0.101 P  
HETATM   11  O   UNL     1      -6.953   7.653  72.920  1.00  0.00    -0.065 OA 
HETATM   12  O   UNL     1      -7.376   6.315  71.158  1.00  0.00    -0.077 OA 
BRANCH  10  13
HETATM   13  O   UNL     1      -9.551   5.637  71.847  1.00  0.00    -0.151 OA 
HETATM   14  O   UNL     1     -10.300   6.038  74.236  1.00  0.00    -0.281 OA 
HETATM   15  P   UNL     1     -10.755   5.542  72.903  1.00  0.00    -0.290 P  
HETATM   16  O   UNL     1     -12.018   6.001  72.226  1.00  0.00    -0.318 OA 
HETATM   17  O   UNL     1     -10.926   3.943  72.964  1.00  0.00    -0.162 OA 
ENDBRANCH  10  13
ENDBRANCH   9  10
ENDBRANCH   8   9
ENDBRANCH   7   8
ENDBRANCH   3   7
BRANCH   6  18
HETATM   18  C   UNL     1     -11.463  12.001  66.238  1.00  0.00    -0.345 C  
BRANCH  18  19
HETATM   19  C   UNL     1     -10.762  13.321  66.337  1.00  0.00    -0.291 A  
HETATM   20  C   UNL     1      -9.923  13.582  67.398  1.00  0.00    -0.234 A  
HETATM   21  N   UNL     1      -9.136  14.664  67.481  1.00  0.00    -0.184 NA 
HETATM   22  C   UNL     1      -9.196  15.525  66.454  1.00  0.00    -0.305 A  
HETATM   23  N   UNL     1     -10.085  15.431  65.451  1.00  0.00    -0.365 NA 
HETATM   24  C   UNL     1      -8.185  16.628  66.420  1.00  0.00    -0.353 C  
HETATM   25  C   UNL     1     -10.881  14.358  65.434  1.00  0.00    -0.344 A  
HETATM   26  N   UNL     1     -11.889  14.388  64.466  1.00  0.00    -0.493 NA 
HETATM   27  H1  UNL     1     -11.977  15.155  63.798  1.00  0.00     0.000 HD 
HETATM   28  H2  UNL     1     -12.783  14.290  64.946  1.00  0.00     0.000 HD 
ENDBRANCH  18  19
ENDBRANCH   6  18
TORSDOF 7
ENDMDL
MODEL      223
REMARK 921   NORMALIZED FREE ENERGY PREDICTED BY IDOCK:   -4.17 KCAL/MOL
REMARK 922        TOTAL FREE ENERGY PREDICTED BY IDOCK:   -6.87 KCAL/MOL
REMARK 923 INTER-LIGAND FREE ENERGY PREDICTED BY IDOCK:   -6.14 KCAL/MOL
REMARK 924 INTRA-LIGAND FREE ENERGY PREDICTED BY IDOCK:   -0.73 KCAL/MOL
REMARK 927      BINDING AFFINITY PREDICTED BY RF-SCORE:    0.00 PKD
ROOT
HETATM    1  C   UNL     1     -10.937  14.226  65.067  1.00  0.00    -0.394 C  
HETATM    2  C   UNL     1     -11.188  13.965  66.508  1.00  0.00    -0.321 C  
HETATM    3  C   UNL     1     -11.306  14.908  67.529  1.00  0.00    -0.342 C  
HETATM    4  C   UNL     1     -11.535  12.556  68.286  1.00  0.00    -0.308 C  
HETATM    5  S   UNL     1     -11.445  14.056  69.037  1.00  0.00    -0.317 SA 
HETATM    6  N   UNL     1     -11.377  12.655  66.972  1.00  0.00    -0.304 NA 
ENDROOT
BRANCH   3   7
HETATM    7  C   UNL     1     -11.333  16.447  67.507  1.00  0.00     0.091 C  
BRANCH   7   8
HETATM    8  C   UNL     1     -10.034  16.983  66.890  1.00  0.00    -0.289 C  
BRANCH   8   9
HETATM    9  O   UNL     1      -9.081  17.613  67.717  1.00  0.00    -0.242 OA 
BRANCH   9  10
HETATM   10  P   UNL     1      -7.631  16.758  67.817  1.00  0.00    -0.178 P  
HETATM   11  O   UNL     1      -8.069  15.918  66.370  1.00  0.00    -0.265 OA 
HETATM   12  O   UNL     1      -7.948  15.450  68.569  1.00  0.00    -0.130 OA 
BRANCH  10  13
HETATM   13  O   UNL     1      -7.193  17.598  69.264  1.00  0.00    -0.203 OA 
HETATM   14  O   UNL     1      -5.992  19.048  67.566  1.00  0.00    -0.184 OA 
HETATM   15  P   UNL     1      -6.453  18.994  68.985  1.00  0.00    -0.294 P  
HETATM   16  O   UNL     1      -7.239  20.090  69.652  1.00  0.00    -0.201 OA 
HETATM   17  O   UNL     1      -5.178  18.812  69.950  1.00  0.00    -0.188 OA 
ENDBRANCH  10  13
ENDBRANCH   9  10
ENDBRANCH   8   9
ENDBRANCH   7   8
ENDBRANCH   3   7
BRANCH   6  18
HETATM   18  C   UNL     1     -11.538  11.436  66.161  1.00  0.00     0.222 C  
BRANCH  18  19
HETATM   19  C   UNL     1     -10.303  11.080  65.391  1.00  0.00    -0.330 A  
HETATM   20  C   UNL     1      -9.086  11.001  66.032  1.00  0.00    -0.195 A  
HETATM   21  N   UNL     1      -7.967  10.535  65.460  1.00  0.00    -0.157 NA 
HETATM   22  C   UNL     1      -8.073  10.133  64.184  1.00  0.00    -0.158 A  
HETATM   23  N   UNL     1      -9.175  10.307  63.436  1.00  0.00    -0.268 NA 
HETATM   24  C   UNL     1      -6.901   9.420  63.586  1.00  0.00    -0.095 C  
HETATM   25  C   UNL     1     -10.253  10.818  64.037  1.00  0.00    -0.322 A  
HETATM   26  N   UNL     1     -11.315  11.126  63.181  1.00  0.00    -0.764 NA 
HETATM   27  H1  UNL     1     -11.278  10.931  62.180  1.00  0.00     0.000 HD 
HETATM   28  H2  UNL     1     -11.530  12.116  63.298  1.00  0.00     0.000 HD 
ENDBRANCH  18  19
ENDBRANCH   6  18
TORSDOF 7
ENDMDL
MODEL      224
REMARK 921   NORMALIZED FREE ENERGY PREDICTED BY IDOCK:   -4.16 KCAL/MOL
REMARK 922        TOTAL FREE ENERGY PREDICTED BY IDOCK:   -6.84 KCAL/MOL
REMARK 923 INTER-LIGAND FREE ENERGY PREDICTED BY IDOCK:   -6.34 KCAL/MOL
REMARK 924 INTRA-LIGAND FREE ENERGY PREDICTED BY IDOCK:   -0.51 KCAL/MOL
REMARK 927      BINDING AFFINITY PREDICTED BY RF-SCORE:    0.00 PKD
ROOT
HETATM    1  C   UNL     1      -7.872  12.629  67.007  1.00  0.00    -0.043 C  
HETATM    2  C   UNL     1      -9.324  12.618  67.323  1.00  0.00    -0.195 C  
HETATM    3  C   UNL     1      -9.999  11.734  68.163  1.00  0.00    -0.194 C  
HETATM    4  C   UNL     1     -11.456  13.437  67.099  1.00  0.00    -0.339 C  
HETATM    5  S   UNL     1     -11.699  12.076  68.054  1.00  0.00    -0.289 SA 
HETATM    6  N   UNL     1     -10.176  13.594  66.786  1.00  0.00    -0.264 NA 
ENDROOT
BRANCH   3   7
HETATM    7  C   UNL     1      -9.496  10.609  69.087  1.00  0.00    -0.185 C  
BRANCH   7   8
HETATM    8  C   UNL     1     -10.152   9.278  68.694  1.00  0.00    -0.189 C  
BRANCH   8   9
HETATM    9  O   UNL     1     -11.121   8.704  69.543  1.00  0.00    -0.124 OA 
BRANCH   9  10
HETATM   10  P   UNL     1     -10.617   7.247  70.224  1.00  0.00    -0.239 P  
HETATM   11  O   UNL     1     -10.494   6.586  68.630  1.00  0.00    -0.180 OA 
HETATM   12  O   UNL     1     -11.883   6.383  70.391  1.00  0.00    -0.382 OA 
BRANCH  10  13
HETATM   13  O   UNL     1     -10.740   7.908  71.818  1.00  0.00    -0.220 OA 
HETATM   14  O   UNL     1      -8.992   6.121  72.246  1.00  0.00    -0.138 OA 
HETATM   15  P   UNL     1      -9.622   7.345  72.823  1.00  0.00    -0.202 P  
HETATM   16  O   UNL     1      -8.842   8.511  73.366  1.00  0.00    -0.301 OA 
HETATM   17  O   UNL     1     -10.567   6.923  74.056  1.00  0.00    -0.349 OA 
ENDBRANCH  10  13
ENDBRANCH   9  10
ENDBRANCH   8   9
ENDBRANCH   7   8
ENDBRANCH   3   7
BRANCH   6  18
HETATM   18  C   UNL     1      -9.788  14.804  66.042  1.00  0.00    -0.324 C  
BRANCH  18  19
HETATM   19  C   UNL     1      -9.193  15.863  66.918  1.00  0.00    -0.247 A  
HETATM   20  C   UNL     1      -7.846  16.145  66.848  1.00  0.00    -0.248 A  
HETATM   21  N   UNL     1      -7.264  17.178  67.473  1.00  0.00    -0.154 NA 
HETATM   22  C   UNL     1      -8.068  17.963  68.204  1.00  0.00    -0.267 A  
HETATM   23  N   UNL     1      -9.360  17.686  68.449  1.00  0.00    -0.281 NA 
HETATM   24  C   UNL     1      -7.489  19.234  68.741  1.00  0.00    -0.387 C  
HETATM   25  C   UNL     1      -9.887  16.620  67.841  1.00  0.00    -0.248 A  
HETATM   26  N   UNL     1     -11.181  16.286  68.253  1.00  0.00    -0.348 NA 
HETATM   27  H1  UNL     1     -11.693  16.845  68.935  1.00  0.00     0.000 HD 
HETATM   28  H2  UNL     1     -11.160  15.325  68.592  1.00  0.00     0.000 HD 
ENDBRANCH  18  19
ENDBRANCH   6  18
TORSDOF 7
ENDMDL
MODEL      225
REMARK 921   NORMALIZED FREE ENERGY PREDICTED BY IDOCK:   -4.16 KCAL/MOL
REMARK 922        TOTAL FREE ENERGY PREDICTED BY IDOCK:   -6.84 KCAL/MOL
REMARK 923 INTER-LIGAND FREE ENERGY PREDICTED BY IDOCK:   -5.84 KCAL/MOL
REMARK 924 INTRA-LIGAND FREE ENERGY PREDICTED BY IDOCK:   -1.01 KCAL/MOL
REMARK 927      BINDING AFFINITY PREDICTED BY RF-SCORE:    0.00 PKD
ROOT
HETATM    1  C   UNL     1      -9.169   8.558  67.159  1.00  0.00    -0.173 C  
HETATM    2  C   UNL     1      -9.330   8.648  68.633  1.00  0.00    -0.142 C  
HETATM    3  C   UNL     1     -10.228   9.449  69.337  1.00  0.00    -0.207 C  
HETATM    4  C   UNL     1      -8.758   8.062  70.778  1.00  0.00    -0.138 C  
HETATM    5  S   UNL     1      -9.890   9.278  71.033  1.00  0.00    -0.255 SA 
HETATM    6  N   UNL     1      -8.558   7.844  69.484  1.00  0.00    -0.136 NA 
ENDROOT
BRANCH   3   7
HETATM    7  C   UNL     1     -11.368  10.371  68.868  1.00  0.00    -0.278 C  
BRANCH   7   8
HETATM    8  C   UNL     1     -10.886  11.828  68.845  1.00  0.00    -0.223 C  
BRANCH   8   9
HETATM    9  O   UNL     1     -10.225  12.323  67.702  1.00  0.00    -0.198 OA 
BRANCH   9  10
HETATM   10  P   UNL     1     -11.073  13.563  66.937  1.00  0.00    -0.312 P  
HETATM   11  O   UNL     1     -10.170  14.706  67.870  1.00  0.00    -0.224 OA 
HETATM   12  O   UNL     1     -12.271  13.897  67.848  1.00  0.00    -0.325 OA 
BRANCH  10  13
HETATM   13  O   UNL     1     -11.976  12.420  66.004  1.00  0.00    -0.537 OA 
HETATM   14  O   UNL     1     -10.796  13.647  64.124  1.00  0.00    -0.340 OA 
HETATM   15  P   UNL     1     -11.575  12.416  64.451  1.00  0.00    -0.403 P  
HETATM   16  O   UNL     1     -11.137  11.026  64.077  1.00  0.00    -0.244 OA 
HETATM   17  O   UNL     1     -13.043  12.530  63.801  1.00  0.00    -0.717 OA 
ENDBRANCH  10  13
ENDBRANCH   9  10
ENDBRANCH   8   9
ENDBRANCH   7   8
ENDBRANCH   3   7
BRANCH   6  18
HETATM   18  C   UNL     1      -7.671   6.732  69.098  1.00  0.00    -0.106 C  
BRANCH  18  19
HETATM   19  C   UNL     1      -8.059   5.430  69.728  1.00  0.00    -0.096 A  
HETATM   20  C   UNL     1      -7.129   4.696  70.430  1.00  0.00    -0.048 A  
HETATM   21  N   UNL     1      -7.426   3.610  71.157  1.00  0.00    -0.043 NA 
HETATM   22  C   UNL     1      -8.716   3.241  71.179  1.00  0.00    -0.078 A  
HETATM   23  N   UNL     1      -9.666   3.804  70.414  1.00  0.00    -0.189 NA 
HETATM   24  C   UNL     1      -9.109   2.164  72.141  1.00  0.00    -0.126 C  
HETATM   25  C   UNL     1      -9.313   4.856  69.670  1.00  0.00    -0.129 A  
HETATM   26  N   UNL     1     -10.293   5.301  68.777  1.00  0.00    -0.167 NA 
HETATM   27  H1  UNL     1     -11.220   4.877  68.734  1.00  0.00     0.000 HD 
HETATM   28  H2  UNL     1      -9.894   5.272  67.839  1.00  0.00     0.000 HD 
ENDBRANCH  18  19
ENDBRANCH   6  18
TORSDOF 7
ENDMDL
MODEL      226
REMARK 921   NORMALIZED FREE ENERGY PREDICTED BY IDOCK:   -4.15 KCAL/MOL
REMARK 922        TOTAL FREE ENERGY PREDICTED BY IDOCK:   -6.83 KCAL/MOL
REMARK 923 INTER-LIGAND FREE ENERGY PREDICTED BY IDOCK:   -5.71 KCAL/MOL
REMARK 924 INTRA-LIGAND FREE ENERGY PREDICTED BY IDOCK:   -1.12 KCAL/MOL
REMARK 927      BINDING AFFINITY PREDICTED BY RF-SCORE:    0.00 PKD
ROOT
HETATM    1  C   UNL     1     -11.870  11.555  68.818  1.00  0.00    -0.394 C  
HETATM    2  C   UNL     1     -10.465  11.647  68.341  1.00  0.00    -0.213 C  
HETATM    3  C   UNL     1      -9.364  10.939  68.820  1.00  0.00    -0.185 C  
HETATM    4  C   UNL     1      -8.835  12.520  66.982  1.00  0.00    -0.212 C  
HETATM    5  S   UNL     1      -7.946  11.539  68.015  1.00  0.00    -0.138 SA 
HETATM    6  N   UNL     1     -10.131  12.487  67.270  1.00  0.00    -0.212 NA 
ENDROOT
BRANCH   3   7
HETATM    7  C   UNL     1      -9.241   9.808  69.858  1.00  0.00    -0.263 C  
BRANCH   7   8
HETATM    8  C   UNL     1      -9.459   8.449  69.178  1.00  0.00    -0.155 C  
BRANCH   8   9
HETATM    9  O   UNL     1      -8.674   7.344  69.568  1.00  0.00    -0.136 OA 
BRANCH   9  10
HETATM   10  P   UNL     1      -8.027   6.504  68.258  1.00  0.00    -0.111 P  
HETATM   11  O   UNL     1      -8.561   5.029  68.987  1.00  0.00    -0.086 OA 
HETATM   12  O   UNL     1      -6.600   6.088  68.668  1.00  0.00    -0.053 OA 
BRANCH  10  13
HETATM   13  O   UNL     1      -7.493   7.978  67.528  1.00  0.00    -0.093 OA 
HETATM   14  O   UNL     1      -7.639   6.522  65.457  1.00  0.00    -0.080 OA 
HETATM   15  P   UNL     1      -7.520   7.935  65.925  1.00  0.00    -0.082 P  
HETATM   16  O   UNL     1      -8.396   9.056  65.435  1.00  0.00    -0.128 OA 
HETATM   17  O   UNL     1      -6.031   8.469  65.623  1.00  0.00    -0.044 OA 
ENDBRANCH  10  13
ENDBRANCH   9  10
ENDBRANCH   8   9
ENDBRANCH   7   8
ENDBRANCH   3   7
BRANCH   6  18
HETATM   18  C   UNL     1     -11.057  13.213  66.384  1.00  0.00    -0.289 C  
BRANCH  18  19
HETATM   19  C   UNL     1     -10.788  14.686  66.339  1.00  0.00    -0.315 A  
HETATM   20  C   UNL     1     -10.605  15.321  65.131  1.00  0.00    -0.430 A  
HETATM   21  N   UNL     1     -10.522  16.651  64.989  1.00  0.00    -0.662 NA 
HETATM   22  C   UNL     1     -10.623  17.378  66.112  1.00  0.00    -0.208 A  
HETATM   23  N   UNL     1     -10.656  16.847  67.345  1.00  0.00    -0.320 NA 
HETATM   24  C   UNL     1     -10.741  18.863  65.963  1.00  0.00    -0.373 C  
HETATM   25  C   UNL     1     -10.691  15.514  67.439  1.00  0.00    -0.301 A  
HETATM   26  N   UNL     1     -10.564  15.013  68.739  1.00  0.00    -0.232 NA 
HETATM   27  H1  UNL     1     -10.493  15.625  69.551  1.00  0.00     0.000 HD 
HETATM   28  H2  UNL     1      -9.760  14.385  68.751  1.00  0.00     0.000 HD 
ENDBRANCH  18  19
ENDBRANCH   6  18
TORSDOF 7
ENDMDL
MODEL      227
REMARK 921   NORMALIZED FREE ENERGY PREDICTED BY IDOCK:   -4.14 KCAL/MOL
REMARK 922        TOTAL FREE ENERGY PREDICTED BY IDOCK:   -6.83 KCAL/MOL
REMARK 923 INTER-LIGAND FREE ENERGY PREDICTED BY IDOCK:   -6.58 KCAL/MOL
REMARK 924 INTRA-LIGAND FREE ENERGY PREDICTED BY IDOCK:   -0.25 KCAL/MOL
REMARK 927      BINDING AFFINITY PREDICTED BY RF-SCORE:    0.00 PKD
ROOT
HETATM    1  C   UNL     1      -8.577  15.554  66.366  1.00  0.00    -0.292 C  
HETATM    2  C   UNL     1      -7.492  14.878  67.122  1.00  0.00    -0.076 C  
HETATM    3  C   UNL     1      -7.533  13.613  67.708  1.00  0.00    -0.168 C  
HETATM    4  C   UNL     1      -5.382  14.811  68.024  1.00  0.00    -0.115 C  
HETATM    5  S   UNL     1      -6.055  13.380  68.591  1.00  0.00    -0.094 SA 
HETATM    6  N   UNL     1      -6.243  15.495  67.279  1.00  0.00    -0.322 NA 
ENDROOT
BRANCH   3   7
HETATM    7  C   UNL     1      -8.598  12.502  67.680  1.00  0.00    -0.178 C  
BRANCH   7   8
HETATM    8  C   UNL     1      -9.988  13.105  67.927  1.00  0.00    -0.233 C  
BRANCH   8   9
HETATM    9  O   UNL     1     -10.412  13.354  69.249  1.00  0.00    -0.028 OA 
BRANCH   9  10
HETATM   10  P   UNL     1     -12.086  13.501  69.385  1.00  0.00    -0.159 P  
HETATM   11  O   UNL     1     -12.052  14.661  68.103  1.00  0.00    -0.273 OA 
HETATM   12  O   UNL     1     -12.344  14.687  70.335  1.00  0.00    -0.303 OA 
BRANCH  10  13
HETATM   13  O   UNL     1     -12.120  12.340  70.667  1.00  0.00    -0.363 OA 
HETATM   14  O   UNL     1     -12.227  10.765  68.683  1.00  0.00    -0.472 OA 
HETATM   15  P   UNL     1     -11.978  10.827  70.154  1.00  0.00    -0.387 P  
HETATM   16  O   UNL     1     -10.784  10.207  70.827  1.00  0.00    -0.282 OA 
HETATM   17  O   UNL     1     -13.225  10.168  70.930  1.00  0.00    -0.395 OA 
ENDBRANCH  10  13
ENDBRANCH   9  10
ENDBRANCH   8   9
ENDBRANCH   7   8
ENDBRANCH   3   7
BRANCH   6  18
HETATM   18  C   UNL     1      -5.765  16.722  66.619  1.00  0.00    -0.008 C  
BRANCH  18  19
HETATM   19  C   UNL     1      -6.690  17.885  66.810  1.00  0.00    -0.218 A  
HETATM   20  C   UNL     1      -7.198  18.554  65.719  1.00  0.00    -0.189 A  
HETATM   21  N   UNL     1      -8.150  19.494  65.792  1.00  0.00    -0.422 NA 
HETATM   22  C   UNL     1      -8.613  19.779  67.019  1.00  0.00    -0.324 A  
HETATM   23  N   UNL     1      -8.080  19.288  68.150  1.00  0.00    -0.302 NA 
HETATM   24  C   UNL     1      -9.813  20.668  67.114  1.00  0.00    -0.497 C  
HETATM   25  C   UNL     1      -7.101  18.388  68.029  1.00  0.00    -0.231 A  
HETATM   26  N   UNL     1      -6.476  18.031  69.228  1.00  0.00    -0.251 NA 
HETATM   27  H1  UNL     1      -6.780  18.402  70.128  1.00  0.00     0.000 HD 
HETATM   28  H2  UNL     1      -5.481  18.229  69.130  1.00  0.00     0.000 HD 
ENDBRANCH  18  19
ENDBRANCH   6  18
TORSDOF 7
ENDMDL
MODEL      228
REMARK 921   NORMALIZED FREE ENERGY PREDICTED BY IDOCK:   -4.12 KCAL/MOL
REMARK 922        TOTAL FREE ENERGY PREDICTED BY IDOCK:   -6.79 KCAL/MOL
REMARK 923 INTER-LIGAND FREE ENERGY PREDICTED BY IDOCK:   -5.83 KCAL/MOL
REMARK 924 INTRA-LIGAND FREE ENERGY PREDICTED BY IDOCK:   -0.97 KCAL/MOL
REMARK 927      BINDING AFFINITY PREDICTED BY RF-SCORE:    0.00 PKD
ROOT
HETATM    1  C   UNL     1     -10.082   5.889  70.144  1.00  0.00    -0.261 C  
HETATM    2  C   UNL     1      -9.080   6.623  69.328  1.00  0.00    -0.138 C  
HETATM    3  C   UNL     1      -8.623   7.926  69.525  1.00  0.00    -0.137 C  
HETATM    4  C   UNL     1      -7.620   6.782  67.564  1.00  0.00    -0.106 C  
HETATM    5  S   UNL     1      -7.577   8.337  68.200  1.00  0.00    -0.099 SA 
HETATM    6  N   UNL     1      -8.449   5.999  68.243  1.00  0.00    -0.112 NA 
ENDROOT
BRANCH   3   7
HETATM    7  C   UNL     1      -8.888   8.949  70.645  1.00  0.00    -0.234 C  
BRANCH   7   8
HETATM    8  C   UNL     1     -10.142   9.770  70.318  1.00  0.00    -0.266 C  
BRANCH   8   9
HETATM    9  O   UNL     1     -10.099  10.718  69.275  1.00  0.00    -0.218 OA 
BRANCH   9  10
HETATM   10  P   UNL     1     -11.442  11.738  69.260  1.00  0.00    -0.328 P  
HETATM   11  O   UNL     1     -12.288  10.579  70.224  1.00  0.00    -0.303 OA 
HETATM   12  O   UNL     1     -12.326  11.277  68.084  1.00  0.00    -0.500 OA 
BRANCH  10  13
HETATM   13  O   UNL     1     -10.595  12.898  68.295  1.00  0.00    -0.232 OA 
HETATM   14  O   UNL     1     -12.333  14.421  69.341  1.00  0.00    -0.294 OA 
HETATM   15  P   UNL     1     -11.043  14.411  68.588  1.00  0.00    -0.280 P  
HETATM   16  O   UNL     1      -9.828  15.195  69.000  1.00  0.00    -0.220 OA 
HETATM   17  O   UNL     1     -11.309  14.902  67.078  1.00  0.00    -0.343 OA 
ENDBRANCH  10  13
ENDBRANCH   9  10
ENDBRANCH   8   9
ENDBRANCH   7   8
ENDBRANCH   3   7
BRANCH   6  18
HETATM   18  C   UNL     1      -8.515   4.574  67.873  1.00  0.00    -0.102 C  
BRANCH  18  19
HETATM   19  C   UNL     1      -9.111   4.351  66.517  1.00  0.00    -0.123 A  
HETATM   20  C   UNL     1      -8.376   3.732  65.530  1.00  0.00    -0.105 A  
HETATM   21  N   UNL     1      -8.881   3.350  64.349  1.00  0.00    -0.103 NA 
HETATM   22  C   UNL     1     -10.182   3.602  64.147  1.00  0.00    -0.231 A  
HETATM   23  N   UNL     1     -10.941   4.327  64.986  1.00  0.00    -0.154 NA 
HETATM   24  C   UNL     1     -10.820   3.006  62.931  1.00  0.00    -0.177 C  
HETATM   25  C   UNL     1     -10.382   4.727  66.131  1.00  0.00    -0.300 A  
HETATM   26  N   UNL     1     -11.159   5.608  66.890  1.00  0.00    -0.463 NA 
HETATM   27  H1  UNL     1     -12.099   5.885  66.604  1.00  0.00     0.000 HD 
HETATM   28  H2  UNL     1     -10.614   6.457  67.033  1.00  0.00     0.000 HD 
ENDBRANCH  18  19
ENDBRANCH   6  18
TORSDOF 7
ENDMDL
MODEL      229
REMARK 921   NORMALIZED FREE ENERGY PREDICTED BY IDOCK:   -4.11 KCAL/MOL
REMARK 922        TOTAL FREE ENERGY PREDICTED BY IDOCK:   -6.77 KCAL/MOL
REMARK 923 INTER-LIGAND FREE ENERGY PREDICTED BY IDOCK:   -6.10 KCAL/MOL
REMARK 924 INTRA-LIGAND FREE ENERGY PREDICTED BY IDOCK:   -0.68 KCAL/MOL
REMARK 927      BINDING AFFINITY PREDICTED BY RF-SCORE:    0.00 PKD
ROOT
HETATM    1  C   UNL     1     -11.563  12.241  64.546  1.00  0.00    -0.418 C  
HETATM    2  C   UNL     1     -11.046  11.854  65.885  1.00  0.00    -0.316 C  
HETATM    3  C   UNL     1     -10.139  10.837  66.177  1.00  0.00    -0.242 C  
HETATM    4  C   UNL     1     -10.948  12.080  68.166  1.00  0.00    -0.230 C  
HETATM    5  S   UNL     1      -9.999  10.718  67.905  1.00  0.00    -0.179 SA 
HETATM    6  N   UNL     1     -11.435  12.563  67.030  1.00  0.00    -0.334 NA 
ENDROOT
BRANCH   3   7
HETATM    7  C   UNL     1      -9.320   9.899  65.271  1.00  0.00    -0.309 C  
BRANCH   7   8
HETATM    8  C   UNL     1      -9.095   8.555  65.977  1.00  0.00    -0.194 C  
BRANCH   8   9
HETATM    9  O   UNL     1      -8.783   7.412  65.213  1.00  0.00    -0.058 OA 
BRANCH   9  10
HETATM   10  P   UNL     1      -8.153   6.153  66.140  1.00  0.00    -0.125 P  
HETATM   11  O   UNL     1      -8.142   7.214  67.506  1.00  0.00    -0.111 OA 
HETATM   12  O   UNL     1      -6.620   6.316  66.111  1.00  0.00    -0.045 OA 
BRANCH  10  13
HETATM   13  O   UNL     1      -8.163   5.093  64.773  1.00  0.00    -0.117 OA 
HETATM   14  O   UNL     1      -8.964   3.477  66.556  1.00  0.00    -0.129 OA 
HETATM   15  P   UNL     1      -8.845   3.674  65.081  1.00  0.00    -0.133 P  
HETATM   16  O   UNL     1      -9.982   3.475  64.116  1.00  0.00    -0.161 OA 
HETATM   17  O   UNL     1      -7.698   2.701  64.508  1.00  0.00    -0.074 OA 
ENDBRANCH  10  13
ENDBRANCH   9  10
ENDBRANCH   8   9
ENDBRANCH   7   8
ENDBRANCH   3   7
BRANCH   6  18
HETATM   18  C   UNL     1     -12.201  13.820  67.083  1.00  0.00    -0.313 C  
BRANCH  18  19
HETATM   19  C   UNL     1     -11.383  14.982  67.557  1.00  0.00    -0.340 A  
HETATM   20  C   UNL     1     -10.470  15.577  66.715  1.00  0.00    -0.295 A  
HETATM   21  N   UNL     1      -9.818  16.713  66.999  1.00  0.00    -0.252 NA 
HETATM   22  C   UNL     1     -10.091  17.277  68.185  1.00  0.00    -0.325 A  
HETATM   23  N   UNL     1     -10.851  16.698  69.129  1.00  0.00    -0.327 NA 
HETATM   24  C   UNL     1      -9.539  18.644  68.442  1.00  0.00    -0.396 C  
HETATM   25  C   UNL     1     -11.445  15.542  68.817  1.00  0.00    -0.355 A  
HETATM   26  N   UNL     1     -12.091  14.906  69.882  1.00  0.00    -0.321 NA 
HETATM   27  H1  UNL     1     -12.137  15.320  70.813  1.00  0.00     0.000 HD 
HETATM   28  H2  UNL     1     -11.688  13.973  69.976  1.00  0.00     0.000 HD 
ENDBRANCH  18  19
ENDBRANCH   6  18
TORSDOF 7
ENDMDL
MODEL      230
REMARK 921   NORMALIZED FREE ENERGY PREDICTED BY IDOCK:   -4.10 KCAL/MOL
REMARK 922        TOTAL FREE ENERGY PREDICTED BY IDOCK:   -6.77 KCAL/MOL
REMARK 923 INTER-LIGAND FREE ENERGY PREDICTED BY IDOCK:   -5.84 KCAL/MOL
REMARK 924 INTRA-LIGAND FREE ENERGY PREDICTED BY IDOCK:   -0.93 KCAL/MOL
REMARK 927      BINDING AFFINITY PREDICTED BY RF-SCORE:    0.00 PKD
ROOT
HETATM    1  C   UNL     1      -8.169  15.049  66.628  1.00  0.00    -0.020 C  
HETATM    2  C   UNL     1      -9.612  14.853  66.925  1.00  0.00    -0.245 C  
HETATM    3  C   UNL     1     -10.499  13.996  66.275  1.00  0.00    -0.286 C  
HETATM    4  C   UNL     1     -11.524  15.323  68.105  1.00  0.00    -0.346 C  
HETATM    5  S   UNL     1     -12.089  14.274  66.920  1.00  0.00    -0.324 SA 
HETATM    6  N   UNL     1     -10.221  15.542  67.983  1.00  0.00    -0.227 NA 
ENDROOT
BRANCH   3   7
HETATM    7  C   UNL     1     -10.286  12.938  65.177  1.00  0.00    -0.320 C  
BRANCH   7   8
HETATM    8  C   UNL     1     -10.157  11.546  65.810  1.00  0.00    -0.237 C  
BRANCH   8   9
HETATM    9  O   UNL     1     -10.675  11.320  67.102  1.00  0.00    -0.225 OA 
BRANCH   9  10
HETATM   10  P   UNL     1      -9.640  10.411  68.075  1.00  0.00    -0.147 P  
HETATM   11  O   UNL     1     -10.704   9.061  67.882  1.00  0.00    -0.217 OA 
HETATM   12  O   UNL     1     -10.183  10.523  69.513  1.00  0.00    -0.227 OA 
BRANCH  10  13
HETATM   13  O   UNL     1      -8.576  11.762  68.268  1.00  0.00    -0.153 OA 
HETATM   14  O   UNL     1      -6.895   9.876  68.495  1.00  0.00    -0.058 OA 
HETATM   15  P   UNL     1      -7.026  11.348  68.278  1.00  0.00    -0.082 P  
HETATM   16  O   UNL     1      -6.327  12.096  67.176  1.00  0.00    -0.147 OA 
HETATM   17  O   UNL     1      -6.557  12.123  69.609  1.00  0.00    -0.105 OA 
ENDBRANCH  10  13
ENDBRANCH   9  10
ENDBRANCH   8   9
ENDBRANCH   7   8
ENDBRANCH   3   7
BRANCH   6  18
HETATM   18  C   UNL     1      -9.557  16.357  69.015  1.00  0.00    -0.264 C  
BRANCH  18  19
HETATM   19  C   UNL     1      -8.939  17.606  68.465  1.00  0.00    -0.289 A  
HETATM   20  C   UNL     1      -7.660  17.965  68.828  1.00  0.00    -0.268 A  
HETATM   21  N   UNL     1      -6.975  18.970  68.264  1.00  0.00    -0.249 NA 
HETATM   22  C   UNL     1      -7.605  19.648  67.293  1.00  0.00    -0.247 A  
HETATM   23  N   UNL     1      -8.897  19.468  66.972  1.00  0.00    -0.294 NA 
HETATM   24  C   UNL     1      -6.798  20.634  66.507  1.00  0.00    -0.310 C  
HETATM   25  C   UNL     1      -9.553  18.484  67.594  1.00  0.00    -0.286 A  
HETATM   26  N   UNL     1     -10.928  18.443  67.343  1.00  0.00    -0.262 NA 
HETATM   27  H1  UNL     1     -11.381  19.091  66.699  1.00  0.00     0.000 HD 
HETATM   28  H2  UNL     1     -11.409  18.508  68.240  1.00  0.00     0.000 HD 
ENDBRANCH  18  19
ENDBRANCH   6  18
TORSDOF 7
ENDMDL
MODEL      231
REMARK 921   NORMALIZED FREE ENERGY PREDICTED BY IDOCK:   -4.10 KCAL/MOL
REMARK 922        TOTAL FREE ENERGY PREDICTED BY IDOCK:   -6.77 KCAL/MOL
REMARK 923 INTER-LIGAND FREE ENERGY PREDICTED BY IDOCK:   -5.71 KCAL/MOL
REMARK 924 INTRA-LIGAND FREE ENERGY PREDICTED BY IDOCK:   -1.06 KCAL/MOL
REMARK 927      BINDING AFFINITY PREDICTED BY RF-SCORE:    0.00 PKD
ROOT
HETATM    1  C   UNL     1      -8.691   9.838  68.767  1.00  0.00    -0.128 C  
HETATM    2  C   UNL     1      -9.969  10.577  68.940  1.00  0.00    -0.204 C  
HETATM    3  C   UNL     1     -10.918  10.396  69.945  1.00  0.00    -0.305 C  
HETATM    4  C   UNL     1     -11.509  12.150  68.292  1.00  0.00    -0.305 C  
HETATM    5  S   UNL     1     -12.282  11.411  69.588  1.00  0.00    -0.202 SA 
HETATM    6  N   UNL     1     -10.318  11.612  68.061  1.00  0.00    -0.186 NA 
ENDROOT
BRANCH   3   7
HETATM    7  C   UNL     1     -10.924   9.513  71.206  1.00  0.00    -0.440 C  
BRANCH   7   8
HETATM    8  C   UNL     1     -11.191   8.052  70.820  1.00  0.00    -0.265 C  
BRANCH   8   9
HETATM    9  O   UNL     1     -10.143   7.270  70.292  1.00  0.00    -0.190 OA 
BRANCH   9  10
HETATM   10  P   UNL     1      -9.809   5.905  71.224  1.00  0.00    -0.184 P  
HETATM   11  O   UNL     1     -10.342   4.920  69.906  1.00  0.00    -0.265 OA 
HETATM   12  O   UNL     1     -11.126   5.525  71.927  1.00  0.00    -0.237 OA 
BRANCH  10  13
HETATM   13  O   UNL     1      -9.276   6.890  72.542  1.00  0.00    -0.136 OA 
HETATM   14  O   UNL     1      -7.103   6.725  71.246  1.00  0.00    -0.072 OA 
HETATM   15  P   UNL     1      -7.795   7.473  72.337  1.00  0.00    -0.110 P  
HETATM   16  O   UNL     1      -7.861   8.974  72.411  1.00  0.00    -0.345 OA 
HETATM   17  O   UNL     1      -7.152   7.059  73.753  1.00  0.00    -0.073 OA 
ENDBRANCH  10  13
ENDBRANCH   9  10
ENDBRANCH   8   9
ENDBRANCH   7   8
ENDBRANCH   3   7
BRANCH   6  18
HETATM   18  C   UNL     1      -9.470  12.224  67.023  1.00  0.00    -0.204 C  
BRANCH  18  19
HETATM   19  C   UNL     1      -9.207  13.678  67.267  1.00  0.00    -0.232 A  
HETATM   20  C   UNL     1      -9.638  14.621  66.361  1.00  0.00    -0.301 A  
HETATM   21  N   UNL     1      -9.589  15.943  66.575  1.00  0.00    -0.249 NA 
HETATM   22  C   UNL     1      -9.082  16.338  67.753  1.00  0.00    -0.195 A  
HETATM   23  N   UNL     1      -8.505  15.504  68.634  1.00  0.00    -0.163 NA 
HETATM   24  C   UNL     1      -9.204  17.787  68.105  1.00  0.00    -0.277 C  
HETATM   25  C   UNL     1      -8.537  14.197  68.356  1.00  0.00    -0.176 A  
HETATM   26  N   UNL     1      -7.788  13.393  69.220  1.00  0.00    -0.264 NA 
HETATM   27  H1  UNL     1      -7.292  13.777  70.025  1.00  0.00     0.000 HD 
HETATM   28  H2  UNL     1      -7.112  12.877  68.656  1.00  0.00     0.000 HD 
ENDBRANCH  18  19
ENDBRANCH   6  18
TORSDOF 7
ENDMDL
MODEL      232
REMARK 921   NORMALIZED FREE ENERGY PREDICTED BY IDOCK:   -4.10 KCAL/MOL
REMARK 922        TOTAL FREE ENERGY PREDICTED BY IDOCK:   -6.76 KCAL/MOL
REMARK 923 INTER-LIGAND FREE ENERGY PREDICTED BY IDOCK:   -6.32 KCAL/MOL
REMARK 924 INTRA-LIGAND FREE ENERGY PREDICTED BY IDOCK:   -0.44 KCAL/MOL
REMARK 927      BINDING AFFINITY PREDICTED BY RF-SCORE:    0.00 PKD
ROOT
HETATM    1  C   UNL     1      -9.235  10.068  69.587  1.00  0.00    -0.236 C  
HETATM    2  C   UNL     1     -10.537  10.114  70.302  1.00  0.00    -0.264 C  
HETATM    3  C   UNL     1     -11.576  11.022  70.107  1.00  0.00    -0.334 C  
HETATM    4  C   UNL     1     -12.017   9.338  71.876  1.00  0.00    -0.363 C  
HETATM    5  S   UNL     1     -12.794  10.715  71.307  1.00  0.00    -0.453 SA 
HETATM    6  N   UNL     1     -10.850   9.150  71.272  1.00  0.00    -0.303 NA 
ENDROOT
BRANCH   3   7
HETATM    7  C   UNL     1     -11.777  12.146  69.074  1.00  0.00    -0.377 C  
BRANCH   7   8
HETATM    8  C   UNL     1     -12.179  13.445  69.786  1.00  0.00    -0.245 C  
BRANCH   8   9
HETATM    9  O   UNL     1     -11.209  14.169  70.511  1.00  0.00    -0.037 OA 
BRANCH   9  10
HETATM   10  P   UNL     1     -10.809  15.637  69.786  1.00  0.00    -0.366 P  
HETATM   11  O   UNL     1     -11.699  16.450  71.028  1.00  0.00    -0.345 OA 
HETATM   12  O   UNL     1     -11.975  15.989  68.841  1.00  0.00    -0.348 OA 
BRANCH  10  13
HETATM   13  O   UNL     1      -9.919  14.825  68.545  1.00  0.00    -0.215 OA 
HETATM   14  O   UNL     1      -8.397  16.821  68.905  1.00  0.00    -0.247 OA 
HETATM   15  P   UNL     1      -8.472  15.465  68.284  1.00  0.00    -0.172 P  
HETATM   16  O   UNL     1      -7.435  14.394  68.487  1.00  0.00    -0.108 OA 
HETATM   17  O   UNL     1      -8.538  15.619  66.683  1.00  0.00    -0.247 OA 
ENDBRANCH  10  13
ENDBRANCH   9  10
ENDBRANCH   8   9
ENDBRANCH   7   8
ENDBRANCH   3   7
BRANCH   6  18
HETATM   18  C   UNL     1     -10.097   7.924  71.585  1.00  0.00    -0.181 C  
BRANCH  18  19
HETATM   19  C   UNL     1     -10.095   6.936  70.459  1.00  0.00    -0.201 A  
HETATM   20  C   UNL     1     -11.220   6.767  69.683  1.00  0.00    -0.292 A  
HETATM   21  N   UNL     1     -11.254   6.031  68.563  1.00  0.00    -0.212 NA 
HETATM   22  C   UNL     1     -10.107   5.433  68.208  1.00  0.00    -0.167 A  
HETATM   23  N   UNL     1      -9.004   5.420  68.974  1.00  0.00    -0.106 NA 
HETATM   24  C   UNL     1     -10.059   4.778  66.863  1.00  0.00    -0.246 C  
HETATM   25  C   UNL     1      -9.031   6.131  70.104  1.00  0.00    -0.148 A  
HETATM   26  N   UNL     1      -7.922   5.955  70.938  1.00  0.00    -0.109 NA 
HETATM   27  H1  UNL     1      -7.136   5.360  70.676  1.00  0.00     0.000 HD 
HETATM   28  H2  UNL     1      -8.264   5.637  71.845  1.00  0.00     0.000 HD 
ENDBRANCH  18  19
ENDBRANCH   6  18
TORSDOF 7
ENDMDL
MODEL      233
REMARK 921   NORMALIZED FREE ENERGY PREDICTED BY IDOCK:   -4.09 KCAL/MOL
REMARK 922        TOTAL FREE ENERGY PREDICTED BY IDOCK:   -6.75 KCAL/MOL
REMARK 923 INTER-LIGAND FREE ENERGY PREDICTED BY IDOCK:   -6.05 KCAL/MOL
REMARK 924 INTRA-LIGAND FREE ENERGY PREDICTED BY IDOCK:   -0.69 KCAL/MOL
REMARK 927      BINDING AFFINITY PREDICTED BY RF-SCORE:    0.00 PKD
ROOT
HETATM    1  C   UNL     1      -7.915  10.102  66.998  1.00  0.00    -0.110 C  
HETATM    2  C   UNL     1      -9.021   9.917  67.973  1.00  0.00    -0.121 C  
HETATM    3  C   UNL     1     -10.117  10.755  68.175  1.00  0.00    -0.164 C  
HETATM    4  C   UNL     1     -10.072   8.765  69.657  1.00  0.00    -0.204 C  
HETATM    5  S   UNL     1     -11.017  10.149  69.532  1.00  0.00    -0.267 SA 
HETATM    6  N   UNL     1      -9.065   8.780  68.793  1.00  0.00    -0.138 NA 
ENDROOT
BRANCH   3   7
HETATM    7  C   UNL     1     -10.595  12.017  67.434  1.00  0.00    -0.253 C  
BRANCH   7   8
HETATM    8  C   UNL     1     -10.845  13.150  68.439  1.00  0.00    -0.262 C  
BRANCH   8   9
HETATM    9  O   UNL     1      -9.822  14.086  68.699  1.00  0.00    -0.225 OA 
BRANCH   9  10
HETATM   10  P   UNL     1     -10.363  15.682  68.644  1.00  0.00    -0.234 P  
HETATM   11  O   UNL     1     -10.763  15.566  70.322  1.00  0.00    -0.308 OA 
HETATM   12  O   UNL     1     -11.878  15.619  68.367  1.00  0.00    -0.346 OA 
BRANCH  10  13
HETATM   13  O   UNL     1      -9.963  15.798  66.965  1.00  0.00    -0.232 OA 
HETATM   14  O   UNL     1     -10.299  18.258  67.480  1.00  0.00    -0.361 OA 
HETATM   15  P   UNL     1      -9.742  17.308  66.471  1.00  0.00    -0.292 P  
HETATM   16  O   UNL     1      -8.359  17.421  65.890  1.00  0.00    -0.535 OA 
HETATM   17  O   UNL     1     -10.691  17.301  65.171  1.00  0.00    -0.687 OA 
ENDBRANCH  10  13
ENDBRANCH   9  10
ENDBRANCH   8   9
ENDBRANCH   7   8
ENDBRANCH   3   7
BRANCH   6  18
HETATM   18  C   UNL     1      -8.208   7.585  68.706  1.00  0.00    -0.129 C  
BRANCH  18  19
HETATM   19  C   UNL     1      -8.773   6.526  67.811  1.00  0.00    -0.115 A  
HETATM   20  C   UNL     1      -8.666   6.645  66.443  1.00  0.00    -0.141 A  
HETATM   21  N   UNL     1      -8.996   5.676  65.578  1.00  0.00    -0.140 NA 
HETATM   22  C   UNL     1      -9.457   4.534  66.110  1.00  0.00    -0.173 A  
HETATM   23  N   UNL     1      -9.732   4.376  67.416  1.00  0.00    -0.185 NA 
HETATM   24  C   UNL     1      -9.636   3.367  65.190  1.00  0.00    -0.131 C  
HETATM   25  C   UNL     1      -9.429   5.388  68.235  1.00  0.00    -0.119 A  
HETATM   26  N   UNL     1      -9.880   5.236  69.550  1.00  0.00    -0.180 NA 
HETATM   27  H1  UNL     1     -10.365   4.395  69.863  1.00  0.00     0.000 HD 
HETATM   28  H2  UNL     1     -10.473   6.037  69.768  1.00  0.00     0.000 HD 
ENDBRANCH  18  19
ENDBRANCH   6  18
TORSDOF 7
ENDMDL
MODEL      234
REMARK 921   NORMALIZED FREE ENERGY PREDICTED BY IDOCK:   -4.08 KCAL/MOL
REMARK 922        TOTAL FREE ENERGY PREDICTED BY IDOCK:   -6.74 KCAL/MOL
REMARK 923 INTER-LIGAND FREE ENERGY PREDICTED BY IDOCK:   -6.08 KCAL/MOL
REMARK 924 INTRA-LIGAND FREE ENERGY PREDICTED BY IDOCK:   -0.66 KCAL/MOL
REMARK 927      BINDING AFFINITY PREDICTED BY RF-SCORE:    0.00 PKD
ROOT
HETATM    1  C   UNL     1      -7.670  10.779  69.141  1.00  0.00    -0.138 C  
HETATM    2  C   UNL     1      -8.934  10.270  69.734  1.00  0.00    -0.049 C  
HETATM    3  C   UNL     1     -10.230  10.710  69.464  1.00  0.00    -0.158 C  
HETATM    4  C   UNL     1     -10.103   8.887  71.144  1.00  0.00    -0.271 C  
HETATM    5  S   UNL     1     -11.315   9.881  70.539  1.00  0.00    -0.349 SA 
HETATM    6  N   UNL     1      -8.915   9.206  70.646  1.00  0.00    -0.226 NA 
ENDROOT
BRANCH   3   7
HETATM    7  C   UNL     1     -10.779  11.724  68.444  1.00  0.00    -0.249 C  
BRANCH   7   8
HETATM    8  C   UNL     1     -11.653  12.763  69.159  1.00  0.00    -0.319 C  
BRANCH   8   9
HETATM    9  O   UNL     1     -12.259  13.794  68.411  1.00  0.00    -0.340 OA 
BRANCH   9  10
HETATM   10  P   UNL     1     -11.146  14.727  67.556  1.00  0.00    -0.339 P  
HETATM   11  O   UNL     1     -10.082  14.638  68.917  1.00  0.00    -0.232 OA 
HETATM   12  O   UNL     1     -11.403  16.192  67.962  1.00  0.00    -0.326 OA 
BRANCH  10  13
HETATM   13  O   UNL     1     -12.211  14.816  66.196  1.00  0.00    -0.203 OA 
HETATM   14  O   UNL     1      -9.985  14.873  64.982  1.00  0.00    -0.328 OA 
HETATM   15  P   UNL     1     -11.451  14.672  64.789  1.00  0.00    -0.378 P  
HETATM   16  O   UNL     1     -12.046  13.508  64.045  1.00  0.00    -0.439 OA 
HETATM   17  O   UNL     1     -12.065  15.951  64.029  1.00  0.00    -0.685 OA 
ENDBRANCH  10  13
ENDBRANCH   9  10
ENDBRANCH   8   9
ENDBRANCH   7   8
ENDBRANCH   3   7
BRANCH   6  18
HETATM   18  C   UNL     1      -7.765   8.356  70.999  1.00  0.00    -0.097 C  
BRANCH  18  19
HETATM   19  C   UNL     1      -8.010   6.903  70.730  1.00  0.00    -0.106 A  
HETATM   20  C   UNL     1      -7.957   5.989  71.759  1.00  0.00    -0.107 A  
HETATM   21  N   UNL     1      -8.319   4.704  71.639  1.00  0.00    -0.103 NA 
HETATM   22  C   UNL     1      -8.751   4.317  70.430  1.00  0.00    -0.078 A  
HETATM   23  N   UNL     1      -8.700   5.094  69.335  1.00  0.00    -0.098 NA 
HETATM   24  C   UNL     1      -9.353   2.951  70.317  1.00  0.00    -0.219 C  
HETATM   25  C   UNL     1      -8.288   6.355  69.494  1.00  0.00    -0.126 A  
HETATM   26  N   UNL     1      -8.103   7.068  68.306  1.00  0.00    -0.122 NA 
HETATM   27  H1  UNL     1      -8.309   6.663  67.393  1.00  0.00     0.000 HD 
HETATM   28  H2  UNL     1      -7.137   7.397  68.289  1.00  0.00     0.000 HD 
ENDBRANCH  18  19
ENDBRANCH   6  18
TORSDOF 7
ENDMDL
MODEL      235
REMARK 921   NORMALIZED FREE ENERGY PREDICTED BY IDOCK:   -4.07 KCAL/MOL
REMARK 922        TOTAL FREE ENERGY PREDICTED BY IDOCK:   -6.72 KCAL/MOL
REMARK 923 INTER-LIGAND FREE ENERGY PREDICTED BY IDOCK:   -6.13 KCAL/MOL
REMARK 924 INTRA-LIGAND FREE ENERGY PREDICTED BY IDOCK:   -0.59 KCAL/MOL
REMARK 927      BINDING AFFINITY PREDICTED BY RF-SCORE:    0.00 PKD
ROOT
HETATM    1  C   UNL     1     -10.805   9.356  70.637  1.00  0.00    -0.346 C  
HETATM    2  C   UNL     1      -9.831   8.533  69.875  1.00  0.00    -0.186 C  
HETATM    3  C   UNL     1      -9.623   8.532  68.497  1.00  0.00    -0.151 C  
HETATM    4  C   UNL     1      -8.181   6.943  69.743  1.00  0.00    -0.131 C  
HETATM    5  S   UNL     1      -8.479   7.277  68.124  1.00  0.00    -0.123 SA 
HETATM    6  N   UNL     1      -8.959   7.661  70.543  1.00  0.00    -0.150 NA 
ENDROOT
BRANCH   3   7
HETATM    7  C   UNL     1     -10.205   9.404  67.369  1.00  0.00    -0.298 C  
BRANCH   7   8
HETATM    8  C   UNL     1      -9.463  10.746  67.312  1.00  0.00    -0.159 C  
BRANCH   8   9
HETATM    9  O   UNL     1      -9.788  11.760  68.237  1.00  0.00    -0.187 OA 
BRANCH   9  10
HETATM   10  P   UNL     1     -11.130  12.668  67.772  1.00  0.00    -0.284 P  
HETATM   11  O   UNL     1     -11.695  12.602  69.405  1.00  0.00    -0.297 OA 
HETATM   12  O   UNL     1     -12.245  11.659  67.436  1.00  0.00    -0.458 OA 
BRANCH  10  13
HETATM   13  O   UNL     1     -10.564  12.735  66.139  1.00  0.00    -0.260 OA 
HETATM   14  O   UNL     1     -12.630  14.189  65.920  1.00  0.00    -0.486 OA 
HETATM   15  P   UNL     1     -11.362  13.796  65.237  1.00  0.00    -0.332 P  
HETATM   16  O   UNL     1     -10.373  14.781  64.676  1.00  0.00    -0.316 OA 
HETATM   17  O   UNL     1     -11.709  12.858  63.975  1.00  0.00    -0.373 OA 
ENDBRANCH  10  13
ENDBRANCH   9  10
ENDBRANCH   8   9
ENDBRANCH   7   8
ENDBRANCH   3   7
BRANCH   6  18
HETATM   18  C   UNL     1      -8.742   7.559  71.997  1.00  0.00    -0.111 C  
BRANCH  18  19
HETATM   19  C   UNL     1      -9.343   6.323  72.592  1.00  0.00    -0.145 A  
HETATM   20  C   UNL     1     -10.687   6.282  72.893  1.00  0.00    -0.247 A  
HETATM   21  N   UNL     1     -11.335   5.172  73.273  1.00  0.00    -0.319 NA 
HETATM   22  C   UNL     1     -10.602   4.053  73.359  1.00  0.00    -0.195 A  
HETATM   23  N   UNL     1      -9.265   4.024  73.228  1.00  0.00    -0.105 NA 
HETATM   24  C   UNL     1     -11.332   2.765  73.578  1.00  0.00    -0.272 C  
HETATM   25  C   UNL     1      -8.655   5.165  72.893  1.00  0.00    -0.115 A  
HETATM   26  N   UNL     1      -7.258   5.118  72.926  1.00  0.00    -0.087 NA 
HETATM   27  H1  UNL     1      -6.750   4.262  73.149  1.00  0.00     0.000 HD 
HETATM   28  H2  UNL     1      -6.939   5.844  73.567  1.00  0.00     0.000 HD 
ENDBRANCH  18  19
ENDBRANCH   6  18
TORSDOF 7
ENDMDL
MODEL      236
REMARK 921   NORMALIZED FREE ENERGY PREDICTED BY IDOCK:   -4.06 KCAL/MOL
REMARK 922        TOTAL FREE ENERGY PREDICTED BY IDOCK:   -6.71 KCAL/MOL
REMARK 923 INTER-LIGAND FREE ENERGY PREDICTED BY IDOCK:   -6.00 KCAL/MOL
REMARK 924 INTRA-LIGAND FREE ENERGY PREDICTED BY IDOCK:   -0.71 KCAL/MOL
REMARK 927      BINDING AFFINITY PREDICTED BY RF-SCORE:    0.00 PKD
ROOT
HETATM    1  C   UNL     1      -7.906  13.830  68.017  1.00  0.00    -0.152 C  
HETATM    2  C   UNL     1      -9.369  14.080  67.941  1.00  0.00    -0.206 C  
HETATM    3  C   UNL     1     -10.355  13.193  67.510  1.00  0.00    -0.225 C  
HETATM    4  C   UNL     1     -11.216  15.419  68.190  1.00  0.00    -0.325 C  
HETATM    5  S   UNL     1     -11.870  14.044  67.480  1.00  0.00    -0.402 SA 
HETATM    6  N   UNL     1      -9.905  15.304  68.365  1.00  0.00    -0.212 NA 
ENDROOT
BRANCH   3   7
HETATM    7  C   UNL     1     -10.296  11.710  67.101  1.00  0.00    -0.247 C  
BRANCH   7   8
HETATM    8  C   UNL     1     -10.168  10.828  68.350  1.00  0.00    -0.175 C  
BRANCH   8   9
HETATM    9  O   UNL     1      -9.133   9.874  68.424  1.00  0.00    -0.122 OA 
BRANCH   9  10
HETATM   10  P   UNL     1      -9.684   8.292  68.237  1.00  0.00    -0.168 P  
HETATM   11  O   UNL     1      -8.420   8.026  67.086  1.00  0.00    -0.121 OA 
HETATM   12  O   UNL     1     -10.654   8.306  67.039  1.00  0.00    -0.321 OA 
BRANCH  10  13
HETATM   13  O   UNL     1     -10.947   8.557  69.389  1.00  0.00    -0.147 OA 
HETATM   14  O   UNL     1      -9.266   7.387  70.884  1.00  0.00    -0.154 OA 
HETATM   15  P   UNL     1     -10.515   8.205  70.893  1.00  0.00    -0.211 P  
HETATM   16  O   UNL     1     -10.704   9.433  71.741  1.00  0.00    -0.334 OA 
HETATM   17  O   UNL     1     -11.757   7.270  71.311  1.00  0.00    -0.272 OA 
ENDBRANCH  10  13
ENDBRANCH   9  10
ENDBRANCH   8   9
ENDBRANCH   7   8
ENDBRANCH   3   7
BRANCH   6  18
HETATM   18  C   UNL     1      -9.203  16.386  69.076  1.00  0.00    -0.247 C  
BRANCH  18  19
HETATM   19  C   UNL     1      -8.586  17.388  68.149  1.00  0.00    -0.248 A  
HETATM   20  C   UNL     1      -7.232  17.358  67.897  1.00  0.00    -0.188 A  
HETATM   21  N   UNL     1      -6.626  18.107  66.966  1.00  0.00    -0.176 NA 
HETATM   22  C   UNL     1      -7.415  18.928  66.256  1.00  0.00    -0.265 A  
HETATM   23  N   UNL     1      -8.714  19.133  66.526  1.00  0.00    -0.326 NA 
HETATM   24  C   UNL     1      -6.805  19.620  65.077  1.00  0.00    -0.104 C  
HETATM   25  C   UNL     1      -9.265  18.397  67.495  1.00  0.00    -0.272 A  
HETATM   26  N   UNL     1     -10.570  18.761  67.843  1.00  0.00    -0.378 NA 
HETATM   27  H1  UNL     1     -11.071  19.506  67.359  1.00  0.00     0.000 HD 
HETATM   28  H2  UNL     1     -10.576  18.978  68.839  1.00  0.00     0.000 HD 
ENDBRANCH  18  19
ENDBRANCH   6  18
TORSDOF 7
ENDMDL
MODEL      237
REMARK 921   NORMALIZED FREE ENERGY PREDICTED BY IDOCK:   -4.06 KCAL/MOL
REMARK 922        TOTAL FREE ENERGY PREDICTED BY IDOCK:   -6.70 KCAL/MOL
REMARK 923 INTER-LIGAND FREE ENERGY PREDICTED BY IDOCK:   -6.05 KCAL/MOL
REMARK 924 INTRA-LIGAND FREE ENERGY PREDICTED BY IDOCK:   -0.65 KCAL/MOL
REMARK 927      BINDING AFFINITY PREDICTED BY RF-SCORE:    0.00 PKD
ROOT
HETATM    1  C   UNL     1      -7.813   8.209  64.267  1.00  0.00    -0.137 C  
HETATM    2  C   UNL     1      -8.831   8.381  65.337  1.00  0.00    -0.103 C  
HETATM    3  C   UNL     1      -9.561   9.532  65.629  1.00  0.00    -0.277 C  
HETATM    4  C   UNL     1     -10.057   7.608  67.115  1.00  0.00    -0.253 C  
HETATM    5  S   UNL     1     -10.493   9.230  67.064  1.00  0.00    -0.201 SA 
HETATM    6  N   UNL     1      -9.181   7.306  66.165  1.00  0.00    -0.133 NA 
ENDROOT
BRANCH   3   7
HETATM    7  C   UNL     1      -9.652  10.898  64.924  1.00  0.00    -0.297 C  
BRANCH   7   8
HETATM    8  C   UNL     1     -10.331  11.919  65.847  1.00  0.00    -0.242 C  
BRANCH   8   9
HETATM    9  O   UNL     1     -10.307  13.287  65.507  1.00  0.00    -0.281 OA 
BRANCH   9  10
HETATM   10  P   UNL     1     -11.687  14.113  66.009  1.00  0.00    -0.405 P  
HETATM   11  O   UNL     1     -12.368  12.602  66.503  1.00  0.00    -0.500 OA 
HETATM   12  O   UNL     1     -12.675  14.072  64.826  1.00  0.00    -0.651 OA 
BRANCH  10  13
HETATM   13  O   UNL     1     -11.007  15.625  65.515  1.00  0.00    -0.335 OA 
HETATM   14  O   UNL     1      -9.989  15.452  67.832  1.00  0.00    -0.220 OA 
HETATM   15  P   UNL     1      -9.896  16.180  66.531  1.00  0.00    -0.308 P  
HETATM   16  O   UNL     1      -8.612  16.373  65.771  1.00  0.00    -0.398 OA 
HETATM   17  O   UNL     1     -10.443  17.681  66.724  1.00  0.00    -0.334 OA 
ENDBRANCH  10  13
ENDBRANCH   9  10
ENDBRANCH   8   9
ENDBRANCH   7   8
ENDBRANCH   3   7
BRANCH   6  18
HETATM   18  C   UNL     1      -8.783   5.896  66.013  1.00  0.00    -0.148 C  
BRANCH  18  19
HETATM   19  C   UNL     1      -8.271   5.293  67.284  1.00  0.00    -0.104 A  
HETATM   20  C   UNL     1      -7.153   5.813  67.898  1.00  0.00    -0.071 A  
HETATM   21  N   UNL     1      -6.724   5.443  69.112  1.00  0.00    -0.051 NA 
HETATM   22  C   UNL     1      -7.448   4.504  69.739  1.00  0.00    -0.051 A  
HETATM   23  N   UNL     1      -8.463   3.836  69.165  1.00  0.00    -0.071 NA 
HETATM   24  C   UNL     1      -7.118   4.220  71.171  1.00  0.00    -0.036 C  
HETATM   25  C   UNL     1      -8.826   4.210  67.935  1.00  0.00    -0.113 A  
HETATM   26  N   UNL     1      -9.775   3.383  67.325  1.00  0.00    -0.335 NA 
HETATM   27  H1  UNL     1     -10.186   2.582  67.806  1.00  0.00     0.000 HD 
HETATM   28  H2  UNL     1      -9.376   3.048  66.448  1.00  0.00     0.000 HD 
ENDBRANCH  18  19
ENDBRANCH   6  18
TORSDOF 7
ENDMDL
MODEL      238
REMARK 921   NORMALIZED FREE ENERGY PREDICTED BY IDOCK:   -4.02 KCAL/MOL
REMARK 922        TOTAL FREE ENERGY PREDICTED BY IDOCK:   -6.66 KCAL/MOL
REMARK 923 INTER-LIGAND FREE ENERGY PREDICTED BY IDOCK:   -5.81 KCAL/MOL
REMARK 924 INTRA-LIGAND FREE ENERGY PREDICTED BY IDOCK:   -0.84 KCAL/MOL
REMARK 927      BINDING AFFINITY PREDICTED BY RF-SCORE:    0.00 PKD
ROOT
HETATM    1  C   UNL     1      -7.730  13.923  67.994  1.00  0.00    -0.151 C  
HETATM    2  C   UNL     1      -9.124  14.232  67.584  1.00  0.00    -0.192 C  
HETATM    3  C   UNL     1      -9.940  13.484  66.736  1.00  0.00    -0.269 C  
HETATM    4  C   UNL     1     -10.999  15.556  67.597  1.00  0.00    -0.315 C  
HETATM    5  S   UNL     1     -11.409  14.373  66.477  1.00  0.00    -0.359 SA 
HETATM    6  N   UNL     1      -9.780  15.364  68.087  1.00  0.00    -0.210 NA 
ENDROOT
BRANCH   3   7
HETATM    7  C   UNL     1      -9.741  12.111  66.068  1.00  0.00    -0.258 C  
BRANCH   7   8
HETATM    8  C   UNL     1      -9.767  11.003  67.130  1.00  0.00    -0.174 C  
BRANCH   8   9
HETATM    9  O   UNL     1      -8.773  10.004  67.115  1.00  0.00    -0.128 OA 
BRANCH   9  10
HETATM   10  P   UNL     1      -9.315   8.548  66.459  1.00  0.00    -0.235 P  
HETATM   11  O   UNL     1     -10.785   8.736  67.351  1.00  0.00    -0.267 OA 
HETATM   12  O   UNL     1      -8.943   7.448  67.473  1.00  0.00    -0.126 OA 
BRANCH  10  13
HETATM   13  O   UNL     1      -7.845   8.360  65.568  1.00  0.00    -0.098 OA 
HETATM   14  O   UNL     1      -9.262   9.489  63.794  1.00  0.00    -0.209 OA 
HETATM   15  P   UNL     1      -7.861   9.122  64.156  1.00  0.00    -0.146 P  
HETATM   16  O   UNL     1      -6.708  10.088  64.124  1.00  0.00    -0.123 OA 
HETATM   17  O   UNL     1      -7.366   7.922  63.204  1.00  0.00    -0.092 OA 
ENDBRANCH  10  13
ENDBRANCH   9  10
ENDBRANCH   8   9
ENDBRANCH   7   8
ENDBRANCH   3   7
BRANCH   6  18
HETATM   18  C   UNL     1      -9.317  16.258  69.163  1.00  0.00    -0.236 C  
BRANCH  18  19
HETATM   19  C   UNL     1      -8.677  17.510  68.646  1.00  0.00    -0.258 A  
HETATM   20  C   UNL     1      -7.305  17.620  68.602  1.00  0.00    -0.257 A  
HETATM   21  N   UNL     1      -6.653  18.631  68.010  1.00  0.00    -0.216 NA 
HETATM   22  C   UNL     1      -7.413  19.576  67.437  1.00  0.00    -0.244 A  
HETATM   23  N   UNL     1      -8.750  19.631  67.554  1.00  0.00    -0.303 NA 
HETATM   24  C   UNL     1      -6.720  20.601  66.595  1.00  0.00    -0.328 C  
HETATM   25  C   UNL     1      -9.354  18.625  68.193  1.00  0.00    -0.318 A  
HETATM   26  N   UNL     1     -10.720  18.810  68.425  1.00  0.00    -0.299 NA 
HETATM   27  H1  UNL     1     -11.220  19.634  68.090  1.00  0.00     0.000 HD 
HETATM   28  H2  UNL     1     -10.877  18.738  69.430  1.00  0.00     0.000 HD 
ENDBRANCH  18  19
ENDBRANCH   6  18
TORSDOF 7
ENDMDL
MODEL      239
REMARK 921   NORMALIZED FREE ENERGY PREDICTED BY IDOCK:   -4.02 KCAL/MOL
REMARK 922        TOTAL FREE ENERGY PREDICTED BY IDOCK:   -6.65 KCAL/MOL
REMARK 923 INTER-LIGAND FREE ENERGY PREDICTED BY IDOCK:   -6.31 KCAL/MOL
REMARK 924 INTRA-LIGAND FREE ENERGY PREDICTED BY IDOCK:   -0.33 KCAL/MOL
REMARK 927      BINDING AFFINITY PREDICTED BY RF-SCORE:    0.00 PKD
ROOT
HETATM    1  C   UNL     1     -11.526  14.701  66.332  1.00  0.00    -0.348 C  
HETATM    2  C   UNL     1     -11.612  14.624  67.814  1.00  0.00    -0.359 C  
HETATM    3  C   UNL     1     -11.792  13.480  68.590  1.00  0.00    -0.369 C  
HETATM    4  C   UNL     1     -11.625  15.582  69.899  1.00  0.00    -0.335 C  
HETATM    5  S   UNL     1     -11.971  13.975  70.246  1.00  0.00    -0.335 SA 
HETATM    6  N   UNL     1     -11.470  15.779  68.595  1.00  0.00    -0.371 NA 
ENDROOT
BRANCH   3   7
HETATM    7  C   UNL     1     -11.843  11.986  68.222  1.00  0.00    -0.351 C  
BRANCH   7   8
HETATM    8  C   UNL     1     -11.104  11.748  66.898  1.00  0.00    -0.307 C  
BRANCH   8   9
HETATM    9  O   UNL     1      -9.694  11.766  66.877  1.00  0.00    -0.193 OA 
BRANCH   9  10
HETATM   10  P   UNL     1      -9.010  11.392  68.372  1.00  0.00    -0.139 P  
HETATM   11  O   UNL     1      -8.478  13.033  68.498  1.00  0.00    -0.138 OA 
HETATM   12  O   UNL     1      -7.538  11.027  68.099  1.00  0.00    -0.088 OA 
BRANCH  10  13
HETATM   13  O   UNL     1      -9.542   9.751  68.246  1.00  0.00    -0.142 OA 
HETATM   14  O   UNL     1      -9.005   9.822  70.724  1.00  0.00    -0.149 OA 
HETATM   15  P   UNL     1      -9.706   9.029  69.670  1.00  0.00    -0.189 P  
HETATM   16  O   UNL     1     -11.123   8.540  69.794  1.00  0.00    -0.188 OA 
HETATM   17  O   UNL     1      -8.872   7.683  69.379  1.00  0.00    -0.139 OA 
ENDBRANCH  10  13
ENDBRANCH   9  10
ENDBRANCH   8   9
ENDBRANCH   7   8
ENDBRANCH   3   7
BRANCH   6  18
HETATM   18  C   UNL     1     -11.055  17.117  68.141  1.00  0.00    -0.118 C  
BRANCH  18  19
HETATM   19  C   UNL     1      -9.667  17.139  67.579  1.00  0.00    -0.256 A  
HETATM   20  C   UNL     1      -9.436  17.651  66.322  1.00  0.00    -0.215 A  
HETATM   21  N   UNL     1      -8.215  17.857  65.809  1.00  0.00    -0.506 NA 
HETATM   22  C   UNL     1      -7.177  17.531  66.592  1.00  0.00    -0.234 A  
HETATM   23  N   UNL     1      -7.301  16.892  67.768  1.00  0.00    -0.152 NA 
HETATM   24  C   UNL     1      -5.812  17.938  66.134  1.00  0.00    -0.238 C  
HETATM   25  C   UNL     1      -8.538  16.667  68.218  1.00  0.00    -0.212 A  
HETATM   26  N   UNL     1      -8.612  15.863  69.360  1.00  0.00    -0.245 NA 
HETATM   27  H1  UNL     1      -7.778  15.515  69.833  1.00  0.00     0.000 HD 
HETATM   28  H2  UNL     1      -9.201  15.061  69.137  1.00  0.00     0.000 HD 
ENDBRANCH  18  19
ENDBRANCH   6  18
TORSDOF 7
ENDMDL
MODEL      240
REMARK 921   NORMALIZED FREE ENERGY PREDICTED BY IDOCK:   -4.01 KCAL/MOL
REMARK 922        TOTAL FREE ENERGY PREDICTED BY IDOCK:   -6.64 KCAL/MOL
REMARK 923 INTER-LIGAND FREE ENERGY PREDICTED BY IDOCK:   -6.30 KCAL/MOL
REMARK 924 INTRA-LIGAND FREE ENERGY PREDICTED BY IDOCK:   -0.34 KCAL/MOL
REMARK 927      BINDING AFFINITY PREDICTED BY RF-SCORE:    0.00 PKD
ROOT
HETATM    1  C   UNL     1      -5.334  13.457  67.920  1.00  0.00    -0.102 C  
HETATM    2  C   UNL     1      -6.498  14.268  68.362  1.00  0.00    -0.106 C  
HETATM    3  C   UNL     1      -6.474  15.546  68.920  1.00  0.00    -0.110 C  
HETATM    4  C   UNL     1      -8.748  14.580  68.690  1.00  0.00    -0.172 C  
HETATM    5  S   UNL     1      -8.094  15.960  69.391  1.00  0.00    -0.094 SA 
HETATM    6  N   UNL     1      -7.804  13.785  68.202  1.00  0.00    -0.136 NA 
ENDROOT
BRANCH   3   7
HETATM    7  C   UNL     1      -5.324  16.544  69.151  1.00  0.00    -0.128 C  
BRANCH   7   8
HETATM    8  C   UNL     1      -5.689  17.909  68.552  1.00  0.00    -0.172 C  
BRANCH   8   9
HETATM    9  O   UNL     1      -6.438  17.966  67.359  1.00  0.00    -0.160 OA 
BRANCH   9  10
HETATM   10  P   UNL     1      -7.302  19.404  67.193  1.00  0.00    -0.218 P  
HETATM   11  O   UNL     1      -5.808  20.225  66.904  1.00  0.00    -0.172 OA 
HETATM   12  O   UNL     1      -7.302  20.074  68.581  1.00  0.00    -0.284 OA 
BRANCH  10  13
HETATM   13  O   UNL     1      -8.797  18.582  67.483  1.00  0.00    -0.263 OA 
HETATM   14  O   UNL     1      -9.493  20.024  65.516  1.00  0.00    -0.230 OA 
HETATM   15  P   UNL     1      -9.894  18.847  66.343  1.00  0.00    -0.363 P  
HETATM   16  O   UNL     1     -10.308  17.521  65.765  1.00  0.00    -0.560 OA 
HETATM   17  O   UNL     1     -11.144  19.255  67.271  1.00  0.00    -0.442 OA 
ENDBRANCH  10  13
ENDBRANCH   9  10
ENDBRANCH   8   9
ENDBRANCH   7   8
ENDBRANCH   3   7
BRANCH   6  18
HETATM   18  C   UNL     1      -8.225  12.584  67.460  1.00  0.00    -0.175 C  
BRANCH  18  19
HETATM   19  C   UNL     1      -9.428  12.822  66.599  1.00  0.00    -0.249 A  
HETATM   20  C   UNL     1      -9.538  13.984  65.868  1.00  0.00    -0.159 A  
HETATM   21  N   UNL     1     -10.493  14.207  64.955  1.00  0.00    -0.427 NA 
HETATM   22  C   UNL     1     -11.381  13.219  64.767  1.00  0.00    -0.327 A  
HETATM   23  N   UNL     1     -11.442  12.115  65.531  1.00  0.00    -0.350 NA 
HETATM   24  C   UNL     1     -12.328  13.352  63.617  1.00  0.00    -0.422 C  
HETATM   25  C   UNL     1     -10.495  11.958  66.461  1.00  0.00    -0.221 A  
HETATM   26  N   UNL     1     -10.696  10.880  67.329  1.00  0.00    -0.251 NA 
HETATM   27  H1  UNL     1     -11.485  10.241  67.226  1.00  0.00     0.000 HD 
HETATM   28  H2  UNL     1     -10.715  11.247  68.280  1.00  0.00     0.000 HD 
ENDBRANCH  18  19
ENDBRANCH   6  18
TORSDOF 7
ENDMDL
MODEL      241
REMARK 921   NORMALIZED FREE ENERGY PREDICTED BY IDOCK:   -4.00 KCAL/MOL
REMARK 922        TOTAL FREE ENERGY PREDICTED BY IDOCK:   -6.62 KCAL/MOL
REMARK 923 INTER-LIGAND FREE ENERGY PREDICTED BY IDOCK:   -5.52 KCAL/MOL
REMARK 924 INTRA-LIGAND FREE ENERGY PREDICTED BY IDOCK:   -1.10 KCAL/MOL
REMARK 927      BINDING AFFINITY PREDICTED BY RF-SCORE:    0.00 PKD
ROOT
HETATM    1  C   UNL     1     -10.477   9.982  66.844  1.00  0.00    -0.284 C  
HETATM    2  C   UNL     1     -10.314   9.607  68.272  1.00  0.00    -0.204 C  
HETATM    3  C   UNL     1     -11.037  10.093  69.360  1.00  0.00    -0.243 C  
HETATM    4  C   UNL     1      -9.290   8.437  69.960  1.00  0.00    -0.159 C  
HETATM    5  S   UNL     1     -10.339   9.437  70.810  1.00  0.00    -0.307 SA 
HETATM    6  N   UNL     1      -9.375   8.637  68.651  1.00  0.00    -0.142 NA 
ENDROOT
BRANCH   3   7
HETATM    7  C   UNL     1     -12.253  11.034  69.448  1.00  0.00    -0.329 C  
BRANCH   7   8
HETATM    8  C   UNL     1     -11.780  12.480  69.656  1.00  0.00    -0.302 C  
BRANCH   8   9
HETATM    9  O   UNL     1     -10.803  13.022  68.796  1.00  0.00    -0.250 OA 
BRANCH   9  10
HETATM   10  P   UNL     1     -11.263  14.500  68.127  1.00  0.00    -0.315 P  
HETATM   11  O   UNL     1     -12.545  14.582  69.286  1.00  0.00    -0.119 OA 
HETATM   12  O   UNL     1     -12.348  14.184  67.078  1.00  0.00    -0.396 OA 
BRANCH  10  13
HETATM   13  O   UNL     1      -9.981  14.417  66.969  1.00  0.00    -0.249 OA 
HETATM   14  O   UNL     1      -8.836  15.808  68.753  1.00  0.00    -0.180 OA 
HETATM   15  P   UNL     1      -8.592  15.000  67.521  1.00  0.00    -0.206 P  
HETATM   16  O   UNL     1      -7.550  13.920  67.422  1.00  0.00    -0.176 OA 
HETATM   17  O   UNL     1      -8.221  15.988  66.306  1.00  0.00    -0.294 OA 
ENDBRANCH  10  13
ENDBRANCH   9  10
ENDBRANCH   8   9
ENDBRANCH   7   8
ENDBRANCH   3   7
BRANCH   6  18
HETATM   18  C   UNL     1      -8.594   7.758  67.763  1.00  0.00    -0.121 C  
BRANCH  18  19
HETATM   19  C   UNL     1      -8.782   6.304  68.068  1.00  0.00    -0.114 A  
HETATM   20  C   UNL     1      -7.705   5.527  68.433  1.00  0.00    -0.085 A  
HETATM   21  N   UNL     1      -7.806   4.266  68.876  1.00  0.00    -0.069 NA 
HETATM   22  C   UNL     1      -9.046   3.760  68.954  1.00  0.00    -0.142 A  
HETATM   23  N   UNL     1     -10.139   4.385  68.485  1.00  0.00     0.007 NA 
HETATM   24  C   UNL     1      -9.209   2.438  69.635  1.00  0.00    -0.192 C  
HETATM   25  C   UNL     1      -9.982   5.624  68.009  1.00  0.00    -0.143 A  
HETATM   26  N   UNL     1     -11.113   6.165  67.391  1.00  0.00    -0.509 NA 
HETATM   27  H1  UNL     1     -12.000   5.663  67.348  1.00  0.00     0.000 HD 
HETATM   28  H2  UNL     1     -10.854   6.420  66.438  1.00  0.00     0.000 HD 
ENDBRANCH  18  19
ENDBRANCH   6  18
TORSDOF 7
ENDMDL
MODEL      242
REMARK 921   NORMALIZED FREE ENERGY PREDICTED BY IDOCK:   -3.99 KCAL/MOL
REMARK 922        TOTAL FREE ENERGY PREDICTED BY IDOCK:   -6.61 KCAL/MOL
REMARK 923 INTER-LIGAND FREE ENERGY PREDICTED BY IDOCK:   -5.70 KCAL/MOL
REMARK 924 INTRA-LIGAND FREE ENERGY PREDICTED BY IDOCK:   -0.91 KCAL/MOL
REMARK 927      BINDING AFFINITY PREDICTED BY RF-SCORE:    0.00 PKD
ROOT
HETATM    1  C   UNL     1      -7.938  13.106  67.251  1.00  0.00    -0.140 C  
HETATM    2  C   UNL     1      -9.235  12.383  67.189  1.00  0.00    -0.199 C  
HETATM    3  C   UNL     1      -9.640  11.307  67.978  1.00  0.00    -0.180 C  
HETATM    4  C   UNL     1     -11.318  12.022  66.295  1.00  0.00    -0.357 C  
HETATM    5  S   UNL     1     -11.177  10.753  67.387  1.00  0.00    -0.149 SA 
HETATM    6  N   UNL     1     -10.232  12.786  66.290  1.00  0.00    -0.249 NA 
ENDROOT
BRANCH   3   7
HETATM    7  C   UNL     1      -8.982  10.613  69.185  1.00  0.00    -0.139 C  
BRANCH   7   8
HETATM    8  C   UNL     1      -8.088   9.463  68.703  1.00  0.00    -0.104 C  
BRANCH   8   9
HETATM    9  O   UNL     1      -8.669   8.366  68.033  1.00  0.00    -0.137 OA 
BRANCH   9  10
HETATM   10  P   UNL     1      -7.714   7.787  66.770  1.00  0.00    -0.101 P  
HETATM   11  O   UNL     1      -7.824   6.205  67.461  1.00  0.00    -0.099 OA 
HETATM   12  O   UNL     1      -6.258   7.813  67.277  1.00  0.00    -0.050 OA 
BRANCH  10  13
HETATM   13  O   UNL     1      -7.604   9.369  66.079  1.00  0.00    -0.097 OA 
HETATM   14  O   UNL     1      -7.854   8.008  63.955  1.00  0.00    -0.132 OA 
HETATM   15  P   UNL     1      -7.915   9.394  64.506  1.00  0.00    -0.148 P  
HETATM   16  O   UNL     1      -9.058  10.342  64.263  1.00  0.00    -0.200 OA 
HETATM   17  O   UNL     1      -6.632  10.222  63.998  1.00  0.00    -0.130 OA 
ENDBRANCH  10  13
ENDBRANCH   9  10
ENDBRANCH   8   9
ENDBRANCH   7   8
ENDBRANCH   3   7
BRANCH   6  18
HETATM   18  C   UNL     1     -10.246  14.004  65.462  1.00  0.00    -0.343 C  
BRANCH  18  19
HETATM   19  C   UNL     1     -10.207  15.263  66.273  1.00  0.00    -0.300 A  
HETATM   20  C   UNL     1      -9.292  16.249  65.978  1.00  0.00    -0.326 A  
HETATM   21  N   UNL     1      -9.293  17.465  66.542  1.00  0.00    -0.264 NA 
HETATM   22  C   UNL     1     -10.255  17.701  67.447  1.00  0.00    -0.345 A  
HETATM   23  N   UNL     1     -11.097  16.759  67.905  1.00  0.00    -0.253 NA 
HETATM   24  C   UNL     1     -10.408  19.106  67.940  1.00  0.00    -0.505 C  
HETATM   25  C   UNL     1     -11.028  15.548  67.345  1.00  0.00    -0.306 A  
HETATM   26  N   UNL     1     -11.810  14.568  67.963  1.00  0.00    -0.445 NA 
HETATM   27  H1  UNL     1     -12.418  14.780  68.755  1.00  0.00     0.000 HD 
HETATM   28  H2  UNL     1     -11.191  13.807  68.241  1.00  0.00     0.000 HD 
ENDBRANCH  18  19
ENDBRANCH   6  18
TORSDOF 7
ENDMDL
MODEL      243
REMARK 921   NORMALIZED FREE ENERGY PREDICTED BY IDOCK:   -3.99 KCAL/MOL
REMARK 922        TOTAL FREE ENERGY PREDICTED BY IDOCK:   -6.61 KCAL/MOL
REMARK 923 INTER-LIGAND FREE ENERGY PREDICTED BY IDOCK:   -6.37 KCAL/MOL
REMARK 924 INTRA-LIGAND FREE ENERGY PREDICTED BY IDOCK:   -0.24 KCAL/MOL
REMARK 927      BINDING AFFINITY PREDICTED BY RF-SCORE:    0.00 PKD
ROOT
HETATM    1  C   UNL     1      -8.306  13.741  66.978  1.00  0.00    -0.107 C  
HETATM    2  C   UNL     1      -9.504  12.866  67.058  1.00  0.00    -0.235 C  
HETATM    3  C   UNL     1      -9.618  11.652  67.735  1.00  0.00    -0.178 C  
HETATM    4  C   UNL     1     -11.679  12.349  66.542  1.00  0.00    -0.379 C  
HETATM    5  S   UNL     1     -11.179  10.979  67.376  1.00  0.00    -0.224 SA 
HETATM    6  N   UNL     1     -10.705  13.246  66.445  1.00  0.00    -0.283 NA 
ENDROOT
BRANCH   3   7
HETATM    7  C   UNL     1      -8.650  10.901  68.668  1.00  0.00    -0.153 C  
BRANCH   7   8
HETATM    8  C   UNL     1      -9.444  10.119  69.723  1.00  0.00    -0.167 C  
BRANCH   8   9
HETATM    9  O   UNL     1      -9.273   8.723  69.827  1.00  0.00    -0.149 OA 
BRANCH   9  10
HETATM   10  P   UNL     1     -10.715   7.869  69.646  1.00  0.00    -0.120 P  
HETATM   11  O   UNL     1     -11.576   9.303  70.087  1.00  0.00    -0.182 OA 
HETATM   12  O   UNL     1     -11.079   7.326  71.042  1.00  0.00    -0.248 OA 
BRANCH  10  13
HETATM   13  O   UNL     1      -9.855   6.436  69.204  1.00  0.00    -0.138 OA 
HETATM   14  O   UNL     1     -10.212   7.428  66.898  1.00  0.00    -0.243 OA 
HETATM   15  P   UNL     1      -9.436   6.401  67.656  1.00  0.00    -0.121 P  
HETATM   16  O   UNL     1      -7.942   6.250  67.570  1.00  0.00    -0.107 OA 
HETATM   17  O   UNL     1      -9.981   4.936  67.270  1.00  0.00    -0.176 OA 
ENDBRANCH  10  13
ENDBRANCH   9  10
ENDBRANCH   8   9
ENDBRANCH   7   8
ENDBRANCH   3   7
BRANCH   6  18
HETATM   18  C   UNL     1     -11.021  14.549  65.834  1.00  0.00    -0.320 C  
BRANCH  18  19
HETATM   19  C   UNL     1     -10.593  15.709  66.678  1.00  0.00    -0.307 A  
HETATM   20  C   UNL     1      -9.645  16.593  66.213  1.00  0.00    -0.299 A  
HETATM   21  N   UNL     1      -9.323  17.739  66.828  1.00  0.00    -0.272 NA 
HETATM   22  C   UNL     1      -9.981  18.010  67.965  1.00  0.00    -0.343 A  
HETATM   23  N   UNL     1     -10.811  17.146  68.571  1.00  0.00    -0.325 NA 
HETATM   24  C   UNL     1      -9.795  19.370  68.562  1.00  0.00    -0.509 C  
HETATM   25  C   UNL     1     -11.067  15.995  67.943  1.00  0.00    -0.307 A  
HETATM   26  N   UNL     1     -11.806  15.069  68.686  1.00  0.00    -0.475 NA 
HETATM   27  H1  UNL     1     -12.156  15.281  69.621  1.00  0.00     0.000 HD 
HETATM   28  H2  UNL     1     -11.257  14.211  68.747  1.00  0.00     0.000 HD 
ENDBRANCH  18  19
ENDBRANCH   6  18
TORSDOF 7
ENDMDL
MODEL      244
REMARK 921   NORMALIZED FREE ENERGY PREDICTED BY IDOCK:   -3.98 KCAL/MOL
REMARK 922        TOTAL FREE ENERGY PREDICTED BY IDOCK:   -6.59 KCAL/MOL
REMARK 923 INTER-LIGAND FREE ENERGY PREDICTED BY IDOCK:   -5.84 KCAL/MOL
REMARK 924 INTRA-LIGAND FREE ENERGY PREDICTED BY IDOCK:   -0.75 KCAL/MOL
REMARK 927      BINDING AFFINITY PREDICTED BY RF-SCORE:    0.00 PKD
ROOT
HETATM    1  C   UNL     1     -10.527   6.002  66.712  1.00  0.00    -0.329 C  
HETATM    2  C   UNL     1      -9.447   6.606  67.534  1.00  0.00    -0.126 C  
HETATM    3  C   UNL     1      -8.900   6.100  68.713  1.00  0.00    -0.121 C  
HETATM    4  C   UNL     1      -7.921   8.261  67.983  1.00  0.00    -0.123 C  
HETATM    5  S   UNL     1      -7.781   7.275  69.337  1.00  0.00    -0.108 SA 
HETATM    6  N   UNL     1      -8.828   7.798  67.132  1.00  0.00    -0.123 NA 
ENDROOT
BRANCH   3   7
HETATM    7  C   UNL     1      -9.123   4.775  69.463  1.00  0.00    -0.152 C  
BRANCH   7   8
HETATM    8  C   UNL     1     -10.354   4.889  70.372  1.00  0.00    -0.178 C  
BRANCH   8   9
HETATM    9  O   UNL     1     -11.245   5.969  70.202  1.00  0.00    -0.363 OA 
BRANCH   9  10
HETATM   10  P   UNL     1     -11.525   6.821  71.630  1.00  0.00    -0.316 P  
HETATM   11  O   UNL     1     -13.224   6.614  71.377  1.00  0.00    -0.177 OA 
HETATM   12  O   UNL     1     -11.732   8.294  71.225  1.00  0.00    -0.275 OA 
BRANCH  10  13
HETATM   13  O   UNL     1      -9.827   7.028  71.882  1.00  0.00    -0.165 OA 
HETATM   14  O   UNL     1     -10.582   6.834  74.295  1.00  0.00    -0.257 OA 
HETATM   15  P   UNL     1      -9.382   6.799  73.407  1.00  0.00    -0.175 P  
HETATM   16  O   UNL     1      -8.347   5.708  73.441  1.00  0.00    -0.116 OA 
HETATM   17  O   UNL     1      -8.518   8.138  73.632  1.00  0.00    -0.226 OA 
ENDBRANCH  10  13
ENDBRANCH   9  10
ENDBRANCH   8   9
ENDBRANCH   7   8
ENDBRANCH   3   7
BRANCH   6  18
HETATM   18  C   UNL     1      -8.989   8.495  65.844  1.00  0.00    -0.189 C  
BRANCH  18  19
HETATM   19  C   UNL     1      -9.742   9.784  65.968  1.00  0.00    -0.319 A  
HETATM   20  C   UNL     1     -10.809   9.883  66.834  1.00  0.00    -0.066 A  
HETATM   21  N   UNL     1     -11.432  11.033  67.126  1.00  0.00    -0.442 NA 
HETATM   22  C   UNL     1     -10.965  12.135  66.520  1.00  0.00    -0.284 A  
HETATM   23  N   UNL     1     -10.031  12.117  65.555  1.00  0.00    -0.248 NA 
HETATM   24  C   UNL     1     -11.501  13.455  66.979  1.00  0.00    -0.372 C  
HETATM   25  C   UNL     1      -9.470  10.940  65.264  1.00  0.00    -0.217 A  
HETATM   26  N   UNL     1      -8.624  10.949  64.150  1.00  0.00    -0.370 NA 
HETATM   27  H1  UNL     1      -8.423  11.803  63.630  1.00  0.00     0.000 HD 
HETATM   28  H2  UNL     1      -8.976  10.258  63.488  1.00  0.00     0.000 HD 
ENDBRANCH  18  19
ENDBRANCH   6  18
TORSDOF 7
ENDMDL
MODEL      245
REMARK 921   NORMALIZED FREE ENERGY PREDICTED BY IDOCK:   -3.97 KCAL/MOL
REMARK 922        TOTAL FREE ENERGY PREDICTED BY IDOCK:   -6.58 KCAL/MOL
REMARK 923 INTER-LIGAND FREE ENERGY PREDICTED BY IDOCK:   -5.83 KCAL/MOL
REMARK 924 INTRA-LIGAND FREE ENERGY PREDICTED BY IDOCK:   -0.75 KCAL/MOL
REMARK 927      BINDING AFFINITY PREDICTED BY RF-SCORE:    0.00 PKD
ROOT
HETATM    1  C   UNL     1     -10.827   8.916  70.695  1.00  0.00    -0.286 C  
HETATM    2  C   UNL     1      -9.876   8.270  69.754  1.00  0.00    -0.187 C  
HETATM    3  C   UNL     1      -9.834   8.411  68.367  1.00  0.00    -0.176 C  
HETATM    4  C   UNL     1      -8.109   6.882  69.286  1.00  0.00    -0.120 C  
HETATM    5  S   UNL     1      -8.628   7.322  67.750  1.00  0.00    -0.119 SA 
HETATM    6  N   UNL     1      -8.852   7.441  70.233  1.00  0.00    -0.146 NA 
ENDROOT
BRANCH   3   7
HETATM    7  C   UNL     1     -10.627   9.311  67.402  1.00  0.00    -0.324 C  
BRANCH   7   8
HETATM    8  C   UNL     1      -9.786   9.605  66.152  1.00  0.00    -0.252 C  
BRANCH   8   9
HETATM    9  O   UNL     1      -9.384  10.929  65.880  1.00  0.00    -0.185 OA 
BRANCH   9  10
HETATM   10  P   UNL     1     -10.649  11.899  65.330  1.00  0.00    -0.296 P  
HETATM   11  O   UNL     1     -10.842  10.822  63.989  1.00  0.00    -0.191 OA 
HETATM   12  O   UNL     1     -10.030  12.895  64.329  1.00  0.00    -0.271 OA 
BRANCH  10  13
HETATM   13  O   UNL     1     -10.456  12.975  66.670  1.00  0.00    -0.260 OA 
HETATM   14  O   UNL     1     -12.759  13.695  65.891  1.00  0.00    -0.450 OA 
HETATM   15  P   UNL     1     -11.793  13.786  67.026  1.00  0.00    -0.409 P  
HETATM   16  O   UNL     1     -12.155  13.500  68.458  1.00  0.00    -0.359 OA 
HETATM   17  O   UNL     1     -11.187  15.276  67.087  1.00  0.00    -0.334 OA 
ENDBRANCH  10  13
ENDBRANCH   9  10
ENDBRANCH   8   9
ENDBRANCH   7   8
ENDBRANCH   3   7
BRANCH   6  18
HETATM   18  C   UNL     1      -8.454   7.237  71.637  1.00  0.00    -0.112 C  
BRANCH  18  19
HETATM   19  C   UNL     1      -9.108   6.043  72.261  1.00  0.00    -0.141 A  
HETATM   20  C   UNL     1     -10.368   6.149  72.808  1.00  0.00    -0.199 A  
HETATM   21  N   UNL     1     -11.088   5.104  73.238  1.00  0.00    -0.312 NA 
HETATM   22  C   UNL     1     -10.517   3.896  73.118  1.00  0.00    -0.176 A  
HETATM   23  N   UNL     1      -9.243   3.708  72.735  1.00  0.00    -0.105 NA 
HETATM   24  C   UNL     1     -11.371   2.699  73.395  1.00  0.00    -0.236 C  
HETATM   25  C   UNL     1      -8.548   4.785  72.358  1.00  0.00    -0.119 A  
HETATM   26  N   UNL     1      -7.189   4.556  72.123  1.00  0.00    -0.064 NA 
HETATM   27  H1  UNL     1      -6.775   3.627  72.195  1.00  0.00     0.000 HD 
HETATM   28  H2  UNL     1      -6.660   5.180  72.734  1.00  0.00     0.000 HD 
ENDBRANCH  18  19
ENDBRANCH   6  18
TORSDOF 7
ENDMDL
MODEL      246
REMARK 921   NORMALIZED FREE ENERGY PREDICTED BY IDOCK:   -3.95 KCAL/MOL
REMARK 922        TOTAL FREE ENERGY PREDICTED BY IDOCK:   -6.56 KCAL/MOL
REMARK 923 INTER-LIGAND FREE ENERGY PREDICTED BY IDOCK:   -5.99 KCAL/MOL
REMARK 924 INTRA-LIGAND FREE ENERGY PREDICTED BY IDOCK:   -0.57 KCAL/MOL
REMARK 927      BINDING AFFINITY PREDICTED BY RF-SCORE:    0.00 PKD
ROOT
HETATM    1  C   UNL     1     -11.708  11.394  69.157  1.00  0.00    -0.410 C  
HETATM    2  C   UNL     1     -10.254  11.124  69.018  1.00  0.00    -0.176 C  
HETATM    3  C   UNL     1      -9.575   9.957  69.366  1.00  0.00    -0.215 C  
HETATM    4  C   UNL     1      -8.121  11.739  68.435  1.00  0.00    -0.150 C  
HETATM    5  S   UNL     1      -7.875  10.231  69.136  1.00  0.00    -0.139 SA 
HETATM    6  N   UNL     1      -9.403  12.081  68.448  1.00  0.00    -0.197 NA 
ENDROOT
BRANCH   3   7
HETATM    7  C   UNL     1     -10.074   8.591  69.873  1.00  0.00    -0.195 C  
BRANCH   7   8
HETATM    8  C   UNL     1      -8.878   7.681  70.186  1.00  0.00    -0.146 C  
BRANCH   8   9
HETATM    9  O   UNL     1      -9.100   6.427  70.791  1.00  0.00    -0.149 OA 
BRANCH   9  10
HETATM   10  P   UNL     1      -8.559   6.362  72.386  1.00  0.00    -0.117 P  
HETATM   11  O   UNL     1      -9.360   4.838  72.557  1.00  0.00    -0.130 OA 
HETATM   12  O   UNL     1      -9.687   6.954  73.253  1.00  0.00    -0.161 OA 
BRANCH  10  13
HETATM   13  O   UNL     1      -7.757   7.885  72.215  1.00  0.00    -0.089 OA 
HETATM   14  O   UNL     1      -5.969   6.619  73.492  1.00  0.00    -0.057 OA 
HETATM   15  P   UNL     1      -6.222   7.847  72.681  1.00  0.00    -0.072 P  
HETATM   16  O   UNL     1      -5.364   8.277  71.523  1.00  0.00    -0.033 OA 
HETATM   17  O   UNL     1      -6.211   9.132  73.650  1.00  0.00    -0.317 OA 
ENDBRANCH  10  13
ENDBRANCH   9  10
ENDBRANCH   8   9
ENDBRANCH   7   8
ENDBRANCH   3   7
BRANCH   6  18
HETATM   18  C   UNL     1      -9.793  13.330  67.771  1.00  0.00    -0.224 C  
BRANCH  18  19
HETATM   19  C   UNL     1     -10.563  13.094  66.508  1.00  0.00    -0.290 A  
HETATM   20  C   UNL     1      -9.984  12.413  65.461  1.00  0.00    -0.243 A  
HETATM   21  N   UNL     1     -10.648  12.019  64.365  1.00  0.00    -0.295 NA 
HETATM   22  C   UNL     1     -11.953  12.325  64.317  1.00  0.00    -0.407 A  
HETATM   23  N   UNL     1     -12.570  13.110  65.217  1.00  0.00    -0.549 NA 
HETATM   24  C   UNL     1     -12.762  11.723  63.211  1.00  0.00    -0.314 C  
HETATM   25  C   UNL     1     -11.855  13.517  66.269  1.00  0.00    -0.392 A  
HETATM   26  N   UNL     1     -12.493  14.456  67.087  1.00  0.00    -0.521 NA 
HETATM   27  H1  UNL     1     -13.448  14.768  66.910  1.00  0.00     0.000 HD 
HETATM   28  H2  UNL     1     -11.898  15.283  67.131  1.00  0.00     0.000 HD 
ENDBRANCH  18  19
ENDBRANCH   6  18
TORSDOF 7
ENDMDL
MODEL      247
REMARK 921   NORMALIZED FREE ENERGY PREDICTED BY IDOCK:   -3.95 KCAL/MOL
REMARK 922        TOTAL FREE ENERGY PREDICTED BY IDOCK:   -6.56 KCAL/MOL
REMARK 923 INTER-LIGAND FREE ENERGY PREDICTED BY IDOCK:   -6.04 KCAL/MOL
REMARK 924 INTRA-LIGAND FREE ENERGY PREDICTED BY IDOCK:   -0.52 KCAL/MOL
REMARK 927      BINDING AFFINITY PREDICTED BY RF-SCORE:    0.00 PKD
ROOT
HETATM    1  C   UNL     1      -8.067  12.256  67.023  1.00  0.00    -0.141 C  
HETATM    2  C   UNL     1      -9.441  11.945  67.495  1.00  0.00    -0.176 C  
HETATM    3  C   UNL     1      -9.801  11.139  68.575  1.00  0.00    -0.198 C  
HETATM    4  C   UNL     1     -11.726  12.107  67.343  1.00  0.00    -0.304 C  
HETATM    5  S   UNL     1     -11.532  10.994  68.587  1.00  0.00    -0.322 SA 
HETATM    6  N   UNL     1     -10.556  12.512  66.862  1.00  0.00    -0.234 NA 
ENDROOT
BRANCH   3   7
HETATM    7  C   UNL     1      -8.960  10.433  69.654  1.00  0.00    -0.061 C  
BRANCH   7   8
HETATM    8  C   UNL     1      -8.515   9.053  69.151  1.00  0.00    -0.128 C  
BRANCH   8   9
HETATM    9  O   UNL     1      -9.362   8.319  68.296  1.00  0.00    -0.135 OA 
BRANCH   9  10
HETATM   10  P   UNL     1      -8.519   7.289  67.262  1.00  0.00    -0.119 P  
HETATM   11  O   UNL     1      -7.760   8.676  66.560  1.00  0.00    -0.093 OA 
HETATM   12  O   UNL     1      -9.351   7.196  65.967  1.00  0.00    -0.094 OA 
BRANCH  10  13
HETATM   13  O   UNL     1      -9.278   5.903  67.964  1.00  0.00    -0.114 OA 
HETATM   14  O   UNL     1      -7.083   4.854  67.250  1.00  0.00    -0.063 OA 
HETATM   15  P   UNL     1      -8.293   4.644  68.099  1.00  0.00    -0.094 P  
HETATM   16  O   UNL     1      -8.240   4.236  69.546  1.00  0.00    -0.059 OA 
HETATM   17  O   UNL     1      -9.220   3.512  67.428  1.00  0.00    -0.163 OA 
ENDBRANCH  10  13
ENDBRANCH   9  10
ENDBRANCH   8   9
ENDBRANCH   7   8
ENDBRANCH   3   7
BRANCH   6  18
HETATM   18  C   UNL     1     -10.558  13.570  65.838  1.00  0.00    -0.284 C  
BRANCH  18  19
HETATM   19  C   UNL     1     -10.564  14.949  66.423  1.00  0.00    -0.307 A  
HETATM   20  C   UNL     1     -10.521  15.122  67.789  1.00  0.00    -0.247 A  
HETATM   21  N   UNL     1     -10.361  16.310  68.389  1.00  0.00    -0.259 NA 
HETATM   22  C   UNL     1     -10.242  17.374  67.581  1.00  0.00    -0.342 A  
HETATM   23  N   UNL     1     -10.416  17.325  66.250  1.00  0.00    -0.307 NA 
HETATM   24  C   UNL     1      -9.857  18.677  68.210  1.00  0.00    -0.410 C  
HETATM   25  C   UNL     1     -10.620  16.124  65.701  1.00  0.00    -0.363 A  
HETATM   26  N   UNL     1     -10.953  16.146  64.343  1.00  0.00    -1.020 NA 
HETATM   27  H1  UNL     1     -10.994  17.014  63.809  1.00  0.00     0.000 HD 
HETATM   28  H2  UNL     1     -11.850  15.673  64.236  1.00  0.00     0.000 HD 
ENDBRANCH  18  19
ENDBRANCH   6  18
TORSDOF 7
ENDMDL
MODEL      248
REMARK 921   NORMALIZED FREE ENERGY PREDICTED BY IDOCK:   -3.94 KCAL/MOL
REMARK 922        TOTAL FREE ENERGY PREDICTED BY IDOCK:   -6.53 KCAL/MOL
REMARK 923 INTER-LIGAND FREE ENERGY PREDICTED BY IDOCK:   -5.96 KCAL/MOL
REMARK 924 INTRA-LIGAND FREE ENERGY PREDICTED BY IDOCK:   -0.58 KCAL/MOL
REMARK 927      BINDING AFFINITY PREDICTED BY RF-SCORE:    0.00 PKD
ROOT
HETATM    1  C   UNL     1     -11.359  10.114  68.791  1.00  0.00    -0.172 C  
HETATM    2  C   UNL     1     -10.080   9.432  68.463  1.00  0.00    -0.187 C  
HETATM    3  C   UNL     1      -8.918  10.014  67.959  1.00  0.00    -0.128 C  
HETATM    4  C   UNL     1      -8.760   7.562  68.302  1.00  0.00    -0.123 C  
HETATM    5  S   UNL     1      -7.782   8.745  67.617  1.00  0.00    -0.102 SA 
HETATM    6  N   UNL     1      -9.928   8.057  68.691  1.00  0.00    -0.183 NA 
ENDROOT
BRANCH   3   7
HETATM    7  C   UNL     1      -8.537  11.482  67.693  1.00  0.00    -0.135 C  
BRANCH   7   8
HETATM    8  C   UNL     1      -9.132  11.943  66.356  1.00  0.00    -0.208 C  
BRANCH   8   9
HETATM    9  O   UNL     1      -8.963  11.142  65.208  1.00  0.00    -0.191 OA 
BRANCH   9  10
HETATM   10  P   UNL     1     -10.160  11.396  64.048  1.00  0.00    -0.390 P  
HETATM   11  O   UNL     1      -9.605   9.983  63.219  1.00  0.00    -0.270 OA 
HETATM   12  O   UNL     1      -9.504  12.212  62.916  1.00  0.00    -0.200 OA 
BRANCH  10  13
HETATM   13  O   UNL     1     -10.715  12.809  64.877  1.00  0.00    -0.283 OA 
HETATM   14  O   UNL     1     -12.604  12.543  63.206  1.00  0.00    -0.667 OA 
HETATM   15  P   UNL     1     -12.205  13.239  64.466  1.00  0.00    -0.382 P  
HETATM   16  O   UNL     1     -13.051  13.267  65.709  1.00  0.00    -0.313 OA 
HETATM   17  O   UNL     1     -11.952  14.797  64.152  1.00  0.00    -0.393 OA 
ENDBRANCH  10  13
ENDBRANCH   9  10
ENDBRANCH   8   9
ENDBRANCH   7   8
ENDBRANCH   3   7
BRANCH   6  18
HETATM   18  C   UNL     1     -10.855   7.164  69.409  1.00  0.00    -0.206 C  
BRANCH  18  19
HETATM   19  C   UNL     1     -10.258   6.583  70.654  1.00  0.00    -0.220 A  
HETATM   20  C   UNL     1      -9.526   5.418  70.593  1.00  0.00    -0.166 A  
HETATM   21  N   UNL     1      -8.827   4.918  71.621  1.00  0.00    -0.129 NA 
HETATM   22  C   UNL     1      -8.866   5.618  72.765  1.00  0.00    -0.122 A  
HETATM   23  N   UNL     1      -9.664   6.681  72.963  1.00  0.00    -0.156 NA 
HETATM   24  C   UNL     1      -7.936   5.201  73.861  1.00  0.00    -0.102 C  
HETATM   25  C   UNL     1     -10.379   7.116  71.921  1.00  0.00    -0.192 A  
HETATM   26  N   UNL     1     -11.307   8.118  72.221  1.00  0.00    -0.337 NA 
HETATM   27  H1  UNL     1     -11.396   8.511  73.158  1.00  0.00     0.000 HD 
HETATM   28  H2  UNL     1     -12.227   7.783  71.936  1.00  0.00     0.000 HD 
ENDBRANCH  18  19
ENDBRANCH   6  18
TORSDOF 7
ENDMDL
MODEL      249
REMARK 921   NORMALIZED FREE ENERGY PREDICTED BY IDOCK:   -3.94 KCAL/MOL
REMARK 922        TOTAL FREE ENERGY PREDICTED BY IDOCK:   -6.53 KCAL/MOL
REMARK 923 INTER-LIGAND FREE ENERGY PREDICTED BY IDOCK:   -5.64 KCAL/MOL
REMARK 924 INTRA-LIGAND FREE ENERGY PREDICTED BY IDOCK:   -0.90 KCAL/MOL
REMARK 927      BINDING AFFINITY PREDICTED BY RF-SCORE:    0.00 PKD
ROOT
HETATM    1  C   UNL     1      -8.119  10.375  69.469  1.00  0.00    -0.145 C  
HETATM    2  C   UNL     1      -8.832   9.340  70.261  1.00  0.00    -0.224 C  
HETATM    3  C   UNL     1     -10.152   9.380  70.707  1.00  0.00    -0.298 C  
HETATM    4  C   UNL     1      -8.917   7.331  71.368  1.00  0.00    -0.138 C  
HETATM    5  S   UNL     1     -10.424   7.989  71.712  1.00  0.00    -0.244 SA 
HETATM    6  N   UNL     1      -8.189   8.144  70.611  1.00  0.00    -0.110 NA 
ENDROOT
BRANCH   3   7
HETATM    7  C   UNL     1     -11.292  10.383  70.454  1.00  0.00    -0.417 C  
BRANCH   7   8
HETATM    8  C   UNL     1     -11.412  10.670  68.951  1.00  0.00    -0.265 C  
BRANCH   8   9
HETATM    9  O   UNL     1     -12.368  11.602  68.496  1.00  0.00    -0.406 OA 
BRANCH   9  10
HETATM   10  P   UNL     1     -11.671  12.961  67.783  1.00  0.00    -0.317 P  
HETATM   11  O   UNL     1     -12.046  12.294  66.232  1.00  0.00    -0.626 OA 
HETATM   12  O   UNL     1     -10.203  12.595  67.489  1.00  0.00    -0.211 OA 
BRANCH  10  13
HETATM   13  O   UNL     1     -11.296  13.628  69.334  1.00  0.00    -0.262 OA 
HETATM   14  O   UNL     1     -11.756  15.774  68.062  1.00  0.00    -0.279 OA 
HETATM   15  P   UNL     1     -11.589  15.203  69.432  1.00  0.00    -0.366 P  
HETATM   16  O   UNL     1     -12.558  15.436  70.559  1.00  0.00    -0.394 OA 
HETATM   17  O   UNL     1     -10.183  15.693  70.043  1.00  0.00    -0.301 OA 
ENDBRANCH  10  13
ENDBRANCH   9  10
ENDBRANCH   8   9
ENDBRANCH   7   8
ENDBRANCH   3   7
BRANCH   6  18
HETATM   18  C   UNL     1      -6.882   7.662  70.134  1.00  0.00    -0.050 C  
BRANCH  18  19
HETATM   19  C   UNL     1      -6.987   6.433  69.285  1.00  0.00    -0.067 A  
HETATM   20  C   UNL     1      -6.395   5.257  69.690  1.00  0.00    -0.030 A  
HETATM   21  N   UNL     1      -6.574   4.079  69.078  1.00  0.00    -0.040 NA 
HETATM   22  C   UNL     1      -7.382   4.080  68.007  1.00  0.00    -0.063 A  
HETATM   23  N   UNL     1      -7.885   5.195  67.453  1.00  0.00    -0.095 NA 
HETATM   24  C   UNL     1      -7.763   2.753  67.430  1.00  0.00    -0.069 C  
HETATM   25  C   UNL     1      -7.642   6.353  68.073  1.00  0.00    -0.103 A  
HETATM   26  N   UNL     1      -8.050   7.493  67.372  1.00  0.00    -0.115 NA 
HETATM   27  H1  UNL     1      -8.535   7.434  66.476  1.00  0.00     0.000 HD 
HETATM   28  H2  UNL     1      -7.232   8.088  67.244  1.00  0.00     0.000 HD 
ENDBRANCH  18  19
ENDBRANCH   6  18
TORSDOF 7
ENDMDL
MODEL      250
REMARK 921   NORMALIZED FREE ENERGY PREDICTED BY IDOCK:   -3.93 KCAL/MOL
REMARK 922        TOTAL FREE ENERGY PREDICTED BY IDOCK:   -6.52 KCAL/MOL
REMARK 923 INTER-LIGAND FREE ENERGY PREDICTED BY IDOCK:   -5.73 KCAL/MOL
REMARK 924 INTRA-LIGAND FREE ENERGY PREDICTED BY IDOCK:   -0.80 KCAL/MOL
REMARK 927      BINDING AFFINITY PREDICTED BY RF-SCORE:    0.00 PKD
ROOT
HETATM    1  C   UNL     1      -8.109   9.231  69.363  1.00  0.00    -0.108 C  
HETATM    2  C   UNL     1      -8.149   8.406  68.128  1.00  0.00    -0.120 C  
HETATM    3  C   UNL     1      -7.880   8.823  66.825  1.00  0.00    -0.097 C  
HETATM    4  C   UNL     1      -8.508   6.430  67.017  1.00  0.00    -0.112 C  
HETATM    5  S   UNL     1      -8.222   7.499  65.753  1.00  0.00    -0.143 SA 
HETATM    6  N   UNL     1      -8.448   7.038  68.196  1.00  0.00    -0.128 NA 
ENDROOT
BRANCH   3   7
HETATM    7  C   UNL     1      -7.367  10.160  66.260  1.00  0.00    -0.112 C  
BRANCH   7   8
HETATM    8  C   UNL     1      -8.536  11.142  66.100  1.00  0.00    -0.156 C  
BRANCH   8   9
HETATM    9  O   UNL     1      -9.270  11.157  64.896  1.00  0.00    -0.209 OA 
BRANCH   9  10
HETATM   10  P   UNL     1     -10.595  12.198  64.947  1.00  0.00    -0.321 P  
HETATM   11  O   UNL     1     -11.307  11.296  63.655  1.00  0.00    -0.325 OA 
HETATM   12  O   UNL     1     -10.321  13.304  63.909  1.00  0.00    -0.326 OA 
BRANCH  10  13
HETATM   13  O   UNL     1      -9.882  13.100  66.240  1.00  0.00    -0.275 OA 
HETATM   14  O   UNL     1     -12.282  13.888  66.461  1.00  0.00    -0.441 OA 
HETATM   15  P   UNL     1     -10.964  13.847  67.160  1.00  0.00    -0.303 P  
HETATM   16  O   UNL     1     -10.783  13.380  68.579  1.00  0.00    -0.250 OA 
HETATM   17  O   UNL     1     -10.324  15.324  67.171  1.00  0.00    -0.256 OA 
ENDBRANCH  10  13
ENDBRANCH   9  10
ENDBRANCH   8   9
ENDBRANCH   7   8
ENDBRANCH   3   7
BRANCH   6  18
HETATM   18  C   UNL     1      -8.571   6.211  69.409  1.00  0.00    -0.123 C  
BRANCH  18  19
HETATM   19  C   UNL     1      -9.735   6.602  70.266  1.00  0.00    -0.182 A  
HETATM   20  C   UNL     1      -9.586   6.711  71.631  1.00  0.00    -0.162 A  
HETATM   21  N   UNL     1     -10.523   7.208  72.449  1.00  0.00    -0.210 NA 
HETATM   22  C   UNL     1     -11.666   7.610  71.873  1.00  0.00    -0.289 A  
HETATM   23  N   UNL     1     -11.959   7.409  70.577  1.00  0.00    -0.171 NA 
HETATM   24  C   UNL     1     -12.644   8.355  72.726  1.00  0.00    -0.091 C  
HETATM   25  C   UNL     1     -11.010   6.868  69.809  1.00  0.00    -0.270 A  
HETATM   26  N   UNL     1     -11.420   6.535  68.514  1.00  0.00    -0.547 NA 
HETATM   27  H1  UNL     1     -12.362   6.733  68.176  1.00  0.00     0.000 HD 
HETATM   28  H2  UNL     1     -11.244   5.540  68.379  1.00  0.00     0.000 HD 
ENDBRANCH  18  19
ENDBRANCH   6  18
TORSDOF 7
ENDMDL
MODEL      251
REMARK 921   NORMALIZED FREE ENERGY PREDICTED BY IDOCK:   -3.91 KCAL/MOL
REMARK 922        TOTAL FREE ENERGY PREDICTED BY IDOCK:   -6.50 KCAL/MOL
REMARK 923 INTER-LIGAND FREE ENERGY PREDICTED BY IDOCK:   -6.09 KCAL/MOL
REMARK 924 INTRA-LIGAND FREE ENERGY PREDICTED BY IDOCK:   -0.41 KCAL/MOL
REMARK 927      BINDING AFFINITY PREDICTED BY RF-SCORE:    0.00 PKD
ROOT
HETATM    1  C   UNL     1      -8.602  15.552  66.415  1.00  0.00    -0.292 C  
HETATM    2  C   UNL     1      -7.473  14.884  67.112  1.00  0.00    -0.076 C  
HETATM    3  C   UNL     1      -7.427  13.570  67.577  1.00  0.00    -0.167 C  
HETATM    4  C   UNL     1      -5.365  14.879  68.020  1.00  0.00    -0.117 C  
HETATM    5  S   UNL     1      -5.937  13.357  68.446  1.00  0.00    -0.103 SA 
HETATM    6  N   UNL     1      -6.270  15.568  67.336  1.00  0.00    -0.307 NA 
ENDROOT
BRANCH   3   7
HETATM    7  C   UNL     1      -8.412  12.396  67.438  1.00  0.00    -0.179 C  
BRANCH   7   8
HETATM    8  C   UNL     1      -9.732  12.734  68.145  1.00  0.00    -0.223 C  
BRANCH   8   9
HETATM    9  O   UNL     1     -10.290  11.810  69.053  1.00  0.00    -0.167 OA 
BRANCH   9  10
HETATM   10  P   UNL     1     -11.449  10.812  68.344  1.00  0.00    -0.152 P  
HETATM   11  O   UNL     1     -12.130  12.206  67.581  1.00  0.00    -0.522 OA 
HETATM   12  O   UNL     1     -12.673  10.834  69.281  1.00  0.00    -0.254 OA 
BRANCH  10  13
HETATM   13  O   UNL     1     -10.768   9.417  69.108  1.00  0.00    -0.223 OA 
HETATM   14  O   UNL     1     -10.494   8.734  66.682  1.00  0.00    -0.264 OA 
HETATM   15  P   UNL     1     -10.064   8.411  68.075  1.00  0.00    -0.212 P  
HETATM   16  O   UNL     1      -8.629   8.234  68.488  1.00  0.00    -0.131 OA 
HETATM   17  O   UNL     1     -10.757   7.034  68.537  1.00  0.00    -0.208 OA 
ENDBRANCH  10  13
ENDBRANCH   9  10
ENDBRANCH   8   9
ENDBRANCH   7   8
ENDBRANCH   3   7
BRANCH   6  18
HETATM   18  C   UNL     1      -5.878  16.882  66.798  1.00  0.00    -0.154 C  
BRANCH  18  19
HETATM   19  C   UNL     1      -6.870  17.960  67.110  1.00  0.00    -0.201 A  
HETATM   20  C   UNL     1      -7.407  18.723  66.097  1.00  0.00    -0.262 A  
HETATM   21  N   UNL     1      -8.414  19.592  66.266  1.00  0.00    -0.346 NA 
HETATM   22  C   UNL     1      -8.901  19.704  67.511  1.00  0.00    -0.311 A  
HETATM   23  N   UNL     1      -8.349  19.115  68.585  1.00  0.00    -0.364 NA 
HETATM   24  C   UNL     1     -10.151  20.507  67.691  1.00  0.00    -0.412 C  
HETATM   25  C   UNL     1      -7.318  18.292  68.373  1.00  0.00    -0.275 A  
HETATM   26  N   UNL     1      -6.683  17.834  69.531  1.00  0.00    -0.167 NA 
HETATM   27  H1  UNL     1      -7.015  18.079  70.464  1.00  0.00     0.000 HD 
HETATM   28  H2  UNL     1      -5.700  18.098  69.471  1.00  0.00     0.000 HD 
ENDBRANCH  18  19
ENDBRANCH   6  18
TORSDOF 7
ENDMDL
MODEL      252
REMARK 921   NORMALIZED FREE ENERGY PREDICTED BY IDOCK:   -3.90 KCAL/MOL
REMARK 922        TOTAL FREE ENERGY PREDICTED BY IDOCK:   -6.49 KCAL/MOL
REMARK 923 INTER-LIGAND FREE ENERGY PREDICTED BY IDOCK:   -5.50 KCAL/MOL
REMARK 924 INTRA-LIGAND FREE ENERGY PREDICTED BY IDOCK:   -0.98 KCAL/MOL
REMARK 927      BINDING AFFINITY PREDICTED BY RF-SCORE:    0.00 PKD
ROOT
HETATM    1  C   UNL     1      -8.751  10.670  69.113  1.00  0.00    -0.135 C  
HETATM    2  C   UNL     1      -8.903   9.952  67.821  1.00  0.00    -0.129 C  
HETATM    3  C   UNL     1      -8.123   8.899  67.344  1.00  0.00    -0.108 C  
HETATM    4  C   UNL     1      -9.930   9.609  65.797  1.00  0.00    -0.272 C  
HETATM    5  S   UNL     1      -8.636   8.539  65.723  1.00  0.00    -0.177 SA 
HETATM    6  N   UNL     1      -9.942  10.284  66.940  1.00  0.00    -0.200 NA 
ENDROOT
BRANCH   3   7
HETATM    7  C   UNL     1      -6.987   8.087  67.991  1.00  0.00    -0.074 C  
BRANCH   7   8
HETATM    8  C   UNL     1      -7.571   6.911  68.784  1.00  0.00    -0.105 C  
BRANCH   8   9
HETATM    9  O   UNL     1      -8.845   7.036  69.375  1.00  0.00    -0.136 OA 
BRANCH   9  10
HETATM   10  P   UNL     1      -9.588   5.548  69.654  1.00  0.00    -0.186 P  
HETATM   11  O   UNL     1     -11.072   6.222  69.076  1.00  0.00    -0.339 OA 
HETATM   12  O   UNL     1     -10.203   5.627  71.066  1.00  0.00    -0.200 OA 
BRANCH  10  13
HETATM   13  O   UNL     1      -8.104   4.874  70.233  1.00  0.00    -0.074 OA 
HETATM   14  O   UNL     1      -9.367   2.731  69.745  1.00  0.00    -0.138 OA 
HETATM   15  P   UNL     1      -8.011   3.285  70.033  1.00  0.00    -0.044 P  
HETATM   16  O   UNL     1      -6.790   2.980  69.209  1.00  0.00    -0.036 OA 
HETATM   17  O   UNL     1      -7.571   2.859  71.522  1.00  0.00    -0.040 OA 
ENDBRANCH  10  13
ENDBRANCH   9  10
ENDBRANCH   8   9
ENDBRANCH   7   8
ENDBRANCH   3   7
BRANCH   6  18
HETATM   18  C   UNL     1     -11.078  11.185  67.201  1.00  0.00    -0.287 C  
BRANCH  18  19
HETATM   19  C   UNL     1     -11.132  12.345  66.255  1.00  0.00    -0.344 A  
HETATM   20  C   UNL     1     -12.247  12.550  65.473  1.00  0.00    -0.377 A  
HETATM   21  N   UNL     1     -12.446  13.644  64.724  1.00  0.00    -0.587 NA 
HETATM   22  C   UNL     1     -11.480  14.574  64.759  1.00  0.00    -0.408 A  
HETATM   23  N   UNL     1     -10.298  14.400  65.373  1.00  0.00    -0.355 NA 
HETATM   24  C   UNL     1     -11.765  15.888  64.102  1.00  0.00    -0.028 C  
HETATM   25  C   UNL     1     -10.127  13.272  66.070  1.00  0.00    -0.299 A  
HETATM   26  N   UNL     1      -8.830  13.069  66.552  1.00  0.00    -0.429 NA 
HETATM   27  H1  UNL     1      -8.088  13.755  66.415  1.00  0.00     0.000 HD 
HETATM   28  H2  UNL     1      -8.500  12.176  66.187  1.00  0.00     0.000 HD 
ENDBRANCH  18  19
ENDBRANCH   6  18
TORSDOF 7
ENDMDL
MODEL      253
REMARK 921   NORMALIZED FREE ENERGY PREDICTED BY IDOCK:   -3.90 KCAL/MOL
REMARK 922        TOTAL FREE ENERGY PREDICTED BY IDOCK:   -6.48 KCAL/MOL
REMARK 923 INTER-LIGAND FREE ENERGY PREDICTED BY IDOCK:   -5.58 KCAL/MOL
REMARK 924 INTRA-LIGAND FREE ENERGY PREDICTED BY IDOCK:   -0.90 KCAL/MOL
REMARK 927      BINDING AFFINITY PREDICTED BY RF-SCORE:    0.00 PKD
ROOT
HETATM    1  C   UNL     1     -12.140  11.687  67.718  1.00  0.00     0.089 C  
HETATM    2  C   UNL     1     -10.672  11.699  67.488  1.00  0.00    -0.215 C  
HETATM    3  C   UNL     1      -9.841  10.599  67.281  1.00  0.00    -0.176 C  
HETATM    4  C   UNL     1      -8.661  12.782  67.267  1.00  0.00    -0.197 C  
HETATM    5  S   UNL     1      -8.200  11.167  67.217  1.00  0.00    -0.141 SA 
HETATM    6  N   UNL     1      -9.973  12.912  67.418  1.00  0.00    -0.215 NA 
ENDROOT
BRANCH   3   7
HETATM    7  C   UNL     1     -10.145   9.099  67.114  1.00  0.00    -0.301 C  
BRANCH   7   8
HETATM    8  C   UNL     1      -9.904   8.366  68.441  1.00  0.00    -0.176 C  
BRANCH   8   9
HETATM    9  O   UNL     1      -9.584   9.108  69.597  1.00  0.00    -0.165 OA 
BRANCH   9  10
HETATM   10  P   UNL     1      -9.941   8.286  71.025  1.00  0.00    -0.204 P  
HETATM   11  O   UNL     1     -11.315   7.591  70.238  1.00  0.00    -0.268 OA 
HETATM   12  O   UNL     1     -10.940   9.170  71.798  1.00  0.00    -0.353 OA 
BRANCH  10  13
HETATM   13  O   UNL     1      -8.567   8.982  71.812  1.00  0.00    -0.353 OA 
HETATM   14  O   UNL     1      -8.609   6.728  72.971  1.00  0.00    -0.120 OA 
HETATM   15  P   UNL     1      -7.766   7.936  72.727  1.00  0.00    -0.133 P  
HETATM   16  O   UNL     1      -6.341   7.879  72.248  1.00  0.00    -0.046 OA 
HETATM   17  O   UNL     1      -7.668   8.796  74.084  1.00  0.00    -0.419 OA 
ENDBRANCH  10  13
ENDBRANCH   9  10
ENDBRANCH   8   9
ENDBRANCH   7   8
ENDBRANCH   3   7
BRANCH   6  18
HETATM   18  C   UNL     1     -10.545  14.269  67.372  1.00  0.00    -0.276 C  
BRANCH  18  19
HETATM   19  C   UNL     1     -10.998  14.758  68.713  1.00  0.00    -0.267 A  
HETATM   20  C   UNL     1     -12.336  14.977  68.955  1.00  0.00     0.012 A  
HETATM   21  N   UNL     1     -12.844  15.256  70.164  1.00  0.00    -0.243 NA 
HETATM   22  C   UNL     1     -11.967  15.322  71.177  1.00  0.00    -0.345 A  
HETATM   23  N   UNL     1     -10.634  15.268  71.016  1.00  0.00    -0.038 NA 
HETATM   24  C   UNL     1     -12.522  15.426  72.563  1.00  0.00    -0.466 C  
HETATM   25  C   UNL     1     -10.173  15.034  69.784  1.00  0.00    -0.125 A  
HETATM   26  N   UNL     1      -8.786  15.146  69.644  1.00  0.00    -0.439 NA 
HETATM   27  H1  UNL     1      -8.176  15.350  70.436  1.00  0.00     0.000 HD 
HETATM   28  H2  UNL     1      -8.603  15.844  68.923  1.00  0.00     0.000 HD 
ENDBRANCH  18  19
ENDBRANCH   6  18
TORSDOF 7
ENDMDL
MODEL      254
REMARK 921   NORMALIZED FREE ENERGY PREDICTED BY IDOCK:   -3.89 KCAL/MOL
REMARK 922        TOTAL FREE ENERGY PREDICTED BY IDOCK:   -6.47 KCAL/MOL
REMARK 923 INTER-LIGAND FREE ENERGY PREDICTED BY IDOCK:   -5.43 KCAL/MOL
REMARK 924 INTRA-LIGAND FREE ENERGY PREDICTED BY IDOCK:   -1.04 KCAL/MOL
REMARK 927      BINDING AFFINITY PREDICTED BY RF-SCORE:    0.00 PKD
ROOT
HETATM    1  C   UNL     1      -8.040   8.444  68.829  1.00  0.00    -0.121 C  
HETATM    2  C   UNL     1      -9.244   7.588  68.989  1.00  0.00    -0.146 C  
HETATM    3  C   UNL     1     -10.072   7.497  70.107  1.00  0.00    -0.195 C  
HETATM    4  C   UNL     1     -10.737   6.022  68.226  1.00  0.00    -0.279 C  
HETATM    5  S   UNL     1     -11.236   6.240  69.816  1.00  0.00    -0.423 SA 
HETATM    6  N   UNL     1      -9.687   6.779  67.934  1.00  0.00    -0.127 NA 
ENDROOT
BRANCH   3   7
HETATM    7  C   UNL     1     -10.099   8.281  71.432  1.00  0.00    -0.257 C  
BRANCH   7   8
HETATM    8  C   UNL     1     -10.885   9.587  71.251  1.00  0.00    -0.343 C  
BRANCH   8   9
HETATM    9  O   UNL     1     -10.553  10.456  70.191  1.00  0.00    -0.273 OA 
BRANCH   9  10
HETATM   10  P   UNL     1     -11.778  11.558  69.837  1.00  0.00    -0.309 P  
HETATM   11  O   UNL     1     -12.860  10.605  70.793  1.00  0.00    -0.360 OA 
HETATM   12  O   UNL     1     -12.519  11.004  68.603  1.00  0.00    -0.462 OA 
BRANCH  10  13
HETATM   13  O   UNL     1     -10.696  12.510  68.881  1.00  0.00    -0.227 OA 
HETATM   14  O   UNL     1     -12.529  14.222  69.259  1.00  0.00    -0.241 OA 
HETATM   15  P   UNL     1     -11.116  14.057  68.804  1.00  0.00    -0.287 P  
HETATM   16  O   UNL     1      -9.970  14.886  69.315  1.00  0.00    -0.217 OA 
HETATM   17  O   UNL     1     -11.045  14.268  67.210  1.00  0.00    -0.290 OA 
ENDBRANCH  10  13
ENDBRANCH   9  10
ENDBRANCH   8   9
ENDBRANCH   7   8
ENDBRANCH   3   7
BRANCH   6  18
HETATM   18  C   UNL     1      -9.199   6.779  66.544  1.00  0.00    -0.162 C  
BRANCH  18  19
HETATM   19  C   UNL     1      -8.750   5.427  66.083  1.00  0.00    -0.129 A  
HETATM   20  C   UNL     1      -9.369   4.818  65.013  1.00  0.00    -0.107 A  
HETATM   21  N   UNL     1      -8.930   3.691  64.436  1.00  0.00    -0.117 NA 
HETATM   22  C   UNL     1      -7.821   3.147  64.957  1.00  0.00    -0.082 A  
HETATM   23  N   UNL     1      -7.234   3.584  66.084  1.00  0.00    -0.066 NA 
HETATM   24  C   UNL     1      -7.193   2.012  64.211  1.00  0.00    -0.056 C  
HETATM   25  C   UNL     1      -7.734   4.685  66.651  1.00  0.00    -0.091 A  
HETATM   26  N   UNL     1      -7.191   5.003  67.900  1.00  0.00    -0.066 NA 
HETATM   27  H1  UNL     1      -6.440   4.455  68.320  1.00  0.00     0.000 HD 
HETATM   28  H2  UNL     1      -7.958   5.044  68.570  1.00  0.00     0.000 HD 
ENDBRANCH  18  19
ENDBRANCH   6  18
TORSDOF 7
ENDMDL
MODEL      255
REMARK 921   NORMALIZED FREE ENERGY PREDICTED BY IDOCK:   -3.89 KCAL/MOL
REMARK 922        TOTAL FREE ENERGY PREDICTED BY IDOCK:   -6.47 KCAL/MOL
REMARK 923 INTER-LIGAND FREE ENERGY PREDICTED BY IDOCK:   -6.03 KCAL/MOL
REMARK 924 INTRA-LIGAND FREE ENERGY PREDICTED BY IDOCK:   -0.44 KCAL/MOL
REMARK 927      BINDING AFFINITY PREDICTED BY RF-SCORE:    0.00 PKD
ROOT
HETATM    1  C   UNL     1      -8.474  10.439  69.284  1.00  0.00    -0.162 C  
HETATM    2  C   UNL     1      -9.534   9.518  69.772  1.00  0.00    -0.210 C  
HETATM    3  C   UNL     1     -10.855   9.841  70.081  1.00  0.00    -0.291 C  
HETATM    4  C   UNL     1     -10.283   7.451  70.430  1.00  0.00    -0.198 C  
HETATM    5  S   UNL     1     -11.614   8.427  70.747  1.00  0.00    -0.182 SA 
HETATM    6  N   UNL     1      -9.270   8.151  69.933  1.00  0.00    -0.151 NA 
ENDROOT
BRANCH   3   7
HETATM    7  C   UNL     1     -11.657  11.145  69.925  1.00  0.00    -0.416 C  
BRANCH   7   8
HETATM    8  C   UNL     1     -11.561  11.648  68.478  1.00  0.00    -0.317 C  
BRANCH   8   9
HETATM    9  O   UNL     1     -12.327  12.762  68.077  1.00  0.00    -0.138 OA 
BRANCH   9  10
HETATM   10  P   UNL     1     -11.416  13.929  67.270  1.00  0.00    -0.387 P  
HETATM   11  O   UNL     1     -10.300  13.918  68.591  1.00  0.00    -0.239 OA 
HETATM   12  O   UNL     1     -11.894  15.297  67.799  1.00  0.00    -0.287 OA 
BRANCH  10  13
HETATM   13  O   UNL     1     -12.533  13.940  65.950  1.00  0.00    -0.463 OA 
HETATM   14  O   UNL     1     -10.427  14.623  64.714  1.00  0.00    -0.418 OA 
HETATM   15  P   UNL     1     -11.823  14.130  64.523  1.00  0.00    -0.414 P  
HETATM   16  O   UNL     1     -12.185  12.958  63.653  1.00  0.00    -0.519 OA 
HETATM   17  O   UNL     1     -12.730  15.323  63.936  1.00  0.00    -0.732 OA 
ENDBRANCH  10  13
ENDBRANCH   9  10
ENDBRANCH   8   9
ENDBRANCH   7   8
ENDBRANCH   3   7
BRANCH   6  18
HETATM   18  C   UNL     1      -8.067   7.418  69.502  1.00  0.00    -0.129 C  
BRANCH  18  19
HETATM   19  C   UNL     1      -7.267   6.884  70.650  1.00  0.00    -0.069 A  
HETATM   20  C   UNL     1      -7.143   7.617  71.809  1.00  0.00    -0.063 A  
HETATM   21  N   UNL     1      -6.586   7.150  72.935  1.00  0.00    -0.064 NA 
HETATM   22  C   UNL     1      -6.129   5.890  72.896  1.00  0.00    -0.048 A  
HETATM   23  N   UNL     1      -6.073   5.151  71.775  1.00  0.00    -0.028 NA 
HETATM   24  C   UNL     1      -5.693   5.273  74.188  1.00  0.00    -0.038 C  
HETATM   25  C   UNL     1      -6.599   5.676  70.665  1.00  0.00    -0.040 A  
HETATM   26  N   UNL     1      -6.372   4.938  69.499  1.00  0.00    -0.029 NA 
HETATM   27  H1  UNL     1      -5.879   4.045  69.510  1.00  0.00     0.000 HD 
HETATM   28  H2  UNL     1      -5.897   5.548  68.834  1.00  0.00     0.000 HD 
ENDBRANCH  18  19
ENDBRANCH   6  18
TORSDOF 7
ENDMDL
MODEL      256
REMARK 921   NORMALIZED FREE ENERGY PREDICTED BY IDOCK:   -3.88 KCAL/MOL
REMARK 922        TOTAL FREE ENERGY PREDICTED BY IDOCK:   -6.46 KCAL/MOL
REMARK 923 INTER-LIGAND FREE ENERGY PREDICTED BY IDOCK:   -5.73 KCAL/MOL
REMARK 924 INTRA-LIGAND FREE ENERGY PREDICTED BY IDOCK:   -0.73 KCAL/MOL
REMARK 927      BINDING AFFINITY PREDICTED BY RF-SCORE:    0.00 PKD
ROOT
HETATM    1  C   UNL     1     -11.641  10.289  69.102  1.00  0.00    -0.166 C  
HETATM    2  C   UNL     1     -10.423   9.831  68.384  1.00  0.00    -0.218 C  
HETATM    3  C   UNL     1     -10.147   8.543  67.927  1.00  0.00    -0.207 C  
HETATM    4  C   UNL     1      -8.348  10.191  67.472  1.00  0.00    -0.118 C  
HETATM    5  S   UNL     1      -8.528   8.529  67.298  1.00  0.00    -0.123 SA 
HETATM    6  N   UNL     1      -9.405  10.738  68.060  1.00  0.00    -0.147 NA 
ENDROOT
BRANCH   3   7
HETATM    7  C   UNL     1     -10.995   7.259  67.900  1.00  0.00    -0.110 C  
BRANCH   7   8
HETATM    8  C   UNL     1     -10.497   6.280  68.972  1.00  0.00    -0.237 C  
BRANCH   8   9
HETATM    9  O   UNL     1     -11.381   5.845  69.981  1.00  0.00    -0.352 OA 
BRANCH   9  10
HETATM   10  P   UNL     1     -10.812   6.163  71.535  1.00  0.00    -0.276 P  
HETATM   11  O   UNL     1     -11.945   7.466  71.644  1.00  0.00    -0.281 OA 
HETATM   12  O   UNL     1      -9.719   7.241  71.387  1.00  0.00    -0.165 OA 
BRANCH  10  13
HETATM   13  O   UNL     1      -9.679   4.861  71.427  1.00  0.00    -0.158 OA 
HETATM   14  O   UNL     1     -10.674   4.353  73.703  1.00  0.00    -0.206 OA 
HETATM   15  P   UNL     1      -9.842   3.782  72.602  1.00  0.00    -0.164 P  
HETATM   16  O   UNL     1     -10.090   2.435  71.979  1.00  0.00    -0.162 OA 
HETATM   17  O   UNL     1      -8.311   3.690  73.089  1.00  0.00    -0.085 OA 
ENDBRANCH  10  13
ENDBRANCH   9  10
ENDBRANCH   8   9
ENDBRANCH   7   8
ENDBRANCH   3   7
BRANCH   6  18
HETATM   18  C   UNL     1      -9.445  12.205  68.187  1.00  0.00    -0.205 C  
BRANCH  18  19
HETATM   19  C   UNL     1     -10.224  12.865  67.091  1.00  0.00    -0.239 A  
HETATM   20  C   UNL     1      -9.668  13.017  65.840  1.00  0.00    -0.178 A  
HETATM   21  N   UNL     1     -10.346  13.445  64.766  1.00  0.00    -0.389 NA 
HETATM   22  C   UNL     1     -11.641  13.739  64.957  1.00  0.00    -0.341 A  
HETATM   23  N   UNL     1     -12.232  13.762  66.163  1.00  0.00    -0.448 NA 
HETATM   24  C   UNL     1     -12.470  14.019  63.743  1.00  0.00    -0.080 C  
HETATM   25  C   UNL     1     -11.503  13.371  67.212  1.00  0.00    -0.340 A  
HETATM   26  N   UNL     1     -12.110  13.565  68.457  1.00  0.00    -0.334 NA 
HETATM   27  H1  UNL     1     -13.055  13.939  68.546  1.00  0.00     0.000 HD 
HETATM   28  H2  UNL     1     -11.490  14.151  69.016  1.00  0.00     0.000 HD 
ENDBRANCH  18  19
ENDBRANCH   6  18
TORSDOF 7
ENDMDL
MODEL      257
REMARK 921   NORMALIZED FREE ENERGY PREDICTED BY IDOCK:   -3.88 KCAL/MOL
REMARK 922        TOTAL FREE ENERGY PREDICTED BY IDOCK:   -6.45 KCAL/MOL
REMARK 923 INTER-LIGAND FREE ENERGY PREDICTED BY IDOCK:   -5.94 KCAL/MOL
REMARK 924 INTRA-LIGAND FREE ENERGY PREDICTED BY IDOCK:   -0.51 KCAL/MOL
REMARK 927      BINDING AFFINITY PREDICTED BY RF-SCORE:    0.00 PKD
ROOT
HETATM    1  C   UNL     1     -11.199  15.643  65.154  1.00  0.00    -0.286 C  
HETATM    2  C   UNL     1     -11.378  14.965  66.464  1.00  0.00    -0.319 C  
HETATM    3  C   UNL     1     -11.488  13.594  66.696  1.00  0.00    -0.343 C  
HETATM    4  C   UNL     1     -11.636  14.988  68.744  1.00  0.00    -0.335 C  
HETATM    5  S   UNL     1     -11.834  13.359  68.383  1.00  0.00    -0.345 SA 
HETATM    6  N   UNL     1     -11.413  15.708  67.652  1.00  0.00    -0.235 NA 
ENDROOT
BRANCH   3   7
HETATM    7  C   UNL     1     -11.356  12.380  65.760  1.00  0.00    -0.393 C  
BRANCH   7   8
HETATM    8  C   UNL     1      -9.965  12.368  65.112  1.00  0.00    -0.198 C  
BRANCH   8   9
HETATM    9  O   UNL     1      -9.254  11.154  65.014  1.00  0.00    -0.212 OA 
BRANCH   9  10
HETATM   10  P   UNL     1      -8.459  10.742  66.443  1.00  0.00    -0.165 P  
HETATM   11  O   UNL     1      -7.954  12.389  66.594  1.00  0.00    -0.019 OA 
HETATM   12  O   UNL     1      -7.003  10.421  66.054  1.00  0.00    -0.115 OA 
BRANCH  10  13
HETATM   13  O   UNL     1      -8.965   9.095  66.292  1.00  0.00    -0.142 OA 
HETATM   14  O   UNL     1      -8.462   9.145  68.777  1.00  0.00    -0.126 OA 
HETATM   15  P   UNL     1      -9.136   8.354  67.705  1.00  0.00    -0.135 P  
HETATM   16  O   UNL     1     -10.548   7.843  67.805  1.00  0.00    -0.223 OA 
HETATM   17  O   UNL     1      -8.279   7.024  67.409  1.00  0.00    -0.117 OA 
ENDBRANCH  10  13
ENDBRANCH   9  10
ENDBRANCH   8   9
ENDBRANCH   7   8
ENDBRANCH   3   7
BRANCH   6  18
HETATM   18  C   UNL     1     -11.112  17.141  67.816  1.00  0.00    -0.065 C  
BRANCH  18  19
HETATM   19  C   UNL     1      -9.671  17.402  68.131  1.00  0.00    -0.291 A  
HETATM   20  C   UNL     1      -8.757  16.372  68.100  1.00  0.00    -0.191 A  
HETATM   21  N   UNL     1      -7.432  16.543  68.209  1.00  0.00    -0.165 NA 
HETATM   22  C   UNL     1      -7.004  17.806  68.359  1.00  0.00    -0.228 A  
HETATM   23  N   UNL     1      -7.823  18.854  68.546  1.00  0.00    -0.326 NA 
HETATM   24  C   UNL     1      -5.530  18.049  68.276  1.00  0.00    -0.160 C  
HETATM   25  C   UNL     1      -9.138  18.628  68.475  1.00  0.00    -0.329 A  
HETATM   26  N   UNL     1      -9.943  19.714  68.834  1.00  0.00    -0.477 NA 
HETATM   27  H1  UNL     1      -9.548  20.620  69.088  1.00  0.00     0.000 HD 
HETATM   28  H2  UNL     1     -10.547  19.413  69.598  1.00  0.00     0.000 HD 
ENDBRANCH  18  19
ENDBRANCH   6  18
TORSDOF 7
ENDMDL
MODEL      258
REMARK 921   NORMALIZED FREE ENERGY PREDICTED BY IDOCK:   -3.88 KCAL/MOL
REMARK 922        TOTAL FREE ENERGY PREDICTED BY IDOCK:   -6.45 KCAL/MOL
REMARK 923 INTER-LIGAND FREE ENERGY PREDICTED BY IDOCK:   -5.60 KCAL/MOL
REMARK 924 INTRA-LIGAND FREE ENERGY PREDICTED BY IDOCK:   -0.84 KCAL/MOL
REMARK 927      BINDING AFFINITY PREDICTED BY RF-SCORE:    0.00 PKD
ROOT
HETATM    1  C   UNL     1      -9.009  11.608  68.383  1.00  0.00    -0.176 C  
HETATM    2  C   UNL     1     -10.182  11.281  69.235  1.00  0.00    -0.031 C  
HETATM    3  C   UNL     1     -10.333  10.179  70.076  1.00  0.00    -0.250 C  
HETATM    4  C   UNL     1     -12.289  11.706  70.040  1.00  0.00    -0.187 C  
HETATM    5  S   UNL     1     -11.948  10.207  70.717  1.00  0.00    -0.375 SA 
HETATM    6  N   UNL     1     -11.286  12.143  69.287  1.00  0.00    -0.268 NA 
ENDROOT
BRANCH   3   7
HETATM    7  C   UNL     1      -9.363   9.054  70.480  1.00  0.00    -0.262 C  
BRANCH   7   8
HETATM    8  C   UNL     1      -9.674   7.783  69.679  1.00  0.00    -0.172 C  
BRANCH   8   9
HETATM    9  O   UNL     1     -10.228   7.894  68.387  1.00  0.00    -0.193 OA 
BRANCH   9  10
HETATM   10  P   UNL     1      -9.320   7.097  67.211  1.00  0.00    -0.146 P  
HETATM   11  O   UNL     1      -9.987   5.600  67.763  1.00  0.00    -0.128 OA 
HETATM   12  O   UNL     1      -8.007   6.664  67.894  1.00  0.00    -0.110 OA 
BRANCH  10  13
HETATM   13  O   UNL     1      -8.652   8.595  66.660  1.00  0.00    -0.113 OA 
HETATM   14  O   UNL     1      -8.288   7.190  64.580  1.00  0.00    -0.071 OA 
HETATM   15  P   UNL     1      -8.303   8.592  65.094  1.00  0.00    -0.142 P  
HETATM   16  O   UNL     1      -9.057   9.715  64.437  1.00  0.00    -0.237 OA 
HETATM   17  O   UNL     1      -6.793   9.147  65.161  1.00  0.00    -0.075 OA 
ENDBRANCH  10  13
ENDBRANCH   9  10
ENDBRANCH   8   9
ENDBRANCH   7   8
ENDBRANCH   3   7
BRANCH   6  18
HETATM   18  C   UNL     1     -11.390  13.494  68.710  1.00  0.00    -0.290 C  
BRANCH  18  19
HETATM   19  C   UNL     1     -11.452  13.487  67.214  1.00  0.00    -0.369 A  
HETATM   20  C   UNL     1     -12.021  12.424  66.548  1.00  0.00    -0.252 A  
HETATM   21  N   UNL     1     -12.263  12.407  65.230  1.00  0.00    -0.553 NA 
HETATM   22  C   UNL     1     -11.916  13.508  64.547  1.00  0.00    -0.410 A  
HETATM   23  N   UNL     1     -11.227  14.531  65.079  1.00  0.00    -0.362 NA 
HETATM   24  C   UNL     1     -12.359  13.602  63.120  1.00  0.00     0.147 C  
HETATM   25  C   UNL     1     -10.968  14.482  66.389  1.00  0.00    -0.324 A  
HETATM   26  N   UNL     1     -10.115  15.487  66.858  1.00  0.00    -0.256 NA 
HETATM   27  H1  UNL     1      -9.757  16.222  66.249  1.00  0.00     0.000 HD 
HETATM   28  H2  UNL     1      -9.316  15.033  67.301  1.00  0.00     0.000 HD 
ENDBRANCH  18  19
ENDBRANCH   6  18
TORSDOF 7
ENDMDL
MODEL      259
REMARK 921   NORMALIZED FREE ENERGY PREDICTED BY IDOCK:   -3.86 KCAL/MOL
REMARK 922        TOTAL FREE ENERGY PREDICTED BY IDOCK:   -6.43 KCAL/MOL
REMARK 923 INTER-LIGAND FREE ENERGY PREDICTED BY IDOCK:   -4.34 KCAL/MOL
REMARK 924 INTRA-LIGAND FREE ENERGY PREDICTED BY IDOCK:   -2.09 KCAL/MOL
REMARK 927      BINDING AFFINITY PREDICTED BY RF-SCORE:    0.00 PKD
ROOT
HETATM    1  C   UNL     1     -10.421   7.278  68.628  1.00  0.00    -0.214 C  
HETATM    2  C   UNL     1     -10.860   8.454  69.422  1.00  0.00    -0.082 C  
HETATM    3  C   UNL     1     -11.618   8.447  70.593  1.00  0.00    -0.191 C  
HETATM    4  C   UNL     1     -10.989  10.714  69.804  1.00  0.00    -0.280 C  
HETATM    5  S   UNL     1     -11.971  10.094  71.018  1.00  0.00    -0.398 SA 
HETATM    6  N   UNL     1     -10.483   9.750  69.043  1.00  0.00    -0.205 NA 
ENDROOT
BRANCH   3   7
HETATM    7  C   UNL     1     -12.131   7.296  71.477  1.00  0.00    -0.365 C  
BRANCH   7   8
HETATM    8  C   UNL     1     -11.244   7.156  72.721  1.00  0.00    -0.275 C  
BRANCH   8   9
HETATM    9  O   UNL     1     -10.153   6.264  72.699  1.00  0.00    -0.175 OA 
BRANCH   9  10
HETATM   10  P   UNL     1      -8.669   7.035  72.911  1.00  0.00    -0.122 P  
HETATM   11  O   UNL     1      -9.140   7.417  74.531  1.00  0.00    -0.178 OA 
HETATM   12  O   UNL     1      -8.902   8.524  72.585  1.00  0.00    -0.293 OA 
BRANCH  10  13
HETATM   13  O   UNL     1      -8.197   6.654  71.292  1.00  0.00    -0.118 OA 
HETATM   14  O   UNL     1      -7.197   4.658  72.493  1.00  0.00    -0.075 OA 
HETATM   15  P   UNL     1      -7.566   5.186  71.146  1.00  0.00    -0.100 P  
HETATM   16  O   UNL     1      -8.378   4.417  70.140  1.00  0.00    -0.065 OA 
HETATM   17  O   UNL     1      -6.225   5.556  70.338  1.00  0.00    -0.024 OA 
ENDBRANCH  10  13
ENDBRANCH   9  10
ENDBRANCH   8   9
ENDBRANCH   7   8
ENDBRANCH   3   7
BRANCH   6  18
HETATM   18  C   UNL     1      -9.514  10.127  68.000  1.00  0.00    -0.145 C  
BRANCH  18  19
HETATM   19  C   UNL     1      -8.323  10.854  68.544  1.00  0.00    -0.142 A  
HETATM   20  C   UNL     1      -8.010  12.114  68.085  1.00  0.00    -0.151 A  
HETATM   21  N   UNL     1      -7.067  12.897  68.627  1.00  0.00    -0.100 NA 
HETATM   22  C   UNL     1      -6.403  12.390  69.677  1.00  0.00    -0.107 A  
HETATM   23  N   UNL     1      -6.536  11.123  70.103  1.00  0.00    -0.185 NA 
HETATM   24  C   UNL     1      -5.494  13.312  70.428  1.00  0.00    -0.145 C  
HETATM   25  C   UNL     1      -7.457  10.365  69.502  1.00  0.00    -0.148 A  
HETATM   26  N   UNL     1      -7.443   9.017  69.871  1.00  0.00    -0.060 NA 
HETATM   27  H1  UNL     1      -6.804   8.655  70.579  1.00  0.00     0.000 HD 
HETATM   28  H2  UNL     1      -7.314   8.464  69.024  1.00  0.00     0.000 HD 
ENDBRANCH  18  19
ENDBRANCH   6  18
TORSDOF 7
ENDMDL
MODEL      260
REMARK 921   NORMALIZED FREE ENERGY PREDICTED BY IDOCK:   -3.85 KCAL/MOL
REMARK 922        TOTAL FREE ENERGY PREDICTED BY IDOCK:   -6.42 KCAL/MOL
REMARK 923 INTER-LIGAND FREE ENERGY PREDICTED BY IDOCK:   -5.40 KCAL/MOL
REMARK 924 INTRA-LIGAND FREE ENERGY PREDICTED BY IDOCK:   -1.02 KCAL/MOL
REMARK 927      BINDING AFFINITY PREDICTED BY RF-SCORE:    0.00 PKD
ROOT
HETATM    1  C   UNL     1      -8.197   8.986  69.387  1.00  0.00    -0.117 C  
HETATM    2  C   UNL     1      -8.850   9.061  68.054  1.00  0.00    -0.129 C  
HETATM    3  C   UNL     1      -8.874  10.151  67.186  1.00  0.00    -0.132 C  
HETATM    4  C   UNL     1     -10.097   8.160  66.351  1.00  0.00    -0.126 C  
HETATM    5  S   UNL     1      -9.900   9.750  65.843  1.00  0.00    -0.277 SA 
HETATM    6  N   UNL     1      -9.507   7.943  67.520  1.00  0.00    -0.142 NA 
ENDROOT
BRANCH   3   7
HETATM    7  C   UNL     1      -8.181  11.525  67.244  1.00  0.00    -0.155 C  
BRANCH   7   8
HETATM    8  C   UNL     1      -9.187  12.632  66.899  1.00  0.00    -0.216 C  
BRANCH   8   9
HETATM    9  O   UNL     1      -9.974  13.199  67.923  1.00  0.00    -0.220 OA 
BRANCH   9  10
HETATM   10  P   UNL     1     -11.608  13.291  67.520  1.00  0.00    -0.370 P  
HETATM   11  O   UNL     1     -11.971  13.516  69.196  1.00  0.00    -0.322 OA 
HETATM   12  O   UNL     1     -12.177  11.867  67.677  1.00  0.00    -0.510 OA 
BRANCH  10  13
HETATM   13  O   UNL     1     -11.245  13.066  65.844  1.00  0.00    -0.281 OA 
HETATM   14  O   UNL     1     -13.498  14.209  65.628  1.00  0.00    -0.576 OA 
HETATM   15  P   UNL     1     -12.274  13.817  64.868  1.00  0.00    -0.414 P  
HETATM   16  O   UNL     1     -11.496  14.759  63.991  1.00  0.00    -0.074 OA 
HETATM   17  O   UNL     1     -12.633  12.599  63.879  1.00  0.00    -0.633 OA 
ENDBRANCH  10  13
ENDBRANCH   9  10
ENDBRANCH   8   9
ENDBRANCH   7   8
ENDBRANCH   3   7
BRANCH   6  18
HETATM   18  C   UNL     1      -9.500   6.568  68.048  1.00  0.00    -0.120 C  
BRANCH  18  19
HETATM   19  C   UNL     1      -8.603   5.651  67.275  1.00  0.00    -0.109 A  
HETATM   20  C   UNL     1      -9.141   4.686  66.452  1.00  0.00    -0.120 A  
HETATM   21  N   UNL     1      -8.421   3.936  65.606  1.00  0.00    -0.109 NA 
HETATM   22  C   UNL     1      -7.099   4.161  65.588  1.00  0.00    -0.063 A  
HETATM   23  N   UNL     1      -6.468   4.972  66.453  1.00  0.00    -0.040 NA 
HETATM   24  C   UNL     1      -6.300   3.490  64.515  1.00  0.00    -0.024 C  
HETATM   25  C   UNL     1      -7.223   5.666  67.309  1.00  0.00    -0.075 A  
HETATM   26  N   UNL     1      -6.512   6.369  68.287  1.00  0.00    -0.047 NA 
HETATM   27  H1  UNL     1      -5.492   6.380  68.312  1.00  0.00     0.000 HD 
HETATM   28  H2  UNL     1      -6.842   6.051  69.198  1.00  0.00     0.000 HD 
ENDBRANCH  18  19
ENDBRANCH   6  18
TORSDOF 7
ENDMDL
MODEL      261
REMARK 921   NORMALIZED FREE ENERGY PREDICTED BY IDOCK:   -3.84 KCAL/MOL
REMARK 922        TOTAL FREE ENERGY PREDICTED BY IDOCK:   -6.40 KCAL/MOL
REMARK 923 INTER-LIGAND FREE ENERGY PREDICTED BY IDOCK:   -5.90 KCAL/MOL
REMARK 924 INTRA-LIGAND FREE ENERGY PREDICTED BY IDOCK:   -0.50 KCAL/MOL
REMARK 927      BINDING AFFINITY PREDICTED BY RF-SCORE:    0.00 PKD
ROOT
HETATM    1  C   UNL     1     -11.696  11.394  69.159  1.00  0.00    -0.410 C  
HETATM    2  C   UNL     1     -10.248  11.105  68.992  1.00  0.00    -0.176 C  
HETATM    3  C   UNL     1      -9.583   9.919  69.301  1.00  0.00    -0.205 C  
HETATM    4  C   UNL     1      -8.113  11.702  68.396  1.00  0.00    -0.153 C  
HETATM    5  S   UNL     1      -7.882  10.174  69.053  1.00  0.00    -0.118 SA 
HETATM    6  N   UNL     1      -9.390  12.064  68.435  1.00  0.00    -0.197 NA 
ENDROOT
BRANCH   3   7
HETATM    7  C   UNL     1     -10.096   8.549  69.779  1.00  0.00    -0.197 C  
BRANCH   7   8
HETATM    8  C   UNL     1      -8.912   7.602  70.020  1.00  0.00    -0.143 C  
BRANCH   8   9
HETATM    9  O   UNL     1      -8.446   6.790  68.965  1.00  0.00    -0.126 OA 
BRANCH   9  10
HETATM   10  P   UNL     1      -8.761   5.152  69.209  1.00  0.00    -0.097 P  
HETATM   11  O   UNL     1      -8.285   4.855  67.572  1.00  0.00    -0.105 OA 
HETATM   12  O   UNL     1     -10.210   4.913  68.740  1.00  0.00    -0.142 OA 
BRANCH  10  13
HETATM   13  O   UNL     1      -9.236   5.449  70.845  1.00  0.00    -0.145 OA 
HETATM   14  O   UNL     1      -8.591   3.005  71.040  1.00  0.00    -0.064 OA 
HETATM   15  P   UNL     1      -8.892   4.234  71.834  1.00  0.00    -0.115 P  
HETATM   16  O   UNL     1      -8.011   4.753  72.937  1.00  0.00    -0.095 OA 
HETATM   17  O   UNL     1     -10.324   4.064  72.549  1.00  0.00    -0.173 OA 
ENDBRANCH  10  13
ENDBRANCH   9  10
ENDBRANCH   8   9
ENDBRANCH   7   8
ENDBRANCH   3   7
BRANCH   6  18
HETATM   18  C   UNL     1      -9.770  13.336  67.797  1.00  0.00    -0.217 C  
BRANCH  18  19
HETATM   19  C   UNL     1     -10.578  13.146  66.551  1.00  0.00    -0.290 A  
HETATM   20  C   UNL     1     -10.047  12.467  65.477  1.00  0.00    -0.267 A  
HETATM   21  N   UNL     1     -10.750  12.112  64.393  1.00  0.00    -0.301 NA 
HETATM   22  C   UNL     1     -12.046  12.458  64.384  1.00  0.00    -0.426 A  
HETATM   23  N   UNL     1     -12.616  13.243  65.312  1.00  0.00    -0.561 NA 
HETATM   24  C   UNL     1     -12.901  11.900  63.289  1.00  0.00    -0.303 C  
HETATM   25  C   UNL     1     -11.863  13.611  66.353  1.00  0.00    -0.398 A  
HETATM   26  N   UNL     1     -12.451  14.553  67.203  1.00  0.00    -0.482 NA 
HETATM   27  H1  UNL     1     -13.401  14.896  67.056  1.00  0.00     0.000 HD 
HETATM   28  H2  UNL     1     -11.831  15.362  67.245  1.00  0.00     0.000 HD 
ENDBRANCH  18  19
ENDBRANCH   6  18
TORSDOF 7
ENDMDL
MODEL      262
REMARK 921   NORMALIZED FREE ENERGY PREDICTED BY IDOCK:   -3.83 KCAL/MOL
REMARK 922        TOTAL FREE ENERGY PREDICTED BY IDOCK:   -6.38 KCAL/MOL
REMARK 923 INTER-LIGAND FREE ENERGY PREDICTED BY IDOCK:   -4.65 KCAL/MOL
REMARK 924 INTRA-LIGAND FREE ENERGY PREDICTED BY IDOCK:   -1.73 KCAL/MOL
REMARK 927      BINDING AFFINITY PREDICTED BY RF-SCORE:    0.00 PKD
ROOT
HETATM    1  C   UNL     1     -10.578   5.094  71.227  1.00  0.00    -0.203 C  
HETATM    2  C   UNL     1      -9.294   5.570  70.651  1.00  0.00    -0.158 C  
HETATM    3  C   UNL     1      -8.481   6.594  71.135  1.00  0.00    -0.126 C  
HETATM    4  C   UNL     1      -7.631   5.510  69.071  1.00  0.00    -0.087 C  
HETATM    5  S   UNL     1      -7.186   6.836  70.001  1.00  0.00    -0.078 SA 
HETATM    6  N   UNL     1      -8.749   4.952  69.517  1.00  0.00    -0.086 NA 
ENDROOT
BRANCH   3   7
HETATM    7  C   UNL     1      -8.559   7.453  72.410  1.00  0.00    -0.138 C  
BRANCH   7   8
HETATM    8  C   UNL     1      -9.447   8.680  72.160  1.00  0.00    -0.303 C  
BRANCH   8   9
HETATM    9  O   UNL     1     -10.848   8.526  72.114  1.00  0.00    -0.312 OA 
BRANCH   9  10
HETATM   10  P   UNL     1     -11.574   9.477  70.927  1.00  0.00    -0.365 P  
HETATM   11  O   UNL     1     -12.540  10.212  72.159  1.00  0.00    -0.328 OA 
HETATM   12  O   UNL     1     -12.851   8.731  70.492  1.00  0.00     0.302 OA 
BRANCH  10  13
HETATM   13  O   UNL     1     -10.608   8.742  69.695  1.00  0.00    -0.219 OA 
HETATM   14  O   UNL     1     -10.975  11.015  68.630  1.00  0.00    -0.190 OA 
HETATM   15  P   UNL     1     -10.150   9.772  68.552  1.00  0.00    -0.182 P  
HETATM   16  O   UNL     1      -8.648   9.767  68.483  1.00  0.00    -0.116 OA 
HETATM   17  O   UNL     1     -10.585   8.930  67.251  1.00  0.00    -0.283 OA 
ENDBRANCH  10  13
ENDBRANCH   9  10
ENDBRANCH   8   9
ENDBRANCH   7   8
ENDBRANCH   3   7
BRANCH   6  18
HETATM   18  C   UNL     1      -9.211   3.711  68.870  1.00  0.00    -0.160 C  
BRANCH  18  19
HETATM   19  C   UNL     1      -9.486   3.883  67.408  1.00  0.00    -0.236 A  
HETATM   20  C   UNL     1      -8.792   3.137  66.480  1.00  0.00    -0.144 A  
HETATM   21  N   UNL     1      -9.084   3.109  65.172  1.00  0.00    -0.142 NA 
HETATM   22  C   UNL     1     -10.118   3.866  64.776  1.00  0.00    -0.198 A  
HETATM   23  N   UNL     1     -10.758   4.734  65.577  1.00  0.00    -0.188 NA 
HETATM   24  C   UNL     1     -10.596   3.697  63.368  1.00  0.00    -0.256 C  
HETATM   25  C   UNL     1     -10.401   4.761  66.864  1.00  0.00    -0.150 A  
HETATM   26  N   UNL     1     -10.983   5.787  67.615  1.00  0.00    -0.306 NA 
HETATM   27  H1  UNL     1     -11.660   6.436  67.213  1.00  0.00     0.000 HD 
HETATM   28  H2  UNL     1     -10.228   6.339  68.023  1.00  0.00     0.000 HD 
ENDBRANCH  18  19
ENDBRANCH   6  18
TORSDOF 7
ENDMDL
MODEL      263
REMARK 921   NORMALIZED FREE ENERGY PREDICTED BY IDOCK:   -3.82 KCAL/MOL
REMARK 922        TOTAL FREE ENERGY PREDICTED BY IDOCK:   -6.37 KCAL/MOL
REMARK 923 INTER-LIGAND FREE ENERGY PREDICTED BY IDOCK:   -6.04 KCAL/MOL
REMARK 924 INTRA-LIGAND FREE ENERGY PREDICTED BY IDOCK:   -0.33 KCAL/MOL
REMARK 927      BINDING AFFINITY PREDICTED BY RF-SCORE:    0.00 PKD
ROOT
HETATM    1  C   UNL     1     -10.423   8.392  68.841  1.00  0.00    -0.208 C  
HETATM    2  C   UNL     1     -11.106   9.583  69.409  1.00  0.00    -0.110 C  
HETATM    3  C   UNL     1     -11.613   9.730  70.699  1.00  0.00    -0.313 C  
HETATM    4  C   UNL     1     -11.944  11.714  69.245  1.00  0.00    -0.317 C  
HETATM    5  S   UNL     1     -12.440  11.256  70.784  1.00  0.00    -0.352 SA 
HETATM    6  N   UNL     1     -11.267  10.745  68.640  1.00  0.00    -0.254 NA 
ENDROOT
BRANCH   3   7
HETATM    7  C   UNL     1     -11.546   8.820  71.939  1.00  0.00    -0.432 C  
BRANCH   7   8
HETATM    8  C   UNL     1     -10.086   8.451  72.238  1.00  0.00    -0.312 C  
BRANCH   8   9
HETATM    9  O   UNL     1      -9.733   7.096  72.406  1.00  0.00    -0.149 OA 
BRANCH   9  10
HETATM   10  P   UNL     1      -8.166   6.895  72.995  1.00  0.00    -0.107 P  
HETATM   11  O   UNL     1      -8.267   8.471  73.700  1.00  0.00    -0.383 OA 
HETATM   12  O   UNL     1      -7.223   7.519  71.947  1.00  0.00    -0.062 OA 
BRANCH  10  13
HETATM   13  O   UNL     1      -8.064   5.319  72.290  1.00  0.00    -0.108 OA 
HETATM   14  O   UNL     1      -9.083   4.704  74.530  1.00  0.00    -0.109 OA 
HETATM   15  P   UNL     1      -8.810   4.191  73.154  1.00  0.00    -0.101 P  
HETATM   16  O   UNL     1      -9.848   3.535  72.285  1.00  0.00    -0.146 OA 
HETATM   17  O   UNL     1      -7.635   3.093  73.223  1.00  0.00    -0.053 OA 
ENDBRANCH  10  13
ENDBRANCH   9  10
ENDBRANCH   8   9
ENDBRANCH   7   8
ENDBRANCH   3   7
BRANCH   6  18
HETATM   18  C   UNL     1     -10.672  11.033  67.324  1.00  0.00    -0.265 C  
BRANCH  18  19
HETATM   19  C   UNL     1     -10.301  12.474  67.154  1.00  0.00    -0.230 A  
HETATM   20  C   UNL     1      -9.121  12.953  67.678  1.00  0.00    -0.194 A  
HETATM   21  N   UNL     1      -8.636  14.179  67.436  1.00  0.00    -0.198 NA 
HETATM   22  C   UNL     1      -9.372  14.963  66.634  1.00  0.00    -0.268 A  
HETATM   23  N   UNL     1     -10.600  14.639  66.196  1.00  0.00    -0.303 NA 
HETATM   24  C   UNL     1      -8.762  16.252  66.181  1.00  0.00    -0.353 C  
HETATM   25  C   UNL     1     -11.061  13.423  66.500  1.00  0.00    -0.297 A  
HETATM   26  N   UNL     1     -12.399  13.198  66.159  1.00  0.00    -0.421 NA 
HETATM   27  H1  UNL     1     -12.960  13.899  65.676  1.00  0.00     0.000 HD 
HETATM   28  H2  UNL     1     -12.895  12.934  67.010  1.00  0.00     0.000 HD 
ENDBRANCH  18  19
ENDBRANCH   6  18
TORSDOF 7
ENDMDL
MODEL      264
REMARK 921   NORMALIZED FREE ENERGY PREDICTED BY IDOCK:   -3.81 KCAL/MOL
REMARK 922        TOTAL FREE ENERGY PREDICTED BY IDOCK:   -6.35 KCAL/MOL
REMARK 923 INTER-LIGAND FREE ENERGY PREDICTED BY IDOCK:   -5.74 KCAL/MOL
REMARK 924 INTRA-LIGAND FREE ENERGY PREDICTED BY IDOCK:   -0.61 KCAL/MOL
REMARK 927      BINDING AFFINITY PREDICTED BY RF-SCORE:    0.00 PKD
ROOT
HETATM    1  C   UNL     1     -11.870  11.049  68.987  1.00  0.00    -0.399 C  
HETATM    2  C   UNL     1     -11.060  10.238  68.041  1.00  0.00    -0.274 C  
HETATM    3  C   UNL     1     -10.532   8.966  68.258  1.00  0.00    -0.195 C  
HETATM    4  C   UNL     1     -10.001   9.922  66.030  1.00  0.00    -0.268 C  
HETATM    5  S   UNL     1      -9.547   8.550  66.888  1.00  0.00    -0.218 SA 
HETATM    6  N   UNL     1     -10.781  10.716  66.753  1.00  0.00    -0.238 NA 
ENDROOT
BRANCH   3   7
HETATM    7  C   UNL     1     -10.688   7.975  69.425  1.00  0.00    -0.167 C  
BRANCH   7   8
HETATM    8  C   UNL     1      -9.307   7.592  69.974  1.00  0.00    -0.154 C  
BRANCH   8   9
HETATM    9  O   UNL     1      -9.019   7.802  71.338  1.00  0.00    -0.130 OA 
BRANCH   9  10
HETATM   10  P   UNL     1      -7.511   7.200  71.792  1.00  0.00    -0.087 P  
HETATM   11  O   UNL     1      -7.125   8.757  72.438  1.00  0.00    -0.284 OA 
HETATM   12  O   UNL     1      -6.544   7.535  70.639  1.00  0.00    -0.042 OA 
BRANCH  10  13
HETATM   13  O   UNL     1      -7.897   5.643  71.145  1.00  0.00    -0.104 OA 
HETATM   14  O   UNL     1      -8.325   5.187  73.603  1.00  0.00    -0.109 OA 
HETATM   15  P   UNL     1      -8.553   4.655  72.226  1.00  0.00    -0.120 P  
HETATM   16  O   UNL     1      -9.895   4.212  71.712  1.00  0.00    -0.166 OA 
HETATM   17  O   UNL     1      -7.622   3.362  71.998  1.00  0.00    -0.054 OA 
ENDBRANCH  10  13
ENDBRANCH   9  10
ENDBRANCH   8   9
ENDBRANCH   7   8
ENDBRANCH   3   7
BRANCH   6  18
HETATM   18  C   UNL     1     -11.351  11.908  66.101  1.00  0.00    -0.324 C  
BRANCH  18  19
HETATM   19  C   UNL     1     -10.991  13.183  66.800  1.00  0.00    -0.298 A  
HETATM   20  C   UNL     1     -11.961  14.125  67.066  1.00  0.00    -0.439 A  
HETATM   21  N   UNL     1     -11.761  15.212  67.824  1.00  0.00    -0.299 NA 
HETATM   22  C   UNL     1     -10.531  15.364  68.336  1.00  0.00    -0.239 A  
HETATM   23  N   UNL     1      -9.487  14.581  68.015  1.00  0.00    -0.204 NA 
HETATM   24  C   UNL     1     -10.334  16.449  69.347  1.00  0.00    -0.290 C  
HETATM   25  C   UNL     1      -9.724  13.535  67.219  1.00  0.00    -0.236 A  
HETATM   26  N   UNL     1      -8.583  12.851  66.789  1.00  0.00    -0.401 NA 
HETATM   27  H1  UNL     1      -7.646  13.111  67.099  1.00  0.00     0.000 HD 
HETATM   28  H2  UNL     1      -8.585  12.854  65.769  1.00  0.00     0.000 HD 
ENDBRANCH  18  19
ENDBRANCH   6  18
TORSDOF 7
ENDMDL
MODEL      265
REMARK 921   NORMALIZED FREE ENERGY PREDICTED BY IDOCK:   -3.80 KCAL/MOL
REMARK 922        TOTAL FREE ENERGY PREDICTED BY IDOCK:   -6.34 KCAL/MOL
REMARK 923 INTER-LIGAND FREE ENERGY PREDICTED BY IDOCK:   -6.90 KCAL/MOL
REMARK 924 INTRA-LIGAND FREE ENERGY PREDICTED BY IDOCK:    0.56 KCAL/MOL
REMARK 927      BINDING AFFINITY PREDICTED BY RF-SCORE:    0.00 PKD
ROOT
HETATM    1  C   UNL     1      -8.663  13.508  68.023  1.00  0.00    -0.181 C  
HETATM    2  C   UNL     1      -9.361  12.542  67.135  1.00  0.00    -0.201 C  
HETATM    3  C   UNL     1      -8.848  11.357  66.610  1.00  0.00    -0.183 C  
HETATM    4  C   UNL     1     -11.182  11.846  65.925  1.00  0.00    -0.322 C  
HETATM    5  S   UNL     1     -10.028  10.694  65.520  1.00  0.00    -0.287 SA 
HETATM    6  N   UNL     1     -10.697  12.751  66.766  1.00  0.00    -0.258 NA 
ENDROOT
BRANCH   3   7
HETATM    7  C   UNL     1      -7.514  10.623  66.841  1.00  0.00    -0.115 C  
BRANCH   7   8
HETATM    8  C   UNL     1      -7.489  10.017  68.251  1.00  0.00    -0.079 C  
BRANCH   8   9
HETATM    9  O   UNL     1      -8.387   8.980  68.578  1.00  0.00    -0.121 OA 
BRANCH   9  10
HETATM   10  P   UNL     1      -8.136   8.357  70.124  1.00  0.00    -0.117 P  
HETATM   11  O   UNL     1      -7.213   7.076  69.417  1.00  0.00    -0.080 OA 
HETATM   12  O   UNL     1      -9.245   7.312  70.358  1.00  0.00    -0.158 OA 
BRANCH  10  13
HETATM   13  O   UNL     1      -9.059   9.638  70.830  1.00  0.00    -0.183 OA 
HETATM   14  O   UNL     1     -10.757   8.783  69.152  1.00  0.00    -0.213 OA 
HETATM   15  P   UNL     1     -10.593   9.645  70.361  1.00  0.00    -0.327 P  
HETATM   16  O   UNL     1     -11.464   9.546  71.583  1.00  0.00    -0.381 OA 
HETATM   17  O   UNL     1     -10.729  11.190  69.931  1.00  0.00    -0.114 OA 
ENDBRANCH  10  13
ENDBRANCH   9  10
ENDBRANCH   8   9
ENDBRANCH   7   8
ENDBRANCH   3   7
BRANCH   6  18
HETATM   18  C   UNL     1     -11.620  13.767  67.300  1.00  0.00    -0.361 C  
BRANCH  18  19
HETATM   19  C   UNL     1     -11.189  15.168  66.989  1.00  0.00    -0.308 A  
HETATM   20  C   UNL     1     -11.173  16.124  67.980  1.00  0.00    -0.291 A  
HETATM   21  N   UNL     1     -10.653  17.350  67.830  1.00  0.00    -0.380 NA 
HETATM   22  C   UNL     1     -10.127  17.631  66.629  1.00  0.00    -0.335 A  
HETATM   23  N   UNL     1     -10.227  16.821  65.562  1.00  0.00    -0.607 NA 
HETATM   24  C   UNL     1      -9.359  18.908  66.494  1.00  0.00    -0.351 C  
HETATM   25  C   UNL     1     -10.795  15.626  65.748  1.00  0.00    -0.306 A  
HETATM   26  N   UNL     1     -11.017  14.891  64.580  1.00  0.00    -0.638 NA 
HETATM   27  H1  UNL     1     -10.725  15.229  63.663  1.00  0.00     0.000 HD 
HETATM   28  H2  UNL     1     -12.014  14.680  64.530  1.00  0.00     0.000 HD 
ENDBRANCH  18  19
ENDBRANCH   6  18
TORSDOF 7
ENDMDL
MODEL      266
REMARK 921   NORMALIZED FREE ENERGY PREDICTED BY IDOCK:   -3.78 KCAL/MOL
REMARK 922        TOTAL FREE ENERGY PREDICTED BY IDOCK:   -6.31 KCAL/MOL
REMARK 923 INTER-LIGAND FREE ENERGY PREDICTED BY IDOCK:   -5.33 KCAL/MOL
REMARK 924 INTRA-LIGAND FREE ENERGY PREDICTED BY IDOCK:   -0.98 KCAL/MOL
REMARK 927      BINDING AFFINITY PREDICTED BY RF-SCORE:    0.00 PKD
ROOT
HETATM    1  C   UNL     1      -9.078   8.521  67.525  1.00  0.00    -0.146 C  
HETATM    2  C   UNL     1      -9.742   8.882  68.804  1.00  0.00    -0.164 C  
HETATM    3  C   UNL     1     -10.826   9.743  68.979  1.00  0.00    -0.199 C  
HETATM    4  C   UNL     1      -9.957   8.761  71.086  1.00  0.00    -0.248 C  
HETATM    5  S   UNL     1     -11.101   9.924  70.684  1.00  0.00    -0.356 SA 
HETATM    6  N   UNL     1      -9.320   8.310  70.012  1.00  0.00    -0.161 NA 
ENDROOT
BRANCH   3   7
HETATM    7  C   UNL     1     -11.726  10.479  67.970  1.00  0.00     0.080 C  
BRANCH   7   8
HETATM    8  C   UNL     1     -10.953  11.640  67.329  1.00  0.00    -0.267 C  
BRANCH   8   9
HETATM    9  O   UNL     1     -11.458  12.952  67.435  1.00  0.00    -0.296 OA 
BRANCH   9  10
HETATM   10  P   UNL     1     -10.267  14.086  67.807  1.00  0.00    -0.247 P  
HETATM   11  O   UNL     1      -9.833  14.124  66.134  1.00  0.00    -0.292 OA 
HETATM   12  O   UNL     1      -8.966  13.292  68.038  1.00  0.00    -0.177 OA 
BRANCH  10  13
HETATM   13  O   UNL     1     -10.702  14.048  69.481  1.00  0.00    -0.124 OA 
HETATM   14  O   UNL     1     -12.116  16.015  68.733  1.00  0.00    -0.255 OA 
HETATM   15  P   UNL     1     -11.913  15.036  69.842  1.00  0.00    -0.349 P  
HETATM   16  O   UNL     1     -13.021  14.226  70.457  1.00  0.00    -0.331 OA 
HETATM   17  O   UNL     1     -11.264  15.796  71.104  1.00  0.00    -0.347 OA 
ENDBRANCH  10  13
ENDBRANCH   9  10
ENDBRANCH   8   9
ENDBRANCH   7   8
ENDBRANCH   3   7
BRANCH   6  18
HETATM   18  C   UNL     1      -8.360   7.207  70.188  1.00  0.00    -0.137 C  
BRANCH  18  19
HETATM   19  C   UNL     1      -8.921   6.065  70.978  1.00  0.00    -0.146 A  
HETATM   20  C   UNL     1      -8.275   5.621  72.110  1.00  0.00    -0.112 A  
HETATM   21  N   UNL     1      -8.787   4.720  72.961  1.00  0.00    -0.113 NA 
HETATM   22  C   UNL     1     -10.003   4.240  72.659  1.00  0.00    -0.155 A  
HETATM   23  N   UNL     1     -10.644   4.501  71.508  1.00  0.00     0.028 NA 
HETATM   24  C   UNL     1     -10.685   3.395  73.689  1.00  0.00    -0.302 C  
HETATM   25  C   UNL     1     -10.074   5.370  70.670  1.00  0.00    -0.231 A  
HETATM   26  N   UNL     1     -10.699   5.484  69.424  1.00  0.00    -0.285 NA 
HETATM   27  H1  UNL     1     -11.551   4.971  69.196  1.00  0.00     0.000 HD 
HETATM   28  H2  UNL     1     -10.005   5.268  68.708  1.00  0.00     0.000 HD 
ENDBRANCH  18  19
ENDBRANCH   6  18
TORSDOF 7
ENDMDL
MODEL      267
REMARK 921   NORMALIZED FREE ENERGY PREDICTED BY IDOCK:   -3.78 KCAL/MOL
REMARK 922        TOTAL FREE ENERGY PREDICTED BY IDOCK:   -6.31 KCAL/MOL
REMARK 923 INTER-LIGAND FREE ENERGY PREDICTED BY IDOCK:   -5.92 KCAL/MOL
REMARK 924 INTRA-LIGAND FREE ENERGY PREDICTED BY IDOCK:   -0.39 KCAL/MOL
REMARK 927      BINDING AFFINITY PREDICTED BY RF-SCORE:    0.00 PKD
ROOT
HETATM    1  C   UNL     1     -12.510  10.387  70.790  1.00  0.00    -0.461 C  
HETATM    2  C   UNL     1     -11.115  10.160  70.332  1.00  0.00    -0.324 C  
HETATM    3  C   UNL     1     -10.456  10.802  69.284  1.00  0.00    -0.217 C  
HETATM    4  C   UNL     1      -9.086   9.093  70.451  1.00  0.00    -0.233 C  
HETATM    5  S   UNL     1      -8.901  10.052  69.084  1.00  0.00    -0.179 SA 
HETATM    6  N   UNL     1     -10.288   9.243  70.996  1.00  0.00    -0.295 NA 
ENDROOT
BRANCH   3   7
HETATM    7  C   UNL     1     -10.871  11.971  68.372  1.00  0.00    -0.266 C  
BRANCH   7   8
HETATM    8  C   UNL     1      -9.679  12.412  67.512  1.00  0.00    -0.191 C  
BRANCH   8   9
HETATM    9  O   UNL     1      -8.467  12.772  68.138  1.00  0.00    -0.165 OA 
BRANCH   9  10
HETATM   10  P   UNL     1      -8.126  14.418  68.011  1.00  0.00    -0.174 P  
HETATM   11  O   UNL     1      -6.726  14.018  67.077  1.00  0.00    -0.022 OA 
HETATM   12  O   UNL     1      -7.156  14.751  69.162  1.00  0.00    -0.123 OA 
BRANCH  10  13
HETATM   13  O   UNL     1      -9.525  14.817  68.946  1.00  0.00    -0.203 OA 
HETATM   14  O   UNL     1      -9.597  16.713  67.263  1.00  0.00    -0.237 OA 
HETATM   15  P   UNL     1     -10.399  15.999  68.302  1.00  0.00    -0.283 P  
HETATM   16  O   UNL     1     -11.796  15.489  68.076  1.00  0.00    -0.277 OA 
HETATM   17  O   UNL     1     -10.553  16.946  69.594  1.00  0.00    -0.301 OA 
ENDBRANCH  10  13
ENDBRANCH   9  10
ENDBRANCH   8   9
ENDBRANCH   7   8
ENDBRANCH   3   7
BRANCH   6  18
HETATM   18  C   UNL     1     -10.565   8.549  72.265  1.00  0.00    -0.338 C  
BRANCH  18  19
HETATM   19  C   UNL     1     -10.307   7.075  72.192  1.00  0.00    -0.214 A  
HETATM   20  C   UNL     1      -9.322   6.505  72.967  1.00  0.00    -0.135 A  
HETATM   21  N   UNL     1      -9.132   5.183  73.086  1.00  0.00    -0.127 NA 
HETATM   22  C   UNL     1      -9.969   4.397  72.392  1.00  0.00    -0.173 A  
HETATM   23  N   UNL     1     -10.861   4.859  71.501  1.00  0.00     0.020 NA 
HETATM   24  C   UNL     1      -9.916   2.926  72.663  1.00  0.00    -0.221 C  
HETATM   25  C   UNL     1     -10.983   6.184  71.383  1.00  0.00    -0.277 A  
HETATM   26  N   UNL     1     -11.805   6.609  70.335  1.00  0.00    -0.508 NA 
HETATM   27  H1  UNL     1     -12.305   5.951  69.737  1.00  0.00     0.000 HD 
HETATM   28  H2  UNL     1     -11.250   7.217  69.732  1.00  0.00     0.000 HD 
ENDBRANCH  18  19
ENDBRANCH   6  18
TORSDOF 7
ENDMDL
MODEL      268
REMARK 921   NORMALIZED FREE ENERGY PREDICTED BY IDOCK:   -3.76 KCAL/MOL
REMARK 922        TOTAL FREE ENERGY PREDICTED BY IDOCK:   -6.29 KCAL/MOL
REMARK 923 INTER-LIGAND FREE ENERGY PREDICTED BY IDOCK:   -5.80 KCAL/MOL
REMARK 924 INTRA-LIGAND FREE ENERGY PREDICTED BY IDOCK:   -0.49 KCAL/MOL
REMARK 927      BINDING AFFINITY PREDICTED BY RF-SCORE:    0.00 PKD
ROOT
HETATM    1  C   UNL     1      -9.097  15.427  66.199  1.00  0.00    -0.339 C  
HETATM    2  C   UNL     1      -8.156  14.761  67.136  1.00  0.00    -0.197 C  
HETATM    3  C   UNL     1      -8.339  13.546  67.795  1.00  0.00    -0.181 C  
HETATM    4  C   UNL     1      -6.187  14.668  68.313  1.00  0.00    -0.122 C  
HETATM    5  S   UNL     1      -7.003  13.313  68.881  1.00  0.00    -0.070 SA 
HETATM    6  N   UNL     1      -6.907  15.332  67.417  1.00  0.00    -0.216 NA 
ENDROOT
BRANCH   3   7
HETATM    7  C   UNL     1      -9.450  12.484  67.701  1.00  0.00    -0.188 C  
BRANCH   7   8
HETATM    8  C   UNL     1      -9.041  11.229  68.485  1.00  0.00    -0.173 C  
BRANCH   8   9
HETATM    9  O   UNL     1     -10.037  10.343  68.945  1.00  0.00    -0.181 OA 
BRANCH   9  10
HETATM   10  P   UNL     1      -9.420   9.106  69.910  1.00  0.00    -0.215 P  
HETATM   11  O   UNL     1      -7.934   9.984  70.021  1.00  0.00    -0.175 OA 
HETATM   12  O   UNL     1      -8.679   8.142  68.961  1.00  0.00    -0.141 OA 
BRANCH  10  13
HETATM   13  O   UNL     1     -10.906   8.228  69.798  1.00  0.00    -0.241 OA 
HETATM   14  O   UNL     1      -9.805   6.937  71.683  1.00  0.00    -0.169 OA 
HETATM   15  P   UNL     1     -11.106   7.171  70.989  1.00  0.00    -0.282 P  
HETATM   16  O   UNL     1     -12.389   7.497  71.703  1.00  0.00    -0.306 OA 
HETATM   17  O   UNL     1     -11.484   5.868  70.122  1.00  0.00    -0.288 OA 
ENDBRANCH  10  13
ENDBRANCH   9  10
ENDBRANCH   8   9
ENDBRANCH   7   8
ENDBRANCH   3   7
BRANCH   6  18
HETATM   18  C   UNL     1      -6.283  16.486  66.745  1.00  0.00    -0.024 C  
BRANCH  18  19
HETATM   19  C   UNL     1      -7.041  17.761  66.952  1.00  0.00    -0.217 A  
HETATM   20  C   UNL     1      -7.544  18.452  65.872  1.00  0.00    -0.132 A  
HETATM   21  N   UNL     1      -8.365  19.506  65.973  1.00  0.00    -0.418 NA 
HETATM   22  C   UNL     1      -8.695  19.887  67.216  1.00  0.00    -0.333 A  
HETATM   23  N   UNL     1      -8.143  19.371  68.327  1.00  0.00    -0.325 NA 
HETATM   24  C   UNL     1      -9.767  20.923  67.359  1.00  0.00    -0.367 C  
HETATM   25  C   UNL     1      -7.294  18.351  68.174  1.00  0.00    -0.261 A  
HETATM   26  N   UNL     1      -6.629  17.958  69.341  1.00  0.00    -0.236 NA 
HETATM   27  H1  UNL     1      -6.817  18.394  70.244  1.00  0.00     0.000 HD 
HETATM   28  H2  UNL     1      -5.627  18.027  69.164  1.00  0.00     0.000 HD 
ENDBRANCH  18  19
ENDBRANCH   6  18
TORSDOF 7
ENDMDL
MODEL      269
REMARK 921   NORMALIZED FREE ENERGY PREDICTED BY IDOCK:   -3.76 KCAL/MOL
REMARK 922        TOTAL FREE ENERGY PREDICTED BY IDOCK:   -6.28 KCAL/MOL
REMARK 923 INTER-LIGAND FREE ENERGY PREDICTED BY IDOCK:   -5.54 KCAL/MOL
REMARK 924 INTRA-LIGAND FREE ENERGY PREDICTED BY IDOCK:   -0.75 KCAL/MOL
REMARK 927      BINDING AFFINITY PREDICTED BY RF-SCORE:    0.00 PKD
ROOT
HETATM    1  C   UNL     1      -8.248   8.403  66.955  1.00  0.00    -0.107 C  
HETATM    2  C   UNL     1      -9.008   9.006  68.081  1.00  0.00    -0.133 C  
HETATM    3  C   UNL     1      -8.785   8.819  69.445  1.00  0.00    -0.142 C  
HETATM    4  C   UNL     1     -10.690  10.321  68.922  1.00  0.00    -0.227 C  
HETATM    5  S   UNL     1     -10.051   9.632  70.315  1.00  0.00    -0.279 SA 
HETATM    6  N   UNL     1     -10.057   9.901  67.833  1.00  0.00    -0.165 NA 
ENDROOT
BRANCH   3   7
HETATM    7  C   UNL     1      -7.679   8.071  70.212  1.00  0.00    -0.086 C  
BRANCH   7   8
HETATM    8  C   UNL     1      -8.230   6.749  70.765  1.00  0.00    -0.123 C  
BRANCH   8   9
HETATM    9  O   UNL     1      -8.338   5.631  69.912  1.00  0.00    -0.113 OA 
BRANCH   9  10
HETATM   10  P   UNL     1      -9.789   4.795  70.106  1.00  0.00    -0.240 P  
HETATM   11  O   UNL     1      -9.615   4.191  68.495  1.00  0.00    -0.154 OA 
HETATM   12  O   UNL     1     -10.898   5.712  69.550  1.00  0.00    -0.324 OA 
BRANCH  10  13
HETATM   13  O   UNL     1      -9.964   5.400  71.717  1.00  0.00    -0.172 OA 
HETATM   14  O   UNL     1     -10.252   2.921  72.172  1.00  0.00    -0.158 OA 
HETATM   15  P   UNL     1     -10.001   4.240  72.826  1.00  0.00    -0.164 P  
HETATM   16  O   UNL     1      -8.890   4.489  73.810  1.00  0.00    -0.105 OA 
HETATM   17  O   UNL     1     -11.319   4.690  73.633  1.00  0.00    -0.302 OA 
ENDBRANCH  10  13
ENDBRANCH   9  10
ENDBRANCH   8   9
ENDBRANCH   7   8
ENDBRANCH   3   7
BRANCH   6  18
HETATM   18  C   UNL     1     -10.432  10.499  66.540  1.00  0.00    -0.212 C  
BRANCH  18  19
HETATM   19  C   UNL     1     -10.246  11.984  66.508  1.00  0.00    -0.232 A  
HETATM   20  C   UNL     1      -9.069  12.545  66.950  1.00  0.00    -0.213 A  
HETATM   21  N   UNL     1      -8.756  13.841  66.808  1.00  0.00    -0.148 NA 
HETATM   22  C   UNL     1      -9.668  14.610  66.197  1.00  0.00    -0.319 A  
HETATM   23  N   UNL     1     -10.899  14.188  65.864  1.00  0.00    -0.289 NA 
HETATM   24  C   UNL     1      -9.265  16.007  65.840  1.00  0.00    -0.321 C  
HETATM   25  C   UNL     1     -11.182  12.898  66.066  1.00  0.00    -0.293 A  
HETATM   26  N   UNL     1     -12.519  12.548  65.854  1.00  0.00    -0.517 NA 
HETATM   27  H1  UNL     1     -13.211  13.223  65.527  1.00  0.00     0.000 HD 
HETATM   28  H2  UNL     1     -12.872  12.133  66.717  1.00  0.00     0.000 HD 
ENDBRANCH  18  19
ENDBRANCH   6  18
TORSDOF 7
ENDMDL
MODEL      270
REMARK 921   NORMALIZED FREE ENERGY PREDICTED BY IDOCK:   -3.75 KCAL/MOL
REMARK 922        TOTAL FREE ENERGY PREDICTED BY IDOCK:   -6.28 KCAL/MOL
REMARK 923 INTER-LIGAND FREE ENERGY PREDICTED BY IDOCK:   -5.36 KCAL/MOL
REMARK 924 INTRA-LIGAND FREE ENERGY PREDICTED BY IDOCK:   -0.92 KCAL/MOL
REMARK 927      BINDING AFFINITY PREDICTED BY RF-SCORE:    0.00 PKD
ROOT
HETATM    1  C   UNL     1      -7.814  10.942  69.098  1.00  0.00    -0.119 C  
HETATM    2  C   UNL     1      -8.537  10.150  68.070  1.00  0.00    -0.118 C  
HETATM    3  C   UNL     1      -8.162   8.918  67.535  1.00  0.00    -0.109 C  
HETATM    4  C   UNL     1     -10.271   9.831  66.601  1.00  0.00    -0.226 C  
HETATM    5  S   UNL     1      -9.280   8.516  66.267  1.00  0.00    -0.218 SA 
HETATM    6  N   UNL     1      -9.759  10.602  67.553  1.00  0.00    -0.164 NA 
ENDROOT
BRANCH   3   7
HETATM    7  C   UNL     1      -7.010   7.956  67.881  1.00  0.00    -0.077 C  
BRANCH   7   8
HETATM    8  C   UNL     1      -7.350   7.171  69.156  1.00  0.00    -0.092 C  
BRANCH   8   9
HETATM    9  O   UNL     1      -7.413   7.847  70.392  1.00  0.00    -0.073 OA 
BRANCH   9  10
HETATM   10  P   UNL     1      -8.625   7.255  71.403  1.00  0.00    -0.114 P  
HETATM   11  O   UNL     1      -8.523   8.718  72.320  1.00  0.00    -0.375 OA 
HETATM   12  O   UNL     1      -7.910   6.567  72.583  1.00  0.00    -0.102 OA 
BRANCH  10  13
HETATM   13  O   UNL     1      -8.727   5.793  70.485  1.00  0.00    -0.134 OA 
HETATM   14  O   UNL     1     -11.199   6.225  70.849  1.00  0.00    -0.296 OA 
HETATM   15  P   UNL     1     -10.226   5.425  70.047  1.00  0.00    -0.296 P  
HETATM   16  O   UNL     1     -10.269   5.316  68.547  1.00  0.00    -0.174 OA 
HETATM   17  O   UNL     1     -10.273   3.892  70.533  1.00  0.00     0.026 OA 
ENDBRANCH  10  13
ENDBRANCH   9  10
ENDBRANCH   8   9
ENDBRANCH   7   8
ENDBRANCH   3   7
BRANCH   6  18
HETATM   18  C   UNL     1     -10.565  11.737  68.033  1.00  0.00    -0.206 C  
BRANCH  18  19
HETATM   19  C   UNL     1     -10.809  12.769  66.975  1.00  0.00    -0.282 A  
HETATM   20  C   UNL     1     -12.048  12.874  66.382  1.00  0.00    -0.329 A  
HETATM   21  N   UNL     1     -12.399  13.864  65.550  1.00  0.00    -0.451 NA 
HETATM   22  C   UNL     1     -11.463  14.791  65.298  1.00  0.00    -0.352 A  
HETATM   23  N   UNL     1     -10.188  14.695  65.711  1.00  0.00    -0.320 NA 
HETATM   24  C   UNL     1     -11.886  16.012  64.543  1.00  0.00    -0.027 C  
HETATM   25  C   UNL     1      -9.873  13.665  66.501  1.00  0.00    -0.293 A  
HETATM   26  N   UNL     1      -8.508  13.525  66.770  1.00  0.00    -0.437 NA 
HETATM   27  H1  UNL     1      -7.816  14.188  66.420  1.00  0.00     0.000 HD 
HETATM   28  H2  UNL     1      -8.227  12.593  66.466  1.00  0.00     0.000 HD 
ENDBRANCH  18  19
ENDBRANCH   6  18
TORSDOF 7
ENDMDL
MODEL      271
REMARK 921   NORMALIZED FREE ENERGY PREDICTED BY IDOCK:   -3.75 KCAL/MOL
REMARK 922        TOTAL FREE ENERGY PREDICTED BY IDOCK:   -6.27 KCAL/MOL
REMARK 923 INTER-LIGAND FREE ENERGY PREDICTED BY IDOCK:   -5.75 KCAL/MOL
REMARK 924 INTRA-LIGAND FREE ENERGY PREDICTED BY IDOCK:   -0.52 KCAL/MOL
REMARK 927      BINDING AFFINITY PREDICTED BY RF-SCORE:    0.00 PKD
ROOT
HETATM    1  C   UNL     1      -7.497   8.719  65.944  1.00  0.00    -0.089 C  
HETATM    2  C   UNL     1      -8.684   9.016  66.788  1.00  0.00    -0.123 C  
HETATM    3  C   UNL     1      -9.796   9.781  66.439  1.00  0.00    -0.235 C  
HETATM    4  C   UNL     1      -9.873   8.865  68.744  1.00  0.00    -0.173 C  
HETATM    5  S   UNL     1     -10.810   9.930  67.843  1.00  0.00    -0.219 SA 
HETATM    6  N   UNL     1      -8.794   8.476  68.076  1.00  0.00    -0.141 NA 
ENDROOT
BRANCH   3   7
HETATM    7  C   UNL     1     -10.213  10.444  65.114  1.00  0.00    -0.326 C  
BRANCH   7   8
HETATM    8  C   UNL     1     -10.584  11.913  65.357  1.00  0.00    -0.271 C  
BRANCH   8   9
HETATM    9  O   UNL     1     -11.913  12.248  65.687  1.00  0.00    -0.487 OA 
BRANCH   9  10
HETATM   10  P   UNL     1     -12.065  13.817  66.285  1.00  0.00    -0.435 P  
HETATM   11  O   UNL     1     -13.130  14.176  64.970  1.00  0.00    -0.728 OA 
HETATM   12  O   UNL     1     -11.011  14.668  65.549  1.00  0.00    -0.311 OA 
BRANCH  10  13
HETATM   13  O   UNL     1     -11.000  13.459  67.600  1.00  0.00    -0.251 OA 
HETATM   14  O   UNL     1     -11.770  15.768  68.310  1.00  0.00    -0.345 OA 
HETATM   15  P   UNL     1     -11.080  14.533  68.789  1.00  0.00    -0.279 P  
HETATM   16  O   UNL     1     -11.443  13.811  70.058  1.00  0.00    -0.219 OA 
HETATM   17  O   UNL     1      -9.511  14.840  68.971  1.00  0.00    -0.208 OA 
ENDBRANCH  10  13
ENDBRANCH   9  10
ENDBRANCH   8   9
ENDBRANCH   7   8
ENDBRANCH   3   7
BRANCH   6  18
HETATM   18  C   UNL     1      -7.928   7.456  68.693  1.00  0.00    -0.123 C  
BRANCH  18  19
HETATM   19  C   UNL     1      -8.112   6.095  68.096  1.00  0.00    -0.111 A  
HETATM   20  C   UNL     1      -9.367   5.530  68.031  1.00  0.00    -0.110 A  
HETATM   21  N   UNL     1      -9.645   4.396  67.373  1.00  0.00    -0.174 NA 
HETATM   22  C   UNL     1      -8.616   3.799  66.753  1.00  0.00    -0.108 A  
HETATM   23  N   UNL     1      -7.338   4.193  66.880  1.00  0.00    -0.072 NA 
HETATM   24  C   UNL     1      -8.930   2.653  65.843  1.00  0.00    -0.131 C  
HETATM   25  C   UNL     1      -7.104   5.304  67.584  1.00  0.00    -0.067 A  
HETATM   26  N   UNL     1      -5.752   5.578  67.819  1.00  0.00    -0.012 NA 
HETATM   27  H1  UNL     1      -5.007   4.993  67.440  1.00  0.00     0.000 HD 
HETATM   28  H2  UNL     1      -5.619   5.638  68.828  1.00  0.00     0.000 HD 
ENDBRANCH  18  19
ENDBRANCH   6  18
TORSDOF 7
ENDMDL
MODEL      272
REMARK 921   NORMALIZED FREE ENERGY PREDICTED BY IDOCK:   -3.74 KCAL/MOL
REMARK 922        TOTAL FREE ENERGY PREDICTED BY IDOCK:   -6.26 KCAL/MOL
REMARK 923 INTER-LIGAND FREE ENERGY PREDICTED BY IDOCK:   -5.61 KCAL/MOL
REMARK 924 INTRA-LIGAND FREE ENERGY PREDICTED BY IDOCK:   -0.65 KCAL/MOL
REMARK 927      BINDING AFFINITY PREDICTED BY RF-SCORE:    0.00 PKD
ROOT
HETATM    1  C   UNL     1      -9.831  10.094  69.636  1.00  0.00    -0.254 C  
HETATM    2  C   UNL     1      -8.515  10.332  68.988  1.00  0.00    -0.150 C  
HETATM    3  C   UNL     1      -7.441   9.446  68.908  1.00  0.00    -0.074 C  
HETATM    4  C   UNL     1      -7.023  11.650  67.845  1.00  0.00    -0.080 C  
HETATM    5  S   UNL     1      -6.104  10.284  68.181  1.00  0.00    -0.047 SA 
HETATM    6  N   UNL     1      -8.254  11.542  68.330  1.00  0.00    -0.145 NA 
ENDROOT
BRANCH   3   7
HETATM    7  C   UNL     1      -7.292   7.973  69.328  1.00  0.00    -0.081 C  
BRANCH   7   8
HETATM    8  C   UNL     1      -7.192   7.872  70.856  1.00  0.00    -0.053 C  
BRANCH   8   9
HETATM    9  O   UNL     1      -7.002   6.612  71.458  1.00  0.00    -0.068 OA 
BRANCH   9  10
HETATM   10  P   UNL     1      -7.915   6.409  72.861  1.00  0.00    -0.105 P  
HETATM   11  O   UNL     1      -6.448   6.124  73.731  1.00  0.00    -0.068 OA 
HETATM   12  O   UNL     1      -8.185   4.897  72.991  1.00  0.00    -0.100 OA 
BRANCH  10  13
HETATM   13  O   UNL     1      -9.383   6.695  71.991  1.00  0.00    -0.144 OA 
HETATM   14  O   UNL     1     -10.280   6.806  74.360  1.00  0.00    -0.355 OA 
HETATM   15  P   UNL     1     -10.606   7.122  72.938  1.00  0.00    -0.345 P  
HETATM   16  O   UNL     1     -11.121   8.457  72.474  1.00  0.00    -0.361 OA 
HETATM   17  O   UNL     1     -11.720   6.089  72.408  1.00  0.00    -0.309 OA 
ENDBRANCH  10  13
ENDBRANCH   9  10
ENDBRANCH   8   9
ENDBRANCH   7   8
ENDBRANCH   3   7
BRANCH   6  18
HETATM   18  C   UNL     1      -9.216  12.615  68.023  1.00  0.00    -0.208 C  
BRANCH  18  19
HETATM   19  C   UNL     1      -9.825  12.482  66.662  1.00  0.00    -0.245 A  
HETATM   20  C   UNL     1     -10.211  11.246  66.193  1.00  0.00    -0.245 A  
HETATM   21  N   UNL     1     -10.907  11.056  65.063  1.00  0.00    -0.185 NA 
HETATM   22  C   UNL     1     -11.228  12.158  64.369  1.00  0.00    -0.341 A  
HETATM   23  N   UNL     1     -10.774  13.387  64.668  1.00  0.00    -0.389 NA 
HETATM   24  C   UNL     1     -12.175  11.999  63.221  1.00  0.00    -0.531 C  
HETATM   25  C   UNL     1     -10.045  13.520  65.779  1.00  0.00    -0.287 A  
HETATM   26  N   UNL     1      -9.467  14.781  65.957  1.00  0.00    -0.431 NA 
HETATM   27  H1  UNL     1      -9.630  15.549  65.305  1.00  0.00     0.000 HD 
HETATM   28  H2  UNL     1      -8.459  14.651  66.039  1.00  0.00     0.000 HD 
ENDBRANCH  18  19
ENDBRANCH   6  18
TORSDOF 7
ENDMDL
MODEL      273
REMARK 921   NORMALIZED FREE ENERGY PREDICTED BY IDOCK:   -3.67 KCAL/MOL
REMARK 922        TOTAL FREE ENERGY PREDICTED BY IDOCK:   -6.16 KCAL/MOL
REMARK 923 INTER-LIGAND FREE ENERGY PREDICTED BY IDOCK:   -5.81 KCAL/MOL
REMARK 924 INTRA-LIGAND FREE ENERGY PREDICTED BY IDOCK:   -0.35 KCAL/MOL
REMARK 927      BINDING AFFINITY PREDICTED BY RF-SCORE:    0.00 PKD
ROOT
HETATM    1  C   UNL     1      -8.392  10.426  68.659  1.00  0.00    -0.127 C  
HETATM    2  C   UNL     1      -9.697  10.384  69.369  1.00  0.00    -0.200 C  
HETATM    3  C   UNL     1     -10.919  10.885  68.921  1.00  0.00    -0.229 C  
HETATM    4  C   UNL     1     -11.012   9.842  71.170  1.00  0.00    -0.316 C  
HETATM    5  S   UNL     1     -12.078  10.707  70.202  1.00  0.00    -0.335 SA 
HETATM    6  N   UNL     1      -9.808   9.758  70.618  1.00  0.00    -0.192 NA 
ENDROOT
BRANCH   3   7
HETATM    7  C   UNL     1     -11.343  11.508  67.578  1.00  0.00    -0.366 C  
BRANCH   7   8
HETATM    8  C   UNL     1     -10.399  11.039  66.463  1.00  0.00    -0.245 C  
BRANCH   8   9
HETATM    9  O   UNL     1      -9.705  11.994  65.692  1.00  0.00    -0.241 OA 
BRANCH   9  10
HETATM   10  P   UNL     1     -10.031  11.872  64.043  1.00  0.00    -0.245 P  
HETATM   11  O   UNL     1     -10.203  13.592  63.986  1.00  0.00    -0.274 OA 
HETATM   12  O   UNL     1     -11.565  11.801  63.907  1.00  0.00    -0.390 OA 
BRANCH  10  13
HETATM   13  O   UNL     1      -9.859  10.152  64.100  1.00  0.00    -0.305 OA 
HETATM   14  O   UNL     1      -7.560  10.768  63.226  1.00  0.00     0.018 OA 
HETATM   15  P   UNL     1      -8.357   9.658  63.828  1.00  0.00    -0.205 P  
HETATM   16  O   UNL     1      -7.902   8.846  65.010  1.00  0.00    -0.102 OA 
HETATM   17  O   UNL     1      -8.647   8.544  62.702  1.00  0.00    -0.173 OA 
ENDBRANCH  10  13
ENDBRANCH   9  10
ENDBRANCH   8   9
ENDBRANCH   7   8
ENDBRANCH   3   7
BRANCH   6  18
HETATM   18  C   UNL     1      -8.790   8.937  71.297  1.00  0.00    -0.231 C  
BRANCH  18  19
HETATM   19  C   UNL     1      -9.332   7.634  71.800  1.00  0.00    -0.176 A  
HETATM   20  C   UNL     1      -9.121   7.254  73.107  1.00  0.00    -0.153 A  
HETATM   21  N   UNL     1      -9.702   6.192  73.682  1.00  0.00    -0.158 NA 
HETATM   22  C   UNL     1     -10.531   5.475  72.908  1.00  0.00    -0.214 A  
HETATM   23  N   UNL     1     -10.686   5.680  71.590  1.00  0.00    -0.251 NA 
HETATM   24  C   UNL     1     -11.349   4.413  73.573  1.00  0.00    -0.334 C  
HETATM   25  C   UNL     1     -10.050   6.724  71.051  1.00  0.00    -0.189 A  
HETATM   26  N   UNL     1     -10.116   6.798  69.656  1.00  0.00    -0.179 NA 
HETATM   27  H1  UNL     1     -10.647   6.125  69.102  1.00  0.00     0.000 HD 
HETATM   28  H2  UNL     1      -9.160   6.807  69.301  1.00  0.00     0.000 HD 
ENDBRANCH  18  19
ENDBRANCH   6  18
TORSDOF 7
ENDMDL
MODEL      274
REMARK 921   NORMALIZED FREE ENERGY PREDICTED BY IDOCK:   -3.66 KCAL/MOL
REMARK 922        TOTAL FREE ENERGY PREDICTED BY IDOCK:   -6.14 KCAL/MOL
REMARK 923 INTER-LIGAND FREE ENERGY PREDICTED BY IDOCK:   -5.95 KCAL/MOL
REMARK 924 INTRA-LIGAND FREE ENERGY PREDICTED BY IDOCK:   -0.19 KCAL/MOL
REMARK 927      BINDING AFFINITY PREDICTED BY RF-SCORE:    0.00 PKD
ROOT
HETATM    1  C   UNL     1     -11.149   7.596  67.350  1.00  0.00     0.081 C  
HETATM    2  C   UNL     1     -10.056   8.294  68.075  1.00  0.00    -0.198 C  
HETATM    3  C   UNL     1      -8.793   7.790  68.386  1.00  0.00    -0.130 C  
HETATM    4  C   UNL     1      -9.187  10.107  69.182  1.00  0.00    -0.197 C  
HETATM    5  S   UNL     1      -7.971   8.964  69.369  1.00  0.00    -0.102 SA 
HETATM    6  N   UNL     1     -10.215   9.622  68.496  1.00  0.00    -0.185 NA 
ENDROOT
BRANCH   3   7
HETATM    7  C   UNL     1      -8.094   6.470  68.013  1.00  0.00    -0.113 C  
BRANCH   7   8
HETATM    8  C   UNL     1      -8.693   5.313  68.824  1.00  0.00    -0.090 C  
BRANCH   8   9
HETATM    9  O   UNL     1      -9.340   5.585  70.048  1.00  0.00    -0.141 OA 
BRANCH   9  10
HETATM   10  P   UNL     1      -8.549   4.908  71.373  1.00  0.00    -0.128 P  
HETATM   11  O   UNL     1      -8.277   3.480  70.436  1.00  0.00    -0.052 OA 
HETATM   12  O   UNL     1      -9.608   4.095  72.145  1.00  0.00    -0.133 OA 
BRANCH  10  13
HETATM   13  O   UNL     1      -8.820   6.336  72.311  1.00  0.00    -0.136 OA 
HETATM   14  O   UNL     1     -11.163   5.984  71.407  1.00  0.00    -0.284 OA 
HETATM   15  P   UNL     1     -10.372   6.725  72.434  1.00  0.00    -0.207 P  
HETATM   16  O   UNL     1     -10.735   6.777  73.892  1.00  0.00    -0.310 OA 
HETATM   17  O   UNL     1     -10.286   8.278  72.016  1.00  0.00    -0.232 OA 
ENDBRANCH  10  13
ENDBRANCH   9  10
ENDBRANCH   8   9
ENDBRANCH   7   8
ENDBRANCH   3   7
BRANCH   6  18
HETATM   18  C   UNL     1     -11.316  10.539  68.155  1.00  0.00    -0.254 C  
BRANCH  18  19
HETATM   19  C   UNL     1     -11.833  11.295  69.340  1.00  0.00    -0.424 A  
HETATM   20  C   UNL     1     -11.631  12.655  69.436  1.00  0.00    -0.306 A  
HETATM   21  N   UNL     1     -12.194  13.431  70.372  1.00  0.00    -0.356 NA 
HETATM   22  C   UNL     1     -12.994  12.815  71.255  1.00  0.00    -0.220 A  
HETATM   23  N   UNL     1     -13.135  11.481  71.331  1.00  0.00    -0.337 NA 
HETATM   24  C   UNL     1     -13.795  13.678  72.179  1.00  0.00    -0.642 C  
HETATM   25  C   UNL     1     -12.518  10.744  70.404  1.00  0.00    -0.347 A  
HETATM   26  N   UNL     1     -12.565   9.363  70.622  1.00  0.00    -0.507 NA 
HETATM   27  H1  UNL     1     -13.072   8.956  71.408  1.00  0.00     0.000 HD 
HETATM   28  H2  UNL     1     -11.605   9.023  70.660  1.00  0.00     0.000 HD 
ENDBRANCH  18  19
ENDBRANCH   6  18
TORSDOF 7
ENDMDL
MODEL      275
REMARK 921   NORMALIZED FREE ENERGY PREDICTED BY IDOCK:   -3.65 KCAL/MOL
REMARK 922        TOTAL FREE ENERGY PREDICTED BY IDOCK:   -6.13 KCAL/MOL
REMARK 923 INTER-LIGAND FREE ENERGY PREDICTED BY IDOCK:   -4.84 KCAL/MOL
REMARK 924 INTRA-LIGAND FREE ENERGY PREDICTED BY IDOCK:   -1.29 KCAL/MOL
REMARK 927      BINDING AFFINITY PREDICTED BY RF-SCORE:    0.00 PKD
ROOT
HETATM    1  C   UNL     1      -7.020   6.496  68.879  1.00  0.00    -0.079 C  
HETATM    2  C   UNL     1      -7.915   5.321  69.044  1.00  0.00    -0.086 C  
HETATM    3  C   UNL     1      -8.760   5.049  70.120  1.00  0.00    -0.109 C  
HETATM    4  C   UNL     1      -8.798   3.325  68.335  1.00  0.00    -0.118 C  
HETATM    5  S   UNL     1      -9.461   3.479  69.872  1.00  0.00    -0.157 SA 
HETATM    6  N   UNL     1      -8.009   4.350  68.038  1.00  0.00    -0.080 NA 
ENDROOT
BRANCH   3   7
HETATM    7  C   UNL     1      -9.127   5.868  71.371  1.00  0.00    -0.148 C  
BRANCH   7   8
HETATM    8  C   UNL     1     -10.603   5.647  71.726  1.00  0.00    -0.238 C  
BRANCH   8   9
HETATM    9  O   UNL     1     -11.566   6.592  71.316  1.00  0.00    -0.291 OA 
BRANCH   9  10
HETATM   10  P   UNL     1     -11.152   8.173  71.730  1.00  0.00    -0.314 P  
HETATM   11  O   UNL     1     -10.901   7.643  73.357  1.00  0.00    -0.380 OA 
HETATM   12  O   UNL     1     -12.444   8.843  72.239  1.00  0.00    -0.372 OA 
BRANCH  10  13
HETATM   13  O   UNL     1     -11.403   8.704  70.102  1.00  0.00    -0.202 OA 
HETATM   14  O   UNL     1      -8.930   9.221  70.328  1.00  0.00    -0.189 OA 
HETATM   15  P   UNL     1     -10.039   9.069  69.340  1.00  0.00    -0.211 P  
HETATM   16  O   UNL     1      -9.945   8.220  68.101  1.00  0.00    -0.177 OA 
HETATM   17  O   UNL     1     -10.439  10.519  68.767  1.00  0.00    -0.174 OA 
ENDBRANCH  10  13
ENDBRANCH   9  10
ENDBRANCH   8   9
ENDBRANCH   7   8
ENDBRANCH   3   7
BRANCH   6  18
HETATM   18  C   UNL     1      -7.437   4.414  66.682  1.00  0.00    -0.082 C  
BRANCH  18  19
HETATM   19  C   UNL     1      -8.396   3.963  65.623  1.00  0.00    -0.109 A  
HETATM   20  C   UNL     1      -8.084   2.890  64.817  1.00  0.00    -0.086 A  
HETATM   21  N   UNL     1      -8.944   2.321  63.961  1.00  0.00    -0.097 NA 
HETATM   22  C   UNL     1     -10.173   2.856  63.907  1.00  0.00    -0.156 A  
HETATM   23  N   UNL     1     -10.523   3.987  64.542  1.00  0.00    -0.236 NA 
HETATM   24  C   UNL     1     -11.211   2.121  63.118  1.00  0.00    -0.189 C  
HETATM   25  C   UNL     1      -9.617   4.545  65.350  1.00  0.00    -0.179 A  
HETATM   26  N   UNL     1      -9.973   5.798  65.859  1.00  0.00    -0.386 NA 
HETATM   27  H1  UNL     1     -10.876   6.228  65.657  1.00  0.00     0.000 HD 
HETATM   28  H2  UNL     1      -9.247   6.460  65.588  1.00  0.00     0.000 HD 
ENDBRANCH  18  19
ENDBRANCH   6  18
TORSDOF 7
ENDMDL
MODEL      276
REMARK 921   NORMALIZED FREE ENERGY PREDICTED BY IDOCK:   -3.63 KCAL/MOL
REMARK 922        TOTAL FREE ENERGY PREDICTED BY IDOCK:   -6.10 KCAL/MOL
REMARK 923 INTER-LIGAND FREE ENERGY PREDICTED BY IDOCK:   -5.05 KCAL/MOL
REMARK 924 INTRA-LIGAND FREE ENERGY PREDICTED BY IDOCK:   -1.05 KCAL/MOL
REMARK 927      BINDING AFFINITY PREDICTED BY RF-SCORE:    0.00 PKD
ROOT
HETATM    1  C   UNL     1      -7.512   8.320  67.069  1.00  0.00    -0.088 C  
HETATM    2  C   UNL     1      -8.712   7.796  67.771  1.00  0.00    -0.123 C  
HETATM    3  C   UNL     1      -9.120   6.467  67.868  1.00  0.00    -0.112 C  
HETATM    4  C   UNL     1     -10.629   8.078  69.001  1.00  0.00    -0.154 C  
HETATM    5  S   UNL     1     -10.664   6.432  68.665  1.00  0.00    -0.313 SA 
HETATM    6  N   UNL     1      -9.564   8.664  68.468  1.00  0.00    -0.152 NA 
ENDROOT
BRANCH   3   7
HETATM    7  C   UNL     1      -8.456   5.153  67.416  1.00  0.00    -0.105 C  
BRANCH   7   8
HETATM    8  C   UNL     1      -9.506   4.037  67.336  1.00  0.00    -0.192 C  
BRANCH   8   9
HETATM    9  O   UNL     1      -9.459   3.114  66.270  1.00  0.00    -0.137 OA 
BRANCH   9  10
HETATM   10  P   UNL     1      -9.623   3.846  64.760  1.00  0.00    -0.192 P  
HETATM   11  O   UNL     1     -11.143   4.489  65.277  1.00  0.00    -0.221 OA 
HETATM   12  O   UNL     1     -10.432   2.867  63.887  1.00  0.00    -0.179 OA 
BRANCH  10  13
HETATM   13  O   UNL     1      -8.102   3.203  64.243  1.00  0.00    -0.082 OA 
HETATM   14  O   UNL     1      -7.589   5.679  64.053  1.00  0.00    -0.065 OA 
HETATM   15  P   UNL     1      -6.965   4.323  64.082  1.00  0.00    -0.047 P  
HETATM   16  O   UNL     1      -5.806   3.954  64.967  1.00  0.00    -0.020 OA 
HETATM   17  O   UNL     1      -6.439   3.952  62.607  1.00  0.00    -0.021 OA 
ENDBRANCH  10  13
ENDBRANCH   9  10
ENDBRANCH   8   9
ENDBRANCH   7   8
ENDBRANCH   3   7
BRANCH   6  18
HETATM   18  C   UNL     1      -9.335  10.089  68.766  1.00  0.00    -0.162 C  
BRANCH  18  19
HETATM   19  C   UNL     1     -10.091  11.004  67.853  1.00  0.00    -0.199 A  
HETATM   20  C   UNL     1      -9.603  11.289  66.597  1.00  0.00    -0.195 A  
HETATM   21  N   UNL     1     -10.288  11.962  65.662  1.00  0.00    -0.238 NA 
HETATM   22  C   UNL     1     -11.518  12.373  66.004  1.00  0.00    -0.382 A  
HETATM   23  N   UNL     1     -12.020  12.271  67.246  1.00  0.00    -0.559 NA 
HETATM   24  C   UNL     1     -12.381  12.942  64.922  1.00  0.00    -0.532 C  
HETATM   25  C   UNL     1     -11.282  11.632  68.158  1.00  0.00    -0.263 A  
HETATM   26  N   UNL     1     -11.777  11.694  69.464  1.00  0.00    -0.316 NA 
HETATM   27  H1  UNL     1     -12.657  12.158  69.689  1.00  0.00     0.000 HD 
HETATM   28  H2  UNL     1     -11.050  12.104  70.051  1.00  0.00     0.000 HD 
ENDBRANCH  18  19
ENDBRANCH   6  18
TORSDOF 7
ENDMDL
MODEL      277
REMARK 921   NORMALIZED FREE ENERGY PREDICTED BY IDOCK:   -3.62 KCAL/MOL
REMARK 922        TOTAL FREE ENERGY PREDICTED BY IDOCK:   -6.09 KCAL/MOL
REMARK 923 INTER-LIGAND FREE ENERGY PREDICTED BY IDOCK:   -4.58 KCAL/MOL
REMARK 924 INTRA-LIGAND FREE ENERGY PREDICTED BY IDOCK:   -1.51 KCAL/MOL
REMARK 927      BINDING AFFINITY PREDICTED BY RF-SCORE:    0.00 PKD
ROOT
HETATM    1  C   UNL     1      -6.357   8.563  66.205  1.00  0.00    -0.057 C  
HETATM    2  C   UNL     1      -6.921   9.007  67.507  1.00  0.00    -0.078 C  
HETATM    3  C   UNL     1      -6.812   8.361  68.738  1.00  0.00    -0.062 C  
HETATM    4  C   UNL     1      -8.124  10.466  68.807  1.00  0.00    -0.125 C  
HETATM    5  S   UNL     1      -7.781   9.229  69.890  1.00  0.00    -0.117 SA 
HETATM    6  N   UNL     1      -7.624  10.216  67.603  1.00  0.00    -0.090 NA 
ENDROOT
BRANCH   3   7
HETATM    7  C   UNL     1      -6.027   7.112  69.176  1.00  0.00    -0.022 C  
BRANCH   7   8
HETATM    8  C   UNL     1      -7.001   5.997  69.580  1.00  0.00    -0.067 C  
BRANCH   8   9
HETATM    9  O   UNL     1      -7.038   4.802  68.832  1.00  0.00    -0.051 OA 
BRANCH   9  10
HETATM   10  P   UNL     1      -8.374   4.711  67.807  1.00  0.00    -0.103 P  
HETATM   11  O   UNL     1      -7.614   3.387  66.995  1.00  0.00    -0.077 OA 
HETATM   12  O   UNL     1      -8.029   5.558  66.566  1.00  0.00    -0.100 OA 
BRANCH  10  13
HETATM   13  O   UNL     1      -9.134   6.035  68.620  1.00  0.00    -0.117 OA 
HETATM   14  O   UNL     1     -10.932   5.514  66.910  1.00  0.00    -0.212 OA 
HETATM   15  P   UNL     1     -10.660   6.257  68.176  1.00  0.00    -0.308 P  
HETATM   16  O   UNL     1     -11.528   6.170  69.401  1.00  0.00    -0.423 OA 
HETATM   17  O   UNL     1     -10.615   7.835  67.863  1.00  0.00    -0.209 OA 
ENDBRANCH  10  13
ENDBRANCH   9  10
ENDBRANCH   8   9
ENDBRANCH   7   8
ENDBRANCH   3   7
BRANCH   6  18
HETATM   18  C   UNL     1      -7.748  11.259  66.570  1.00  0.00    -0.125 C  
BRANCH  18  19
HETATM   19  C   UNL     1      -9.172  11.578  66.232  1.00  0.00    -0.222 A  
HETATM   20  C   UNL     1      -9.732  12.769  66.642  1.00  0.00    -0.252 A  
HETATM   21  N   UNL     1     -10.937  13.204  66.249  1.00  0.00    -0.278 NA 
HETATM   22  C   UNL     1     -11.614  12.408  65.409  1.00  0.00    -0.381 A  
HETATM   23  N   UNL     1     -11.217  11.169  65.072  1.00  0.00    -0.030 NA 
HETATM   24  C   UNL     1     -12.863  12.957  64.794  1.00  0.00    -0.359 C  
HETATM   25  C   UNL     1     -10.029  10.760  65.524  1.00  0.00    -0.263 A  
HETATM   26  N   UNL     1      -9.737   9.414  65.279  1.00  0.00    -0.453 NA 
HETATM   27  H1  UNL     1     -10.370   8.809  64.755  1.00  0.00     0.000 HD 
HETATM   28  H2  UNL     1      -9.552   8.968  66.177  1.00  0.00     0.000 HD 
ENDBRANCH  18  19
ENDBRANCH   6  18
TORSDOF 7
ENDMDL
MODEL      278
REMARK 921   NORMALIZED FREE ENERGY PREDICTED BY IDOCK:   -3.62 KCAL/MOL
REMARK 922        TOTAL FREE ENERGY PREDICTED BY IDOCK:   -6.09 KCAL/MOL
REMARK 923 INTER-LIGAND FREE ENERGY PREDICTED BY IDOCK:   -5.34 KCAL/MOL
REMARK 924 INTRA-LIGAND FREE ENERGY PREDICTED BY IDOCK:   -0.75 KCAL/MOL
REMARK 927      BINDING AFFINITY PREDICTED BY RF-SCORE:    0.00 PKD
ROOT
HETATM    1  C   UNL     1      -7.625   8.239  69.911  1.00  0.00    -0.080 C  
HETATM    2  C   UNL     1      -8.121   7.173  69.002  1.00  0.00    -0.121 C  
HETATM    3  C   UNL     1      -7.762   6.966  67.670  1.00  0.00    -0.111 C  
HETATM    4  C   UNL     1      -9.431   5.347  68.537  1.00  0.00    -0.123 C  
HETATM    5  S   UNL     1      -8.748   5.682  67.039  1.00  0.00    -0.108 SA 
HETATM    6  N   UNL     1      -9.023   6.205  69.464  1.00  0.00    -0.132 NA 
ENDROOT
BRANCH   3   7
HETATM    7  C   UNL     1      -6.714   7.646  66.771  1.00  0.00    -0.066 C  
BRANCH   7   8
HETATM    8  C   UNL     1      -7.005   9.150  66.674  1.00  0.00    -0.081 C  
BRANCH   8   9
HETATM    9  O   UNL     1      -8.327   9.589  66.456  1.00  0.00    -0.117 OA 
BRANCH   9  10
HETATM   10  P   UNL     1      -8.633  11.108  67.121  1.00  0.00    -0.148 P  
HETATM   11  O   UNL     1      -6.926  11.373  67.207  1.00  0.00    -0.097 OA 
HETATM   12  O   UNL     1      -8.595  10.929  68.652  1.00  0.00    -0.140 OA 
BRANCH  10  13
HETATM   13  O   UNL     1     -10.340  10.842  67.035  1.00  0.00    -0.211 OA 
HETATM   14  O   UNL     1     -10.330  13.355  67.377  1.00  0.00    -0.237 OA 
HETATM   15  P   UNL     1     -11.189  12.202  66.971  1.00  0.00    -0.345 P  
HETATM   16  O   UNL     1     -12.025  12.182  65.720  1.00  0.00    -0.536 OA 
HETATM   17  O   UNL     1     -12.256  11.901  68.137  1.00  0.00    -0.470 OA 
ENDBRANCH  10  13
ENDBRANCH   9  10
ENDBRANCH   8   9
ENDBRANCH   7   8
ENDBRANCH   3   7
BRANCH   6  18
HETATM   18  C   UNL     1      -9.451   5.978  70.855  1.00  0.00    -0.168 C  
BRANCH  18  19
HETATM   19  C   UNL     1     -10.582   6.867  71.271  1.00  0.00    -0.244 A  
HETATM   20  C   UNL     1     -11.596   7.159  70.386  1.00  0.00    -0.258 A  
HETATM   21  N   UNL     1     -12.720   7.808  70.721  1.00  0.00     0.044 NA 
HETATM   22  C   UNL     1     -12.830   8.184  72.004  1.00  0.00    -0.318 A  
HETATM   23  N   UNL     1     -11.837   8.075  72.902  1.00  0.00    -0.251 NA 
HETATM   24  C   UNL     1     -14.152   8.723  72.453  1.00  0.00    -0.485 C  
HETATM   25  C   UNL     1     -10.717   7.462  72.509  1.00  0.00    -0.272 A  
HETATM   26  N   UNL     1      -9.663   7.516  73.427  1.00  0.00    -0.267 NA 
HETATM   27  H1  UNL     1      -9.764   7.955  74.342  1.00  0.00     0.000 HD 
HETATM   28  H2  UNL     1      -8.868   7.950  72.959  1.00  0.00     0.000 HD 
ENDBRANCH  18  19
ENDBRANCH   6  18
TORSDOF 7
ENDMDL
MODEL      279
REMARK 921   NORMALIZED FREE ENERGY PREDICTED BY IDOCK:   -3.62 KCAL/MOL
REMARK 922        TOTAL FREE ENERGY PREDICTED BY IDOCK:   -6.08 KCAL/MOL
REMARK 923 INTER-LIGAND FREE ENERGY PREDICTED BY IDOCK:   -5.68 KCAL/MOL
REMARK 924 INTRA-LIGAND FREE ENERGY PREDICTED BY IDOCK:   -0.40 KCAL/MOL
REMARK 927      BINDING AFFINITY PREDICTED BY RF-SCORE:    0.00 PKD
ROOT
HETATM    1  C   UNL     1      -9.145  15.370  66.190  1.00  0.00    -0.339 C  
HETATM    2  C   UNL     1      -8.326  14.608  67.169  1.00  0.00    -0.211 C  
HETATM    3  C   UNL     1      -8.639  13.384  67.759  1.00  0.00    -0.194 C  
HETATM    4  C   UNL     1      -6.469  14.341  68.491  1.00  0.00    -0.095 C  
HETATM    5  S   UNL     1      -7.411  13.023  68.935  1.00  0.00     0.086 SA 
HETATM    6  N   UNL     1      -7.070  15.085  67.570  1.00  0.00    -0.191 NA 
ENDROOT
BRANCH   3   7
HETATM    7  C   UNL     1      -9.802  12.402  67.533  1.00  0.00    -0.194 C  
BRANCH   7   8
HETATM    8  C   UNL     1      -9.461  11.037  68.145  1.00  0.00    -0.172 C  
BRANCH   8   9
HETATM    9  O   UNL     1     -10.502  10.159  68.509  1.00  0.00    -0.177 OA 
BRANCH   9  10
HETATM   10  P   UNL     1      -9.942   8.719  69.183  1.00  0.00    -0.201 P  
HETATM   11  O   UNL     1     -10.565   7.875  67.808  1.00  0.00    -0.223 OA 
HETATM   12  O   UNL     1     -11.121   8.120  69.976  1.00  0.00    -0.233 OA 
BRANCH  10  13
HETATM   13  O   UNL     1      -9.319   9.562  70.558  1.00  0.00    -0.252 OA 
HETATM   14  O   UNL     1      -7.484   7.836  70.267  1.00  0.00    -0.076 OA 
HETATM   15  P   UNL     1      -7.826   9.120  70.947  1.00  0.00    -0.034 P  
HETATM   16  O   UNL     1      -6.947  10.341  70.921  1.00  0.00    -0.321 OA 
HETATM   17  O   UNL     1      -8.035   8.847  72.520  1.00  0.00    -0.374 OA 
ENDBRANCH  10  13
ENDBRANCH   9  10
ENDBRANCH   8   9
ENDBRANCH   7   8
ENDBRANCH   3   7
BRANCH   6  18
HETATM   18  C   UNL     1      -6.324  16.219  67.000  1.00  0.00    -0.099 C  
BRANCH  18  19
HETATM   19  C   UNL     1      -7.047  17.524  67.139  1.00  0.00    -0.198 A  
HETATM   20  C   UNL     1      -7.435  18.224  66.018  1.00  0.00    -0.220 A  
HETATM   21  N   UNL     1      -8.222  19.308  66.048  1.00  0.00    -0.440 NA 
HETATM   22  C   UNL     1      -8.636  19.712  67.258  1.00  0.00    -0.308 A  
HETATM   23  N   UNL     1      -8.194  19.184  68.412  1.00  0.00    -0.336 NA 
HETATM   24  C   UNL     1      -9.675  20.787  67.309  1.00  0.00    -0.487 C  
HETATM   25  C   UNL     1      -7.374  18.133  68.333  1.00  0.00    -0.270 A  
HETATM   26  N   UNL     1      -6.820  17.725  69.551  1.00  0.00    -0.123 NA 
HETATM   27  H1  UNL     1      -7.062  18.175  70.434  1.00  0.00     0.000 HD 
HETATM   28  H2  UNL     1      -5.805  17.755  69.455  1.00  0.00     0.000 HD 
ENDBRANCH  18  19
ENDBRANCH   6  18
TORSDOF 7
ENDMDL
MODEL      280
REMARK 921   NORMALIZED FREE ENERGY PREDICTED BY IDOCK:   -3.59 KCAL/MOL
REMARK 922        TOTAL FREE ENERGY PREDICTED BY IDOCK:   -6.04 KCAL/MOL
REMARK 923 INTER-LIGAND FREE ENERGY PREDICTED BY IDOCK:   -5.28 KCAL/MOL
REMARK 924 INTRA-LIGAND FREE ENERGY PREDICTED BY IDOCK:   -0.77 KCAL/MOL
REMARK 927      BINDING AFFINITY PREDICTED BY RF-SCORE:    0.00 PKD
ROOT
HETATM    1  C   UNL     1     -10.049   9.299  71.314  1.00  0.00    -0.361 C  
HETATM    2  C   UNL     1      -9.945   8.513  70.057  1.00  0.00    -0.188 C  
HETATM    3  C   UNL     1     -10.458   8.851  68.805  1.00  0.00    -0.200 C  
HETATM    4  C   UNL     1      -9.271   6.673  68.862  1.00  0.00    -0.130 C  
HETATM    5  S   UNL     1     -10.183   7.514  67.730  1.00  0.00    -0.216 SA 
HETATM    6  N   UNL     1      -9.238   7.303  70.030  1.00  0.00    -0.148 NA 
ENDROOT
BRANCH   3   7
HETATM    7  C   UNL     1     -11.161  10.121  68.292  1.00  0.00    -0.246 C  
BRANCH   7   8
HETATM    8  C   UNL     1     -10.137  11.251  68.116  1.00  0.00    -0.182 C  
BRANCH   8   9
HETATM    9  O   UNL     1     -10.587  12.575  67.938  1.00  0.00    -0.209 OA 
BRANCH   9  10
HETATM   10  P   UNL     1      -9.559  13.494  66.968  1.00  0.00    -0.261 P  
HETATM   11  O   UNL     1      -9.520  12.186  65.836  1.00  0.00    -0.235 OA 
HETATM   12  O   UNL     1      -8.122  13.090  67.352  1.00  0.00    -0.168 OA 
BRANCH  10  13
HETATM   13  O   UNL     1      -9.599  14.801  68.100  1.00  0.00    -0.200 OA 
HETATM   14  O   UNL     1      -9.302  16.121  65.955  1.00  0.00    -0.325 OA 
HETATM   15  P   UNL     1      -9.666  16.242  67.398  1.00  0.00    -0.240 P  
HETATM   16  O   UNL     1     -10.895  16.955  67.894  1.00  0.00    -0.354 OA 
HETATM   17  O   UNL     1      -8.469  16.974  68.186  1.00  0.00    -0.213 OA 
ENDBRANCH  10  13
ENDBRANCH   9  10
ENDBRANCH   8   9
ENDBRANCH   7   8
ENDBRANCH   3   7
BRANCH   6  18
HETATM   18  C   UNL     1      -8.388   6.744  71.096  1.00  0.00    -0.124 C  
BRANCH  18  19
HETATM   19  C   UNL     1      -9.045   5.622  71.839  1.00  0.00    -0.147 A  
HETATM   20  C   UNL     1      -9.924   5.891  72.865  1.00  0.00    -0.173 A  
HETATM   21  N   UNL     1     -10.675   4.961  73.471  1.00  0.00    -0.251 NA 
HETATM   22  C   UNL     1     -10.535   3.702  73.031  1.00  0.00    -0.170 A  
HETATM   23  N   UNL     1      -9.603   3.321  72.141  1.00  0.00    -0.129 NA 
HETATM   24  C   UNL     1     -11.503   2.681  73.542  1.00  0.00    -0.238 C  
HETATM   25  C   UNL     1      -8.846   4.278  71.597  1.00  0.00    -0.114 A  
HETATM   26  N   UNL     1      -7.792   3.814  70.803  1.00  0.00    -0.050 NA 
HETATM   27  H1  UNL     1      -7.645   2.820  70.624  1.00  0.00     0.000 HD 
HETATM   28  H2  UNL     1      -6.926   4.192  71.187  1.00  0.00     0.000 HD 
ENDBRANCH  18  19
ENDBRANCH   6  18
TORSDOF 7
ENDMDL
MODEL      281
REMARK 921   NORMALIZED FREE ENERGY PREDICTED BY IDOCK:   -3.58 KCAL/MOL
REMARK 922        TOTAL FREE ENERGY PREDICTED BY IDOCK:   -6.03 KCAL/MOL
REMARK 923 INTER-LIGAND FREE ENERGY PREDICTED BY IDOCK:   -6.17 KCAL/MOL
REMARK 924 INTRA-LIGAND FREE ENERGY PREDICTED BY IDOCK:    0.14 KCAL/MOL
REMARK 927      BINDING AFFINITY PREDICTED BY RF-SCORE:    0.00 PKD
ROOT
HETATM    1  C   UNL     1      -9.209  10.011  69.692  1.00  0.00    -0.236 C  
HETATM    2  C   UNL     1     -10.365   9.513  70.483  1.00  0.00    -0.288 C  
HETATM    3  C   UNL     1     -11.521  10.215  70.821  1.00  0.00    -0.357 C  
HETATM    4  C   UNL     1     -11.452   7.891  71.688  1.00  0.00    -0.263 C  
HETATM    5  S   UNL     1     -12.471   9.214  71.877  1.00  0.00    -0.399 SA 
HETATM    6  N   UNL     1     -10.393   8.191  70.947  1.00  0.00    -0.190 NA 
ENDROOT
BRANCH   3   7
HETATM    7  C   UNL     1     -12.026  11.614  70.425  1.00  0.00    -0.448 C  
BRANCH   7   8
HETATM    8  C   UNL     1     -12.144  11.715  68.898  1.00  0.00    -0.190 C  
BRANCH   8   9
HETATM    9  O   UNL     1     -12.734  12.858  68.321  1.00  0.00     0.515 OA 
BRANCH   9  10
HETATM   10  P   UNL     1     -11.805  13.522  67.081  1.00  0.00    -0.360 P  
HETATM   11  O   UNL     1     -11.350  14.799  68.155  1.00  0.00    -0.280 OA 
HETATM   12  O   UNL     1     -12.701  14.556  66.371  1.00  0.00    -0.143 OA 
BRANCH  10  13
HETATM   13  O   UNL     1     -12.260  12.245  66.007  1.00  0.00    -0.646 OA 
HETATM   14  O   UNL     1     -10.912  13.673  64.402  1.00  0.00    -0.386 OA 
HETATM   15  P   UNL     1     -11.520  12.321  64.585  1.00  0.00    -0.338 P  
HETATM   16  O   UNL     1     -10.776  11.032  64.367  1.00  0.00    -0.351 OA 
HETATM   17  O   UNL     1     -12.798  12.180  63.617  1.00  0.00    -0.746 OA 
ENDBRANCH  10  13
ENDBRANCH   9  10
ENDBRANCH   8   9
ENDBRANCH   7   8
ENDBRANCH   3   7
BRANCH   6  18
HETATM   18  C   UNL     1      -9.459   7.105  70.601  1.00  0.00    -0.161 C  
BRANCH  18  19
HETATM   19  C   UNL     1      -9.166   6.197  71.756  1.00  0.00    -0.149 A  
HETATM   20  C   UNL     1     -10.060   5.209  72.105  1.00  0.00    -0.193 A  
HETATM   21  N   UNL     1      -9.807   4.256  73.013  1.00  0.00    -0.131 NA 
HETATM   22  C   UNL     1      -8.602   4.299  73.601  1.00  0.00    -0.092 A  
HETATM   23  N   UNL     1      -7.725   5.303  73.435  1.00  0.00    -0.096 NA 
HETATM   24  C   UNL     1      -8.213   3.137  74.461  1.00  0.00    -0.069 C  
HETATM   25  C   UNL     1      -8.041   6.255  72.553  1.00  0.00    -0.103 A  
HETATM   26  N   UNL     1      -7.174   7.352  72.535  1.00  0.00    -0.071 NA 
HETATM   27  H1  UNL     1      -6.342   7.395  73.124  1.00  0.00     0.000 HD 
HETATM   28  H2  UNL     1      -7.728   8.188  72.719  1.00  0.00     0.000 HD 
ENDBRANCH  18  19
ENDBRANCH   6  18
TORSDOF 7
ENDMDL
MODEL      282
REMARK 921   NORMALIZED FREE ENERGY PREDICTED BY IDOCK:   -3.56 KCAL/MOL
REMARK 922        TOTAL FREE ENERGY PREDICTED BY IDOCK:   -6.01 KCAL/MOL
REMARK 923 INTER-LIGAND FREE ENERGY PREDICTED BY IDOCK:   -5.33 KCAL/MOL
REMARK 924 INTRA-LIGAND FREE ENERGY PREDICTED BY IDOCK:   -0.67 KCAL/MOL
REMARK 927      BINDING AFFINITY PREDICTED BY RF-SCORE:    0.00 PKD
ROOT
HETATM    1  C   UNL     1      -7.521   8.180  66.455  1.00  0.00    -0.088 C  
HETATM    2  C   UNL     1      -7.625   8.907  67.747  1.00  0.00    -0.093 C  
HETATM    3  C   UNL     1      -7.581   8.361  69.029  1.00  0.00    -0.092 C  
HETATM    4  C   UNL     1      -7.889  10.823  68.983  1.00  0.00    -0.138 C  
HETATM    5  S   UNL     1      -7.901   9.632  70.169  1.00  0.00    -0.181 SA 
HETATM    6  N   UNL     1      -7.746  10.303  67.770  1.00  0.00    -0.090 NA 
ENDROOT
BRANCH   3   7
HETATM    7  C   UNL     1      -7.311   6.929  69.527  1.00  0.00    -0.091 C  
BRANCH   7   8
HETATM    8  C   UNL     1      -7.793   6.779  70.976  1.00  0.00    -0.101 C  
BRANCH   8   9
HETATM    9  O   UNL     1      -8.389   5.570  71.388  1.00  0.00    -0.122 OA 
BRANCH   9  10
HETATM   10  P   UNL     1     -10.065   5.570  71.213  1.00  0.00    -0.224 P  
HETATM   11  O   UNL     1     -10.004   3.857  70.980  1.00  0.00    -0.173 OA 
HETATM   12  O   UNL     1     -10.345   5.678  69.701  1.00  0.00    -0.223 OA 
BRANCH  10  13
HETATM   13  O   UNL     1     -10.126   7.283  71.446  1.00  0.00    -0.188 OA 
HETATM   14  O   UNL     1     -12.559   6.858  70.868  1.00  0.00    -0.357 OA 
HETATM   15  P   UNL     1     -11.620   7.868  71.442  1.00  0.00    -0.288 P  
HETATM   16  O   UNL     1     -11.854   8.582  72.745  1.00  0.00    -0.326 OA 
HETATM   17  O   UNL     1     -11.428   9.070  70.388  1.00  0.00    -0.251 OA 
ENDBRANCH  10  13
ENDBRANCH   9  10
ENDBRANCH   8   9
ENDBRANCH   7   8
ENDBRANCH   3   7
BRANCH   6  18
HETATM   18  C   UNL     1      -7.609  11.229  66.632  1.00  0.00    -0.140 C  
BRANCH  18  19
HETATM   19  C   UNL     1      -8.883  11.946  66.306  1.00  0.00    -0.111 A  
HETATM   20  C   UNL     1      -9.904  11.286  65.659  1.00  0.00    -0.234 A  
HETATM   21  N   UNL     1     -11.129  11.799  65.474  1.00  0.00    -0.301 NA 
HETATM   22  C   UNL     1     -11.338  13.032  65.958  1.00  0.00    -0.310 A  
HETATM   23  N   UNL     1     -10.368  13.808  66.471  1.00  0.00    -0.281 NA 
HETATM   24  C   UNL     1     -12.743  13.547  65.951  1.00  0.00    -0.382 C  
HETATM   25  C   UNL     1      -9.151  13.269  66.594  1.00  0.00    -0.171 A  
HETATM   26  N   UNL     1      -8.148  14.164  66.981  1.00  0.00    -0.376 NA 
HETATM   27  H1  UNL     1      -8.346  15.141  67.194  1.00  0.00     0.000 HD 
HETATM   28  H2  UNL     1      -7.421  14.142  66.267  1.00  0.00     0.000 HD 
ENDBRANCH  18  19
ENDBRANCH   6  18
TORSDOF 7
ENDMDL
MODEL      283
REMARK 921   NORMALIZED FREE ENERGY PREDICTED BY IDOCK:   -3.54 KCAL/MOL
REMARK 922        TOTAL FREE ENERGY PREDICTED BY IDOCK:   -5.98 KCAL/MOL
REMARK 923 INTER-LIGAND FREE ENERGY PREDICTED BY IDOCK:   -5.17 KCAL/MOL
REMARK 924 INTRA-LIGAND FREE ENERGY PREDICTED BY IDOCK:   -0.81 KCAL/MOL
REMARK 927      BINDING AFFINITY PREDICTED BY RF-SCORE:    0.00 PKD
ROOT
HETATM    1  C   UNL     1      -6.741  13.154  67.487  1.00  0.00    -0.159 C  
HETATM    2  C   UNL     1      -7.818  13.973  68.101  1.00  0.00    -0.144 C  
HETATM    3  C   UNL     1      -7.689  14.896  69.139  1.00  0.00    -0.164 C  
HETATM    4  C   UNL     1     -10.007  14.636  68.292  1.00  0.00    -0.222 C  
HETATM    5  S   UNL     1      -9.278  15.453  69.566  1.00  0.00    -0.178 SA 
HETATM    6  N   UNL     1      -9.132  13.898  67.619  1.00  0.00    -0.188 NA 
ENDROOT
BRANCH   3   7
HETATM    7  C   UNL     1      -6.455  15.439  69.883  1.00  0.00    -0.155 C  
BRANCH   7   8
HETATM    8  C   UNL     1      -6.084  16.825  69.336  1.00  0.00    -0.211 C  
BRANCH   8   9
HETATM    9  O   UNL     1      -6.530  17.208  68.054  1.00  0.00    -0.141 OA 
BRANCH   9  10
HETATM   10  P   UNL     1      -6.979  18.831  67.974  1.00  0.00    -0.248 P  
HETATM   11  O   UNL     1      -6.950  18.887  69.702  1.00  0.00    -0.160 OA 
HETATM   12  O   UNL     1      -8.516  18.864  68.085  1.00  0.00    -0.289 OA 
BRANCH  10  13
HETATM   13  O   UNL     1      -7.007  18.776  66.245  1.00  0.00    -0.212 OA 
HETATM   14  O   UNL     1      -6.476  21.234  66.570  1.00  0.00    -0.286 OA 
HETATM   15  P   UNL     1      -6.495  20.133  65.561  1.00  0.00    -0.280 P  
HETATM   16  O   UNL     1      -5.336  19.803  64.661  1.00  0.00    -0.155 OA 
HETATM   17  O   UNL     1      -7.706  20.381  64.531  1.00  0.00     0.315 OA 
ENDBRANCH  10  13
ENDBRANCH   9  10
ENDBRANCH   8   9
ENDBRANCH   7   8
ENDBRANCH   3   7
BRANCH   6  18
HETATM   18  C   UNL     1      -9.598  13.205  66.406  1.00  0.00    -0.255 C  
BRANCH  18  19
HETATM   19  C   UNL     1      -9.684  11.720  66.578  1.00  0.00    -0.224 A  
HETATM   20  C   UNL     1     -10.195  11.185  67.740  1.00  0.00    -0.180 A  
HETATM   21  N   UNL     1     -10.457   9.883  67.913  1.00  0.00    -0.219 NA 
HETATM   22  C   UNL     1     -10.191   9.078  66.874  1.00  0.00    -0.269 A  
HETATM   23  N   UNL     1      -9.559   9.482  65.759  1.00  0.00    -0.253 NA 
HETATM   24  C   UNL     1     -10.662   7.660  66.961  1.00  0.00    -0.340 C  
HETATM   25  C   UNL     1      -9.276  10.783  65.650  1.00  0.00    -0.199 A  
HETATM   26  N   UNL     1      -8.481  11.123  64.551  1.00  0.00    -0.354 NA 
HETATM   27  H1  UNL     1      -8.180  10.430  63.865  1.00  0.00     0.000 HD 
HETATM   28  H2  UNL     1      -7.648  11.593  64.905  1.00  0.00     0.000 HD 
ENDBRANCH  18  19
ENDBRANCH   6  18
TORSDOF 7
ENDMDL
MODEL      284
REMARK 921   NORMALIZED FREE ENERGY PREDICTED BY IDOCK:   -3.54 KCAL/MOL
REMARK 922        TOTAL FREE ENERGY PREDICTED BY IDOCK:   -5.97 KCAL/MOL
REMARK 923 INTER-LIGAND FREE ENERGY PREDICTED BY IDOCK:   -5.44 KCAL/MOL
REMARK 924 INTRA-LIGAND FREE ENERGY PREDICTED BY IDOCK:   -0.53 KCAL/MOL
REMARK 927      BINDING AFFINITY PREDICTED BY RF-SCORE:    0.00 PKD
ROOT
HETATM    1  C   UNL     1      -8.321  14.916  69.302  1.00  0.00    -0.114 C  
HETATM    2  C   UNL     1      -9.457  14.603  68.395  1.00  0.00    -0.209 C  
HETATM    3  C   UNL     1     -10.715  15.204  68.381  1.00  0.00    -0.248 C  
HETATM    4  C   UNL     1     -10.424  13.412  66.689  1.00  0.00    -0.280 C  
HETATM    5  S   UNL     1     -11.703  14.358  67.229  1.00  0.00    -0.408 SA 
HETATM    6  N   UNL     1      -9.320  13.636  67.390  1.00  0.00    -0.218 NA 
ENDROOT
BRANCH   3   7
HETATM    7  C   UNL     1     -11.293  16.397  69.164  1.00  0.00    -0.241 C  
BRANCH   7   8
HETATM    8  C   UNL     1     -12.127  15.890  70.349  1.00  0.00    -0.287 C  
BRANCH   8   9
HETATM    9  O   UNL     1     -11.687  14.765  71.077  1.00  0.00    -0.306 OA 
BRANCH   9  10
HETATM   10  P   UNL     1     -12.872  13.576  71.228  1.00  0.00    -0.226 P  
HETATM   11  O   UNL     1     -13.900  14.747  71.977  1.00  0.00    -0.366 OA 
HETATM   12  O   UNL     1     -12.696  12.961  72.631  1.00  0.00    -0.005 OA 
BRANCH  10  13
HETATM   13  O   UNL     1     -11.843  12.404  70.479  1.00  0.00    -0.272 OA 
HETATM   14  O   UNL     1     -13.505  10.844  71.590  1.00  0.00    -0.276 OA 
HETATM   15  P   UNL     1     -12.420  10.910  70.566  1.00  0.00    -0.321 P  
HETATM   16  O   UNL     1     -12.555  10.370  69.168  1.00  0.00    -0.058 OA 
HETATM   17  O   UNL     1     -11.114  10.157  71.130  1.00  0.00    -0.291 OA 
ENDBRANCH  10  13
ENDBRANCH   9  10
ENDBRANCH   8   9
ENDBRANCH   7   8
ENDBRANCH   3   7
BRANCH   6  18
HETATM   18  C   UNL     1      -8.081  12.959  66.967  1.00  0.00    -0.049 C  
BRANCH  18  19
HETATM   19  C   UNL     1      -8.116  11.480  67.199  1.00  0.00    -0.159 A  
HETATM   20  C   UNL     1      -8.746  10.967  68.311  1.00  0.00    -0.144 A  
HETATM   21  N   UNL     1      -8.964   9.660  68.513  1.00  0.00    -0.123 NA 
HETATM   22  C   UNL     1      -8.528   8.828  67.556  1.00  0.00    -0.120 A  
HETATM   23  N   UNL     1      -7.778   9.220  66.512  1.00  0.00    -0.093 NA 
HETATM   24  C   UNL     1      -8.936   7.392  67.651  1.00  0.00    -0.126 C  
HETATM   25  C   UNL     1      -7.547  10.529  66.377  1.00  0.00    -0.132 A  
HETATM   26  N   UNL     1      -6.635  10.865  65.372  1.00  0.00    -0.367 NA 
HETATM   27  H1  UNL     1      -6.214  10.162  64.764  1.00  0.00     0.000 HD 
HETATM   28  H2  UNL     1      -5.878  11.394  65.805  1.00  0.00     0.000 HD 
ENDBRANCH  18  19
ENDBRANCH   6  18
TORSDOF 7
ENDMDL
MODEL      285
REMARK 921   NORMALIZED FREE ENERGY PREDICTED BY IDOCK:   -3.52 KCAL/MOL
REMARK 922        TOTAL FREE ENERGY PREDICTED BY IDOCK:   -5.95 KCAL/MOL
REMARK 923 INTER-LIGAND FREE ENERGY PREDICTED BY IDOCK:   -5.83 KCAL/MOL
REMARK 924 INTRA-LIGAND FREE ENERGY PREDICTED BY IDOCK:   -0.12 KCAL/MOL
REMARK 927      BINDING AFFINITY PREDICTED BY RF-SCORE:    0.00 PKD
ROOT
HETATM    1  C   UNL     1      -9.241  11.859  66.244  1.00  0.00    -0.218 C  
HETATM    2  C   UNL     1      -8.300  12.226  67.334  1.00  0.00    -0.177 C  
HETATM    3  C   UNL     1      -8.159  13.472  67.944  1.00  0.00    -0.165 C  
HETATM    4  C   UNL     1      -6.619  11.733  68.817  1.00  0.00    -0.074 C  
HETATM    5  S   UNL     1      -6.817  13.386  69.043  1.00  0.00    -0.078 SA 
HETATM    6  N   UNL     1      -7.449  11.263  67.894  1.00  0.00    -0.091 NA 
ENDROOT
BRANCH   3   7
HETATM    7  C   UNL     1      -8.953  14.783  67.796  1.00  0.00    -0.182 C  
BRANCH   7   8
HETATM    8  C   UNL     1      -8.716  15.678  69.020  1.00  0.00    -0.240 C  
BRANCH   8   9
HETATM    9  O   UNL     1      -7.483  16.348  69.162  1.00  0.00    -0.222 OA 
BRANCH   9  10
HETATM   10  P   UNL     1      -7.431  17.811  68.325  1.00  0.00    -0.263 P  
HETATM   11  O   UNL     1      -5.786  17.471  67.909  1.00  0.00    -0.139 OA 
HETATM   12  O   UNL     1      -6.875  18.857  69.311  1.00  0.00    -0.301 OA 
BRANCH  10  13
HETATM   13  O   UNL     1      -9.075  18.150  68.741  1.00  0.00    -0.298 OA 
HETATM   14  O   UNL     1      -8.754  19.861  66.896  1.00  0.00    -0.313 OA 
HETATM   15  P   UNL     1      -9.786  19.169  67.725  1.00  0.00    -0.361 P  
HETATM   16  O   UNL     1     -11.006  18.498  67.155  1.00  0.00    -0.333 OA 
HETATM   17  O   UNL     1     -10.398  20.212  68.787  1.00  0.00    -0.395 OA 
ENDBRANCH  10  13
ENDBRANCH   9  10
ENDBRANCH   8   9
ENDBRANCH   7   8
ENDBRANCH   3   7
BRANCH   6  18
HETATM   18  C   UNL     1      -7.471   9.809  67.659  1.00  0.00    -0.091 C  
BRANCH  18  19
HETATM   19  C   UNL     1      -8.629   9.128  68.321  1.00  0.00    -0.129 A  
HETATM   20  C   UNL     1      -9.578   8.479  67.562  1.00  0.00    -0.154 A  
HETATM   21  N   UNL     1     -10.551   7.712  68.074  1.00  0.00    -0.186 NA 
HETATM   22  C   UNL     1     -10.575   7.593  69.410  1.00  0.00    -0.215 A  
HETATM   23  N   UNL     1      -9.786   8.299  70.237  1.00  0.00    -0.182 NA 
HETATM   24  C   UNL     1     -11.514   6.585  69.995  1.00  0.00    -0.476 C  
HETATM   25  C   UNL     1      -8.861   9.087  69.681  1.00  0.00    -0.145 A  
HETATM   26  N   UNL     1      -8.179   9.916  70.576  1.00  0.00    -0.399 NA 
HETATM   27  H1  UNL     1      -8.350   9.886  71.581  1.00  0.00     0.000 HD 
HETATM   28  H2  UNL     1      -8.309  10.879  70.267  1.00  0.00     0.000 HD 
ENDBRANCH  18  19
ENDBRANCH   6  18
TORSDOF 7
ENDMDL
MODEL      286
REMARK 921   NORMALIZED FREE ENERGY PREDICTED BY IDOCK:   -3.50 KCAL/MOL
REMARK 922        TOTAL FREE ENERGY PREDICTED BY IDOCK:   -5.91 KCAL/MOL
REMARK 923 INTER-LIGAND FREE ENERGY PREDICTED BY IDOCK:   -5.56 KCAL/MOL
REMARK 924 INTRA-LIGAND FREE ENERGY PREDICTED BY IDOCK:   -0.36 KCAL/MOL
REMARK 927      BINDING AFFINITY PREDICTED BY RF-SCORE:    0.00 PKD
ROOT
HETATM    1  C   UNL     1      -8.502   8.382  70.202  1.00  0.00    -0.126 C  
HETATM    2  C   UNL     1      -9.796   7.673  70.375  1.00  0.00    -0.183 C  
HETATM    3  C   UNL     1     -10.857   8.042  71.202  1.00  0.00    -0.238 C  
HETATM    4  C   UNL     1     -11.243   5.949  69.926  1.00  0.00    -0.268 C  
HETATM    5  S   UNL     1     -12.055   6.786  71.136  1.00  0.00    -0.342 SA 
HETATM    6  N   UNL     1     -10.079   6.516  69.635  1.00  0.00    -0.177 NA 
ENDROOT
BRANCH   3   7
HETATM    7  C   UNL     1     -11.092   9.288  72.075  1.00  0.00    -0.173 C  
BRANCH   7   8
HETATM    8  C   UNL     1     -12.228  10.134  71.484  1.00  0.00    -0.380 C  
BRANCH   8   9
HETATM    9  O   UNL     1     -12.312  10.305  70.087  1.00  0.00    -0.234 OA 
BRANCH   9  10
HETATM   10  P   UNL     1     -12.207  11.921  69.617  1.00  0.00    -0.001 P  
HETATM   11  O   UNL     1     -12.088  11.396  67.973  1.00  0.00    -0.629 OA 
HETATM   12  O   UNL     1     -10.704  12.252  69.529  1.00  0.00     0.030 OA 
BRANCH  10  13
HETATM   13  O   UNL     1     -12.325  12.446  71.261  1.00  0.00    -0.248 OA 
HETATM   14  O   UNL     1     -12.572  14.684  70.094  1.00  0.00    -0.335 OA 
HETATM   15  P   UNL     1     -12.749  13.987  71.403  1.00  0.00    -0.361 P  
HETATM   16  O   UNL     1     -14.006  14.059  72.226  1.00  0.00    -0.485 OA 
HETATM   17  O   UNL     1     -11.607  14.480  72.424  1.00  0.00     0.030 OA 
ENDBRANCH  10  13
ENDBRANCH   9  10
ENDBRANCH   8   9
ENDBRANCH   7   8
ENDBRANCH   3   7
BRANCH   6  18
HETATM   18  C   UNL     1      -9.297   5.960  68.518  1.00  0.00    -0.120 C  
BRANCH  18  19
HETATM   19  C   UNL     1      -9.117   6.930  67.391  1.00  0.00    -0.122 A  
HETATM   20  C   UNL     1     -10.071   7.893  67.147  1.00  0.00    -0.258 A  
HETATM   21  N   UNL     1      -9.916   8.895  66.271  1.00  0.00    -0.293 NA 
HETATM   22  C   UNL     1      -8.752   8.930  65.604  1.00  0.00    -0.182 A  
HETATM   23  N   UNL     1      -7.827   7.958  65.666  1.00  0.00    -0.102 NA 
HETATM   24  C   UNL     1      -8.468  10.144  64.777  1.00  0.00    -0.180 C  
HETATM   25  C   UNL     1      -8.046   6.955  66.521  1.00  0.00    -0.111 A  
HETATM   26  N   UNL     1      -7.137   5.895  66.431  1.00  0.00    -0.067 NA 
HETATM   27  H1  UNL     1      -6.345   5.914  65.788  1.00  0.00     0.000 HD 
HETATM   28  H2  UNL     1      -7.670   5.046  66.244  1.00  0.00     0.000 HD 
ENDBRANCH  18  19
ENDBRANCH   6  18
TORSDOF 7
ENDMDL
MODEL      287
REMARK 921   NORMALIZED FREE ENERGY PREDICTED BY IDOCK:   -3.49 KCAL/MOL
REMARK 922        TOTAL FREE ENERGY PREDICTED BY IDOCK:   -5.91 KCAL/MOL
REMARK 923 INTER-LIGAND FREE ENERGY PREDICTED BY IDOCK:   -6.62 KCAL/MOL
REMARK 924 INTRA-LIGAND FREE ENERGY PREDICTED BY IDOCK:    0.70 KCAL/MOL
REMARK 927      BINDING AFFINITY PREDICTED BY RF-SCORE:    0.00 PKD
ROOT
HETATM    1  C   UNL     1     -12.159  13.711  66.914  1.00  0.00    -0.431 C  
HETATM    2  C   UNL     1     -10.699  13.892  67.127  1.00  0.00    -0.282 C  
HETATM    3  C   UNL     1      -9.935  15.018  66.824  1.00  0.00    -0.248 C  
HETATM    4  C   UNL     1      -8.638  13.143  67.804  1.00  0.00    -0.188 C  
HETATM    5  S   UNL     1      -8.268  14.638  67.133  1.00  0.00    -0.165 SA 
HETATM    6  N   UNL     1      -9.937  12.879  67.726  1.00  0.00    -0.224 NA 
ENDROOT
BRANCH   3   7
HETATM    7  C   UNL     1     -10.325  16.416  66.310  1.00  0.00    -0.337 C  
BRANCH   7   8
HETATM    8  C   UNL     1      -9.993  17.475  67.370  1.00  0.00    -0.315 C  
BRANCH   8   9
HETATM    9  O   UNL     1      -8.829  18.258  67.229  1.00  0.00    -0.250 OA 
BRANCH   9  10
HETATM   10  P   UNL     1      -9.067  19.871  67.659  1.00  0.00    -0.331 P  
HETATM   11  O   UNL     1      -9.909  20.106  66.166  1.00  0.00    -0.436 OA 
HETATM   12  O   UNL     1      -7.906  20.666  67.029  1.00  0.00    -0.314 OA 
BRANCH  10  13
HETATM   13  O   UNL     1      -8.225  19.635  69.151  1.00  0.00    -0.274 OA 
HETATM   14  O   UNL     1      -6.277  19.427  67.541  1.00  0.00    -0.194 OA 
HETATM   15  P   UNL     1      -6.630  19.614  68.980  1.00  0.00    -0.343 P  
HETATM   16  O   UNL     1      -6.044  20.691  69.852  1.00  0.00    -0.371 OA 
HETATM   17  O   UNL     1      -6.298  18.262  69.786  1.00  0.00    -0.222 OA 
ENDBRANCH  10  13
ENDBRANCH   9  10
ENDBRANCH   8   9
ENDBRANCH   7   8
ENDBRANCH   3   7
BRANCH   6  18
HETATM   18  C   UNL     1     -10.434  11.651  68.369  1.00  0.00    -0.213 C  
BRANCH  18  19
HETATM   19  C   UNL     1      -9.939  10.403  67.705  1.00  0.00    -0.205 A  
HETATM   20  C   UNL     1      -9.181   9.495  68.411  1.00  0.00    -0.130 A  
HETATM   21  N   UNL     1      -8.836   8.286  67.948  1.00  0.00    -0.137 NA 
HETATM   22  C   UNL     1      -9.268   7.974  66.717  1.00  0.00    -0.165 A  
HETATM   23  N   UNL     1      -9.884   8.843  65.899  1.00  0.00    -0.216 NA 
HETATM   24  C   UNL     1      -9.076   6.563  66.257  1.00  0.00    -0.168 C  
HETATM   25  C   UNL     1     -10.167  10.053  66.389  1.00  0.00    -0.221 A  
HETATM   26  N   UNL     1     -10.660  10.967  65.452  1.00  0.00    -0.236 NA 
HETATM   27  H1  UNL     1     -10.829  10.709  64.480  1.00  0.00     0.000 HD 
HETATM   28  H2  UNL     1     -10.042  11.779  65.456  1.00  0.00     0.000 HD 
ENDBRANCH  18  19
ENDBRANCH   6  18
TORSDOF 7
ENDMDL
MODEL      288
REMARK 921   NORMALIZED FREE ENERGY PREDICTED BY IDOCK:   -3.49 KCAL/MOL
REMARK 922        TOTAL FREE ENERGY PREDICTED BY IDOCK:   -5.90 KCAL/MOL
REMARK 923 INTER-LIGAND FREE ENERGY PREDICTED BY IDOCK:   -5.31 KCAL/MOL
REMARK 924 INTRA-LIGAND FREE ENERGY PREDICTED BY IDOCK:   -0.59 KCAL/MOL
REMARK 927      BINDING AFFINITY PREDICTED BY RF-SCORE:    0.00 PKD
ROOT
HETATM    1  C   UNL     1      -8.565  15.571  66.394  1.00  0.00    -0.292 C  
HETATM    2  C   UNL     1      -7.470  15.068  67.265  1.00  0.00    -0.181 C  
HETATM    3  C   UNL     1      -7.440  13.867  67.974  1.00  0.00    -0.135 C  
HETATM    4  C   UNL     1      -5.415  15.271  68.265  1.00  0.00    -0.118 C  
HETATM    5  S   UNL     1      -5.999  13.849  68.944  1.00  0.00    -0.089 SA 
HETATM    6  N   UNL     1      -6.286  15.802  67.416  1.00  0.00    -0.248 NA 
ENDROOT
BRANCH   3   7
HETATM    7  C   UNL     1      -8.409  12.671  68.010  1.00  0.00    -0.175 C  
BRANCH   7   8
HETATM    8  C   UNL     1      -8.040  11.666  66.910  1.00  0.00    -0.164 C  
BRANCH   8   9
HETATM    9  O   UNL     1      -9.040  11.200  66.031  1.00  0.00    -0.192 OA 
BRANCH   9  10
HETATM   10  P   UNL     1      -8.808   9.597  65.564  1.00  0.00    -0.202 P  
HETATM   11  O   UNL     1      -7.473  10.112  64.592  1.00  0.00    -0.141 OA 
HETATM   12  O   UNL     1      -9.584   9.411  64.245  1.00  0.00     0.059 OA 
BRANCH  10  13
HETATM   13  O   UNL     1     -10.143   9.082  66.536  1.00  0.00    -0.272 OA 
HETATM   14  O   UNL     1      -8.857   6.900  66.411  1.00  0.00    -0.135 OA 
HETATM   15  P   UNL     1      -9.954   7.606  67.137  1.00  0.00    -0.283 P  
HETATM   16  O   UNL     1     -10.049   7.688  68.636  1.00  0.00    -0.180 OA 
HETATM   17  O   UNL     1     -11.368   6.967  66.709  1.00  0.00    -0.181 OA 
ENDBRANCH  10  13
ENDBRANCH   9  10
ENDBRANCH   8   9
ENDBRANCH   7   8
ENDBRANCH   3   7
BRANCH   6  18
HETATM   18  C   UNL     1      -5.875  16.997  66.658  1.00  0.00    -0.165 C  
BRANCH  18  19
HETATM   19  C   UNL     1      -6.753  18.182  66.915  1.00  0.00    -0.212 A  
HETATM   20  C   UNL     1      -7.261  18.910  65.862  1.00  0.00    -0.244 A  
HETATM   21  N   UNL     1      -8.178  19.879  65.994  1.00  0.00    -0.341 NA 
HETATM   22  C   UNL     1      -8.602  20.132  67.241  1.00  0.00    -0.343 A  
HETATM   23  N   UNL     1      -8.061  19.580  68.340  1.00  0.00    -0.338 NA 
HETATM   24  C   UNL     1      -9.767  21.058  67.399  1.00  0.00    -0.229 C  
HETATM   25  C   UNL     1      -7.118  18.651  68.161  1.00  0.00    -0.249 A  
HETATM   26  N   UNL     1      -6.479  18.227  69.331  1.00  0.00    -0.255 NA 
HETATM   27  H1  UNL     1      -6.749  18.574  70.252  1.00  0.00     0.000 HD 
HETATM   28  H2  UNL     1      -5.480  18.394  69.216  1.00  0.00     0.000 HD 
ENDBRANCH  18  19
ENDBRANCH   6  18
TORSDOF 7
ENDMDL
MODEL      289
REMARK 921   NORMALIZED FREE ENERGY PREDICTED BY IDOCK:   -3.47 KCAL/MOL
REMARK 922        TOTAL FREE ENERGY PREDICTED BY IDOCK:   -5.88 KCAL/MOL
REMARK 923 INTER-LIGAND FREE ENERGY PREDICTED BY IDOCK:   -4.84 KCAL/MOL
REMARK 924 INTRA-LIGAND FREE ENERGY PREDICTED BY IDOCK:   -1.04 KCAL/MOL
REMARK 927      BINDING AFFINITY PREDICTED BY RF-SCORE:    0.00 PKD
ROOT
HETATM    1  C   UNL     1      -8.863   5.901  71.154  1.00  0.00    -0.138 C  
HETATM    2  C   UNL     1      -8.464   6.977  70.210  1.00  0.00    -0.138 C  
HETATM    3  C   UNL     1      -8.641   8.350  70.372  1.00  0.00    -0.136 C  
HETATM    4  C   UNL     1      -7.552   7.711  68.236  1.00  0.00    -0.114 C  
HETATM    5  S   UNL     1      -8.135   9.136  68.907  1.00  0.00    -0.101 SA 
HETATM    6  N   UNL     1      -7.799   6.665  69.016  1.00  0.00    -0.109 NA 
ENDROOT
BRANCH   3   7
HETATM    7  C   UNL     1      -9.167   9.186  71.553  1.00  0.00    -0.156 C  
BRANCH   7   8
HETATM    8  C   UNL     1     -10.640   8.845  71.820  1.00  0.00    -0.362 C  
BRANCH   8   9
HETATM    9  O   UNL     1     -11.576   8.940  70.770  1.00  0.00    -0.280 OA 
BRANCH   9  10
HETATM   10  P   UNL     1     -12.155  10.507  70.545  1.00  0.00    -0.383 P  
HETATM   11  O   UNL     1     -12.827  10.448  72.138  1.00  0.00    -0.392 OA 
HETATM   12  O   UNL     1     -13.599  10.368  70.024  1.00  0.00     0.202 OA 
BRANCH  10  13
HETATM   13  O   UNL     1     -11.482  10.567  68.953  1.00  0.00    -0.255 OA 
HETATM   14  O   UNL     1     -11.948  13.036  69.296  1.00  0.00    -0.307 OA 
HETATM   15  P   UNL     1     -11.211  12.062  68.437  1.00  0.00    -0.316 P  
HETATM   16  O   UNL     1      -9.753  12.188  68.090  1.00  0.00    -0.197 OA 
HETATM   17  O   UNL     1     -11.929  11.977  66.999  1.00  0.00    -0.609 OA 
ENDBRANCH  10  13
ENDBRANCH   9  10
ENDBRANCH   8   9
ENDBRANCH   7   8
ENDBRANCH   3   7
BRANCH   6  18
HETATM   18  C   UNL     1      -7.253   5.357  68.614  1.00  0.00    -0.066 C  
BRANCH  18  19
HETATM   19  C   UNL     1      -7.955   4.771  67.429  1.00  0.00    -0.094 A  
HETATM   20  C   UNL     1      -9.285   4.421  67.513  1.00  0.00    -0.143 A  
HETATM   21  N   UNL     1     -10.029   4.044  66.464  1.00  0.00    -0.155 NA 
HETATM   22  C   UNL     1      -9.410   4.014  65.275  1.00  0.00    -0.163 A  
HETATM   23  N   UNL     1      -8.088   4.195  65.116  1.00  0.00    -0.100 NA 
HETATM   24  C   UNL     1     -10.258   3.799  64.061  1.00  0.00    -0.233 C  
HETATM   25  C   UNL     1      -7.378   4.524  66.199  1.00  0.00    -0.077 A  
HETATM   26  N   UNL     1      -5.992   4.544  66.012  1.00  0.00    -0.023 NA 
HETATM   27  H1  UNL     1      -5.566   4.362  65.103  1.00  0.00     0.000 HD 
HETATM   28  H2  UNL     1      -5.579   3.898  66.684  1.00  0.00     0.000 HD 
ENDBRANCH  18  19
ENDBRANCH   6  18
TORSDOF 7
ENDMDL
MODEL      290
REMARK 921   NORMALIZED FREE ENERGY PREDICTED BY IDOCK:   -3.47 KCAL/MOL
REMARK 922        TOTAL FREE ENERGY PREDICTED BY IDOCK:   -5.88 KCAL/MOL
REMARK 923 INTER-LIGAND FREE ENERGY PREDICTED BY IDOCK:   -5.33 KCAL/MOL
REMARK 924 INTRA-LIGAND FREE ENERGY PREDICTED BY IDOCK:   -0.55 KCAL/MOL
REMARK 927      BINDING AFFINITY PREDICTED BY RF-SCORE:    0.00 PKD
ROOT
HETATM    1  C   UNL     1     -11.420  14.552  64.494  1.00  0.00    -0.349 C  
HETATM    2  C   UNL     1     -11.442  13.861  65.810  1.00  0.00    -0.321 C  
HETATM    3  C   UNL     1     -11.380  12.488  66.043  1.00  0.00    -0.344 C  
HETATM    4  C   UNL     1     -11.566  13.861  68.101  1.00  0.00    -0.335 C  
HETATM    5  S   UNL     1     -11.596  12.219  67.746  1.00  0.00    -0.346 SA 
HETATM    6  N   UNL     1     -11.492  14.599  67.000  1.00  0.00    -0.359 NA 
ENDROOT
BRANCH   3   7
HETATM    7  C   UNL     1     -11.164  11.293  65.095  1.00  0.00    -0.071 C  
BRANCH   7   8
HETATM    8  C   UNL     1      -9.940  10.484  65.544  1.00  0.00    -0.279 C  
BRANCH   8   9
HETATM    9  O   UNL     1      -8.844  10.340  64.669  1.00  0.00    -0.173 OA 
BRANCH   9  10
HETATM   10  P   UNL     1      -7.608   9.392  65.315  1.00  0.00    -0.116 P  
HETATM   11  O   UNL     1      -7.074   9.057  63.704  1.00  0.00    -0.092 OA 
HETATM   12  O   UNL     1      -8.141   7.945  65.346  1.00  0.00    -0.115 OA 
BRANCH  10  13
HETATM   13  O   UNL     1      -8.143   9.727  66.925  1.00  0.00    -0.112 OA 
HETATM   14  O   UNL     1      -5.922  10.949  66.966  1.00  0.00    -0.056 OA 
HETATM   15  P   UNL     1      -7.219  10.793  67.689  1.00  0.00    -0.097 P  
HETATM   16  O   UNL     1      -8.082  11.947  68.119  1.00  0.00    -0.138 OA 
HETATM   17  O   UNL     1      -6.966   9.987  69.059  1.00  0.00    -0.053 OA 
ENDBRANCH  10  13
ENDBRANCH   9  10
ENDBRANCH   8   9
ENDBRANCH   7   8
ENDBRANCH   3   7
BRANCH   6  18
HETATM   18  C   UNL     1     -11.349  16.057  67.152  1.00  0.00     0.103 C  
BRANCH  18  19
HETATM   19  C   UNL     1      -9.925  16.489  67.327  1.00  0.00    -0.264 A  
HETATM   20  C   UNL     1      -8.905  15.763  66.752  1.00  0.00    -0.267 A  
HETATM   21  N   UNL     1      -7.626  16.163  66.721  1.00  0.00    -0.240 NA 
HETATM   22  C   UNL     1      -7.357  17.345  67.296  1.00  0.00    -0.170 A  
HETATM   23  N   UNL     1      -8.253  18.050  68.006  1.00  0.00    -0.252 NA 
HETATM   24  C   UNL     1      -5.987  17.912  67.098  1.00  0.00    -0.160 C  
HETATM   25  C   UNL     1      -9.506  17.589  68.048  1.00  0.00    -0.280 A  
HETATM   26  N   UNL     1     -10.356  18.270  68.925  1.00  0.00    -0.447 NA 
HETATM   27  H1  UNL     1     -10.046  19.083  69.458  1.00  0.00     0.000 HD 
HETATM   28  H2  UNL     1     -10.729  17.588  69.587  1.00  0.00     0.000 HD 
ENDBRANCH  18  19
ENDBRANCH   6  18
TORSDOF 7
ENDMDL
MODEL      291
REMARK 921   NORMALIZED FREE ENERGY PREDICTED BY IDOCK:   -3.47 KCAL/MOL
REMARK 922        TOTAL FREE ENERGY PREDICTED BY IDOCK:   -5.88 KCAL/MOL
REMARK 923 INTER-LIGAND FREE ENERGY PREDICTED BY IDOCK:   -4.71 KCAL/MOL
REMARK 924 INTRA-LIGAND FREE ENERGY PREDICTED BY IDOCK:   -1.17 KCAL/MOL
REMARK 927      BINDING AFFINITY PREDICTED BY RF-SCORE:    0.00 PKD
ROOT
HETATM    1  C   UNL     1      -9.687   9.566  70.372  1.00  0.00    -0.328 C  
HETATM    2  C   UNL     1      -8.291   9.134  70.101  1.00  0.00    -0.165 C  
HETATM    3  C   UNL     1      -7.260   9.901  69.559  1.00  0.00    -0.095 C  
HETATM    4  C   UNL     1      -6.620   7.561  70.082  1.00  0.00    -0.042 C  
HETATM    5  S   UNL     1      -5.887   8.864  69.316  1.00  0.00    -0.035 SA 
HETATM    6  N   UNL     1      -7.871   7.837  70.429  1.00  0.00    -0.089 NA 
ENDROOT
BRANCH   3   7
HETATM    7  C   UNL     1      -7.176  11.392  69.188  1.00  0.00    -0.102 C  
BRANCH   7   8
HETATM    8  C   UNL     1      -7.863  11.634  67.837  1.00  0.00    -0.129 C  
BRANCH   8   9
HETATM    9  O   UNL     1      -9.217  12.026  67.806  1.00  0.00    -0.177 OA 
BRANCH   9  10
HETATM   10  P   UNL     1     -10.031  11.472  66.438  1.00  0.00    -0.226 P  
HETATM   11  O   UNL     1      -9.761   9.852  66.978  1.00  0.00    -0.168 OA 
HETATM   12  O   UNL     1      -8.953  11.204  65.369  1.00  0.00    -0.195 OA 
BRANCH  10  13
HETATM   13  O   UNL     1     -10.301  13.093  65.897  1.00  0.00    -0.279 OA 
HETATM   14  O   UNL     1     -12.626  12.146  65.540  1.00  0.00    -0.444 OA 
HETATM   15  P   UNL     1     -11.848  13.418  65.623  1.00  0.00    -0.421 P  
HETATM   16  O   UNL     1     -12.246  14.588  66.481  1.00  0.00    -0.381 OA 
HETATM   17  O   UNL     1     -11.724  14.060  64.152  1.00  0.00    -0.381 OA 
ENDBRANCH  10  13
ENDBRANCH   9  10
ENDBRANCH   8   9
ENDBRANCH   7   8
ENDBRANCH   3   7
BRANCH   6  18
HETATM   18  C   UNL     1      -8.613   6.830  71.207  1.00  0.00    -0.125 C  
BRANCH  18  19
HETATM   19  C   UNL     1      -8.635   5.484  70.550  1.00  0.00    -0.125 A  
HETATM   20  C   UNL     1      -8.005   4.413  71.144  1.00  0.00    -0.081 A  
HETATM   21  N   UNL     1      -8.110   3.149  70.712  1.00  0.00    -0.053 NA 
HETATM   22  C   UNL     1      -8.880   2.950  69.631  1.00  0.00    -0.088 A  
HETATM   23  N   UNL     1      -9.413   3.944  68.902  1.00  0.00    -0.170 NA 
HETATM   24  C   UNL     1      -9.183   1.535  69.251  1.00  0.00    -0.169 C  
HETATM   25  C   UNL     1      -9.243   5.193  69.346  1.00  0.00    -0.112 A  
HETATM   26  N   UNL     1      -9.677   6.194  68.471  1.00  0.00    -0.125 NA 
HETATM   27  H1  UNL     1     -10.127   5.978  67.581  1.00  0.00     0.000 HD 
HETATM   28  H2  UNL     1      -8.882   6.802  68.278  1.00  0.00     0.000 HD 
ENDBRANCH  18  19
ENDBRANCH   6  18
TORSDOF 7
ENDMDL
MODEL      292
REMARK 921   NORMALIZED FREE ENERGY PREDICTED BY IDOCK:   -3.46 KCAL/MOL
REMARK 922        TOTAL FREE ENERGY PREDICTED BY IDOCK:   -5.86 KCAL/MOL
REMARK 923 INTER-LIGAND FREE ENERGY PREDICTED BY IDOCK:   -5.54 KCAL/MOL
REMARK 924 INTRA-LIGAND FREE ENERGY PREDICTED BY IDOCK:   -0.32 KCAL/MOL
REMARK 927      BINDING AFFINITY PREDICTED BY RF-SCORE:    0.00 PKD
ROOT
HETATM    1  C   UNL     1      -9.066  11.597  68.481  1.00  0.00    -0.157 C  
HETATM    2  C   UNL     1     -10.013  10.796  69.299  1.00  0.00    -0.159 C  
HETATM    3  C   UNL     1      -9.795   9.532  69.846  1.00  0.00    -0.226 C  
HETATM    4  C   UNL     1     -12.043  10.471  70.320  1.00  0.00    -0.318 C  
HETATM    5  S   UNL     1     -11.278   8.997  70.577  1.00  0.00    -0.247 SA 
HETATM    6  N   UNL     1     -11.273  11.309  69.636  1.00  0.00    -0.262 NA 
ENDROOT
BRANCH   3   7
HETATM    7  C   UNL     1      -8.546   8.634  69.892  1.00  0.00    -0.131 C  
BRANCH   7   8
HETATM    8  C   UNL     1      -8.738   7.423  68.969  1.00  0.00    -0.133 C  
BRANCH   8   9
HETATM    9  O   UNL     1      -9.172   7.623  67.642  1.00  0.00    -0.135 OA 
BRANCH   9  10
HETATM   10  P   UNL     1      -8.240   6.785  66.514  1.00  0.00    -0.127 P  
HETATM   11  O   UNL     1      -6.973   7.936  66.761  1.00  0.00    -0.069 OA 
HETATM   12  O   UNL     1      -8.481   7.472  65.155  1.00  0.00    -0.120 OA 
BRANCH  10  13
HETATM   13  O   UNL     1      -9.508   5.634  66.267  1.00  0.00    -0.154 OA 
HETATM   14  O   UNL     1      -7.503   4.129  65.883  1.00  0.00    -0.078 OA 
HETATM   15  P   UNL     1      -8.975   4.127  66.135  1.00  0.00    -0.143 P  
HETATM   16  O   UNL     1      -9.641   3.293  67.196  1.00  0.00    -0.183 OA 
HETATM   17  O   UNL     1      -9.742   3.695  64.787  1.00  0.00    -0.161 OA 
ENDBRANCH  10  13
ENDBRANCH   9  10
ENDBRANCH   8   9
ENDBRANCH   7   8
ENDBRANCH   3   7
BRANCH   6  18
HETATM   18  C   UNL     1     -11.762  12.683  69.424  1.00  0.00    -0.325 C  
BRANCH  18  19
HETATM   19  C   UNL     1     -11.747  13.091  67.983  1.00  0.00    -0.397 A  
HETATM   20  C   UNL     1     -12.114  12.195  67.004  1.00  0.00     0.121 A  
HETATM   21  N   UNL     1     -12.284  12.521  65.715  1.00  0.00    -0.626 NA 
HETATM   22  C   UNL     1     -12.072  13.805  65.392  1.00  0.00    -0.407 A  
HETATM   23  N   UNL     1     -11.572  14.717  66.244  1.00  0.00    -0.363 NA 
HETATM   24  C   UNL     1     -12.451  14.241  64.012  1.00  0.00    -0.171 C  
HETATM   25  C   UNL     1     -11.376  14.333  67.509  1.00  0.00    -0.326 A  
HETATM   26  N   UNL     1     -10.709  15.266  68.310  1.00  0.00    -0.247 NA 
HETATM   27  H1  UNL     1     -10.435  16.184  67.959  1.00  0.00     0.000 HD 
HETATM   28  H2  UNL     1      -9.874  14.814  68.682  1.00  0.00     0.000 HD 
ENDBRANCH  18  19
ENDBRANCH   6  18
TORSDOF 7
ENDMDL
MODEL      293
REMARK 921   NORMALIZED FREE ENERGY PREDICTED BY IDOCK:   -3.46 KCAL/MOL
REMARK 922        TOTAL FREE ENERGY PREDICTED BY IDOCK:   -5.86 KCAL/MOL
REMARK 923 INTER-LIGAND FREE ENERGY PREDICTED BY IDOCK:   -4.73 KCAL/MOL
REMARK 924 INTRA-LIGAND FREE ENERGY PREDICTED BY IDOCK:   -1.12 KCAL/MOL
REMARK 927      BINDING AFFINITY PREDICTED BY RF-SCORE:    0.00 PKD
ROOT
HETATM    1  C   UNL     1      -8.564  10.818  66.092  1.00  0.00    -0.171 C  
HETATM    2  C   UNL     1      -8.098  10.755  67.502  1.00  0.00    -0.111 C  
HETATM    3  C   UNL     1      -6.935  11.312  68.031  1.00  0.00    -0.068 C  
HETATM    4  C   UNL     1      -8.316  10.080  69.684  1.00  0.00    -0.176 C  
HETATM    5  S   UNL     1      -6.803  10.811  69.690  1.00  0.00    -0.136 SA 
HETATM    6  N   UNL     1      -8.872  10.115  68.480  1.00  0.00    -0.123 NA 
ENDROOT
BRANCH   3   7
HETATM    7  C   UNL     1      -5.859  12.223  67.413  1.00  0.00    -0.143 C  
BRANCH   7   8
HETATM    8  C   UNL     1      -6.276  13.694  67.551  1.00  0.00    -0.036 C  
BRANCH   8   9
HETATM    9  O   UNL     1      -7.108  14.082  68.622  1.00  0.00    -0.095 OA 
BRANCH   9  10
HETATM   10  P   UNL     1      -8.389  15.064  68.135  1.00  0.00    -0.157 P  
HETATM   11  O   UNL     1      -9.463  14.040  69.023  1.00  0.00    -0.052 OA 
HETATM   12  O   UNL     1      -8.970  14.422  66.860  1.00  0.00    -0.231 OA 
BRANCH  10  13
HETATM   13  O   UNL     1      -7.315  16.088  67.247  1.00  0.00    -0.167 OA 
HETATM   14  O   UNL     1      -9.256  17.691  67.550  1.00  0.00    -0.241 OA 
HETATM   15  P   UNL     1      -7.816  17.611  67.167  1.00  0.00    -0.226 P  
HETATM   16  O   UNL     1      -6.745  18.494  67.746  1.00  0.00    -0.207 OA 
HETATM   17  O   UNL     1      -7.676  17.849  65.581  1.00  0.00    -0.541 OA 
ENDBRANCH  10  13
ENDBRANCH   9  10
ENDBRANCH   8   9
ENDBRANCH   7   8
ENDBRANCH   3   7
BRANCH   6  18
HETATM   18  C   UNL     1     -10.248   9.609  68.337  1.00  0.00    -0.188 C  
BRANCH  18  19
HETATM   19  C   UNL     1     -10.337   8.119  68.458  1.00  0.00    -0.230 A  
HETATM   20  C   UNL     1      -9.766   7.310  67.499  1.00  0.00    -0.145 A  
HETATM   21  N   UNL     1      -9.658   5.979  67.610  1.00  0.00    -0.111 NA 
HETATM   22  C   UNL     1     -10.148   5.432  68.733  1.00  0.00    -0.185 A  
HETATM   23  N   UNL     1     -10.848   6.117  69.652  1.00  0.00    -0.318 NA 
HETATM   24  C   UNL     1      -9.858   3.985  68.978  1.00  0.00    -0.060 C  
HETATM   25  C   UNL     1     -10.970   7.436  69.476  1.00  0.00    -0.139 A  
HETATM   26  N   UNL     1     -11.838   8.071  70.370  1.00  0.00    -0.475 NA 
HETATM   27  H1  UNL     1     -12.306   7.566  71.123  1.00  0.00     0.000 HD 
HETATM   28  H2  UNL     1     -12.555   8.545  69.821  1.00  0.00     0.000 HD 
ENDBRANCH  18  19
ENDBRANCH   6  18
TORSDOF 7
ENDMDL
MODEL      294
REMARK 921   NORMALIZED FREE ENERGY PREDICTED BY IDOCK:   -3.43 KCAL/MOL
REMARK 922        TOTAL FREE ENERGY PREDICTED BY IDOCK:   -5.82 KCAL/MOL
REMARK 923 INTER-LIGAND FREE ENERGY PREDICTED BY IDOCK:   -4.25 KCAL/MOL
REMARK 924 INTRA-LIGAND FREE ENERGY PREDICTED BY IDOCK:   -1.58 KCAL/MOL
REMARK 927      BINDING AFFINITY PREDICTED BY RF-SCORE:    0.00 PKD
ROOT
HETATM    1  C   UNL     1     -10.254   3.862  72.162  1.00  0.00    -0.196 C  
HETATM    2  C   UNL     1      -8.973   4.614  72.180  1.00  0.00    -0.126 C  
HETATM    3  C   UNL     1      -8.665   5.739  72.945  1.00  0.00    -0.124 C  
HETATM    4  C   UNL     1      -6.824   4.983  71.461  1.00  0.00    -0.048 C  
HETATM    5  S   UNL     1      -7.092   6.302  72.467  1.00  0.00    -0.084 SA 
HETATM    6  N   UNL     1      -7.889   4.192  71.398  1.00  0.00    -0.070 NA 
ENDROOT
BRANCH   3   7
HETATM    7  C   UNL     1      -9.445   6.476  74.048  1.00  0.00    -0.217 C  
BRANCH   7   8
HETATM    8  C   UNL     1     -10.427   7.473  73.418  1.00  0.00    -0.348 C  
BRANCH   8   9
HETATM    9  O   UNL     1     -11.564   6.992  72.738  1.00  0.00    -0.215 OA 
BRANCH   9  10
HETATM   10  P   UNL     1     -11.943   7.900  71.368  1.00  0.00    -0.308 P  
HETATM   11  O   UNL     1     -12.551   9.143  72.405  1.00  0.00    -0.368 OA 
HETATM   12  O   UNL     1     -13.413   7.584  71.029  1.00  0.00    -0.199 OA 
BRANCH  10  13
HETATM   13  O   UNL     1     -11.335   6.656  70.331  1.00  0.00    -0.311 OA 
HETATM   14  O   UNL     1     -10.742   8.687  68.932  1.00  0.00    -0.187 OA 
HETATM   15  P   UNL     1     -10.486   7.225  69.094  1.00  0.00    -0.189 P  
HETATM   16  O   UNL     1      -9.110   6.617  69.143  1.00  0.00    -0.137 OA 
HETATM   17  O   UNL     1     -11.202   6.426  67.895  1.00  0.00    -0.319 OA 
ENDBRANCH  10  13
ENDBRANCH   9  10
ENDBRANCH   8   9
ENDBRANCH   7   8
ENDBRANCH   3   7
BRANCH   6  18
HETATM   18  C   UNL     1      -7.773   2.935  70.639  1.00  0.00    -0.043 C  
BRANCH  18  19
HETATM   19  C   UNL     1      -8.098   3.097  69.187  1.00  0.00    -0.069 A  
HETATM   20  C   UNL     1      -9.405   3.257  68.782  1.00  0.00    -0.168 A  
HETATM   21  N   UNL     1      -9.770   3.568  67.531  1.00  0.00    -0.115 NA 
HETATM   22  C   UNL     1      -8.777   3.724  66.642  1.00  0.00    -0.118 A  
HETATM   23  N   UNL     1      -7.489   3.448  66.906  1.00  0.00    -0.074 NA 
HETATM   24  C   UNL     1      -9.136   4.271  65.296  1.00  0.00    -0.143 C  
HETATM   25  C   UNL     1      -7.179   3.096  68.157  1.00  0.00    -0.050 A  
HETATM   26  N   UNL     1      -5.860   2.667  68.338  1.00  0.00    -0.023 NA 
HETATM   27  H1  UNL     1      -5.181   2.666  67.577  1.00  0.00     0.000 HD 
HETATM   28  H2  UNL     1      -5.892   1.724  68.728  1.00  0.00     0.000 HD 
ENDBRANCH  18  19
ENDBRANCH   6  18
TORSDOF 7
ENDMDL
MODEL      295
REMARK 921   NORMALIZED FREE ENERGY PREDICTED BY IDOCK:   -3.41 KCAL/MOL
REMARK 922        TOTAL FREE ENERGY PREDICTED BY IDOCK:   -5.79 KCAL/MOL
REMARK 923 INTER-LIGAND FREE ENERGY PREDICTED BY IDOCK:   -5.84 KCAL/MOL
REMARK 924 INTRA-LIGAND FREE ENERGY PREDICTED BY IDOCK:    0.05 KCAL/MOL
REMARK 927      BINDING AFFINITY PREDICTED BY RF-SCORE:    0.00 PKD
ROOT
HETATM    1  C   UNL     1      -7.420  13.176  68.244  1.00  0.00    -0.129 C  
HETATM    2  C   UNL     1      -8.578  13.101  67.316  1.00  0.00    -0.210 C  
HETATM    3  C   UNL     1      -8.920  12.040  66.478  1.00  0.00    -0.193 C  
HETATM    4  C   UNL     1     -10.451  13.988  66.331  1.00  0.00    -0.284 C  
HETATM    5  S   UNL     1     -10.269  12.537  65.502  1.00  0.00    -0.273 SA 
HETATM    6  N   UNL     1      -9.498  14.155  67.239  1.00  0.00    -0.222 NA 
ENDROOT
BRANCH   3   7
HETATM    7  C   UNL     1      -8.330  10.628  66.315  1.00  0.00    -0.155 C  
BRANCH   7   8
HETATM    8  C   UNL     1      -8.824   9.721  67.451  1.00  0.00    -0.132 C  
BRANCH   8   9
HETATM    9  O   UNL     1      -8.246   8.446  67.623  1.00  0.00    -0.123 OA 
BRANCH   9  10
HETATM   10  P   UNL     1      -8.027   8.038  69.244  1.00  0.00    -0.119 P  
HETATM   11  O   UNL     1      -7.217   9.548  69.476  1.00  0.00    -0.065 OA 
HETATM   12  O   UNL     1      -6.638   7.377  69.342  1.00  0.00    -0.035 OA 
BRANCH  10  13
HETATM   13  O   UNL     1      -8.837   6.527  69.011  1.00  0.00    -0.130 OA 
HETATM   14  O   UNL     1     -10.765   7.892  69.932  1.00  0.00    -0.244 OA 
HETATM   15  P   UNL     1     -10.424   6.622  69.224  1.00  0.00    -0.255 P  
HETATM   16  O   UNL     1     -11.101   6.159  67.963  1.00  0.00    -0.329 OA 
HETATM   17  O   UNL     1     -10.628   5.384  70.231  1.00  0.00    -0.285 OA 
ENDBRANCH  10  13
ENDBRANCH   9  10
ENDBRANCH   8   9
ENDBRANCH   7   8
ENDBRANCH   3   7
BRANCH   6  18
HETATM   18  C   UNL     1      -9.582  15.331  68.123  1.00  0.00    -0.204 C  
BRANCH  18  19
HETATM   19  C   UNL     1      -9.616  16.625  67.371  1.00  0.00    -0.242 A  
HETATM   20  C   UNL     1     -10.424  16.764  66.264  1.00  0.00    -0.261 A  
HETATM   21  N   UNL     1     -10.637  17.926  65.633  1.00  0.00    -0.587 NA 
HETATM   22  C   UNL     1     -10.008  19.000  66.132  1.00  0.00    -0.364 A  
HETATM   23  N   UNL     1      -9.090  18.939  67.112  1.00  0.00    -0.283 NA 
HETATM   24  C   UNL     1     -10.385  20.339  65.580  1.00  0.00    -0.197 C  
HETATM   25  C   UNL     1      -8.877  17.749  67.681  1.00  0.00    -0.248 A  
HETATM   26  N   UNL     1      -7.805  17.710  68.579  1.00  0.00    -0.274 NA 
HETATM   27  H1  UNL     1      -7.260  18.541  68.808  1.00  0.00     0.000 HD 
HETATM   28  H2  UNL     1      -7.157  16.991  68.256  1.00  0.00     0.000 HD 
ENDBRANCH  18  19
ENDBRANCH   6  18
TORSDOF 7
ENDMDL
MODEL      296
REMARK 921   NORMALIZED FREE ENERGY PREDICTED BY IDOCK:   -3.37 KCAL/MOL
REMARK 922        TOTAL FREE ENERGY PREDICTED BY IDOCK:   -5.74 KCAL/MOL
REMARK 923 INTER-LIGAND FREE ENERGY PREDICTED BY IDOCK:   -5.04 KCAL/MOL
REMARK 924 INTRA-LIGAND FREE ENERGY PREDICTED BY IDOCK:   -0.70 KCAL/MOL
REMARK 927      BINDING AFFINITY PREDICTED BY RF-SCORE:    0.00 PKD
ROOT
HETATM    1  C   UNL     1      -9.147   7.801  65.962  1.00  0.00    -0.169 C  
HETATM    2  C   UNL     1      -8.039   8.768  66.178  1.00  0.00    -0.107 C  
HETATM    3  C   UNL     1      -6.868   8.560  66.905  1.00  0.00    -0.069 C  
HETATM    4  C   UNL     1      -7.058  10.825  65.910  1.00  0.00    -0.080 C  
HETATM    5  S   UNL     1      -5.994  10.061  66.962  1.00  0.00    -0.052 SA 
HETATM    6  N   UNL     1      -8.080  10.040  65.591  1.00  0.00    -0.132 NA 
ENDROOT
BRANCH   3   7
HETATM    7  C   UNL     1      -6.294   7.308  67.593  1.00  0.00    -0.048 C  
BRANCH   7   8
HETATM    8  C   UNL     1      -7.217   6.871  68.738  1.00  0.00    -0.091 C  
BRANCH   8   9
HETATM    9  O   UNL     1      -7.441   7.745  69.822  1.00  0.00    -0.085 OA 
BRANCH   9  10
HETATM   10  P   UNL     1      -8.090   6.968  71.170  1.00  0.00    -0.105 P  
HETATM   11  O   UNL     1      -6.517   6.342  71.521  1.00  0.00    -0.048 OA 
HETATM   12  O   UNL     1      -8.460   5.542  70.714  1.00  0.00    -0.118 OA 
BRANCH  10  13
HETATM   13  O   UNL     1      -9.664   7.594  70.818  1.00  0.00    -0.174 OA 
HETATM   14  O   UNL     1      -9.720   7.735  73.349  1.00  0.00    -0.278 OA 
HETATM   15  P   UNL     1     -10.406   8.197  72.106  1.00  0.00    -0.329 P  
HETATM   16  O   UNL     1     -10.752   9.634  71.826  1.00  0.00    -0.160 OA 
HETATM   17  O   UNL     1     -11.821   7.442  71.971  1.00  0.00    -0.284 OA 
ENDBRANCH  10  13
ENDBRANCH   9  10
ENDBRANCH   8   9
ENDBRANCH   7   8
ENDBRANCH   3   7
BRANCH   6  18
HETATM   18  C   UNL     1      -9.044  10.529  64.590  1.00  0.00    -0.218 C  
BRANCH  18  19
HETATM   19  C   UNL     1      -9.958  11.587  65.128  1.00  0.00    -0.304 A  
HETATM   20  C   UNL     1     -10.305  11.590  66.461  1.00  0.00    -0.232 A  
HETATM   21  N   UNL     1     -10.981  12.582  67.057  1.00  0.00    -0.258 NA 
HETATM   22  C   UNL     1     -11.328  13.618  66.279  1.00  0.00    -0.312 A  
HETATM   23  N   UNL     1     -11.163  13.639  64.946  1.00  0.00    -0.328 NA 
HETATM   24  C   UNL     1     -11.897  14.826  66.953  1.00  0.00    -0.279 C  
HETATM   25  C   UNL     1     -10.524  12.606  64.389  1.00  0.00    -0.373 A  
HETATM   26  N   UNL     1     -10.520  12.600  62.991  1.00  0.00    -0.413 NA 
HETATM   27  H1  UNL     1     -10.938  13.353  62.445  1.00  0.00     0.000 HD 
HETATM   28  H2  UNL     1     -10.940  11.723  62.683  1.00  0.00     0.000 HD 
ENDBRANCH  18  19
ENDBRANCH   6  18
TORSDOF 7
ENDMDL
MODEL      297
REMARK 921   NORMALIZED FREE ENERGY PREDICTED BY IDOCK:   -3.33 KCAL/MOL
REMARK 922        TOTAL FREE ENERGY PREDICTED BY IDOCK:   -5.69 KCAL/MOL
REMARK 923 INTER-LIGAND FREE ENERGY PREDICTED BY IDOCK:   -5.27 KCAL/MOL
REMARK 924 INTRA-LIGAND FREE ENERGY PREDICTED BY IDOCK:   -0.41 KCAL/MOL
REMARK 927      BINDING AFFINITY PREDICTED BY RF-SCORE:    0.00 PKD
ROOT
HETATM    1  C   UNL     1      -7.643  13.493  67.819  1.00  0.00    -0.163 C  
HETATM    2  C   UNL     1      -9.085  13.250  68.083  1.00  0.00    -0.207 C  
HETATM    3  C   UNL     1      -9.836  12.137  67.706  1.00  0.00    -0.199 C  
HETATM    4  C   UNL     1     -11.126  13.868  68.931  1.00  0.00    -0.266 C  
HETATM    5  S   UNL     1     -11.494  12.436  68.132  1.00  0.00    -0.339 SA 
HETATM    6  N   UNL     1      -9.840  14.176  68.817  1.00  0.00    -0.205 NA 
ENDROOT
BRANCH   3   7
HETATM    7  C   UNL     1      -9.439  10.809  67.036  1.00  0.00    -0.186 C  
BRANCH   7   8
HETATM    8  C   UNL     1      -8.895   9.834  68.089  1.00  0.00    -0.119 C  
BRANCH   8   9
HETATM    9  O   UNL     1      -9.534   9.738  69.342  1.00  0.00    -0.176 OA 
BRANCH   9  10
HETATM   10  P   UNL     1      -8.570   9.008  70.516  1.00  0.00    -0.233 P  
HETATM   11  O   UNL     1      -7.534  10.392  70.474  1.00  0.00    -0.188 OA 
HETATM   12  O   UNL     1      -7.455   8.258  69.760  1.00  0.00    -0.073 OA 
BRANCH  10  13
HETATM   13  O   UNL     1      -9.606   7.623  70.558  1.00  0.00    -0.168 OA 
HETATM   14  O   UNL     1      -8.273   7.206  72.676  1.00  0.00    -0.106 OA 
HETATM   15  P   UNL     1      -9.501   6.797  71.930  1.00  0.00    -0.141 P  
HETATM   16  O   UNL     1     -10.871   6.728  72.548  1.00  0.00    -0.221 OA 
HETATM   17  O   UNL     1      -9.288   5.319  71.331  1.00  0.00    -0.143 OA 
ENDBRANCH  10  13
ENDBRANCH   9  10
ENDBRANCH   8   9
ENDBRANCH   7   8
ENDBRANCH   3   7
BRANCH   6  18
HETATM   18  C   UNL     1      -9.340  15.349  69.554  1.00  0.00    -0.252 C  
BRANCH  18  19
HETATM   19  C   UNL     1      -8.810  16.422  68.654  1.00  0.00    -0.234 A  
HETATM   20  C   UNL     1      -7.785  17.239  69.078  1.00  0.00    -0.166 A  
HETATM   21  N   UNL     1      -7.145  18.111  68.286  1.00  0.00    -0.238 NA 
HETATM   22  C   UNL     1      -7.555  18.169  67.010  1.00  0.00    -0.214 A  
HETATM   23  N   UNL     1      -8.636  17.522  66.543  1.00  0.00    -0.257 NA 
HETATM   24  C   UNL     1      -6.731  18.976  66.057  1.00  0.00    -0.265 C  
HETATM   25  C   UNL     1      -9.270  16.698  67.383  1.00  0.00    -0.213 A  
HETATM   26  N   UNL     1     -10.474  16.177  66.899  1.00  0.00    -0.302 NA 
HETATM   27  H1  UNL     1     -10.814  16.381  65.959  1.00  0.00     0.000 HD 
HETATM   28  H2  UNL     1     -11.210  16.432  67.558  1.00  0.00     0.000 HD 
ENDBRANCH  18  19
ENDBRANCH   6  18
TORSDOF 7
ENDMDL
MODEL      298
REMARK 921   NORMALIZED FREE ENERGY PREDICTED BY IDOCK:   -3.32 KCAL/MOL
REMARK 922        TOTAL FREE ENERGY PREDICTED BY IDOCK:   -5.67 KCAL/MOL
REMARK 923 INTER-LIGAND FREE ENERGY PREDICTED BY IDOCK:   -5.34 KCAL/MOL
REMARK 924 INTRA-LIGAND FREE ENERGY PREDICTED BY IDOCK:   -0.33 KCAL/MOL
REMARK 927      BINDING AFFINITY PREDICTED BY RF-SCORE:    0.00 PKD
ROOT
HETATM    1  C   UNL     1     -12.955  10.437  70.991  1.00  0.00    -0.490 C  
HETATM    2  C   UNL     1     -11.601  10.278  70.400  1.00  0.00    -0.328 C  
HETATM    3  C   UNL     1     -10.665   9.285  70.690  1.00  0.00    -0.269 C  
HETATM    4  C   UNL     1      -9.902  10.942  69.007  1.00  0.00    -0.180 C  
HETATM    5  S   UNL     1      -9.201   9.658  69.832  1.00  0.00    -0.237 SA 
HETATM    6  N   UNL     1     -11.149  11.159  69.408  1.00  0.00    -0.244 NA 
ENDROOT
BRANCH   3   7
HETATM    7  C   UNL     1     -10.743   8.027  71.572  1.00  0.00    -0.274 C  
BRANCH   7   8
HETATM    8  C   UNL     1      -9.914   6.897  70.947  1.00  0.00    -0.189 C  
BRANCH   8   9
HETATM    9  O   UNL     1     -10.381   6.257  69.780  1.00  0.00    -0.181 OA 
BRANCH   9  10
HETATM   10  P   UNL     1      -9.282   5.139  69.160  1.00  0.00    -0.126 P  
HETATM   11  O   UNL     1     -10.263   3.871  69.807  1.00  0.00     0.158 OA 
HETATM   12  O   UNL     1      -8.286   4.831  70.296  1.00  0.00    -0.078 OA 
BRANCH  10  13
HETATM   13  O   UNL     1      -8.300   6.408  68.512  1.00  0.00    -0.112 OA 
HETATM   14  O   UNL     1      -8.907   5.215  66.358  1.00  0.00    -0.117 OA 
HETATM   15  P   UNL     1      -8.339   6.481  66.910  1.00  0.00    -0.117 P  
HETATM   16  O   UNL     1      -8.807   7.853  66.509  1.00  0.00    -0.137 OA 
HETATM   17  O   UNL     1      -6.758   6.526  66.611  1.00  0.00    -0.053 OA 
ENDBRANCH  10  13
ENDBRANCH   9  10
ENDBRANCH   8   9
ENDBRANCH   7   8
ENDBRANCH   3   7
BRANCH   6  18
HETATM   18  C   UNL     1     -11.935  12.185  68.701  1.00  0.00    -0.237 C  
BRANCH  18  19
HETATM   19  C   UNL     1     -12.023  13.476  69.456  1.00  0.00    -0.390 A  
HETATM   20  C   UNL     1     -12.665  13.525  70.673  1.00  0.00    -0.205 A  
HETATM   21  N   UNL     1     -12.650  14.591  71.486  1.00  0.00    -0.329 NA 
HETATM   22  C   UNL     1     -11.962  15.659  71.055  1.00  0.00    -0.400 A  
HETATM   23  N   UNL     1     -11.429  15.758  69.826  1.00  0.00    -0.323 NA 
HETATM   24  C   UNL     1     -11.755  16.782  72.023  1.00  0.00     0.101 C  
HETATM   25  C   UNL     1     -11.508  14.685  69.034  1.00  0.00    -0.291 A  
HETATM   26  N   UNL     1     -11.082  14.892  67.718  1.00  0.00    -0.297 NA 
HETATM   27  H1  UNL     1     -10.702  15.786  67.406  1.00  0.00     0.000 HD 
HETATM   28  H2  UNL     1     -11.857  14.652  67.100  1.00  0.00     0.000 HD 
ENDBRANCH  18  19
ENDBRANCH   6  18
TORSDOF 7
ENDMDL
MODEL      299
REMARK 921   NORMALIZED FREE ENERGY PREDICTED BY IDOCK:   -3.31 KCAL/MOL
REMARK 922        TOTAL FREE ENERGY PREDICTED BY IDOCK:   -5.65 KCAL/MOL
REMARK 923 INTER-LIGAND FREE ENERGY PREDICTED BY IDOCK:   -4.05 KCAL/MOL
REMARK 924 INTRA-LIGAND FREE ENERGY PREDICTED BY IDOCK:   -1.60 KCAL/MOL
REMARK 927      BINDING AFFINITY PREDICTED BY RF-SCORE:    0.00 PKD
ROOT
HETATM    1  C   UNL     1      -9.670   9.627  70.368  1.00  0.00    -0.304 C  
HETATM    2  C   UNL     1      -8.285   9.154  70.108  1.00  0.00    -0.155 C  
HETATM    3  C   UNL     1      -7.190   9.924  69.716  1.00  0.00    -0.118 C  
HETATM    4  C   UNL     1      -6.695   7.506  69.966  1.00  0.00    -0.046 C  
HETATM    5  S   UNL     1      -5.859   8.852  69.407  1.00  0.00    -0.034 SA 
HETATM    6  N   UNL     1      -7.947   7.806  70.288  1.00  0.00    -0.098 NA 
ENDROOT
BRANCH   3   7
HETATM    7  C   UNL     1      -7.013  11.444  69.541  1.00  0.00    -0.063 C  
BRANCH   7   8
HETATM    8  C   UNL     1      -7.732  11.911  68.269  1.00  0.00    -0.127 C  
BRANCH   8   9
HETATM    9  O   UNL     1      -9.001  12.518  68.371  1.00  0.00    -0.189 OA 
BRANCH   9  10
HETATM   10  P   UNL     1     -10.028  12.112  67.097  1.00  0.00    -0.203 P  
HETATM   11  O   UNL     1     -10.825  13.633  67.304  1.00  0.00    -0.279 OA 
HETATM   12  O   UNL     1     -11.277  11.469  67.732  1.00  0.00    -0.238 OA 
BRANCH  10  13
HETATM   13  O   UNL     1      -9.231  10.591  66.891  1.00  0.00    -0.153 OA 
HETATM   14  O   UNL     1     -10.587  10.640  64.748  1.00  0.00    -0.291 OA 
HETATM   15  P   UNL     1      -9.451   9.955  65.434  1.00  0.00    -0.287 P  
HETATM   16  O   UNL     1      -8.103   9.733  64.804  1.00  0.00    -0.131 OA 
HETATM   17  O   UNL     1      -9.909   8.472  65.862  1.00  0.00    -0.156 OA 
ENDBRANCH  10  13
ENDBRANCH   9  10
ENDBRANCH   8   9
ENDBRANCH   7   8
ENDBRANCH   3   7
BRANCH   6  18
HETATM   18  C   UNL     1      -8.777   6.753  70.897  1.00  0.00    -0.142 C  
BRANCH  18  19
HETATM   19  C   UNL     1      -8.826   5.501  70.077  1.00  0.00    -0.139 A  
HETATM   20  C   UNL     1      -8.292   4.329  70.567  1.00  0.00    -0.070 A  
HETATM   21  N   UNL     1      -8.435   3.135  69.975  1.00  0.00    -0.048 NA 
HETATM   22  C   UNL     1      -9.144   3.116  68.836  1.00  0.00    -0.148 A  
HETATM   23  N   UNL     1      -9.577   4.221  68.207  1.00  0.00    -0.153 NA 
HETATM   24  C   UNL     1      -9.494   1.778  68.265  1.00  0.00    -0.234 C  
HETATM   25  C   UNL     1      -9.371   5.394  68.813  1.00  0.00    -0.128 A  
HETATM   26  N   UNL     1      -9.696   6.518  68.047  1.00  0.00    -0.118 NA 
HETATM   27  H1  UNL     1     -10.098   6.439  67.113  1.00  0.00     0.000 HD 
HETATM   28  H2  UNL     1      -8.859   7.097  67.977  1.00  0.00     0.000 HD 
ENDBRANCH  18  19
ENDBRANCH   6  18
TORSDOF 7
ENDMDL
MODEL      300
REMARK 921   NORMALIZED FREE ENERGY PREDICTED BY IDOCK:   -3.29 KCAL/MOL
REMARK 922        TOTAL FREE ENERGY PREDICTED BY IDOCK:   -5.63 KCAL/MOL
REMARK 923 INTER-LIGAND FREE ENERGY PREDICTED BY IDOCK:   -5.28 KCAL/MOL
REMARK 924 INTRA-LIGAND FREE ENERGY PREDICTED BY IDOCK:   -0.34 KCAL/MOL
REMARK 927      BINDING AFFINITY PREDICTED BY RF-SCORE:    0.00 PKD
ROOT
HETATM    1  C   UNL     1      -7.591   8.568  65.083  1.00  0.00    -0.094 C  
HETATM    2  C   UNL     1      -8.751   9.016  65.898  1.00  0.00    -0.166 C  
HETATM    3  C   UNL     1      -9.718   9.955  65.544  1.00  0.00    -0.302 C  
HETATM    4  C   UNL     1     -10.025   8.984  67.807  1.00  0.00    -0.187 C  
HETATM    5  S   UNL     1     -10.751  10.211  66.918  1.00  0.00    -0.108 SA 
HETATM    6  N   UNL     1      -8.993   8.456  67.160  1.00  0.00    -0.135 NA 
ENDROOT
BRANCH   3   7
HETATM    7  C   UNL     1      -9.977  10.719  64.232  1.00  0.00    -0.403 C  
BRANCH   7   8
HETATM    8  C   UNL     1     -10.071  12.225  64.514  1.00  0.00    -0.254 C  
BRANCH   8   9
HETATM    9  O   UNL     1     -11.263  12.759  65.045  1.00  0.00    -0.287 OA 
BRANCH   9  10
HETATM   10  P   UNL     1     -11.049  14.279  65.742  1.00  0.00    -0.331 P  
HETATM   11  O   UNL     1     -12.757  14.529  65.634  1.00  0.00    -0.322 OA 
HETATM   12  O   UNL     1     -10.917  15.278  64.575  1.00  0.00    -0.334 OA 
BRANCH  10  13
HETATM   13  O   UNL     1      -9.341  14.030  65.849  1.00  0.00    -0.137 OA 
HETATM   14  O   UNL     1      -9.890  14.196  68.319  1.00  0.00    -0.221 OA 
HETATM   15  P   UNL     1      -8.832  13.781  67.351  1.00  0.00    -0.230 P  
HETATM   16  O   UNL     1      -8.127  12.453  67.400  1.00  0.00    -0.159 OA 
HETATM   17  O   UNL     1      -7.625  14.845  67.398  1.00  0.00    -0.181 OA 
ENDBRANCH  10  13
ENDBRANCH   9  10
ENDBRANCH   8   9
ENDBRANCH   7   8
ENDBRANCH   3   7
BRANCH   6  18
HETATM   18  C   UNL     1      -8.317   7.294  67.764  1.00  0.00    -0.118 C  
BRANCH  18  19
HETATM   19  C   UNL     1      -8.479   7.233  69.251  1.00  0.00    -0.133 A  
HETATM   20  C   UNL     1      -7.640   7.957  70.070  1.00  0.00    -0.084 A  
HETATM   21  N   UNL     1      -7.814   8.089  71.392  1.00  0.00    -0.088 NA 
HETATM   22  C   UNL     1      -8.876   7.461  71.919  1.00  0.00    -0.114 A  
HETATM   23  N   UNL     1      -9.662   6.617  71.230  1.00  0.00    -0.173 NA 
HETATM   24  C   UNL     1      -9.212   7.756  73.347  1.00  0.00    -0.344 C  
HETATM   25  C   UNL     1      -9.423   6.483  69.923  1.00  0.00    -0.155 A  
HETATM   26  N   UNL     1     -10.162   5.479  69.289  1.00  0.00    -0.221 NA 
HETATM   27  H1  UNL     1     -10.860   4.924  69.786  1.00  0.00     0.000 HD 
HETATM   28  H2  UNL     1      -9.501   4.833  68.858  1.00  0.00     0.000 HD 
ENDBRANCH  18  19
ENDBRANCH   6  18
TORSDOF 7
ENDMDL
MODEL      301
REMARK 921   NORMALIZED FREE ENERGY PREDICTED BY IDOCK:   -3.26 KCAL/MOL
REMARK 922        TOTAL FREE ENERGY PREDICTED BY IDOCK:   -5.58 KCAL/MOL
REMARK 923 INTER-LIGAND FREE ENERGY PREDICTED BY IDOCK:   -4.98 KCAL/MOL
REMARK 924 INTRA-LIGAND FREE ENERGY PREDICTED BY IDOCK:   -0.60 KCAL/MOL
REMARK 927      BINDING AFFINITY PREDICTED BY RF-SCORE:    0.00 PKD
ROOT
HETATM    1  C   UNL     1      -9.594   5.566  67.168  1.00  0.00    -0.140 C  
HETATM    2  C   UNL     1      -8.668   6.011  68.241  1.00  0.00    -0.113 C  
HETATM    3  C   UNL     1      -8.827   5.846  69.616  1.00  0.00    -0.131 C  
HETATM    4  C   UNL     1      -6.751   7.043  68.970  1.00  0.00    -0.056 C  
HETATM    5  S   UNL     1      -7.532   6.685  70.414  1.00  0.00    -0.092 SA 
HETATM    6  N   UNL     1      -7.458   6.643  67.920  1.00  0.00    -0.096 NA 
ENDROOT
BRANCH   3   7
HETATM    7  C   UNL     1      -9.885   5.095  70.445  1.00  0.00    -0.288 C  
BRANCH   7   8
HETATM    8  C   UNL     1     -10.833   6.098  71.117  1.00  0.00    -0.270 C  
BRANCH   8   9
HETATM    9  O   UNL     1     -11.508   7.052  70.327  1.00  0.00    -0.300 OA 
BRANCH   9  10
HETATM   10  P   UNL     1     -11.318   8.628  70.895  1.00  0.00    -0.265 P  
HETATM   11  O   UNL     1     -11.443   8.021  72.510  1.00  0.00    -0.359 OA 
HETATM   12  O   UNL     1     -12.738   9.195  71.091  1.00  0.00    -0.295 OA 
BRANCH  10  13
HETATM   13  O   UNL     1     -11.192   9.234  69.280  1.00  0.00    -0.078 OA 
HETATM   14  O   UNL     1     -11.564  11.418  70.513  1.00  0.00    -0.278 OA 
HETATM   15  P   UNL     1     -11.126  10.836  69.210  1.00  0.00    -0.299 P  
HETATM   16  O   UNL     1      -9.859  11.228  68.502  1.00  0.00    -0.186 OA 
HETATM   17  O   UNL     1     -12.266  11.097  68.104  1.00  0.00    -0.612 OA 
ENDBRANCH  10  13
ENDBRANCH   9  10
ENDBRANCH   8   9
ENDBRANCH   7   8
ENDBRANCH   3   7
BRANCH   6  18
HETATM   18  C   UNL     1      -6.857   6.790  66.583  1.00  0.00    -0.061 C  
BRANCH  18  19
HETATM   19  C   UNL     1      -7.424   7.941  65.810  1.00  0.00    -0.078 A  
HETATM   20  C   UNL     1      -8.052   7.723  64.604  1.00  0.00    -0.123 A  
HETATM   21  N   UNL     1      -8.725   8.665  63.929  1.00  0.00     0.006 NA 
HETATM   22  C   UNL     1      -8.769   9.883  64.489  1.00  0.00    -0.198 A  
HETATM   23  N   UNL     1      -8.069  10.227  65.583  1.00  0.00    -0.149 NA 
HETATM   24  C   UNL     1      -9.680  10.895  63.868  1.00  0.00    -0.352 C  
HETATM   25  C   UNL     1      -7.375   9.265  66.197  1.00  0.00    -0.095 A  
HETATM   26  N   UNL     1      -6.543   9.707  67.230  1.00  0.00    -0.070 NA 
HETATM   27  H1  UNL     1      -6.506  10.685  67.516  1.00  0.00     0.000 HD 
HETATM   28  H2  UNL     1      -5.592   9.412  67.010  1.00  0.00     0.000 HD 
ENDBRANCH  18  19
ENDBRANCH   6  18
TORSDOF 7
ENDMDL
MODEL      302
REMARK 921   NORMALIZED FREE ENERGY PREDICTED BY IDOCK:   -3.24 KCAL/MOL
REMARK 922        TOTAL FREE ENERGY PREDICTED BY IDOCK:   -5.55 KCAL/MOL
REMARK 923 INTER-LIGAND FREE ENERGY PREDICTED BY IDOCK:   -5.15 KCAL/MOL
REMARK 924 INTRA-LIGAND FREE ENERGY PREDICTED BY IDOCK:   -0.40 KCAL/MOL
REMARK 927      BINDING AFFINITY PREDICTED BY RF-SCORE:    0.00 PKD
ROOT
HETATM    1  C   UNL     1      -8.095  13.514  67.534  1.00  0.00    -0.190 C  
HETATM    2  C   UNL     1      -9.341  12.729  67.333  1.00  0.00    -0.193 C  
HETATM    3  C   UNL     1     -10.581  12.946  67.933  1.00  0.00    -0.222 C  
HETATM    4  C   UNL     1     -10.525  11.005  66.388  1.00  0.00    -0.258 C  
HETATM    5  S   UNL     1     -11.641  11.651  67.465  1.00  0.00    -0.225 SA 
HETATM    6  N   UNL     1      -9.369  11.658  66.430  1.00  0.00    -0.208 NA 
ENDROOT
BRANCH   3   7
HETATM    7  C   UNL     1     -11.093  14.065  68.859  1.00  0.00    -0.296 C  
BRANCH   7   8
HETATM    8  C   UNL     1     -10.207  15.310  68.713  1.00  0.00    -0.227 C  
BRANCH   8   9
HETATM    9  O   UNL     1     -10.808  16.571  68.525  1.00  0.00    -0.316 OA 
BRANCH   9  10
HETATM   10  P   UNL     1     -10.157  17.421  67.223  1.00  0.00    -0.330 P  
HETATM   11  O   UNL     1      -8.860  17.927  68.249  1.00  0.00    -0.261 OA 
HETATM   12  O   UNL     1     -10.691  18.863  67.333  1.00  0.00    -0.444 OA 
BRANCH  10  13
HETATM   13  O   UNL     1     -11.454  16.915  66.196  1.00  0.00     0.642 OA 
HETATM   14  O   UNL     1      -9.517  15.816  64.984  1.00  0.00    -0.100 OA 
HETATM   15  P   UNL     1     -11.006  15.837  65.096  1.00  0.00    -0.272 P  
HETATM   16  O   UNL     1     -11.849  14.603  65.269  1.00  0.00    -0.355 OA 
HETATM   17  O   UNL     1     -11.625  16.530  63.782  1.00  0.00    -1.109 OA 
ENDBRANCH  10  13
ENDBRANCH   9  10
ENDBRANCH   8   9
ENDBRANCH   7   8
ENDBRANCH   3   7
BRANCH   6  18
HETATM   18  C   UNL     1      -8.323  11.277  65.465  1.00  0.00     0.140 C  
BRANCH  18  19
HETATM   19  C   UNL     1      -8.160   9.794  65.336  1.00  0.00    -0.127 A  
HETATM   20  C   UNL     1      -7.823   9.035  66.435  1.00  0.00    -0.099 A  
HETATM   21  N   UNL     1      -7.815   7.695  66.446  1.00  0.00    -0.092 NA 
HETATM   22  C   UNL     1      -8.158   7.087  65.300  1.00  0.00    -0.134 A  
HETATM   23  N   UNL     1      -8.360   7.737  64.142  1.00  0.00     0.002 NA 
HETATM   24  C   UNL     1      -8.358   5.605  65.339  1.00  0.00    -0.144 C  
HETATM   25  C   UNL     1      -8.313   9.072  64.169  1.00  0.00    -0.173 A  
HETATM   26  N   UNL     1      -8.370   9.689  62.916  1.00  0.00    -0.152 NA 
HETATM   27  H1  UNL     1      -8.483   9.155  62.054  1.00  0.00     0.000 HD 
HETATM   28  H2  UNL     1      -7.536  10.267  62.817  1.00  0.00     0.000 HD 
ENDBRANCH  18  19
ENDBRANCH   6  18
TORSDOF 7
ENDMDL
MODEL      303
REMARK 921   NORMALIZED FREE ENERGY PREDICTED BY IDOCK:   -3.24 KCAL/MOL
REMARK 922        TOTAL FREE ENERGY PREDICTED BY IDOCK:   -5.55 KCAL/MOL
REMARK 923 INTER-LIGAND FREE ENERGY PREDICTED BY IDOCK:   -5.41 KCAL/MOL
REMARK 924 INTRA-LIGAND FREE ENERGY PREDICTED BY IDOCK:   -0.14 KCAL/MOL
REMARK 927      BINDING AFFINITY PREDICTED BY RF-SCORE:    0.00 PKD
ROOT
HETATM    1  C   UNL     1      -9.036  10.403  69.106  1.00  0.00    -0.188 C  
HETATM    2  C   UNL     1     -10.354  10.586  69.768  1.00  0.00    -0.166 C  
HETATM    3  C   UNL     1     -10.940   9.758  70.725  1.00  0.00    -0.336 C  
HETATM    4  C   UNL     1     -12.320  11.723  70.097  1.00  0.00    -0.195 C  
HETATM    5  S   UNL     1     -12.540  10.354  71.045  1.00  0.00    -0.425 SA 
HETATM    6  N   UNL     1     -11.143  11.709  69.483  1.00  0.00    -0.207 NA 
ENDROOT
BRANCH   3   7
HETATM    7  C   UNL     1     -10.417   8.515  71.467  1.00  0.00    -0.318 C  
BRANCH   7   8
HETATM    8  C   UNL     1      -9.500   7.702  70.543  1.00  0.00    -0.164 C  
BRANCH   8   9
HETATM    9  O   UNL     1      -9.275   6.336  70.815  1.00  0.00    -0.153 OA 
BRANCH   9  10
HETATM   10  P   UNL     1      -7.811   5.776  70.195  1.00  0.00    -0.102 P  
HETATM   11  O   UNL     1      -7.981   4.359  71.172  1.00  0.00    -0.077 OA 
HETATM   12  O   UNL     1      -6.719   6.224  71.187  1.00  0.00    -0.052 OA 
BRANCH  10  13
HETATM   13  O   UNL     1      -7.640   7.193  69.218  1.00  0.00    -0.097 OA 
HETATM   14  O   UNL     1      -5.938   5.699  68.078  1.00  0.00    -0.016 OA 
HETATM   15  P   UNL     1      -6.720   6.961  67.924  1.00  0.00    -0.069 P  
HETATM   16  O   UNL     1      -7.527   7.302  66.700  1.00  0.00    -0.085 OA 
HETATM   17  O   UNL     1      -5.729   8.220  68.078  1.00  0.00    -0.034 OA 
ENDBRANCH  10  13
ENDBRANCH   9  10
ENDBRANCH   8   9
ENDBRANCH   7   8
ENDBRANCH   3   7
BRANCH   6  18
HETATM   18  C   UNL     1     -10.757  12.894  68.698  1.00  0.00    -0.247 C  
BRANCH  18  19
HETATM   19  C   UNL     1     -11.086  12.763  67.243  1.00  0.00    -0.314 A  
HETATM   20  C   UNL     1     -11.005  11.536  66.622  1.00  0.00    -0.296 A  
HETATM   21  N   UNL     1     -11.433  11.298  65.374  1.00  0.00     0.068 NA 
HETATM   22  C   UNL     1     -11.963  12.340  64.717  1.00  0.00    -0.362 A  
HETATM   23  N   UNL     1     -11.951  13.600  65.183  1.00  0.00    -0.353 NA 
HETATM   24  C   UNL     1     -12.634  12.061  63.409  1.00  0.00    -0.592 C  
HETATM   25  C   UNL     1     -11.473  13.797  66.414  1.00  0.00    -0.336 A  
HETATM   26  N   UNL     1     -11.335  15.138  66.786  1.00  0.00    -0.296 NA 
HETATM   27  H1  UNL     1     -11.622  15.902  66.174  1.00  0.00     0.000 HD 
HETATM   28  H2  UNL     1     -10.359  15.291  67.039  1.00  0.00     0.000 HD 
ENDBRANCH  18  19
ENDBRANCH   6  18
TORSDOF 7
ENDMDL
MODEL      304
REMARK 921   NORMALIZED FREE ENERGY PREDICTED BY IDOCK:   -3.23 KCAL/MOL
REMARK 922        TOTAL FREE ENERGY PREDICTED BY IDOCK:   -5.54 KCAL/MOL
REMARK 923 INTER-LIGAND FREE ENERGY PREDICTED BY IDOCK:   -4.69 KCAL/MOL
REMARK 924 INTRA-LIGAND FREE ENERGY PREDICTED BY IDOCK:   -0.84 KCAL/MOL
REMARK 927      BINDING AFFINITY PREDICTED BY RF-SCORE:    0.00 PKD
ROOT
HETATM    1  C   UNL     1      -7.505   8.874  67.713  1.00  0.00    -0.093 C  
HETATM    2  C   UNL     1      -8.752   8.164  68.100  1.00  0.00    -0.136 C  
HETATM    3  C   UNL     1      -9.513   8.363  69.250  1.00  0.00    -0.155 C  
HETATM    4  C   UNL     1     -10.391   6.599  67.742  1.00  0.00    -0.196 C  
HETATM    5  S   UNL     1     -10.775   7.168  69.275  1.00  0.00    -0.189 SA 
HETATM    6  N   UNL     1      -9.312   7.198  67.253  1.00  0.00    -0.131 NA 
ENDROOT
BRANCH   3   7
HETATM    7  C   UNL     1      -9.406   9.394  70.388  1.00  0.00    -0.317 C  
BRANCH   7   8
HETATM    8  C   UNL     1     -10.087  10.705  69.972  1.00  0.00     0.232 C  
BRANCH   8   9
HETATM    9  O   UNL     1      -9.644  11.382  68.817  1.00  0.00    -0.190 OA 
BRANCH   9  10
HETATM   10  P   UNL     1     -10.678  12.627  68.348  1.00  0.00    -0.249 P  
HETATM   11  O   UNL     1     -11.617  12.334  69.771  1.00  0.00    -0.288 OA 
HETATM   12  O   UNL     1     -11.827  11.966  67.560  1.00  0.00    -0.552 OA 
BRANCH  10  13
HETATM   13  O   UNL     1      -9.740  12.920  66.925  1.00  0.00    -0.227 OA 
HETATM   14  O   UNL     1     -11.116  15.050  66.957  1.00  0.00    -0.324 OA 
HETATM   15  P   UNL     1      -9.913  14.408  66.349  1.00  0.00    -0.317 P  
HETATM   16  O   UNL     1      -8.556  15.057  66.295  1.00  0.00    -0.154 OA 
HETATM   17  O   UNL     1     -10.220  14.059  64.809  1.00  0.00    -0.416 OA 
ENDBRANCH  10  13
ENDBRANCH   9  10
ENDBRANCH   8   9
ENDBRANCH   7   8
ENDBRANCH   3   7
BRANCH   6  18
HETATM   18  C   UNL     1      -8.911   6.884  65.870  1.00  0.00    -0.064 C  
BRANCH  18  19
HETATM   19  C   UNL     1      -8.256   5.543  65.744  1.00  0.00    -0.124 A  
HETATM   20  C   UNL     1      -7.105   5.264  66.447  1.00  0.00    -0.072 A  
HETATM   21  N   UNL     1      -6.546   4.048  66.519  1.00  0.00    -0.044 NA 
HETATM   22  C   UNL     1      -7.169   3.066  65.851  1.00  0.00    -0.070 A  
HETATM   23  N   UNL     1      -8.207   3.268  65.022  1.00  0.00    -0.093 NA 
HETATM   24  C   UNL     1      -6.691   1.666  66.078  1.00  0.00    -0.027 C  
HETATM   25  C   UNL     1      -8.702   4.507  64.948  1.00  0.00    -0.140 A  
HETATM   26  N   UNL     1      -9.672   4.695  63.958  1.00  0.00    -0.358 NA 
HETATM   27  H1  UNL     1     -10.002   3.930  63.370  1.00  0.00     0.000 HD 
HETATM   28  H2  UNL     1      -9.347   5.441  63.343  1.00  0.00     0.000 HD 
ENDBRANCH  18  19
ENDBRANCH   6  18
TORSDOF 7
ENDMDL
MODEL      305
REMARK 921   NORMALIZED FREE ENERGY PREDICTED BY IDOCK:   -3.22 KCAL/MOL
REMARK 922        TOTAL FREE ENERGY PREDICTED BY IDOCK:   -5.52 KCAL/MOL
REMARK 923 INTER-LIGAND FREE ENERGY PREDICTED BY IDOCK:   -4.82 KCAL/MOL
REMARK 924 INTRA-LIGAND FREE ENERGY PREDICTED BY IDOCK:   -0.70 KCAL/MOL
REMARK 927      BINDING AFFINITY PREDICTED BY RF-SCORE:    0.00 PKD
ROOT
HETATM    1  C   UNL     1      -9.051   9.194  64.575  1.00  0.00    -0.065 C  
HETATM    2  C   UNL     1      -8.801  10.077  65.744  1.00  0.00    -0.150 C  
HETATM    3  C   UNL     1      -9.447  11.275  66.049  1.00  0.00    -0.216 C  
HETATM    4  C   UNL     1      -7.686  10.625  67.673  1.00  0.00    -0.097 C  
HETATM    5  S   UNL     1      -8.665  11.970  67.437  1.00  0.00    -0.178 SA 
HETATM    6  N   UNL     1      -7.854   9.723  66.714  1.00  0.00    -0.102 NA 
ENDROOT
BRANCH   3   7
HETATM    7  C   UNL     1     -10.641  11.994  65.396  1.00  0.00    -0.319 C  
BRANCH   7   8
HETATM    8  C   UNL     1     -10.891  13.335  66.098  1.00  0.00    -0.280 C  
BRANCH   8   9
HETATM    9  O   UNL     1     -11.959  13.452  67.013  1.00  0.00    -0.382 OA 
BRANCH   9  10
HETATM   10  P   UNL     1     -11.490  14.122  68.487  1.00  0.00    -0.344 P  
HETATM   11  O   UNL     1     -11.922  12.636  69.258  1.00  0.00    -0.292 OA 
HETATM   12  O   UNL     1     -12.764  14.719  69.118  1.00  0.00     0.076 OA 
BRANCH  10  13
HETATM   13  O   UNL     1     -11.058  15.609  67.715  1.00  0.00    -0.314 OA 
HETATM   14  O   UNL     1      -9.493  15.708  69.708  1.00  0.00    -0.277 OA 
HETATM   15  P   UNL     1      -9.772  16.310  68.370  1.00  0.00    -0.237 P  
HETATM   16  O   UNL     1      -8.731  16.488  67.299  1.00  0.00    -0.182 OA 
HETATM   17  O   UNL     1     -10.357  17.796  68.570  1.00  0.00    -0.359 OA 
ENDBRANCH  10  13
ENDBRANCH   9  10
ENDBRANCH   8   9
ENDBRANCH   7   8
ENDBRANCH   3   7
BRANCH   6  18
HETATM   18  C   UNL     1      -7.143   8.439  66.839  1.00  0.00    -0.075 C  
BRANCH  18  19
HETATM   19  C   UNL     1      -7.897   7.431  67.651  1.00  0.00    -0.113 A  
HETATM   20  C   UNL     1      -8.773   6.563  67.038  1.00  0.00    -0.112 A  
HETATM   21  N   UNL     1      -9.362   5.531  67.658  1.00  0.00    -0.111 NA 
HETATM   22  C   UNL     1      -9.061   5.364  68.955  1.00  0.00    -0.118 A  
HETATM   23  N   UNL     1      -8.337   6.240  69.671  1.00  0.00    -0.124 NA 
HETATM   24  C   UNL     1      -9.537   4.110  69.617  1.00  0.00    -0.277 C  
HETATM   25  C   UNL     1      -7.807   7.279  69.020  1.00  0.00    -0.118 A  
HETATM   26  N   UNL     1      -7.200   8.239  69.836  1.00  0.00    -0.058 NA 
HETATM   27  H1  UNL     1      -7.134   8.126  70.847  1.00  0.00     0.000 HD 
HETATM   28  H2  UNL     1      -7.654   9.133  69.652  1.00  0.00     0.000 HD 
ENDBRANCH  18  19
ENDBRANCH   6  18
TORSDOF 7
ENDMDL
MODEL      306
REMARK 921   NORMALIZED FREE ENERGY PREDICTED BY IDOCK:   -3.21 KCAL/MOL
REMARK 922        TOTAL FREE ENERGY PREDICTED BY IDOCK:   -5.51 KCAL/MOL
REMARK 923 INTER-LIGAND FREE ENERGY PREDICTED BY IDOCK:   -5.02 KCAL/MOL
REMARK 924 INTRA-LIGAND FREE ENERGY PREDICTED BY IDOCK:   -0.49 KCAL/MOL
REMARK 927      BINDING AFFINITY PREDICTED BY RF-SCORE:    0.00 PKD
ROOT
HETATM    1  C   UNL     1      -7.105  12.811  68.640  1.00  0.00    -0.100 C  
HETATM    2  C   UNL     1      -8.218  12.446  67.724  1.00  0.00    -0.163 C  
HETATM    3  C   UNL     1      -8.267  11.365  66.845  1.00  0.00    -0.157 C  
HETATM    4  C   UNL     1     -10.290  12.801  66.805  1.00  0.00    -0.240 C  
HETATM    5  S   UNL     1      -9.726  11.495  65.911  1.00  0.00    -0.239 SA 
HETATM    6  N   UNL     1      -9.401  13.198  67.707  1.00  0.00    -0.198 NA 
ENDROOT
BRANCH   3   7
HETATM    7  C   UNL     1      -7.305  10.185  66.613  1.00  0.00    -0.106 C  
BRANCH   7   8
HETATM    8  C   UNL     1      -7.353   9.228  67.811  1.00  0.00    -0.084 C  
BRANCH   8   9
HETATM    9  O   UNL     1      -6.472   8.128  67.857  1.00  0.00    -0.051 OA 
BRANCH   9  10
HETATM   10  P   UNL     1      -7.267   6.658  68.080  1.00  0.00    -0.092 P  
HETATM   11  O   UNL     1      -7.804   7.225  69.624  1.00  0.00    -0.112 OA 
HETATM   12  O   UNL     1      -6.291   5.748  68.851  1.00  0.00    -0.034 OA 
BRANCH  10  13
HETATM   13  O   UNL     1      -6.730   6.091  66.537  1.00  0.00    -0.056 OA 
HETATM   14  O   UNL     1      -9.088   6.793  65.921  1.00  0.00    -0.122 OA 
HETATM   15  P   UNL     1      -7.760   6.418  65.351  1.00  0.00    -0.111 P  
HETATM   16  O   UNL     1      -7.039   7.226  64.306  1.00  0.00    -0.056 OA 
HETATM   17  O   UNL     1      -7.864   4.957  64.684  1.00  0.00    -0.084 OA 
ENDBRANCH  10  13
ENDBRANCH   9  10
ENDBRANCH   8   9
ENDBRANCH   7   8
ENDBRANCH   3   7
BRANCH   6  18
HETATM   18  C   UNL     1      -9.792  14.266  68.642  1.00  0.00    -0.228 C  
BRANCH  18  19
HETATM   19  C   UNL     1      -9.853  15.615  67.995  1.00  0.00    -0.209 A  
HETATM   20  C   UNL     1      -9.295  15.814  66.752  1.00  0.00    -0.242 A  
HETATM   21  N   UNL     1      -9.443  16.936  66.034  1.00  0.00    -0.480 NA 
HETATM   22  C   UNL     1     -10.184  17.906  66.591  1.00  0.00    -0.371 A  
HETATM   23  N   UNL     1     -10.645  17.862  67.852  1.00  0.00    -0.394 NA 
HETATM   24  C   UNL     1     -10.538  19.081  65.734  1.00  0.00    -0.388 C  
HETATM   25  C   UNL     1     -10.433  16.740  68.546  1.00  0.00    -0.335 A  
HETATM   26  N   UNL     1     -10.789  16.807  69.897  1.00  0.00    -0.366 NA 
HETATM   27  H1  UNL     1     -11.218  17.639  70.304  1.00  0.00     0.000 HD 
HETATM   28  H2  UNL     1      -9.960  16.583  70.447  1.00  0.00     0.000 HD 
ENDBRANCH  18  19
ENDBRANCH   6  18
TORSDOF 7
ENDMDL
MODEL      307
REMARK 921   NORMALIZED FREE ENERGY PREDICTED BY IDOCK:   -3.19 KCAL/MOL
REMARK 922        TOTAL FREE ENERGY PREDICTED BY IDOCK:   -5.48 KCAL/MOL
REMARK 923 INTER-LIGAND FREE ENERGY PREDICTED BY IDOCK:   -5.16 KCAL/MOL
REMARK 924 INTRA-LIGAND FREE ENERGY PREDICTED BY IDOCK:   -0.32 KCAL/MOL
REMARK 927      BINDING AFFINITY PREDICTED BY RF-SCORE:    0.00 PKD
ROOT
HETATM    1  C   UNL     1      -6.075  10.236  70.432  1.00  0.00    -0.110 C  
HETATM    2  C   UNL     1      -7.523  10.181  70.099  1.00  0.00    -0.133 C  
HETATM    3  C   UNL     1      -8.214  10.996  69.204  1.00  0.00    -0.045 C  
HETATM    4  C   UNL     1      -9.630   9.305  70.342  1.00  0.00    -0.244 C  
HETATM    5  S   UNL     1      -9.903  10.604  69.312  1.00  0.00    -0.133 SA 
HETATM    6  N   UNL     1      -8.349   9.208  70.678  1.00  0.00    -0.189 NA 
ENDROOT
BRANCH   3   7
HETATM    7  C   UNL     1      -7.736  12.085  68.226  1.00  0.00    -0.127 C  
BRANCH   7   8
HETATM    8  C   UNL     1      -8.925  12.615  67.413  1.00  0.00    -0.190 C  
BRANCH   8   9
HETATM    9  O   UNL     1      -8.825  13.868  66.774  1.00  0.00    -0.224 OA 
BRANCH   9  10
HETATM   10  P   UNL     1     -10.327  14.570  66.466  1.00  0.00    -0.300 P  
HETATM   11  O   UNL     1     -10.996  12.983  66.314  1.00  0.00    -0.279 OA 
HETATM   12  O   UNL     1     -10.453  14.676  64.933  1.00  0.00    -0.414 OA 
BRANCH  10  13
HETATM   13  O   UNL     1      -9.657  16.158  66.618  1.00  0.00    -0.222 OA 
HETATM   14  O   UNL     1     -11.484  16.312  68.369  1.00  0.00    -0.357 OA 
HETATM   15  P   UNL     1     -10.242  16.974  67.869  1.00  0.00    -0.346 P  
HETATM   16  O   UNL     1      -9.094  17.375  68.753  1.00  0.00    -0.275 OA 
HETATM   17  O   UNL     1     -10.636  18.346  67.126  1.00  0.00    -0.400 OA 
ENDBRANCH  10  13
ENDBRANCH   9  10
ENDBRANCH   8   9
ENDBRANCH   7   8
ENDBRANCH   3   7
BRANCH   6  18
HETATM   18  C   UNL     1      -7.932   8.053  71.492  1.00  0.00    -0.105 C  
BRANCH  18  19
HETATM   19  C   UNL     1      -8.443   6.750  70.961  1.00  0.00    -0.132 A  
HETATM   20  C   UNL     1      -8.459   6.511  69.605  1.00  0.00    -0.131 A  
HETATM   21  N   UNL     1      -8.745   5.323  69.056  1.00  0.00    -0.099 NA 
HETATM   22  C   UNL     1      -9.032   4.327  69.907  1.00  0.00    -0.096 A  
HETATM   23  N   UNL     1      -9.185   4.497  71.231  1.00  0.00    -0.133 NA 
HETATM   24  C   UNL     1      -9.152   2.947  69.340  1.00  0.00    -0.197 C  
HETATM   25  C   UNL     1      -8.934   5.712  71.728  1.00  0.00    -0.136 A  
HETATM   26  N   UNL     1      -9.261   5.875  73.078  1.00  0.00    -0.137 NA 
HETATM   27  H1  UNL     1      -9.623   5.108  73.644  1.00  0.00     0.000 HD 
HETATM   28  H2  UNL     1      -9.920   6.650  73.145  1.00  0.00     0.000 HD 
ENDBRANCH  18  19
ENDBRANCH   6  18
TORSDOF 7
ENDMDL
MODEL      308
REMARK 921   NORMALIZED FREE ENERGY PREDICTED BY IDOCK:   -3.15 KCAL/MOL
REMARK 922        TOTAL FREE ENERGY PREDICTED BY IDOCK:   -5.42 KCAL/MOL
REMARK 923 INTER-LIGAND FREE ENERGY PREDICTED BY IDOCK:   -5.91 KCAL/MOL
REMARK 924 INTRA-LIGAND FREE ENERGY PREDICTED BY IDOCK:    0.49 KCAL/MOL
REMARK 927      BINDING AFFINITY PREDICTED BY RF-SCORE:    0.00 PKD
ROOT
HETATM    1  C   UNL     1     -10.760   9.788  70.173  1.00  0.00    -0.339 C  
HETATM    2  C   UNL     1      -9.795  10.523  69.314  1.00  0.00    -0.205 C  
HETATM    3  C   UNL     1      -8.447  10.227  69.115  1.00  0.00    -0.162 C  
HETATM    4  C   UNL     1      -9.241  12.228  67.881  1.00  0.00    -0.190 C  
HETATM    5  S   UNL     1      -7.755  11.489  68.143  1.00  0.00    -0.128 SA 
HETATM    6  N   UNL     1     -10.212  11.627  68.558  1.00  0.00    -0.206 NA 
ENDROOT
BRANCH   3   7
HETATM    7  C   UNL     1      -7.573   9.050  69.587  1.00  0.00    -0.077 C  
BRANCH   7   8
HETATM    8  C   UNL     1      -7.579   7.938  68.530  1.00  0.00    -0.105 C  
BRANCH   8   9
HETATM    9  O   UNL     1      -8.530   7.974  67.489  1.00  0.00    -0.125 OA 
BRANCH   9  10
HETATM   10  P   UNL     1      -9.654   6.721  67.582  1.00  0.00    -0.132 P  
HETATM   11  O   UNL     1     -10.866   7.815  67.010  1.00  0.00    -0.316 OA 
HETATM   12  O   UNL     1     -10.324   6.839  68.966  1.00  0.00    -0.176 OA 
BRANCH  10  13
HETATM   13  O   UNL     1      -8.442   5.627  68.154  1.00  0.00    -0.100 OA 
HETATM   14  O   UNL     1     -10.381   4.896  69.616  1.00  0.00    -0.243 OA 
HETATM   15  P   UNL     1      -9.022   4.502  69.140  1.00  0.00    -0.120 P  
HETATM   16  O   UNL     1      -8.696   3.151  68.563  1.00  0.00    -0.087 OA 
HETATM   17  O   UNL     1      -7.973   4.650  70.352  1.00  0.00    -0.062 OA 
ENDBRANCH  10  13
ENDBRANCH   9  10
ENDBRANCH   8   9
ENDBRANCH   7   8
ENDBRANCH   3   7
BRANCH   6  18
HETATM   18  C   UNL     1     -11.594  12.092  68.348  1.00  0.00    -0.327 C  
BRANCH  18  19
HETATM   19  C   UNL     1     -11.987  13.196  69.281  1.00  0.00    -0.344 A  
HETATM   20  C   UNL     1     -12.434  12.905  70.550  1.00  0.00    -0.217 A  
HETATM   21  N   UNL     1     -12.651  13.827  71.499  1.00  0.00    -0.341 NA 
HETATM   22  C   UNL     1     -12.410  15.101  71.156  1.00  0.00    -0.341 A  
HETATM   23  N   UNL     1     -12.114  15.496  69.907  1.00  0.00    -0.359 NA 
HETATM   24  C   UNL     1     -12.443  16.126  72.247  1.00  0.00    -0.484 C  
HETATM   25  C   UNL     1     -11.953  14.544  68.983  1.00  0.00    -0.299 A  
HETATM   26  N   UNL     1     -11.804  15.012  67.674  1.00  0.00    -0.425 NA 
HETATM   27  H1  UNL     1     -11.779  16.008  67.455  1.00  0.00     0.000 HD 
HETATM   28  H2  UNL     1     -12.539  14.588  67.108  1.00  0.00     0.000 HD 
ENDBRANCH  18  19
ENDBRANCH   6  18
TORSDOF 7
ENDMDL
MODEL      309
REMARK 921   NORMALIZED FREE ENERGY PREDICTED BY IDOCK:   -3.12 KCAL/MOL
REMARK 922        TOTAL FREE ENERGY PREDICTED BY IDOCK:   -5.38 KCAL/MOL
REMARK 923 INTER-LIGAND FREE ENERGY PREDICTED BY IDOCK:   -4.53 KCAL/MOL
REMARK 924 INTRA-LIGAND FREE ENERGY PREDICTED BY IDOCK:   -0.86 KCAL/MOL
REMARK 927      BINDING AFFINITY PREDICTED BY RF-SCORE:    0.00 PKD
ROOT
HETATM    1  C   UNL     1      -6.785   9.510  68.366  1.00  0.00    -0.058 C  
HETATM    2  C   UNL     1      -8.136   8.900  68.255  1.00  0.00    -0.109 C  
HETATM    3  C   UNL     1      -8.440   7.550  68.086  1.00  0.00    -0.124 C  
HETATM    4  C   UNL     1     -10.425   9.036  68.181  1.00  0.00    -0.207 C  
HETATM    5  S   UNL     1     -10.158   7.408  67.864  1.00  0.00    -0.188 SA 
HETATM    6  N   UNL     1      -9.286   9.695  68.356  1.00  0.00    -0.133 NA 
ENDROOT
BRANCH   3   7
HETATM    7  C   UNL     1      -7.554   6.291  68.075  1.00  0.00    -0.102 C  
BRANCH   7   8
HETATM    8  C   UNL     1      -7.207   5.884  69.513  1.00  0.00    -0.070 C  
BRANCH   8   9
HETATM    9  O   UNL     1      -7.717   6.637  70.591  1.00  0.00    -0.100 OA 
BRANCH   9  10
HETATM   10  P   UNL     1      -8.669   5.722  71.639  1.00  0.00    -0.136 P  
HETATM   11  O   UNL     1      -7.485   4.464  71.558  1.00  0.00    -0.063 OA 
HETATM   12  O   UNL     1      -9.556   4.826  70.752  1.00  0.00    -0.153 OA 
BRANCH  10  13
HETATM   13  O   UNL     1      -9.853   6.980  71.721  1.00  0.00    -0.164 OA 
HETATM   14  O   UNL     1      -8.304   7.752  73.574  1.00  0.00    -0.154 OA 
HETATM   15  P   UNL     1      -9.431   8.183  72.695  1.00  0.00    -0.275 P  
HETATM   16  O   UNL     1      -9.430   9.460  71.899  1.00  0.00    -0.185 OA 
HETATM   17  O   UNL     1     -10.775   8.294  73.573  1.00  0.00     0.305 OA 
ENDBRANCH  10  13
ENDBRANCH   9  10
ENDBRANCH   8   9
ENDBRANCH   7   8
ENDBRANCH   3   7
BRANCH   6  18
HETATM   18  C   UNL     1      -9.359  11.112  68.749  1.00  0.00    -0.149 C  
BRANCH  18  19
HETATM   19  C   UNL     1     -10.198  11.934  67.819  1.00  0.00    -0.211 A  
HETATM   20  C   UNL     1     -10.192  11.673  66.466  1.00  0.00    -0.214 A  
HETATM   21  N   UNL     1     -11.027  12.246  65.589  1.00  0.00    -0.289 NA 
HETATM   22  C   UNL     1     -11.908  13.124  66.091  1.00  0.00    -0.401 A  
HETATM   23  N   UNL     1     -11.894  13.550  67.365  1.00  0.00    -0.376 NA 
HETATM   24  C   UNL     1     -12.983  13.622  65.177  1.00  0.00    -0.277 C  
HETATM   25  C   UNL     1     -11.013  12.983  68.194  1.00  0.00    -0.244 A  
HETATM   26  N   UNL     1     -10.931  13.571  69.460  1.00  0.00    -0.452 NA 
HETATM   27  H1  UNL     1     -11.533  14.347  69.736  1.00  0.00     0.000 HD 
HETATM   28  H2  UNL     1      -9.964  13.861  69.605  1.00  0.00     0.000 HD 
ENDBRANCH  18  19
ENDBRANCH   6  18
TORSDOF 7
ENDMDL
MODEL      310
REMARK 921   NORMALIZED FREE ENERGY PREDICTED BY IDOCK:   -3.05 KCAL/MOL
REMARK 922        TOTAL FREE ENERGY PREDICTED BY IDOCK:   -5.29 KCAL/MOL
REMARK 923 INTER-LIGAND FREE ENERGY PREDICTED BY IDOCK:   -4.19 KCAL/MOL
REMARK 924 INTRA-LIGAND FREE ENERGY PREDICTED BY IDOCK:   -1.10 KCAL/MOL
REMARK 927      BINDING AFFINITY PREDICTED BY RF-SCORE:    0.00 PKD
ROOT
HETATM    1  C   UNL     1     -10.088   4.481  72.751  1.00  0.00    -0.217 C  
HETATM    2  C   UNL     1      -8.779   5.111  72.442  1.00  0.00    -0.124 C  
HETATM    3  C   UNL     1      -8.338   6.376  72.831  1.00  0.00    -0.117 C  
HETATM    4  C   UNL     1      -6.706   5.109  71.456  1.00  0.00    -0.050 C  
HETATM    5  S   UNL     1      -6.802   6.669  72.075  1.00  0.00    -0.064 SA 
HETATM    6  N   UNL     1      -7.806   4.412  71.713  1.00  0.00    -0.085 NA 
ENDROOT
BRANCH   3   7
HETATM    7  C   UNL     1      -8.960   7.442  73.752  1.00  0.00    -0.275 C  
BRANCH   7   8
HETATM    8  C   UNL     1      -9.856   8.381  72.933  1.00  0.00    -0.162 C  
BRANCH   8   9
HETATM    9  O   UNL     1     -11.254   8.194  72.947  1.00  0.00    -0.381 OA 
BRANCH   9  10
HETATM   10  P   UNL     1     -11.961   8.415  71.433  1.00  0.00    -0.301 P  
HETATM   11  O   UNL     1     -12.750   6.887  71.620  1.00  0.00    -0.365 OA 
HETATM   12  O   UNL     1     -11.038   7.716  70.415  1.00  0.00    -0.259 OA 
BRANCH  10  13
HETATM   13  O   UNL     1     -11.171   9.943  71.246  1.00  0.00    -0.361 OA 
HETATM   14  O   UNL     1     -12.961  10.183  69.466  1.00  0.00     0.267 OA 
HETATM   15  P   UNL     1     -11.954  10.942  70.264  1.00  0.00    -0.411 P  
HETATM   16  O   UNL     1     -12.265  12.204  71.021  1.00  0.00    -0.310 OA 
HETATM   17  O   UNL     1     -10.735  11.375  69.306  1.00  0.00    -0.212 OA 
ENDBRANCH  10  13
ENDBRANCH   9  10
ENDBRANCH   8   9
ENDBRANCH   7   8
ENDBRANCH   3   7
BRANCH   6  18
HETATM   18  C   UNL     1      -7.832   2.991  71.328  1.00  0.00    -0.051 C  
BRANCH  18  19
HETATM   19  C   UNL     1      -8.087   2.786  69.867  1.00  0.00    -0.056 A  
HETATM   20  C   UNL     1      -9.327   3.063  69.334  1.00  0.00    -0.137 A  
HETATM   21  N   UNL     1      -9.595   3.063  68.021  1.00  0.00    -0.150 NA 
HETATM   22  C   UNL     1      -8.573   2.769  67.204  1.00  0.00    -0.107 A  
HETATM   23  N   UNL     1      -7.372   2.346  67.633  1.00  0.00    -0.055 NA 
HETATM   24  C   UNL     1      -8.787   2.963  65.735  1.00  0.00    -0.140 C  
HETATM   25  C   UNL     1      -7.165   2.317  68.952  1.00  0.00    -0.044 A  
HETATM   26  N   UNL     1      -5.964   1.721  69.347  1.00  0.00    -0.023 NA 
HETATM   27  H1  UNL     1      -5.283   1.375  68.671  1.00  0.00     0.000 HD 
HETATM   28  H2  UNL     1      -6.192   0.954  69.980  1.00  0.00     0.000 HD 
ENDBRANCH  18  19
ENDBRANCH   6  18
TORSDOF 7
ENDMDL
MODEL      311
REMARK 921   NORMALIZED FREE ENERGY PREDICTED BY IDOCK:   -3.05 KCAL/MOL
REMARK 922        TOTAL FREE ENERGY PREDICTED BY IDOCK:   -5.28 KCAL/MOL
REMARK 923 INTER-LIGAND FREE ENERGY PREDICTED BY IDOCK:   -4.17 KCAL/MOL
REMARK 924 INTRA-LIGAND FREE ENERGY PREDICTED BY IDOCK:   -1.11 KCAL/MOL
REMARK 927      BINDING AFFINITY PREDICTED BY RF-SCORE:    0.00 PKD
ROOT
HETATM    1  C   UNL     1      -8.859   8.488  68.478  1.00  0.00    -0.139 C  
HETATM    2  C   UNL     1      -9.881   7.746  69.261  1.00  0.00    -0.173 C  
HETATM    3  C   UNL     1     -10.185   7.902  70.613  1.00  0.00    -0.196 C  
HETATM    4  C   UNL     1     -11.527   6.159  69.464  1.00  0.00    -0.229 C  
HETATM    5  S   UNL     1     -11.345   6.684  71.050  1.00  0.00    -0.333 SA 
HETATM    6  N   UNL     1     -10.698   6.790  68.641  1.00  0.00    -0.229 NA 
ENDROOT
BRANCH   3   7
HETATM    7  C   UNL     1      -9.689   8.908  71.668  1.00  0.00    -0.379 C  
BRANCH   7   8
HETATM    8  C   UNL     1      -8.342   8.444  72.240  1.00  0.00    -0.155 C  
BRANCH   8   9
HETATM    9  O   UNL     1      -7.633   7.409  71.595  1.00  0.00    -0.083 OA 
BRANCH   9  10
HETATM   10  P   UNL     1      -7.464   6.032  72.553  1.00  0.00    -0.100 P  
HETATM   11  O   UNL     1      -6.962   7.048  73.860  1.00  0.00    -0.080 OA 
HETATM   12  O   UNL     1      -5.989   5.600  72.437  1.00  0.00    -0.032 OA 
BRANCH  10  13
HETATM   13  O   UNL     1      -7.966   5.016  71.246  1.00  0.00    -0.103 OA 
HETATM   14  O   UNL     1      -8.213   3.375  73.163  1.00  0.00    -0.073 OA 
HETATM   15  P   UNL     1      -8.573   3.614  71.734  1.00  0.00    -0.092 P  
HETATM   16  O   UNL     1      -9.970   3.486  71.190  1.00  0.00    -0.158 OA 
HETATM   17  O   UNL     1      -7.718   2.619  70.800  1.00  0.00    -0.042 OA 
ENDBRANCH  10  13
ENDBRANCH   9  10
ENDBRANCH   8   9
ENDBRANCH   7   8
ENDBRANCH   3   7
BRANCH   6  18
HETATM   18  C   UNL     1     -10.812   6.517  67.198  1.00  0.00    -0.401 C  
BRANCH  18  19
HETATM   19  C   UNL     1      -9.716   5.636  66.682  1.00  0.00    -0.176 A  
HETATM   20  C   UNL     1      -9.439   4.439  67.304  1.00  0.00    -0.171 A  
HETATM   21  N   UNL     1      -8.592   3.521  66.817  1.00  0.00    -0.107 NA 
HETATM   22  C   UNL     1      -7.993   3.820  65.655  1.00  0.00    -0.093 A  
HETATM   23  N   UNL     1      -8.087   5.017  65.052  1.00  0.00    -0.108 NA 
HETATM   24  C   UNL     1      -7.206   2.736  64.986  1.00  0.00    -0.058 C  
HETATM   25  C   UNL     1      -8.908   5.917  65.599  1.00  0.00    -0.118 A  
HETATM   26  N   UNL     1      -8.848   7.193  65.028  1.00  0.00    -0.342 NA 
HETATM   27  H1  UNL     1      -8.251   7.400  64.227  1.00  0.00     0.000 HD 
HETATM   28  H2  UNL     1      -8.615   7.853  65.769  1.00  0.00     0.000 HD 
ENDBRANCH  18  19
ENDBRANCH   6  18
TORSDOF 7
ENDMDL
MODEL      312
REMARK 921   NORMALIZED FREE ENERGY PREDICTED BY IDOCK:   -3.04 KCAL/MOL
REMARK 922        TOTAL FREE ENERGY PREDICTED BY IDOCK:   -5.27 KCAL/MOL
REMARK 923 INTER-LIGAND FREE ENERGY PREDICTED BY IDOCK:   -6.21 KCAL/MOL
REMARK 924 INTRA-LIGAND FREE ENERGY PREDICTED BY IDOCK:    0.94 KCAL/MOL
REMARK 927      BINDING AFFINITY PREDICTED BY RF-SCORE:    0.00 PKD
ROOT
HETATM    1  C   UNL     1      -8.832  13.213  67.635  1.00  0.00    -0.191 C  
HETATM    2  C   UNL     1      -9.608  12.517  66.576  1.00  0.00    -0.242 C  
HETATM    3  C   UNL     1      -9.237  11.372  65.871  1.00  0.00    -0.216 C  
HETATM    4  C   UNL     1     -11.441  12.302  65.211  1.00  0.00    -0.351 C  
HETATM    5  S   UNL     1     -10.437  11.077  64.651  1.00  0.00    -0.302 SA 
HETATM    6  N   UNL     1     -10.880  12.976  66.208  1.00  0.00    -0.277 NA 
ENDROOT
BRANCH   3   7
HETATM    7  C   UNL     1      -8.032  10.424  66.014  1.00  0.00    -0.144 C  
BRANCH   7   8
HETATM    8  C   UNL     1      -7.927   9.927  67.462  1.00  0.00    -0.106 C  
BRANCH   8   9
HETATM    9  O   UNL     1      -8.070   8.551  67.736  1.00  0.00    -0.113 OA 
BRANCH   9  10
HETATM   10  P   UNL     1      -8.695   8.248  69.272  1.00  0.00    -0.139 P  
HETATM   11  O   UNL     1      -9.222   9.894  69.341  1.00  0.00    -0.186 OA 
HETATM   12  O   UNL     1      -7.595   8.649  70.276  1.00  0.00    -0.066 OA 
BRANCH  10  13
HETATM   13  O   UNL     1      -8.168   6.603  69.202  1.00  0.00    -0.118 OA 
HETATM   14  O   UNL     1      -5.931   7.764  68.921  1.00  0.00    -0.035 OA 
HETATM   15  P   UNL     1      -6.571   6.449  69.224  1.00  0.00    -0.047 P  
HETATM   16  O   UNL     1      -6.192   5.585  70.395  1.00  0.00    -0.024 OA 
HETATM   17  O   UNL     1      -6.385   5.467  67.962  1.00  0.00    -0.038 OA 
ENDBRANCH  10  13
ENDBRANCH   9  10
ENDBRANCH   8   9
ENDBRANCH   7   8
ENDBRANCH   3   7
BRANCH   6  18
HETATM   18  C   UNL     1     -11.682  14.015  66.879  1.00  0.00    -0.410 C  
BRANCH  18  19
HETATM   19  C   UNL     1     -11.098  15.386  66.734  1.00  0.00    -0.244 A  
HETATM   20  C   UNL     1     -10.870  16.164  67.848  1.00  0.00    -0.332 A  
HETATM   21  N   UNL     1     -10.207  17.328  67.826  1.00  0.00    -0.317 NA 
HETATM   22  C   UNL     1      -9.755  17.734  66.630  1.00  0.00    -0.313 A  
HETATM   23  N   UNL     1     -10.053  17.121  65.472  1.00  0.00    -0.587 NA 
HETATM   24  C   UNL     1      -8.839  18.917  66.604  1.00  0.00    -0.319 C  
HETATM   25  C   UNL     1     -10.756  15.987  65.539  1.00  0.00    -0.361 A  
HETATM   26  N   UNL     1     -11.174  15.479  64.305  1.00  0.00    -0.731 NA 
HETATM   27  H1  UNL     1     -10.921  15.923  63.423  1.00  0.00     0.000 HD 
HETATM   28  H2  UNL     1     -12.191  15.397  64.332  1.00  0.00     0.000 HD 
ENDBRANCH  18  19
ENDBRANCH   6  18
TORSDOF 7
ENDMDL
MODEL      313
REMARK 921   NORMALIZED FREE ENERGY PREDICTED BY IDOCK:   -3.01 KCAL/MOL
REMARK 922        TOTAL FREE ENERGY PREDICTED BY IDOCK:   -5.23 KCAL/MOL
REMARK 923 INTER-LIGAND FREE ENERGY PREDICTED BY IDOCK:   -4.27 KCAL/MOL
REMARK 924 INTRA-LIGAND FREE ENERGY PREDICTED BY IDOCK:   -0.96 KCAL/MOL
REMARK 927      BINDING AFFINITY PREDICTED BY RF-SCORE:    0.00 PKD
ROOT
HETATM    1  C   UNL     1      -8.812  12.351  65.844  1.00  0.00     0.302 C  
HETATM    2  C   UNL     1      -9.775  12.430  66.973  1.00  0.00    -0.211 C  
HETATM    3  C   UNL     1     -10.785  11.520  67.285  1.00  0.00    -0.244 C  
HETATM    4  C   UNL     1     -10.660  13.467  68.819  1.00  0.00    -0.218 C  
HETATM    5  S   UNL     1     -11.707  12.171  68.606  1.00  0.00    -0.326 SA 
HETATM    6  N   UNL     1      -9.707  13.484  67.895  1.00  0.00    -0.218 NA 
ENDROOT
BRANCH   3   7
HETATM    7  C   UNL     1     -11.157  10.152  66.685  1.00  0.00     0.139 C  
BRANCH   7   8
HETATM    8  C   UNL     1     -10.149   9.089  67.142  1.00  0.00    -0.243 C  
BRANCH   8   9
HETATM    9  O   UNL     1      -8.986   8.861  66.379  1.00  0.00    -0.141 OA 
BRANCH   9  10
HETATM   10  P   UNL     1      -7.667   8.386  67.317  1.00  0.00    -0.098 P  
HETATM   11  O   UNL     1      -8.072   9.630  68.449  1.00  0.00    -0.102 OA 
HETATM   12  O   UNL     1      -6.485   9.280  66.891  1.00  0.00    -0.065 OA 
BRANCH  10  13
HETATM   13  O   UNL     1      -7.263   7.143  66.185  1.00  0.00    -0.071 OA 
HETATM   14  O   UNL     1      -9.017   5.912  67.540  1.00  0.00    -0.111 OA 
HETATM   15  P   UNL     1      -8.239   5.872  66.266  1.00  0.00    -0.122 P  
HETATM   16  O   UNL     1      -8.860   5.664  64.912  1.00  0.00    -0.095 OA 
HETATM   17  O   UNL     1      -7.138   4.701  66.354  1.00  0.00    -0.071 OA 
ENDBRANCH  10  13
ENDBRANCH   9  10
ENDBRANCH   8   9
ENDBRANCH   7   8
ENDBRANCH   3   7
BRANCH   6  18
HETATM   18  C   UNL     1      -8.647  14.500  68.011  1.00  0.00    -0.162 C  
BRANCH  18  19
HETATM   19  C   UNL     1      -9.073  15.847  67.516  1.00  0.00    -0.204 A  
HETATM   20  C   UNL     1      -8.854  16.205  66.204  1.00  0.00    -0.332 A  
HETATM   21  N   UNL     1      -9.343  17.318  65.639  1.00  0.00    -0.410 NA 
HETATM   22  C   UNL     1     -10.085  18.110  66.428  1.00  0.00    -0.389 A  
HETATM   23  N   UNL     1     -10.232  17.921  67.749  1.00  0.00    -0.350 NA 
HETATM   24  C   UNL     1     -10.812  19.245  65.777  1.00  0.00    -0.338 C  
HETATM   25  C   UNL     1      -9.687  16.821  68.278  1.00  0.00    -0.252 A  
HETATM   26  N   UNL     1      -9.731  16.754  69.674  1.00  0.00     0.061 NA 
HETATM   27  H1  UNL     1     -10.185  17.474  70.236  1.00  0.00     0.000 HD 
HETATM   28  H2  UNL     1      -8.774  16.654  70.010  1.00  0.00     0.000 HD 
ENDBRANCH  18  19
ENDBRANCH   6  18
TORSDOF 7
ENDMDL
MODEL      314
REMARK 921   NORMALIZED FREE ENERGY PREDICTED BY IDOCK:   -2.96 KCAL/MOL
REMARK 922        TOTAL FREE ENERGY PREDICTED BY IDOCK:   -5.15 KCAL/MOL
REMARK 923 INTER-LIGAND FREE ENERGY PREDICTED BY IDOCK:   -4.41 KCAL/MOL
REMARK 924 INTRA-LIGAND FREE ENERGY PREDICTED BY IDOCK:   -0.74 KCAL/MOL
REMARK 927      BINDING AFFINITY PREDICTED BY RF-SCORE:    0.00 PKD
ROOT
HETATM    1  C   UNL     1      -9.711  10.072  69.531  1.00  0.00    -0.253 C  
HETATM    2  C   UNL     1      -8.507  10.299  68.690  1.00  0.00    -0.127 C  
HETATM    3  C   UNL     1      -8.114  11.492  68.083  1.00  0.00    -0.146 C  
HETATM    4  C   UNL     1      -6.595   9.579  67.646  1.00  0.00    -0.063 C  
HETATM    5  S   UNL     1      -6.722  11.162  67.097  1.00  0.00    -0.116 SA 
HETATM    6  N   UNL     1      -7.594   9.261  68.460  1.00  0.00    -0.084 NA 
ENDROOT
BRANCH   3   7
HETATM    7  C   UNL     1      -8.683  12.920  68.162  1.00  0.00    -0.190 C  
BRANCH   7   8
HETATM    8  C   UNL     1      -9.076  13.404  66.759  1.00  0.00    -0.212 C  
BRANCH   8   9
HETATM    9  O   UNL     1     -10.431  13.378  66.370  1.00  0.00    -0.278 OA 
BRANCH   9  10
HETATM   10  P   UNL     1     -11.417  14.320  67.361  1.00  0.00    -0.381 P  
HETATM   11  O   UNL     1     -12.213  12.874  67.880  1.00  0.00    -0.234 OA 
HETATM   12  O   UNL     1     -12.690  14.624  66.546  1.00  0.00     0.024 OA 
BRANCH  10  13
HETATM   13  O   UNL     1     -10.621  15.765  66.842  1.00  0.00    -0.312 OA 
HETATM   14  O   UNL     1     -10.566  16.142  69.349  1.00  0.00    -0.254 OA 
HETATM   15  P   UNL     1      -9.992  16.609  68.053  1.00  0.00    -0.279 P  
HETATM   16  O   UNL     1      -8.518  16.774  67.801  1.00  0.00    -0.189 OA 
HETATM   17  O   UNL     1     -10.593  18.060  67.701  1.00  0.00    -0.400 OA 
ENDBRANCH  10  13
ENDBRANCH   9  10
ENDBRANCH   8   9
ENDBRANCH   7   8
ENDBRANCH   3   7
BRANCH   6  18
HETATM   18  C   UNL     1      -7.565   7.939  69.109  1.00  0.00    -0.098 C  
BRANCH  18  19
HETATM   19  C   UNL     1      -7.950   6.826  68.185  1.00  0.00    -0.114 A  
HETATM   20  C   UNL     1      -8.992   6.990  67.299  1.00  0.00    -0.119 A  
HETATM   21  N   UNL     1      -9.299   6.114  66.332  1.00  0.00    -0.155 NA 
HETATM   22  C   UNL     1      -8.526   5.020  66.253  1.00  0.00    -0.112 A  
HETATM   23  N   UNL     1      -7.585   4.703  67.157  1.00  0.00    -0.085 NA 
HETATM   24  C   UNL     1      -8.712   4.130  65.063  1.00  0.00    -0.124 C  
HETATM   25  C   UNL     1      -7.345   5.586  68.130  1.00  0.00    -0.073 A  
HETATM   26  N   UNL     1      -6.475   5.140  69.130  1.00  0.00    -0.037 NA 
HETATM   27  H1  UNL     1      -6.028   4.224  69.090  1.00  0.00     0.000 HD 
HETATM   28  H2  UNL     1      -6.967   5.207  70.021  1.00  0.00     0.000 HD 
ENDBRANCH  18  19
ENDBRANCH   6  18
TORSDOF 7
ENDMDL
MODEL      315
REMARK 921   NORMALIZED FREE ENERGY PREDICTED BY IDOCK:   -2.91 KCAL/MOL
REMARK 922        TOTAL FREE ENERGY PREDICTED BY IDOCK:   -5.09 KCAL/MOL
REMARK 923 INTER-LIGAND FREE ENERGY PREDICTED BY IDOCK:   -6.11 KCAL/MOL
REMARK 924 INTRA-LIGAND FREE ENERGY PREDICTED BY IDOCK:    1.02 KCAL/MOL
REMARK 927      BINDING AFFINITY PREDICTED BY RF-SCORE:    0.00 PKD
ROOT
HETATM    1  C   UNL     1     -10.943  10.196  70.111  1.00  0.00    -0.376 C  
HETATM    2  C   UNL     1      -9.581   9.878  69.610  1.00  0.00    -0.227 C  
HETATM    3  C   UNL     1      -8.892   8.673  69.746  1.00  0.00    -0.137 C  
HETATM    4  C   UNL     1      -7.629  10.437  68.540  1.00  0.00    -0.095 C  
HETATM    5  S   UNL     1      -7.289   8.894  69.113  1.00  0.00    -0.073 SA 
HETATM    6  N   UNL     1      -8.852  10.826  68.878  1.00  0.00    -0.160 NA 
ENDROOT
BRANCH   3   7
HETATM    7  C   UNL     1      -9.314   7.307  70.317  1.00  0.00    -0.158 C  
BRANCH   7   8
HETATM    8  C   UNL     1      -9.006   7.252  71.820  1.00  0.00    -0.127 C  
BRANCH   8   9
HETATM    9  O   UNL     1      -9.158   6.035  72.515  1.00  0.00    -0.136 OA 
BRANCH   9  10
HETATM   10  P   UNL     1     -10.739   5.769  73.036  1.00  0.00    -0.287 P  
HETATM   11  O   UNL     1     -10.823   7.429  73.513  1.00  0.00    -0.379 OA 
HETATM   12  O   UNL     1     -10.653   5.431  74.538  1.00  0.00    -0.287 OA 
BRANCH  10  13
HETATM   13  O   UNL     1     -10.656   4.108  72.559  1.00  0.00    -0.166 OA 
HETATM   14  O   UNL     1      -8.692   4.176  74.161  1.00  0.00    -0.096 OA 
HETATM   15  P   UNL     1      -9.604   3.255  73.419  1.00  0.00    -0.108 P  
HETATM   16  O   UNL     1     -10.335   2.107  74.059  1.00  0.00    -0.105 OA 
HETATM   17  O   UNL     1      -8.790   2.556  72.220  1.00  0.00    -0.069 OA 
ENDBRANCH  10  13
ENDBRANCH   9  10
ENDBRANCH   8   9
ENDBRANCH   7   8
ENDBRANCH   3   7
BRANCH   6  18
HETATM   18  C   UNL     1      -9.338  12.115  68.357  1.00  0.00    -0.170 C  
BRANCH  18  19
HETATM   19  C   UNL     1     -10.066  11.981  67.054  1.00  0.00    -0.221 A  
HETATM   20  C   UNL     1     -11.437  12.098  67.011  1.00  0.00    -0.350 A  
HETATM   21  N   UNL     1     -12.149  12.153  65.877  1.00  0.00    -0.571 NA 
HETATM   22  C   UNL     1     -11.453  12.085  64.733  1.00  0.00    -0.298 A  
HETATM   23  N   UNL     1     -10.136  11.825  64.674  1.00  0.00    -0.264 NA 
HETATM   24  C   UNL     1     -12.193  12.350  63.459  1.00  0.00    -0.661 C  
HETATM   25  C   UNL     1      -9.476  11.733  65.831  1.00  0.00    -0.223 A  
HETATM   26  N   UNL     1      -8.149  11.306  65.720  1.00  0.00    -0.370 NA 
HETATM   27  H1  UNL     1      -7.713  11.122  64.816  1.00  0.00     0.000 HD 
HETATM   28  H2  UNL     1      -8.044  10.468  66.291  1.00  0.00     0.000 HD 
ENDBRANCH  18  19
ENDBRANCH   6  18
TORSDOF 7
ENDMDL
MODEL      316
REMARK 921   NORMALIZED FREE ENERGY PREDICTED BY IDOCK:   -2.91 KCAL/MOL
REMARK 922        TOTAL FREE ENERGY PREDICTED BY IDOCK:   -5.09 KCAL/MOL
REMARK 923 INTER-LIGAND FREE ENERGY PREDICTED BY IDOCK:   -4.15 KCAL/MOL
REMARK 924 INTRA-LIGAND FREE ENERGY PREDICTED BY IDOCK:   -0.94 KCAL/MOL
REMARK 927      BINDING AFFINITY PREDICTED BY RF-SCORE:    0.00 PKD
ROOT
HETATM    1  C   UNL     1     -10.339   8.593  68.220  1.00  0.00    -0.252 C  
HETATM    2  C   UNL     1      -9.224   9.327  67.566  1.00  0.00    -0.124 C  
HETATM    3  C   UNL     1      -8.368   8.852  66.574  1.00  0.00    -0.115 C  
HETATM    4  C   UNL     1      -7.902  11.183  67.289  1.00  0.00    -0.137 C  
HETATM    5  S   UNL     1      -7.158  10.064  66.280  1.00  0.00    -0.111 SA 
HETATM    6  N   UNL     1      -8.959  10.663  67.901  1.00  0.00    -0.136 NA 
ENDROOT
BRANCH   3   7
HETATM    7  C   UNL     1      -8.350   7.535  65.777  1.00  0.00    -0.144 C  
BRANCH   7   8
HETATM    8  C   UNL     1      -8.040   6.361  66.715  1.00  0.00    -0.109 C  
BRANCH   8   9
HETATM    9  O   UNL     1      -8.948   5.285  66.804  1.00  0.00    -0.111 OA 
BRANCH   9  10
HETATM   10  P   UNL     1      -8.521   4.163  67.987  1.00  0.00    -0.098 P  
HETATM   11  O   UNL     1      -7.536   3.357  66.816  1.00  0.00    -0.075 OA 
HETATM   12  O   UNL     1      -9.504   2.984  67.844  1.00  0.00    -0.207 OA 
BRANCH  10  13
HETATM   13  O   UNL     1      -9.506   4.968  69.159  1.00  0.00    -0.117 OA 
HETATM   14  O   UNL     1      -8.064   3.580  70.716  1.00  0.00    -0.056 OA 
HETATM   15  P   UNL     1      -9.014   4.731  70.668  1.00  0.00    -0.132 P  
HETATM   16  O   UNL     1      -8.738   6.071  71.294  1.00  0.00    -0.134 OA 
HETATM   17  O   UNL     1     -10.412   4.291  71.333  1.00  0.00    -0.037 OA 
ENDBRANCH  10  13
ENDBRANCH   9  10
ENDBRANCH   8   9
ENDBRANCH   7   8
ENDBRANCH   3   7
BRANCH   6  18
HETATM   18  C   UNL     1      -9.782  11.552  68.738  1.00  0.00    -0.126 C  
BRANCH  18  19
HETATM   19  C   UNL     1     -10.329  12.724  67.983  1.00  0.00    -0.232 A  
HETATM   20  C   UNL     1     -10.176  14.000  68.478  1.00  0.00    -0.237 A  
HETATM   21  N   UNL     1     -10.488  15.111  67.795  1.00  0.00    -0.244 NA 
HETATM   22  C   UNL     1     -10.979  14.933  66.560  1.00  0.00    -0.327 A  
HETATM   23  N   UNL     1     -11.299  13.732  66.049  1.00  0.00    -0.309 NA 
HETATM   24  C   UNL     1     -11.141  16.148  65.701  1.00  0.00    -0.023 C  
HETATM   25  C   UNL     1     -11.012  12.655  66.785  1.00  0.00    -0.262 A  
HETATM   26  N   UNL     1     -11.507  11.448  66.281  1.00  0.00    -0.294 NA 
HETATM   27  H1  UNL     1     -12.012  11.397  65.396  1.00  0.00     0.000 HD 
HETATM   28  H2  UNL     1     -12.098  11.031  67.001  1.00  0.00     0.000 HD 
ENDBRANCH  18  19
ENDBRANCH   6  18
TORSDOF 7
ENDMDL
MODEL      317
REMARK 921   NORMALIZED FREE ENERGY PREDICTED BY IDOCK:   -2.88 KCAL/MOL
REMARK 922        TOTAL FREE ENERGY PREDICTED BY IDOCK:   -5.05 KCAL/MOL
REMARK 923 INTER-LIGAND FREE ENERGY PREDICTED BY IDOCK:   -6.07 KCAL/MOL
REMARK 924 INTRA-LIGAND FREE ENERGY PREDICTED BY IDOCK:    1.02 KCAL/MOL
REMARK 927      BINDING AFFINITY PREDICTED BY RF-SCORE:    0.00 PKD
ROOT
HETATM    1  C   UNL     1     -10.876   9.173  67.171  1.00  0.00    -0.094 C  
HETATM    2  C   UNL     1      -9.959   9.187  68.340  1.00  0.00    -0.181 C  
HETATM    3  C   UNL     1      -9.008  10.156  68.656  1.00  0.00    -0.136 C  
HETATM    4  C   UNL     1      -9.104   8.266  70.261  1.00  0.00    -0.150 C  
HETATM    5  S   UNL     1      -8.112   9.604  70.038  1.00  0.00    -0.188 SA 
HETATM    6  N   UNL     1     -10.015   8.167  69.301  1.00  0.00    -0.184 NA 
ENDROOT
BRANCH   3   7
HETATM    7  C   UNL     1      -8.677  11.517  68.017  1.00  0.00    -0.151 C  
BRANCH   7   8
HETATM    8  C   UNL     1      -9.895  12.447  68.106  1.00  0.00    -0.213 C  
BRANCH   8   9
HETATM    9  O   UNL     1     -10.096  13.425  67.110  1.00  0.00    -0.236 OA 
BRANCH   9  10
HETATM   10  P   UNL     1     -11.663  14.049  67.109  1.00  0.00    -0.425 P  
HETATM   11  O   UNL     1     -12.208  12.579  66.377  1.00  0.00    -0.584 OA 
HETATM   12  O   UNL     1     -11.868  14.709  65.732  1.00  0.00    -0.346 OA 
BRANCH  10  13
HETATM   13  O   UNL     1     -11.118  15.518  67.841  1.00  0.00    -0.303 OA 
HETATM   14  O   UNL     1      -9.633  15.506  65.786  1.00  0.00    -0.337 OA 
HETATM   15  P   UNL     1     -10.132  16.365  66.901  1.00  0.00    -0.295 P  
HETATM   16  O   UNL     1     -10.725  17.733  66.701  1.00  0.00    -0.259 OA 
HETATM   17  O   UNL     1      -8.935  16.627  67.944  1.00  0.00    -0.211 OA 
ENDBRANCH  10  13
ENDBRANCH   9  10
ENDBRANCH   8   9
ENDBRANCH   7   8
ENDBRANCH   3   7
BRANCH   6  18
HETATM   18  C   UNL     1     -11.029   7.104  69.414  1.00  0.00    -0.164 C  
BRANCH  18  19
HETATM   19  C   UNL     1     -10.515   5.878  70.104  1.00  0.00    -0.329 A  
HETATM   20  C   UNL     1     -10.679   5.727  71.463  1.00  0.00    -0.258 A  
HETATM   21  N   UNL     1     -10.397   4.599  72.131  1.00  0.00    -0.192 NA 
HETATM   22  C   UNL     1      -9.926   3.577  71.402  1.00  0.00    -0.081 A  
HETATM   23  N   UNL     1      -9.596   3.675  70.103  1.00  0.00    -0.187 NA 
HETATM   24  C   UNL     1      -9.798   2.248  72.079  1.00  0.00    -0.222 C  
HETATM   25  C   UNL     1      -9.853   4.834  69.490  1.00  0.00    -0.222 A  
HETATM   26  N   UNL     1      -9.347   4.937  68.190  1.00  0.00    -0.124 NA 
HETATM   27  H1  UNL     1      -8.858   4.165  67.736  1.00  0.00     0.000 HD 
HETATM   28  H2  UNL     1      -8.737   5.753  68.159  1.00  0.00     0.000 HD 
ENDBRANCH  18  19
ENDBRANCH   6  18
TORSDOF 7
ENDMDL
MODEL      318
REMARK 921   NORMALIZED FREE ENERGY PREDICTED BY IDOCK:   -2.81 KCAL/MOL
REMARK 922        TOTAL FREE ENERGY PREDICTED BY IDOCK:   -4.94 KCAL/MOL
REMARK 923 INTER-LIGAND FREE ENERGY PREDICTED BY IDOCK:   -5.27 KCAL/MOL
REMARK 924 INTRA-LIGAND FREE ENERGY PREDICTED BY IDOCK:    0.32 KCAL/MOL
REMARK 927      BINDING AFFINITY PREDICTED BY RF-SCORE:    0.00 PKD
ROOT
HETATM    1  C   UNL     1      -8.226   8.528  68.930  1.00  0.00    -0.117 C  
HETATM    2  C   UNL     1      -9.350   7.570  69.095  1.00  0.00    -0.147 C  
HETATM    3  C   UNL     1     -10.061   7.296  70.262  1.00  0.00    -0.192 C  
HETATM    4  C   UNL     1     -10.800   5.983  68.290  1.00  0.00    -0.284 C  
HETATM    5  S   UNL     1     -11.161   5.992  69.931  1.00  0.00    -0.357 SA 
HETATM    6  N   UNL     1      -9.834   6.845  67.997  1.00  0.00    -0.136 NA 
ENDROOT
BRANCH   3   7
HETATM    7  C   UNL     1     -10.017   7.930  71.664  1.00  0.00    -0.227 C  
BRANCH   7   8
HETATM    8  C   UNL     1     -10.956   9.143  71.720  1.00  0.00    -0.359 C  
BRANCH   8   9
HETATM    9  O   UNL     1     -10.938  10.084  70.670  1.00  0.00    -0.300 OA 
BRANCH   9  10
HETATM   10  P   UNL     1     -12.158  11.240  70.803  1.00  0.00    -0.194 P  
HETATM   11  O   UNL     1     -12.921  10.244  71.994  1.00  0.00    -0.432 OA 
HETATM   12  O   UNL     1     -13.281  10.800  69.842  1.00  0.00    -0.017 OA 
BRANCH  10  13
HETATM   13  O   UNL     1     -11.395  12.235  69.612  1.00  0.00    -0.225 OA 
HETATM   14  O   UNL     1     -11.510  10.058  68.317  1.00  0.00    -0.131 OA 
HETATM   15  P   UNL     1     -11.277  11.526  68.177  1.00  0.00    -0.325 P  
HETATM   16  O   UNL     1     -11.972  12.390  67.161  1.00  0.00    -0.528 OA 
HETATM   17  O   UNL     1      -9.716  11.788  67.883  1.00  0.00    -0.175 OA 
ENDBRANCH  10  13
ENDBRANCH   9  10
ENDBRANCH   8   9
ENDBRANCH   7   8
ENDBRANCH   3   7
BRANCH   6  18
HETATM   18  C   UNL     1      -9.479   7.031  66.579  1.00  0.00    -0.150 C  
BRANCH  18  19
HETATM   19  C   UNL     1      -8.550   5.974  66.066  1.00  0.00    -0.147 A  
HETATM   20  C   UNL     1      -7.196   6.070  66.297  1.00  0.00    -0.076 A  
HETATM   21  N   UNL     1      -6.317   5.097  66.018  1.00  0.00    -0.038 NA 
HETATM   22  C   UNL     1      -6.821   3.976  65.480  1.00  0.00    -0.057 A  
HETATM   23  N   UNL     1      -8.099   3.846  65.086  1.00  0.00    -0.096 NA 
HETATM   24  C   UNL     1      -5.903   2.802  65.349  1.00  0.00    -0.018 C  
HETATM   25  C   UNL     1      -8.928   4.861  65.343  1.00  0.00    -0.151 A  
HETATM   26  N   UNL     1     -10.200   4.741  64.774  1.00  0.00    -0.389 NA 
HETATM   27  H1  UNL     1     -10.479   3.918  64.239  1.00  0.00     0.000 HD 
HETATM   28  H2  UNL     1     -10.355   5.561  64.186  1.00  0.00     0.000 HD 
ENDBRANCH  18  19
ENDBRANCH   6  18
TORSDOF 7
ENDMDL
MODEL      319
REMARK 921   NORMALIZED FREE ENERGY PREDICTED BY IDOCK:   -2.80 KCAL/MOL
REMARK 922        TOTAL FREE ENERGY PREDICTED BY IDOCK:   -4.93 KCAL/MOL
REMARK 923 INTER-LIGAND FREE ENERGY PREDICTED BY IDOCK:   -3.50 KCAL/MOL
REMARK 924 INTRA-LIGAND FREE ENERGY PREDICTED BY IDOCK:   -1.42 KCAL/MOL
REMARK 927      BINDING AFFINITY PREDICTED BY RF-SCORE:    0.00 PKD
ROOT
HETATM    1  C   UNL     1      -5.999   4.918  68.055  1.00  0.00    -0.026 C  
HETATM    2  C   UNL     1      -6.636   3.920  68.954  1.00  0.00    -0.041 C  
HETATM    3  C   UNL     1      -7.131   4.137  70.239  1.00  0.00    -0.041 C  
HETATM    4  C   UNL     1      -7.358   1.797  69.443  1.00  0.00    -0.043 C  
HETATM    5  S   UNL     1      -7.627   2.605  70.892  1.00  0.00    -0.036 SA 
HETATM    6  N   UNL     1      -6.833   2.600  68.526  1.00  0.00    -0.040 NA 
ENDROOT
BRANCH   3   7
HETATM    7  C   UNL     1      -7.289   5.419  71.076  1.00  0.00    -0.083 C  
BRANCH   7   8
HETATM    8  C   UNL     1      -8.777   5.706  71.318  1.00  0.00    -0.132 C  
BRANCH   8   9
HETATM    9  O   UNL     1      -9.363   6.859  70.756  1.00  0.00    -0.161 OA 
BRANCH   9  10
HETATM   10  P   UNL     1     -10.343   6.516  69.427  1.00  0.00    -0.246 P  
HETATM   11  O   UNL     1     -11.669   6.281  70.512  1.00  0.00    -0.354 OA 
HETATM   12  O   UNL     1     -10.324   4.984  69.256  1.00  0.00    -0.213 OA 
BRANCH  10  13
HETATM   13  O   UNL     1      -9.016   6.751  68.343  1.00  0.00    -0.125 OA 
HETATM   14  O   UNL     1     -10.893   7.665  66.903  1.00  0.00    -0.328 OA 
HETATM   15  P   UNL     1      -9.407   7.605  67.042  1.00  0.00    -0.177 P  
HETATM   16  O   UNL     1      -8.511   8.811  66.978  1.00  0.00    -0.108 OA 
HETATM   17  O   UNL     1      -8.809   6.637  65.903  1.00  0.00    -0.154 OA 
ENDBRANCH  10  13
ENDBRANCH   9  10
ENDBRANCH   8   9
ENDBRANCH   7   8
ENDBRANCH   3   7
BRANCH   6  18
HETATM   18  C   UNL     1      -6.639   2.065  67.167  1.00  0.00    -0.035 C  
BRANCH  18  19
HETATM   19  C   UNL     1      -7.515   2.727  66.148  1.00  0.00    -0.072 A  
HETATM   20  C   UNL     1      -6.959   3.321  65.037  1.00  0.00    -0.057 A  
HETATM   21  N   UNL     1      -7.671   3.791  64.003  1.00  0.00    -0.082 NA 
HETATM   22  C   UNL     1      -9.004   3.661  64.089  1.00  0.00    -0.116 A  
HETATM   23  N   UNL     1      -9.642   3.231  65.191  1.00  0.00    -0.141 NA 
HETATM   24  C   UNL     1      -9.808   3.984  62.870  1.00  0.00    -0.148 C  
HETATM   25  C   UNL     1      -8.891   2.816  66.214  1.00  0.00    -0.144 A  
HETATM   26  N   UNL     1      -9.598   2.532  67.387  1.00  0.00    -0.404 NA 
HETATM   27  H1  UNL     1     -10.615   2.597  67.435  1.00  0.00     0.000 HD 
HETATM   28  H2  UNL     1      -9.213   3.114  68.130  1.00  0.00     0.000 HD 
ENDBRANCH  18  19
ENDBRANCH   6  18
TORSDOF 7
ENDMDL
MODEL      320
REMARK 921   NORMALIZED FREE ENERGY PREDICTED BY IDOCK:   -2.78 KCAL/MOL
REMARK 922        TOTAL FREE ENERGY PREDICTED BY IDOCK:   -4.91 KCAL/MOL
REMARK 923 INTER-LIGAND FREE ENERGY PREDICTED BY IDOCK:   -4.63 KCAL/MOL
REMARK 924 INTRA-LIGAND FREE ENERGY PREDICTED BY IDOCK:   -0.27 KCAL/MOL
REMARK 927      BINDING AFFINITY PREDICTED BY RF-SCORE:    0.00 PKD
ROOT
HETATM    1  C   UNL     1     -10.725   8.988  68.499  1.00  0.00    -0.140 C  
HETATM    2  C   UNL     1      -9.421   9.178  67.812  1.00  0.00    -0.140 C  
HETATM    3  C   UNL     1      -8.748   8.257  67.010  1.00  0.00    -0.127 C  
HETATM    4  C   UNL     1      -7.565  10.421  67.287  1.00  0.00    -0.095 C  
HETATM    5  S   UNL     1      -7.206   8.936  66.587  1.00  0.00    -0.086 SA 
HETATM    6  N   UNL     1      -8.743  10.402  67.897  1.00  0.00    -0.118 NA 
ENDROOT
BRANCH   3   7
HETATM    7  C   UNL     1      -9.144   6.862  66.494  1.00  0.00    -0.179 C  
BRANCH   7   8
HETATM    8  C   UNL     1      -8.293   5.788  67.186  1.00  0.00    -0.104 C  
BRANCH   8   9
HETATM    9  O   UNL     1      -7.977   4.600  66.495  1.00  0.00    -0.101 OA 
BRANCH   9  10
HETATM   10  P   UNL     1      -9.342   3.728  66.027  1.00  0.00    -0.151 P  
HETATM   11  O   UNL     1      -9.909   3.813  67.659  1.00  0.00    -0.134 OA 
HETATM   12  O   UNL     1      -9.028   2.245  66.305  1.00  0.00    -0.131 OA 
BRANCH  10  13
HETATM   13  O   UNL     1      -8.774   3.644  64.396  1.00  0.00    -0.102 OA 
HETATM   14  O   UNL     1     -11.177   2.919  64.034  1.00  0.00    -0.104 OA 
HETATM   15  P   UNL     1      -9.947   3.391  63.331  1.00  0.00    -0.192 P  
HETATM   16  O   UNL     1      -9.934   4.517  62.333  1.00  0.00    -0.114 OA 
HETATM   17  O   UNL     1      -9.301   2.163  62.515  1.00  0.00    -0.090 OA 
ENDBRANCH  10  13
ENDBRANCH   9  10
ENDBRANCH   8   9
ENDBRANCH   7   8
ENDBRANCH   3   7
BRANCH   6  18
HETATM   18  C   UNL     1      -9.248  11.663  68.468  1.00  0.00    -0.163 C  
BRANCH  18  19
HETATM   19  C   UNL     1      -9.980  12.504  67.468  1.00  0.00    -0.201 A  
HETATM   20  C   UNL     1      -9.618  12.475  66.140  1.00  0.00    -0.228 A  
HETATM   21  N   UNL     1     -10.316  13.066  65.160  1.00  0.00    -0.302 NA 
HETATM   22  C   UNL     1     -11.427  13.720  65.530  1.00  0.00    -0.311 A  
HETATM   23  N   UNL     1     -11.781  13.926  66.810  1.00  0.00    -0.376 NA 
HETATM   24  C   UNL     1     -12.332  14.211  64.444  1.00  0.00    -0.410 C  
HETATM   25  C   UNL     1     -11.029  13.355  67.755  1.00  0.00    -0.262 A  
HETATM   26  N   UNL     1     -11.344  13.730  69.065  1.00  0.00    -0.272 NA 
HETATM   27  H1  UNL     1     -12.119  14.359  69.277  1.00  0.00     0.000 HD 
HETATM   28  H2  UNL     1     -10.502  14.122  69.486  1.00  0.00     0.000 HD 
ENDBRANCH  18  19
ENDBRANCH   6  18
TORSDOF 7
ENDMDL
MODEL      321
REMARK 921   NORMALIZED FREE ENERGY PREDICTED BY IDOCK:   -2.73 KCAL/MOL
REMARK 922        TOTAL FREE ENERGY PREDICTED BY IDOCK:   -4.83 KCAL/MOL
REMARK 923 INTER-LIGAND FREE ENERGY PREDICTED BY IDOCK:   -3.97 KCAL/MOL
REMARK 924 INTRA-LIGAND FREE ENERGY PREDICTED BY IDOCK:   -0.86 KCAL/MOL
REMARK 927      BINDING AFFINITY PREDICTED BY RF-SCORE:    0.00 PKD
ROOT
HETATM    1  C   UNL     1      -6.839   7.366  66.087  1.00  0.00    -0.057 C  
HETATM    2  C   UNL     1      -7.001   7.944  67.446  1.00  0.00    -0.075 C  
HETATM    3  C   UNL     1      -6.997   7.259  68.661  1.00  0.00    -0.082 C  
HETATM    4  C   UNL     1      -7.339   9.708  68.876  1.00  0.00    -0.073 C  
HETATM    5  S   UNL     1      -7.378   8.393  69.921  1.00  0.00    -0.061 SA 
HETATM    6  N   UNL     1      -7.144   9.328  67.619  1.00  0.00    -0.081 NA 
ENDROOT
BRANCH   3   7
HETATM    7  C   UNL     1      -6.724   5.784  69.007  1.00  0.00    -0.060 C  
BRANCH   7   8
HETATM    8  C   UNL     1      -7.572   5.366  70.216  1.00  0.00    -0.076 C  
BRANCH   8   9
HETATM    9  O   UNL     1      -7.916   4.009  70.387  1.00  0.00    -0.051 OA 
BRANCH   9  10
HETATM   10  P   UNL     1      -9.578   3.738  70.304  1.00  0.00    -0.082 P  
HETATM   11  O   UNL     1      -9.322   2.844  68.845  1.00  0.00    -0.156 OA 
HETATM   12  O   UNL     1     -10.158   4.856  69.416  1.00  0.00    -0.218 OA 
BRANCH  10  13
HETATM   13  O   UNL     1      -9.834   4.631  71.763  1.00  0.00    -0.167 OA 
HETATM   14  O   UNL     1     -10.031   2.275  72.681  1.00  0.00    -0.114 OA 
HETATM   15  P   UNL     1      -9.859   3.706  73.074  1.00  0.00    -0.146 P  
HETATM   16  O   UNL     1      -8.795   4.192  74.019  1.00  0.00    -0.096 OA 
HETATM   17  O   UNL     1     -11.222   4.238  73.744  1.00  0.00    -0.254 OA 
ENDBRANCH  10  13
ENDBRANCH   9  10
ENDBRANCH   8   9
ENDBRANCH   7   8
ENDBRANCH   3   7
BRANCH   6  18
HETATM   18  C   UNL     1      -6.978  10.376  66.596  1.00  0.00    -0.111 C  
BRANCH  18  19
HETATM   19  C   UNL     1      -8.225  11.173  66.369  1.00  0.00    -0.164 A  
HETATM   20  C   UNL     1      -9.300  10.608  65.719  1.00  0.00    -0.186 A  
HETATM   21  N   UNL     1     -10.504  11.188  65.617  1.00  0.00    -0.258 NA 
HETATM   22  C   UNL     1     -10.634  12.394  66.191  1.00  0.00    -0.254 A  
HETATM   23  N   UNL     1      -9.610  13.085  66.717  1.00  0.00    -0.242 NA 
HETATM   24  C   UNL     1     -12.012  12.972  66.273  1.00  0.00    -0.477 C  
HETATM   25  C   UNL     1      -8.417  12.484  66.756  1.00  0.00    -0.070 A  
HETATM   26  N   UNL     1      -7.358  13.301  67.163  1.00  0.00    -0.364 NA 
HETATM   27  H1  UNL     1      -7.501  14.270  67.449  1.00  0.00     0.000 HD 
HETATM   28  H2  UNL     1      -6.659  13.295  66.421  1.00  0.00     0.000 HD 
ENDBRANCH  18  19
ENDBRANCH   6  18
TORSDOF 7
ENDMDL
MODEL      322
REMARK 921   NORMALIZED FREE ENERGY PREDICTED BY IDOCK:   -2.70 KCAL/MOL
REMARK 922        TOTAL FREE ENERGY PREDICTED BY IDOCK:   -4.80 KCAL/MOL
REMARK 923 INTER-LIGAND FREE ENERGY PREDICTED BY IDOCK:   -3.76 KCAL/MOL
REMARK 924 INTRA-LIGAND FREE ENERGY PREDICTED BY IDOCK:   -1.04 KCAL/MOL
REMARK 927      BINDING AFFINITY PREDICTED BY RF-SCORE:    0.00 PKD
ROOT
HETATM    1  C   UNL     1      -8.356   5.082  71.655  1.00  0.00    -0.116 C  
HETATM    2  C   UNL     1      -7.579   5.789  70.604  1.00  0.00    -0.091 C  
HETATM    3  C   UNL     1      -7.322   7.157  70.521  1.00  0.00    -0.075 C  
HETATM    4  C   UNL     1      -6.357   5.826  68.662  1.00  0.00    -0.041 C  
HETATM    5  S   UNL     1      -6.501   7.461  69.021  1.00  0.00    -0.041 SA 
HETATM    6  N   UNL     1      -6.971   5.071  69.565  1.00  0.00    -0.053 NA 
ENDROOT
BRANCH   3   7
HETATM    7  C   UNL     1      -7.631   8.320  71.481  1.00  0.00    -0.104 C  
BRANCH   7   8
HETATM    8  C   UNL     1      -8.750   9.195  70.900  1.00  0.00    -0.221 C  
BRANCH   8   9
HETATM    9  O   UNL     1      -9.804   8.590  70.185  1.00  0.00    -0.175 OA 
BRANCH   9  10
HETATM   10  P   UNL     1     -10.207   9.424  68.777  1.00  0.00    -0.214 P  
HETATM   11  O   UNL     1     -10.146   7.925  67.916  1.00  0.00    -0.173 OA 
HETATM   12  O   UNL     1      -8.875   9.776  68.084  1.00  0.00    -0.119 OA 
BRANCH  10  13
HETATM   13  O   UNL     1     -10.267  10.923  69.638  1.00  0.00    -0.137 OA 
HETATM   14  O   UNL     1     -12.254  11.252  68.096  1.00  0.00    -0.622 OA 
HETATM   15  P   UNL     1     -11.588  11.778  69.326  1.00  0.00    -0.348 P  
HETATM   16  O   UNL     1     -12.307  12.032  70.622  1.00  0.00    -0.356 OA 
HETATM   17  O   UNL     1     -10.909  13.199  68.993  1.00  0.00    -0.234 OA 
ENDBRANCH  10  13
ENDBRANCH   9  10
ENDBRANCH   8   9
ENDBRANCH   7   8
ENDBRANCH   3   7
BRANCH   6  18
HETATM   18  C   UNL     1      -6.843   3.608  69.447  1.00  0.00    -0.041 C  
BRANCH  18  19
HETATM   19  C   UNL     1      -7.400   3.075  68.163  1.00  0.00    -0.050 A  
HETATM   20  C   UNL     1      -8.758   3.102  67.932  1.00  0.00    -0.109 A  
HETATM   21  N   UNL     1      -9.324   2.798  66.756  1.00  0.00    -0.099 NA 
HETATM   22  C   UNL     1      -8.490   2.447  65.766  1.00  0.00    -0.099 A  
HETATM   23  N   UNL     1      -7.172   2.251  65.935  1.00  0.00    -0.063 NA 
HETATM   24  C   UNL     1      -9.070   2.303  64.394  1.00  0.00    -0.123 C  
HETATM   25  C   UNL     1      -6.659   2.523  67.138  1.00  0.00    -0.036 A  
HETATM   26  N   UNL     1      -5.321   2.151  67.306  1.00  0.00    -0.016 NA 
HETATM   27  H1  UNL     1      -4.773   1.744  66.548  1.00  0.00     0.000 HD 
HETATM   28  H2  UNL     1      -5.273   1.515  68.102  1.00  0.00     0.000 HD 
ENDBRANCH  18  19
ENDBRANCH   6  18
TORSDOF 7
ENDMDL
MODEL      323
REMARK 921   NORMALIZED FREE ENERGY PREDICTED BY IDOCK:   -2.67 KCAL/MOL
REMARK 922        TOTAL FREE ENERGY PREDICTED BY IDOCK:   -4.74 KCAL/MOL
REMARK 923 INTER-LIGAND FREE ENERGY PREDICTED BY IDOCK:   -4.21 KCAL/MOL
REMARK 924 INTRA-LIGAND FREE ENERGY PREDICTED BY IDOCK:   -0.53 KCAL/MOL
REMARK 927      BINDING AFFINITY PREDICTED BY RF-SCORE:    0.00 PKD
ROOT
HETATM    1  C   UNL     1     -10.715   9.239  67.668  1.00  0.00    -0.276 C  
HETATM    2  C   UNL     1      -9.485   9.541  68.445  1.00  0.00    -0.137 C  
HETATM    3  C   UNL     1      -8.883  10.786  68.622  1.00  0.00    -0.152 C  
HETATM    4  C   UNL     1      -7.699   8.917  69.744  1.00  0.00    -0.078 C  
HETATM    5  S   UNL     1      -7.395  10.549  69.486  1.00  0.00    -0.144 SA 
HETATM    6  N   UNL     1      -8.814   8.525  69.139  1.00  0.00    -0.141 NA 
ENDROOT
BRANCH   3   7
HETATM    7  C   UNL     1      -9.313  12.204  68.202  1.00  0.00    -0.204 C  
BRANCH   7   8
HETATM    8  C   UNL     1      -8.247  12.825  67.290  1.00  0.00    -0.181 C  
BRANCH   8   9
HETATM    9  O   UNL     1      -7.997  14.211  67.358  1.00  0.00    -0.175 OA 
BRANCH   9  10
HETATM   10  P   UNL     1      -9.297  15.141  66.822  1.00  0.00    -0.282 P  
HETATM   11  O   UNL     1      -9.339  14.184  65.382  1.00  0.00     0.088 OA 
HETATM   12  O   UNL     1      -8.699  16.265  65.953  1.00  0.00    -0.380 OA 
BRANCH  10  13
HETATM   13  O   UNL     1      -9.255  16.098  68.262  1.00  0.00    -0.191 OA 
HETATM   14  O   UNL     1     -11.514  16.811  67.359  1.00  0.00     0.172 OA 
HETATM   15  P   UNL     1     -10.647  16.831  68.574  1.00  0.00    -0.363 P  
HETATM   16  O   UNL     1     -11.112  16.406  69.940  1.00  0.00    -0.349 OA 
HETATM   17  O   UNL     1     -10.108  18.328  68.814  1.00  0.00    -0.378 OA 
ENDBRANCH  10  13
ENDBRANCH   9  10
ENDBRANCH   8   9
ENDBRANCH   7   8
ENDBRANCH   3   7
BRANCH   6  18
HETATM   18  C   UNL     1      -9.273   7.143  69.361  1.00  0.00    -0.148 C  
BRANCH  18  19
HETATM   19  C   UNL     1      -9.315   6.333  68.102  1.00  0.00    -0.115 A  
HETATM   20  C   UNL     1     -10.511   5.830  67.640  1.00  0.00    -0.235 A  
HETATM   21  N   UNL     1     -10.665   5.238  66.448  1.00  0.00    -0.293 NA 
HETATM   22  C   UNL     1      -9.566   5.141  65.685  1.00  0.00    -0.087 A  
HETATM   23  N   UNL     1      -8.333   5.467  66.106  1.00  0.00    -0.116 NA 
HETATM   24  C   UNL     1      -9.746   4.674  64.274  1.00  0.00     0.117 C  
HETATM   25  C   UNL     1      -8.223   6.013  67.321  1.00  0.00    -0.106 A  
HETATM   26  N   UNL     1      -6.910   6.185  67.772  1.00  0.00    -0.061 NA 
HETATM   27  H1  UNL     1      -6.103   5.949  67.194  1.00  0.00     0.000 HD 
HETATM   28  H2  UNL     1      -6.818   5.683  68.655  1.00  0.00     0.000 HD 
ENDBRANCH  18  19
ENDBRANCH   6  18
TORSDOF 7
ENDMDL
MODEL      324
REMARK 921   NORMALIZED FREE ENERGY PREDICTED BY IDOCK:   -2.59 KCAL/MOL
REMARK 922        TOTAL FREE ENERGY PREDICTED BY IDOCK:   -4.64 KCAL/MOL
REMARK 923 INTER-LIGAND FREE ENERGY PREDICTED BY IDOCK:   -4.08 KCAL/MOL
REMARK 924 INTRA-LIGAND FREE ENERGY PREDICTED BY IDOCK:   -0.56 KCAL/MOL
REMARK 927      BINDING AFFINITY PREDICTED BY RF-SCORE:    0.00 PKD
ROOT
HETATM    1  C   UNL     1      -5.944   4.944  68.013  1.00  0.00    -0.026 C  
HETATM    2  C   UNL     1      -6.820   4.155  68.919  1.00  0.00    -0.047 C  
HETATM    3  C   UNL     1      -7.344   4.557  70.147  1.00  0.00    -0.050 C  
HETATM    4  C   UNL     1      -7.971   2.251  69.479  1.00  0.00    -0.041 C  
HETATM    5  S   UNL     1      -8.169   3.200  70.851  1.00  0.00    -0.057 SA 
HETATM    6  N   UNL     1      -7.243   2.869  68.557  1.00  0.00    -0.049 NA 
ENDROOT
BRANCH   3   7
HETATM    7  C   UNL     1      -7.301   5.905  70.891  1.00  0.00    -0.086 C  
BRANCH   7   8
HETATM    8  C   UNL     1      -8.625   6.135  71.632  1.00  0.00    -0.134 C  
BRANCH   8   9
HETATM    9  O   UNL     1      -9.380   7.295  71.361  1.00  0.00    -0.150 OA 
BRANCH   9  10
HETATM   10  P   UNL     1      -9.732   8.187  72.747  1.00  0.00    -0.234 P  
HETATM   11  O   UNL     1      -8.121   8.815  72.708  1.00  0.00    -0.398 OA 
HETATM   12  O   UNL     1      -9.277   7.330  73.944  1.00  0.00    -0.208 OA 
BRANCH  10  13
HETATM   13  O   UNL     1     -11.344   7.559  72.786  1.00  0.00    -0.337 OA 
HETATM   14  O   UNL     1     -11.753   9.662  71.430  1.00  0.00    -0.352 OA 
HETATM   15  P   UNL     1     -12.355   8.355  71.828  1.00  0.00    -0.369 P  
HETATM   16  O   UNL     1     -12.955   7.378  70.854  1.00  0.00    -0.204 OA 
HETATM   17  O   UNL     1     -13.551   8.620  72.872  1.00  0.00    -0.225 OA 
ENDBRANCH  10  13
ENDBRANCH   9  10
ENDBRANCH   8   9
ENDBRANCH   7   8
ENDBRANCH   3   7
BRANCH   6  18
HETATM   18  C   UNL     1      -7.071   2.208  67.252  1.00  0.00    -0.047 C  
BRANCH  18  19
HETATM   19  C   UNL     1      -7.794   2.908  66.143  1.00  0.00    -0.081 A  
HETATM   20  C   UNL     1      -7.124   3.260  64.992  1.00  0.00    -0.061 A  
HETATM   21  N   UNL     1      -7.724   3.740  63.894  1.00  0.00    -0.081 NA 
HETATM   22  C   UNL     1      -9.057   3.876  63.953  1.00  0.00    -0.129 A  
HETATM   23  N   UNL     1      -9.776   3.699  65.074  1.00  0.00    -0.170 NA 
HETATM   24  C   UNL     1      -9.773   4.211  62.682  1.00  0.00    -0.139 C  
HETATM   25  C   UNL     1      -9.128   3.264  66.158  1.00  0.00    -0.153 A  
HETATM   26  N   UNL     1      -9.887   3.249  67.332  1.00  0.00    -0.254 NA 
HETATM   27  H1  UNL     1     -10.873   3.512  67.343  1.00  0.00     0.000 HD 
HETATM   28  H2  UNL     1      -9.405   3.826  68.021  1.00  0.00     0.000 HD 
ENDBRANCH  18  19
ENDBRANCH   6  18
TORSDOF 7
ENDMDL
MODEL      325
REMARK 921   NORMALIZED FREE ENERGY PREDICTED BY IDOCK:   -2.57 KCAL/MOL
REMARK 922        TOTAL FREE ENERGY PREDICTED BY IDOCK:   -4.61 KCAL/MOL
REMARK 923 INTER-LIGAND FREE ENERGY PREDICTED BY IDOCK:   -6.63 KCAL/MOL
REMARK 924 INTRA-LIGAND FREE ENERGY PREDICTED BY IDOCK:    2.02 KCAL/MOL
REMARK 927      BINDING AFFINITY PREDICTED BY RF-SCORE:    0.00 PKD
ROOT
HETATM    1  C   UNL     1     -10.242  15.523  66.542  1.00  0.00    -0.291 C  
HETATM    2  C   UNL     1     -10.732  15.515  67.945  1.00  0.00    -0.294 C  
HETATM    3  C   UNL     1     -10.416  16.424  68.954  1.00  0.00    -0.285 C  
HETATM    4  C   UNL     1     -11.956  14.612  69.663  1.00  0.00    -0.323 C  
HETATM    5  S   UNL     1     -11.139  15.862  70.432  1.00  0.00    -0.369 SA 
HETATM    6  N   UNL     1     -11.644  14.542  68.375  1.00  0.00    -0.309 NA 
ENDROOT
BRANCH   3   7
HETATM    7  C   UNL     1      -9.601  17.730  68.943  1.00  0.00    -0.223 C  
BRANCH   7   8
HETATM    8  C   UNL     1      -8.142  17.439  69.318  1.00  0.00     0.154 C  
BRANCH   8   9
HETATM    9  O   UNL     1      -7.304  16.783  68.392  1.00  0.00    -0.180 OA 
BRANCH   9  10
HETATM   10  P   UNL     1      -6.285  17.841  67.565  1.00  0.00    -0.164 P  
HETATM   11  O   UNL     1      -5.348  16.480  67.054  1.00  0.00    -0.252 OA 
HETATM   12  O   UNL     1      -5.125  18.170  68.526  1.00  0.00    -0.156 OA 
BRANCH  10  13
HETATM   13  O   UNL     1      -7.223  19.202  68.075  1.00  0.00    -0.245 OA 
HETATM   14  O   UNL     1      -7.892  19.133  65.630  1.00  0.00    -0.451 OA 
HETATM   15  P   UNL     1      -8.254  19.713  66.958  1.00  0.00    -0.319 P  
HETATM   16  O   UNL     1      -9.642  19.672  67.538  1.00  0.00    -0.309 OA 
HETATM   17  O   UNL     1      -7.894  21.282  66.966  1.00  0.00    -0.206 OA 
ENDBRANCH  10  13
ENDBRANCH   9  10
ENDBRANCH   8   9
ENDBRANCH   7   8
ENDBRANCH   3   7
BRANCH   6  18
HETATM   18  C   UNL     1     -12.362  13.562  67.541  1.00  0.00    -0.040 C  
BRANCH  18  19
HETATM   19  C   UNL     1     -11.450  12.563  66.899  1.00  0.00    -0.416 A  
HETATM   20  C   UNL     1     -10.506  11.902  67.653  1.00  0.00    -0.208 A  
HETATM   21  N   UNL     1      -9.763  10.882  67.198  1.00  0.00    -0.172 NA 
HETATM   22  C   UNL     1      -9.976  10.511  65.927  1.00  0.00    -0.254 A  
HETATM   23  N   UNL     1     -10.766  11.185  65.074  1.00  0.00    -0.267 NA 
HETATM   24  C   UNL     1      -9.316   9.252  65.457  1.00  0.00    -0.303 C  
HETATM   25  C   UNL     1     -11.451  12.223  65.561  1.00  0.00    -0.361 A  
HETATM   26  N   UNL     1     -12.129  12.983  64.602  1.00  0.00    -0.385 NA 
HETATM   27  H1  UNL     1     -12.130  12.731  63.613  1.00  0.00     0.000 HD 
HETATM   28  H2  UNL     1     -11.799  13.944  64.678  1.00  0.00     0.000 HD 
ENDBRANCH  18  19
ENDBRANCH   6  18
TORSDOF 7
ENDMDL
MODEL      326
REMARK 921   NORMALIZED FREE ENERGY PREDICTED BY IDOCK:   -2.54 KCAL/MOL
REMARK 922        TOTAL FREE ENERGY PREDICTED BY IDOCK:   -4.56 KCAL/MOL
REMARK 923 INTER-LIGAND FREE ENERGY PREDICTED BY IDOCK:   -5.06 KCAL/MOL
REMARK 924 INTRA-LIGAND FREE ENERGY PREDICTED BY IDOCK:    0.50 KCAL/MOL
REMARK 927      BINDING AFFINITY PREDICTED BY RF-SCORE:    0.00 PKD
ROOT
HETATM    1  C   UNL     1     -10.896   7.097  67.074  1.00  0.00    -0.382 C  
HETATM    2  C   UNL     1      -9.588   7.760  67.320  1.00  0.00    -0.161 C  
HETATM    3  C   UNL     1      -8.415   7.165  67.781  1.00  0.00    -0.120 C  
HETATM    4  C   UNL     1      -8.223   9.604  67.367  1.00  0.00    -0.114 C  
HETATM    5  S   UNL     1      -7.237   8.418  68.033  1.00  0.00    -0.093 SA 
HETATM    6  N   UNL     1      -9.420   9.125  67.049  1.00  0.00    -0.147 NA 
ENDROOT
BRANCH   3   7
HETATM    7  C   UNL     1      -8.051   5.696  68.067  1.00  0.00    -0.097 C  
BRANCH   7   8
HETATM    8  C   UNL     1      -8.826   5.194  69.292  1.00  0.00    -0.095 C  
BRANCH   8   9
HETATM    9  O   UNL     1      -8.918   6.010  70.438  1.00  0.00    -0.145 OA 
BRANCH   9  10
HETATM   10  P   UNL     1      -8.557   5.183  71.863  1.00  0.00    -0.131 P  
HETATM   11  O   UNL     1      -9.468   3.838  71.269  1.00  0.00    -0.134 OA 
HETATM   12  O   UNL     1      -9.732   5.443  72.826  1.00  0.00    -0.148 OA 
BRANCH  10  13
HETATM   13  O   UNL     1      -7.647   6.529  72.456  1.00  0.00    -0.093 OA 
HETATM   14  O   UNL     1      -9.807   7.720  71.868  1.00  0.00    -0.162 OA 
HETATM   15  P   UNL     1      -8.524   7.863  72.617  1.00  0.00    -0.184 P  
HETATM   16  O   UNL     1      -8.436   8.318  74.048  1.00  0.00    -0.256 OA 
HETATM   17  O   UNL     1      -7.570   8.900  71.839  1.00  0.00    -0.303 OA 
ENDBRANCH  10  13
ENDBRANCH   9  10
ENDBRANCH   8   9
ENDBRANCH   7   8
ENDBRANCH   3   7
BRANCH   6  18
HETATM   18  C   UNL     1     -10.362  10.019  66.355  1.00  0.00    -0.179 C  
BRANCH  18  19
HETATM   19  C   UNL     1     -10.666  11.263  67.131  1.00  0.00    -0.297 A  
HETATM   20  C   UNL     1     -11.277  11.180  68.362  1.00  0.00    -0.262 A  
HETATM   21  N   UNL     1     -11.438  12.221  69.190  1.00  0.00    -0.277 NA 
HETATM   22  C   UNL     1     -10.967  13.402  68.762  1.00  0.00    -0.257 A  
HETATM   23  N   UNL     1     -10.490  13.611  67.523  1.00  0.00    -0.240 NA 
HETATM   24  C   UNL     1     -10.946  14.533  69.742  1.00  0.00    -0.187 C  
HETATM   25  C   UNL     1     -10.391  12.551  66.716  1.00  0.00    -0.226 A  
HETATM   26  N   UNL     1     -10.042  12.847  65.395  1.00  0.00    -0.370 NA 
HETATM   27  H1  UNL     1      -9.839  13.799  65.089  1.00  0.00     0.000 HD 
HETATM   28  H2  UNL     1     -10.775  12.476  64.790  1.00  0.00     0.000 HD 
ENDBRANCH  18  19
ENDBRANCH   6  18
TORSDOF 7
ENDMDL
MODEL      327
REMARK 921   NORMALIZED FREE ENERGY PREDICTED BY IDOCK:   -2.52 KCAL/MOL
REMARK 922        TOTAL FREE ENERGY PREDICTED BY IDOCK:   -4.54 KCAL/MOL
REMARK 923 INTER-LIGAND FREE ENERGY PREDICTED BY IDOCK:   -3.84 KCAL/MOL
REMARK 924 INTRA-LIGAND FREE ENERGY PREDICTED BY IDOCK:   -0.70 KCAL/MOL
REMARK 927      BINDING AFFINITY PREDICTED BY RF-SCORE:    0.00 PKD
ROOT
HETATM    1  C   UNL     1     -10.894   9.660  70.274  1.00  0.00    -0.339 C  
HETATM    2  C   UNL     1      -9.939  10.452  69.456  1.00  0.00    -0.202 C  
HETATM    3  C   UNL     1      -8.650  10.084  69.070  1.00  0.00    -0.153 C  
HETATM    4  C   UNL     1      -9.344  12.332  68.280  1.00  0.00    -0.199 C  
HETATM    5  S   UNL     1      -7.923  11.436  68.258  1.00  0.00    -0.143 SA 
HETATM    6  N   UNL     1     -10.308  11.704  68.944  1.00  0.00    -0.190 NA 
ENDROOT
BRANCH   3   7
HETATM    7  C   UNL     1      -7.862   8.773  69.243  1.00  0.00    -0.100 C  
BRANCH   7   8
HETATM    8  C   UNL     1      -7.500   8.195  67.868  1.00  0.00    -0.098 C  
BRANCH   8   9
HETATM    9  O   UNL     1      -8.527   7.771  67.000  1.00  0.00    -0.121 OA 
BRANCH   9  10
HETATM   10  P   UNL     1      -8.026   7.660  65.394  1.00  0.00    -0.132 P  
HETATM   11  O   UNL     1      -7.570   9.327  65.460  1.00  0.00    -0.089 OA 
HETATM   12  O   UNL     1      -9.223   8.111  64.533  1.00  0.00     0.608 OA 
BRANCH  10  13
HETATM   13  O   UNL     1      -8.483   5.993  65.329  1.00  0.00    -0.148 OA 
HETATM   14  O   UNL     1      -6.084   5.734  66.109  1.00  0.00    -0.027 OA 
HETATM   15  P   UNL     1      -7.383   5.012  65.962  1.00  0.00    -0.079 P  
HETATM   16  O   UNL     1      -8.030   4.221  67.065  1.00  0.00    -0.096 OA 
HETATM   17  O   UNL     1      -7.262   3.945  64.762  1.00  0.00    -0.064 OA 
ENDBRANCH  10  13
ENDBRANCH   9  10
ENDBRANCH   8   9
ENDBRANCH   7   8
ENDBRANCH   3   7
BRANCH   6  18
HETATM   18  C   UNL     1     -11.648  12.314  68.960  1.00  0.00    -0.316 C  
BRANCH  18  19
HETATM   19  C   UNL     1     -11.913  13.108  70.202  1.00  0.00    -0.381 A  
HETATM   20  C   UNL     1     -12.642  12.559  71.234  1.00  0.00    -0.231 A  
HETATM   21  N   UNL     1     -12.788  13.132  72.437  1.00  0.00    -0.153 NA 
HETATM   22  C   UNL     1     -12.177  14.314  72.612  1.00  0.00     0.067 A  
HETATM   23  N   UNL     1     -11.571  14.994  71.624  1.00  0.00    -0.371 NA 
HETATM   24  C   UNL     1     -12.149  14.877  73.998  1.00  0.00    -0.462 C  
HETATM   25  C   UNL     1     -11.489  14.402  70.430  1.00  0.00    -0.170 A  
HETATM   26  N   UNL     1     -10.994  15.212  69.403  1.00  0.00    -0.251 NA 
HETATM   27  H1  UNL     1     -10.681  16.168  69.571  1.00  0.00     0.000 HD 
HETATM   28  H2  UNL     1     -11.697  15.241  68.664  1.00  0.00     0.000 HD 
ENDBRANCH  18  19
ENDBRANCH   6  18
TORSDOF 7
ENDMDL
MODEL      328
REMARK 921   NORMALIZED FREE ENERGY PREDICTED BY IDOCK:   -2.51 KCAL/MOL
REMARK 922        TOTAL FREE ENERGY PREDICTED BY IDOCK:   -4.52 KCAL/MOL
REMARK 923 INTER-LIGAND FREE ENERGY PREDICTED BY IDOCK:   -3.44 KCAL/MOL
REMARK 924 INTRA-LIGAND FREE ENERGY PREDICTED BY IDOCK:   -1.08 KCAL/MOL
REMARK 927      BINDING AFFINITY PREDICTED BY RF-SCORE:    0.00 PKD
ROOT
HETATM    1  C   UNL     1      -9.749   4.692  72.864  1.00  0.00    -0.168 C  
HETATM    2  C   UNL     1      -8.527   5.394  72.395  1.00  0.00    -0.119 C  
HETATM    3  C   UNL     1      -8.183   6.728  72.613  1.00  0.00    -0.107 C  
HETATM    4  C   UNL     1      -6.528   5.459  71.268  1.00  0.00    -0.035 C  
HETATM    5  S   UNL     1      -6.731   7.064  71.721  1.00  0.00    -0.053 SA 
HETATM    6  N   UNL     1      -7.540   4.703  71.678  1.00  0.00    -0.080 NA 
ENDROOT
BRANCH   3   7
HETATM    7  C   UNL     1      -8.844   7.834  73.456  1.00  0.00    -0.312 C  
BRANCH   7   8
HETATM    8  C   UNL     1     -10.008   8.460  72.676  1.00  0.00    -0.258 C  
BRANCH   8   9
HETATM    9  O   UNL     1     -10.280   8.022  71.364  1.00  0.00    -0.190 OA 
BRANCH   9  10
HETATM   10  P   UNL     1     -10.339   9.285  70.249  1.00  0.00    -0.271 P  
HETATM   11  O   UNL     1     -12.024   9.462  70.593  1.00  0.00    -0.256 OA 
HETATM   12  O   UNL     1     -10.767   8.662  68.906  1.00  0.00    -0.187 OA 
BRANCH  10  13
HETATM   13  O   UNL     1      -8.653   9.108  69.904  1.00  0.00    -0.125 OA 
HETATM   14  O   UNL     1      -9.059  11.366  68.824  1.00  0.00    -0.167 OA 
HETATM   15  P   UNL     1      -7.990  10.436  69.293  1.00  0.00    -0.131 P  
HETATM   16  O   UNL     1      -6.851  10.851  70.183  1.00  0.00    -0.171 OA 
HETATM   17  O   UNL     1      -7.249   9.794  68.016  1.00  0.00    -0.079 OA 
ENDBRANCH  10  13
ENDBRANCH   9  10
ENDBRANCH   8   9
ENDBRANCH   7   8
ENDBRANCH   3   7
BRANCH   6  18
HETATM   18  C   UNL     1      -7.456   3.250  71.451  1.00  0.00    -0.040 C  
BRANCH  18  19
HETATM   19  C   UNL     1      -7.825   2.855  70.055  1.00  0.00    -0.048 A  
HETATM   20  C   UNL     1      -9.134   2.939  69.634  1.00  0.00    -0.129 A  
HETATM   21  N   UNL     1      -9.526   2.762  68.365  1.00  0.00    -0.189 NA 
HETATM   22  C   UNL     1      -8.561   2.484  67.476  1.00  0.00    -0.103 A  
HETATM   23  N   UNL     1      -7.284   2.239  67.813  1.00  0.00    -0.048 NA 
HETATM   24  C   UNL     1      -8.936   2.486  66.027  1.00  0.00    -0.121 C  
HETATM   25  C   UNL     1      -6.949   2.383  69.099  1.00  0.00    -0.040 A  
HETATM   26  N   UNL     1      -5.654   1.963  69.420  1.00  0.00    -0.017 NA 
HETATM   27  H1  UNL     1      -5.006   1.615  68.714  1.00  0.00     0.000 HD 
HETATM   28  H2  UNL     1      -5.730   1.254  70.149  1.00  0.00     0.000 HD 
ENDBRANCH  18  19
ENDBRANCH   6  18
TORSDOF 7
ENDMDL
MODEL      329
REMARK 921   NORMALIZED FREE ENERGY PREDICTED BY IDOCK:   -2.48 KCAL/MOL
REMARK 922        TOTAL FREE ENERGY PREDICTED BY IDOCK:   -4.48 KCAL/MOL
REMARK 923 INTER-LIGAND FREE ENERGY PREDICTED BY IDOCK:   -4.26 KCAL/MOL
REMARK 924 INTRA-LIGAND FREE ENERGY PREDICTED BY IDOCK:   -0.21 KCAL/MOL
REMARK 927      BINDING AFFINITY PREDICTED BY RF-SCORE:    0.00 PKD
ROOT
HETATM    1  C   UNL     1     -10.493   9.311  68.672  1.00  0.00    -0.236 C  
HETATM    2  C   UNL     1      -9.551   9.544  67.546  1.00  0.00    -0.144 C  
HETATM    3  C   UNL     1      -9.134   8.619  66.590  1.00  0.00    -0.165 C  
HETATM    4  C   UNL     1      -8.132  10.874  66.327  1.00  0.00    -0.165 C  
HETATM    5  S   UNL     1      -7.919   9.373  65.603  1.00  0.00    -0.105 SA 
HETATM    6  N   UNL     1      -9.002  10.815  67.328  1.00  0.00    -0.140 NA 
ENDROOT
BRANCH   3   7
HETATM    7  C   UNL     1      -9.562   7.167  66.310  1.00  0.00    -0.098 C  
BRANCH   7   8
HETATM    8  C   UNL     1      -8.789   6.208  67.226  1.00  0.00    -0.107 C  
BRANCH   8   9
HETATM    9  O   UNL     1      -9.364   5.798  68.446  1.00  0.00    -0.119 OA 
BRANCH   9  10
HETATM   10  P   UNL     1      -8.261   5.040  69.471  1.00  0.00    -0.085 P  
HETATM   11  O   UNL     1      -8.231   3.695  68.383  1.00  0.00    -0.076 OA 
HETATM   12  O   UNL     1      -9.087   4.145  70.416  1.00  0.00    -0.092 OA 
BRANCH  10  13
HETATM   13  O   UNL     1      -8.291   6.384  70.559  1.00  0.00    -0.125 OA 
HETATM   14  O   UNL     1      -5.828   6.397  69.955  1.00  0.00    -0.014 OA 
HETATM   15  P   UNL     1      -6.913   7.206  70.585  1.00  0.00    -0.059 P  
HETATM   16  O   UNL     1      -7.207   8.637  70.225  1.00  0.00    -0.045 OA 
HETATM   17  O   UNL     1      -6.674   7.265  72.176  1.00  0.00    -0.055 OA 
ENDBRANCH  10  13
ENDBRANCH   9  10
ENDBRANCH   8   9
ENDBRANCH   7   8
ENDBRANCH   3   7
BRANCH   6  18
HETATM   18  C   UNL     1      -9.377  12.074  67.995  1.00  0.00    -0.196 C  
BRANCH  18  19
HETATM   19  C   UNL     1     -10.067  13.038  67.078  1.00  0.00    -0.243 A  
HETATM   20  C   UNL     1      -9.581  13.254  65.808  1.00  0.00    -0.049 A  
HETATM   21  N   UNL     1     -10.221  13.969  64.872  1.00  0.00    -0.396 NA 
HETATM   22  C   UNL     1     -11.403  14.495  65.229  1.00  0.00    -0.353 A  
HETATM   23  N   UNL     1     -11.887  14.461  66.482  1.00  0.00    -0.396 NA 
HETATM   24  C   UNL     1     -12.233  15.119  64.152  1.00  0.00    -0.182 C  
HETATM   25  C   UNL     1     -11.190  13.775  67.392  1.00  0.00    -0.310 A  
HETATM   26  N   UNL     1     -11.650  13.905  68.707  1.00  0.00    -0.310 NA 
HETATM   27  H1  UNL     1     -12.481  14.450  68.938  1.00  0.00     0.000 HD 
HETATM   28  H2  UNL     1     -10.878  14.259  69.271  1.00  0.00     0.000 HD 
ENDBRANCH  18  19
ENDBRANCH   6  18
TORSDOF 7
ENDMDL
MODEL      330
REMARK 921   NORMALIZED FREE ENERGY PREDICTED BY IDOCK:   -2.46 KCAL/MOL
REMARK 922        TOTAL FREE ENERGY PREDICTED BY IDOCK:   -4.45 KCAL/MOL
REMARK 923 INTER-LIGAND FREE ENERGY PREDICTED BY IDOCK:   -3.74 KCAL/MOL
REMARK 924 INTRA-LIGAND FREE ENERGY PREDICTED BY IDOCK:   -0.72 KCAL/MOL
REMARK 927      BINDING AFFINITY PREDICTED BY RF-SCORE:    0.00 PKD
ROOT
HETATM    1  C   UNL     1      -5.868   4.765  68.206  1.00  0.00    -0.025 C  
HETATM    2  C   UNL     1      -7.040   4.162  68.893  1.00  0.00    -0.051 C  
HETATM    3  C   UNL     1      -7.831   4.746  69.881  1.00  0.00    -0.062 C  
HETATM    4  C   UNL     1      -8.505   2.436  69.272  1.00  0.00    -0.059 C  
HETATM    5  S   UNL     1      -8.963   3.553  70.441  1.00  0.00    -0.115 SA 
HETATM    6  N   UNL     1      -7.488   2.880  68.543  1.00  0.00    -0.049 NA 
ENDROOT
BRANCH   3   7
HETATM    7  C   UNL     1      -7.844   6.163  70.482  1.00  0.00    -0.106 C  
BRANCH   7   8
HETATM    8  C   UNL     1      -9.128   6.895  70.068  1.00  0.00    -0.145 C  
BRANCH   8   9
HETATM    9  O   UNL     1      -9.069   8.261  69.723  1.00  0.00    -0.145 OA 
BRANCH   9  10
HETATM   10  P   UNL     1     -10.146   9.209  70.609  1.00  0.00    -0.290 P  
HETATM   11  O   UNL     1      -9.075   9.096  71.962  1.00  0.00    -0.337 OA 
HETATM   12  O   UNL     1     -11.066   8.231  71.366  1.00  0.00    -0.238 OA 
BRANCH  10  13
HETATM   13  O   UNL     1     -11.217   9.322  69.255  1.00  0.00    -0.078 OA 
HETATM   14  O   UNL     1      -9.702  11.290  68.747  1.00  0.00    -0.205 OA 
HETATM   15  P   UNL     1     -10.740  10.392  68.160  1.00  0.00    -0.273 P  
HETATM   16  O   UNL     1     -10.586   9.686  66.841  1.00  0.00    -0.228 OA 
HETATM   17  O   UNL     1     -12.112  11.215  67.983  1.00  0.00    -0.635 OA 
ENDBRANCH  10  13
ENDBRANCH   9  10
ENDBRANCH   8   9
ENDBRANCH   7   8
ENDBRANCH   3   7
BRANCH   6  18
HETATM   18  C   UNL     1      -7.040   2.059  67.405  1.00  0.00    -0.043 C  
BRANCH  18  19
HETATM   19  C   UNL     1      -7.543   2.563  66.088  1.00  0.00    -0.072 A  
HETATM   20  C   UNL     1      -8.895   2.722  65.877  1.00  0.00    -0.135 A  
HETATM   21  N   UNL     1      -9.420   3.315  64.796  1.00  0.00    -0.147 NA 
HETATM   22  C   UNL     1      -8.549   3.768  63.882  1.00  0.00    -0.093 A  
HETATM   23  N   UNL     1      -7.227   3.531  63.929  1.00  0.00    -0.050 NA 
HETATM   24  C   UNL     1      -9.091   4.612  62.771  1.00  0.00    -0.107 C  
HETATM   25  C   UNL     1      -6.754   2.895  65.005  1.00  0.00    -0.040 A  
HETATM   26  N   UNL     1      -5.405   2.534  64.930  1.00  0.00    -0.008 NA 
HETATM   27  H1  UNL     1      -4.822   2.780  64.130  1.00  0.00     0.000 HD 
HETATM   28  H2  UNL     1      -5.347   1.525  65.059  1.00  0.00     0.000 HD 
ENDBRANCH  18  19
ENDBRANCH   6  18
TORSDOF 7
ENDMDL
MODEL      331
REMARK 921   NORMALIZED FREE ENERGY PREDICTED BY IDOCK:   -2.45 KCAL/MOL
REMARK 922        TOTAL FREE ENERGY PREDICTED BY IDOCK:   -4.44 KCAL/MOL
REMARK 923 INTER-LIGAND FREE ENERGY PREDICTED BY IDOCK:   -3.86 KCAL/MOL
REMARK 924 INTRA-LIGAND FREE ENERGY PREDICTED BY IDOCK:   -0.58 KCAL/MOL
REMARK 927      BINDING AFFINITY PREDICTED BY RF-SCORE:    0.00 PKD
ROOT
HETATM    1  C   UNL     1      -6.530   4.766  68.814  1.00  0.00    -0.037 C  
HETATM    2  C   UNL     1      -7.672   4.094  69.486  1.00  0.00    -0.053 C  
HETATM    3  C   UNL     1      -8.606   4.673  70.344  1.00  0.00    -0.086 C  
HETATM    4  C   UNL     1      -8.946   2.245  69.962  1.00  0.00    -0.093 C  
HETATM    5  S   UNL     1      -9.628   3.411  70.961  1.00  0.00    -0.148 SA 
HETATM    6  N   UNL     1      -7.934   2.736  69.257  1.00  0.00    -0.045 NA 
ENDROOT
BRANCH   3   7
HETATM    7  C   UNL     1      -8.837   6.133  70.776  1.00  0.00    -0.140 C  
BRANCH   7   8
HETATM    8  C   UNL     1     -10.238   6.589  70.347  1.00  0.00    -0.193 C  
BRANCH   8   9
HETATM    9  O   UNL     1     -10.379   7.739  69.544  1.00  0.00    -0.209 OA 
BRANCH   9  10
HETATM   10  P   UNL     1     -10.801   9.111  70.429  1.00  0.00    -0.270 P  
HETATM   11  O   UNL     1      -9.807  10.053  69.372  1.00  0.00    -0.199 OA 
HETATM   12  O   UNL     1      -9.700   9.299  71.491  1.00  0.00    -0.274 OA 
BRANCH  10  13
HETATM   13  O   UNL     1     -11.794   8.168  71.485  1.00  0.00    -0.275 OA 
HETATM   14  O   UNL     1     -13.461   9.971  70.851  1.00  0.00    -0.352 OA 
HETATM   15  P   UNL     1     -13.334   8.621  71.476  1.00  0.00    -0.220 P  
HETATM   16  O   UNL     1     -14.175   7.436  71.086  1.00  0.00    -0.360 OA 
HETATM   17  O   UNL     1     -13.580   8.746  73.061  1.00  0.00    -0.246 OA 
ENDBRANCH  10  13
ENDBRANCH   9  10
ENDBRANCH   8   9
ENDBRANCH   7   8
ENDBRANCH   3   7
BRANCH   6  18
HETATM   18  C   UNL     1      -7.300   1.862  68.254  1.00  0.00    -0.043 C  
BRANCH  18  19
HETATM   19  C   UNL     1      -7.578   2.293  66.847  1.00  0.00    -0.066 A  
HETATM   20  C   UNL     1      -8.876   2.381  66.392  1.00  0.00    -0.129 A  
HETATM   21  N   UNL     1      -9.221   2.908  65.209  1.00  0.00    -0.149 NA 
HETATM   22  C   UNL     1      -8.218   3.365  64.445  1.00  0.00    -0.086 A  
HETATM   23  N   UNL     1      -6.918   3.191  64.737  1.00  0.00    -0.051 NA 
HETATM   24  C   UNL     1      -8.584   4.141  63.219  1.00  0.00    -0.104 C  
HETATM   25  C   UNL     1      -6.622   2.619  65.907  1.00  0.00    -0.032 A  
HETATM   26  N   UNL     1      -5.268   2.318  66.089  1.00  0.00    -0.005 NA 
HETATM   27  H1  UNL     1      -4.561   2.560  65.395  1.00  0.00     0.000 HD 
HETATM   28  H2  UNL     1      -5.195   1.318  66.272  1.00  0.00     0.000 HD 
ENDBRANCH  18  19
ENDBRANCH   6  18
TORSDOF 7
ENDMDL
MODEL      332
REMARK 921   NORMALIZED FREE ENERGY PREDICTED BY IDOCK:   -2.41 KCAL/MOL
REMARK 922        TOTAL FREE ENERGY PREDICTED BY IDOCK:   -4.38 KCAL/MOL
REMARK 923 INTER-LIGAND FREE ENERGY PREDICTED BY IDOCK:   -3.61 KCAL/MOL
REMARK 924 INTRA-LIGAND FREE ENERGY PREDICTED BY IDOCK:   -0.77 KCAL/MOL
REMARK 927      BINDING AFFINITY PREDICTED BY RF-SCORE:    0.00 PKD
ROOT
HETATM    1  C   UNL     1      -7.127   8.981  66.856  1.00  0.00    -0.078 C  
HETATM    2  C   UNL     1      -6.800   9.619  68.158  1.00  0.00    -0.069 C  
HETATM    3  C   UNL     1      -6.517   8.979  69.364  1.00  0.00    -0.044 C  
HETATM    4  C   UNL     1      -6.468  11.457  69.491  1.00  0.00    -0.122 C  
HETATM    5  S   UNL     1      -6.356  10.195  70.595  1.00  0.00    -0.055 SA 
HETATM    6  N   UNL     1      -6.708  11.014  68.264  1.00  0.00    -0.058 NA 
ENDROOT
BRANCH   3   7
HETATM    7  C   UNL     1      -6.341   7.492  69.722  1.00  0.00    -0.031 C  
BRANCH   7   8
HETATM    8  C   UNL     1      -5.690   7.360  71.105  1.00  0.00    -0.035 C  
BRANCH   8   9
HETATM    9  O   UNL     1      -6.151   6.371  71.998  1.00  0.00    -0.037 OA 
BRANCH   9  10
HETATM   10  P   UNL     1      -7.436   6.896  72.955  1.00  0.00    -0.081 P  
HETATM   11  O   UNL     1      -6.522   8.313  73.341  1.00  0.00    -0.101 OA 
HETATM   12  O   UNL     1      -7.136   6.417  74.389  1.00  0.00    -0.092 OA 
BRANCH  10  13
HETATM   13  O   UNL     1      -8.350   5.480  72.568  1.00  0.00    -0.114 OA 
HETATM   14  O   UNL     1     -10.244   7.158  72.744  1.00  0.00    -0.183 OA 
HETATM   15  P   UNL     1      -9.894   5.789  72.260  1.00  0.00    -0.164 P  
HETATM   16  O   UNL     1     -10.213   5.283  70.879  1.00  0.00    -0.211 OA 
HETATM   17  O   UNL     1     -10.578   4.696  73.223  1.00  0.00    -0.180 OA 
ENDBRANCH  10  13
ENDBRANCH   9  10
ENDBRANCH   8   9
ENDBRANCH   7   8
ENDBRANCH   3   7
BRANCH   6  18
HETATM   18  C   UNL     1      -6.727  11.994  67.164  1.00  0.00    -0.136 C  
BRANCH  18  19
HETATM   19  C   UNL     1      -8.073  12.618  66.961  1.00  0.00    -0.088 A  
HETATM   20  C   UNL     1      -9.069  11.921  66.314  1.00  0.00    -0.188 A  
HETATM   21  N   UNL     1     -10.342  12.335  66.232  1.00  0.00    -0.228 NA 
HETATM   22  C   UNL     1     -10.627  13.504  66.823  1.00  0.00    -0.272 A  
HETATM   23  N   UNL     1      -9.699  14.322  67.348  1.00  0.00    -0.231 NA 
HETATM   24  C   UNL     1     -12.069  13.891  66.927  1.00  0.00    -0.467 C  
HETATM   25  C   UNL     1      -8.436  13.886  67.366  1.00  0.00    -0.199 A  
HETATM   26  N   UNL     1      -7.492  14.834  67.774  1.00  0.00    -0.146 NA 
HETATM   27  H1  UNL     1      -7.760  15.772  68.074  1.00  0.00     0.000 HD 
HETATM   28  H2  UNL     1      -6.807  14.932  67.025  1.00  0.00     0.000 HD 
ENDBRANCH  18  19
ENDBRANCH   6  18
TORSDOF 7
ENDMDL
MODEL      333
REMARK 921   NORMALIZED FREE ENERGY PREDICTED BY IDOCK:   -2.39 KCAL/MOL
REMARK 922        TOTAL FREE ENERGY PREDICTED BY IDOCK:   -4.35 KCAL/MOL
REMARK 923 INTER-LIGAND FREE ENERGY PREDICTED BY IDOCK:   -3.64 KCAL/MOL
REMARK 924 INTRA-LIGAND FREE ENERGY PREDICTED BY IDOCK:   -0.71 KCAL/MOL
REMARK 927      BINDING AFFINITY PREDICTED BY RF-SCORE:    0.00 PKD
ROOT
HETATM    1  C   UNL     1      -6.148   5.704  67.343  1.00  0.00    -0.029 C  
HETATM    2  C   UNL     1      -6.588   4.528  68.137  1.00  0.00    -0.042 C  
HETATM    3  C   UNL     1      -6.960   4.509  69.481  1.00  0.00    -0.050 C  
HETATM    4  C   UNL     1      -7.048   2.292  68.370  1.00  0.00    -0.044 C  
HETATM    5  S   UNL     1      -7.235   2.856  69.941  1.00  0.00    -0.040 SA 
HETATM    6  N   UNL     1      -6.703   3.266  67.537  1.00  0.00    -0.044 NA 
ENDROOT
BRANCH   3   7
HETATM    7  C   UNL     1      -7.148   5.638  70.511  1.00  0.00    -0.066 C  
BRANCH   7   8
HETATM    8  C   UNL     1      -8.079   5.168  71.637  1.00  0.00    -0.115 C  
BRANCH   8   9
HETATM    9  O   UNL     1      -9.020   6.066  72.181  1.00  0.00    -0.142 OA 
BRANCH   9  10
HETATM   10  P   UNL     1     -10.571   5.848  71.559  1.00  0.00    -0.256 P  
HETATM   11  O   UNL     1     -10.678   4.366  72.445  1.00  0.00    -0.150 OA 
HETATM   12  O   UNL     1     -10.416   4.980  70.295  1.00  0.00    -0.261 OA 
BRANCH  10  13
HETATM   13  O   UNL     1     -10.465   7.330  70.674  1.00  0.00    -0.211 OA 
HETATM   14  O   UNL     1     -11.479   8.207  72.826  1.00  0.00    -0.408 OA 
HETATM   15  P   UNL     1     -10.799   8.623  71.563  1.00  0.00    -0.338 P  
HETATM   16  O   UNL     1      -9.615   9.550  71.516  1.00  0.00    -0.207 OA 
HETATM   17  O   UNL     1     -11.869   9.337  70.596  1.00  0.00    -0.267 OA 
ENDBRANCH  10  13
ENDBRANCH   9  10
ENDBRANCH   8   9
ENDBRANCH   7   8
ENDBRANCH   3   7
BRANCH   6  18
HETATM   18  C   UNL     1      -6.607   2.950  66.102  1.00  0.00    -0.032 C  
BRANCH  18  19
HETATM   19  C   UNL     1      -7.807   3.394  65.324  1.00  0.00    -0.082 A  
HETATM   20  C   UNL     1      -7.701   4.423  64.415  1.00  0.00    -0.081 A  
HETATM   21  N   UNL     1      -8.676   4.776  63.565  1.00  0.00    -0.136 NA 
HETATM   22  C   UNL     1      -9.812   4.065  63.633  1.00  0.00    -0.142 A  
HETATM   23  N   UNL     1     -10.061   3.145  64.580  1.00  0.00    -0.053 NA 
HETATM   24  C   UNL     1     -10.835   4.296  62.566  1.00  0.00     0.056 C  
HETATM   25  C   UNL     1      -9.074   2.859  65.435  1.00  0.00    -0.149 A  
HETATM   26  N   UNL     1      -9.436   2.018  66.492  1.00  0.00    -0.356 NA 
HETATM   27  H1  UNL     1     -10.372   1.622  66.573  1.00  0.00     0.000 HD 
HETATM   28  H2  UNL     1      -9.228   2.507  67.362  1.00  0.00     0.000 HD 
ENDBRANCH  18  19
ENDBRANCH   6  18
TORSDOF 7
ENDMDL
MODEL      334
REMARK 921   NORMALIZED FREE ENERGY PREDICTED BY IDOCK:   -2.23 KCAL/MOL
REMARK 922        TOTAL FREE ENERGY PREDICTED BY IDOCK:   -4.14 KCAL/MOL
REMARK 923 INTER-LIGAND FREE ENERGY PREDICTED BY IDOCK:   -4.43 KCAL/MOL
REMARK 924 INTRA-LIGAND FREE ENERGY PREDICTED BY IDOCK:    0.30 KCAL/MOL
REMARK 927      BINDING AFFINITY PREDICTED BY RF-SCORE:    0.00 PKD
ROOT
HETATM    1  C   UNL     1     -11.204  10.294  68.459  1.00  0.00    -0.271 C  
HETATM    2  C   UNL     1      -9.781  10.257  68.887  1.00  0.00    -0.189 C  
HETATM    3  C   UNL     1      -9.190   9.360  69.775  1.00  0.00    -0.196 C  
HETATM    4  C   UNL     1      -7.633  11.065  68.866  1.00  0.00    -0.134 C  
HETATM    5  S   UNL     1      -7.546   9.860  70.034  1.00  0.00    -0.174 SA 
HETATM    6  N   UNL     1      -8.855  11.167  68.358  1.00  0.00    -0.152 NA 
ENDROOT
BRANCH   3   7
HETATM    7  C   UNL     1      -9.736   8.108  70.486  1.00  0.00    -0.181 C  
BRANCH   7   8
HETATM    8  C   UNL     1      -9.657   6.897  69.547  1.00  0.00    -0.148 C  
BRANCH   8   9
HETATM    9  O   UNL     1      -9.077   7.046  68.270  1.00  0.00    -0.128 OA 
BRANCH   9  10
HETATM   10  P   UNL     1     -10.116   6.596  67.021  1.00  0.00    -0.215 P  
HETATM   11  O   UNL     1     -11.321   6.225  68.206  1.00  0.00    -0.289 OA 
HETATM   12  O   UNL     1      -9.949   5.074  66.842  1.00  0.00    -0.171 OA 
BRANCH  10  13
HETATM   13  O   UNL     1      -8.912   6.966  65.836  1.00  0.00    -0.145 OA 
HETATM   14  O   UNL     1      -7.699   5.130  67.097  1.00  0.00    -0.091 OA 
HETATM   15  P   UNL     1      -7.686   5.931  65.837  1.00  0.00    -0.102 P  
HETATM   16  O   UNL     1      -7.572   5.329  64.463  1.00  0.00    -0.070 OA 
HETATM   17  O   UNL     1      -6.461   6.975  65.887  1.00  0.00    -0.048 OA 
ENDBRANCH  10  13
ENDBRANCH   9  10
ENDBRANCH   8   9
ENDBRANCH   7   8
ENDBRANCH   3   7
BRANCH   6  18
HETATM   18  C   UNL     1      -9.066  12.108  67.244  1.00  0.00    -0.181 C  
BRANCH  18  19
HETATM   19  C   UNL     1      -9.013  11.444  65.902  1.00  0.00    -0.184 A  
HETATM   20  C   UNL     1      -7.932  10.662  65.558  1.00  0.00    -0.116 A  
HETATM   21  N   UNL     1      -7.876   9.906  64.453  1.00  0.00    -0.137 NA 
HETATM   22  C   UNL     1      -8.952   9.940  63.653  1.00  0.00    -0.251 A  
HETATM   23  N   UNL     1      -9.987  10.779  63.827  1.00  0.00    -0.334 NA 
HETATM   24  C   UNL     1      -9.005   8.956  62.526  1.00  0.00     0.016 C  
HETATM   25  C   UNL     1      -9.978  11.547  64.921  1.00  0.00    -0.259 A  
HETATM   26  N   UNL     1     -10.990  12.510  64.972  1.00  0.00    -0.286 NA 
HETATM   27  H1  UNL     1     -11.704  12.586  64.247  1.00  0.00     0.000 HD 
HETATM   28  H2  UNL     1     -10.545  13.423  65.067  1.00  0.00     0.000 HD 
ENDBRANCH  18  19
ENDBRANCH   6  18
TORSDOF 7
ENDMDL
MODEL      335
REMARK 921   NORMALIZED FREE ENERGY PREDICTED BY IDOCK:   -2.18 KCAL/MOL
REMARK 922        TOTAL FREE ENERGY PREDICTED BY IDOCK:   -4.06 KCAL/MOL
REMARK 923 INTER-LIGAND FREE ENERGY PREDICTED BY IDOCK:   -3.24 KCAL/MOL
REMARK 924 INTRA-LIGAND FREE ENERGY PREDICTED BY IDOCK:   -0.82 KCAL/MOL
REMARK 927      BINDING AFFINITY PREDICTED BY RF-SCORE:    0.00 PKD
ROOT
HETATM    1  C   UNL     1      -5.250   4.421  69.300  1.00  0.00    -0.007 C  
HETATM    2  C   UNL     1      -5.899   3.680  70.413  1.00  0.00    -0.017 C  
HETATM    3  C   UNL     1      -6.239   4.175  71.671  1.00  0.00    -0.018 C  
HETATM    4  C   UNL     1      -6.794   1.779  71.336  1.00  0.00    -0.023 C  
HETATM    5  S   UNL     1      -6.830   2.851  72.629  1.00  0.00    -0.027 SA 
HETATM    6  N   UNL     1      -6.278   2.340  70.250  1.00  0.00    -0.023 NA 
ENDROOT
BRANCH   3   7
HETATM    7  C   UNL     1      -6.175   5.592  72.269  1.00  0.00    -0.043 C  
BRANCH   7   8
HETATM    8  C   UNL     1      -7.594   6.140  72.468  1.00  0.00    -0.099 C  
BRANCH   8   9
HETATM    9  O   UNL     1      -8.244   6.790  71.398  1.00  0.00    -0.110 OA 
BRANCH   9  10
HETATM   10  P   UNL     1      -8.630   8.395  71.741  1.00  0.00    -0.186 P  
HETATM   11  O   UNL     1      -7.005   8.833  71.341  1.00  0.00    -0.078 OA 
HETATM   12  O   UNL     1      -8.239   8.632  73.214  1.00  0.00    -0.411 OA 
BRANCH  10  13
HETATM   13  O   UNL     1     -10.255   7.957  72.142  1.00  0.00    -0.198 OA 
HETATM   14  O   UNL     1     -10.558   8.456  69.674  1.00  0.00    -0.224 OA 
HETATM   15  P   UNL     1     -11.205   7.815  70.857  1.00  0.00    -0.271 P  
HETATM   16  O   UNL     1     -11.782   6.426  70.844  1.00  0.00    -0.349 OA 
HETATM   17  O   UNL     1     -12.440   8.726  71.342  1.00  0.00    -0.306 OA 
ENDBRANCH  10  13
ENDBRANCH   9  10
ENDBRANCH   8   9
ENDBRANCH   7   8
ENDBRANCH   3   7
BRANCH   6  18
HETATM   18  C   UNL     1      -6.277   1.559  69.000  1.00  0.00    -0.025 C  
BRANCH  18  19
HETATM   19  C   UNL     1      -7.234   2.092  67.979  1.00  0.00    -0.047 A  
HETATM   20  C   UNL     1      -8.519   2.430  68.342  1.00  0.00    -0.069 A  
HETATM   21  N   UNL     1      -9.385   3.060  67.536  1.00  0.00    -0.200 NA 
HETATM   22  C   UNL     1      -8.942   3.362  66.306  1.00  0.00    -0.147 A  
HETATM   23  N   UNL     1      -7.764   2.945  65.814  1.00  0.00    -0.080 NA 
HETATM   24  C   UNL     1      -9.807   4.242  65.459  1.00  0.00    -0.221 C  
HETATM   25  C   UNL     1      -6.952   2.280  66.641  1.00  0.00    -0.044 A  
HETATM   26  N   UNL     1      -5.815   1.734  66.037  1.00  0.00    -0.017 NA 
HETATM   27  H1  UNL     1      -5.606   1.874  65.049  1.00  0.00     0.000 HD 
HETATM   28  H2  UNL     1      -5.822   0.730  66.215  1.00  0.00     0.000 HD 
ENDBRANCH  18  19
ENDBRANCH   6  18
TORSDOF 7
ENDMDL
MODEL      336
REMARK 921   NORMALIZED FREE ENERGY PREDICTED BY IDOCK:   -1.88 KCAL/MOL
REMARK 922        TOTAL FREE ENERGY PREDICTED BY IDOCK:   -3.64 KCAL/MOL
REMARK 923 INTER-LIGAND FREE ENERGY PREDICTED BY IDOCK:   -3.32 KCAL/MOL
REMARK 924 INTRA-LIGAND FREE ENERGY PREDICTED BY IDOCK:   -0.32 KCAL/MOL
REMARK 927      BINDING AFFINITY PREDICTED BY RF-SCORE:    0.00 PKD
ROOT
HETATM    1  C   UNL     1      -9.309  11.790  66.197  1.00  0.00    -0.236 C  
HETATM    2  C   UNL     1      -8.383  12.112  67.314  1.00  0.00    -0.179 C  
HETATM    3  C   UNL     1      -7.864  13.363  67.646  1.00  0.00    -0.173 C  
HETATM    4  C   UNL     1      -7.093  11.518  69.117  1.00  0.00    -0.105 C  
HETATM    5  S   UNL     1      -6.721  13.147  68.937  1.00  0.00    -0.098 SA 
HETATM    6  N   UNL     1      -7.964  11.111  68.201  1.00  0.00    -0.119 NA 
ENDROOT
BRANCH   3   7
HETATM    7  C   UNL     1      -8.139  14.770  67.087  1.00  0.00    -0.226 C  
BRANCH   7   8
HETATM    8  C   UNL     1      -9.644  15.066  67.133  1.00  0.00    -0.217 C  
BRANCH   8   9
HETATM    9  O   UNL     1     -10.222  15.543  68.328  1.00  0.00    -0.219 OA 
BRANCH   9  10
HETATM   10  P   UNL     1      -9.692  17.088  68.743  1.00  0.00    -0.244 P  
HETATM   11  O   UNL     1      -9.987  16.703  70.403  1.00  0.00     0.697 OA 
HETATM   12  O   UNL     1     -10.950  17.976  68.815  1.00  0.00     0.180 OA 
BRANCH  10  13
HETATM   13  O   UNL     1      -9.397  17.473  67.083  1.00  0.00    -0.242 OA 
HETATM   14  O   UNL     1      -7.882  19.186  68.179  1.00  0.00    -0.279 OA 
HETATM   15  P   UNL     1      -8.198  18.520  66.881  1.00  0.00    -0.273 P  
HETATM   16  O   UNL     1      -7.162  17.889  65.991  1.00  0.00    -0.299 OA 
HETATM   17  O   UNL     1      -8.930  19.574  65.910  1.00  0.00    -0.406 OA 
ENDBRANCH  10  13
ENDBRANCH   9  10
ENDBRANCH   8   9
ENDBRANCH   7   8
ENDBRANCH   3   7
BRANCH   6  18
HETATM   18  C   UNL     1      -8.472   9.732  68.294  1.00  0.00    -0.114 C  
BRANCH  18  19
HETATM   19  C   UNL     1      -9.681   9.613  69.170  1.00  0.00    -0.180 A  
HETATM   20  C   UNL     1      -9.568   9.776  70.533  1.00  0.00    -0.103 A  
HETATM   21  N   UNL     1     -10.613   9.847  71.369  1.00  0.00     0.051 NA 
HETATM   22  C   UNL     1     -11.829   9.745  70.812  1.00  0.00    -0.319 A  
HETATM   23  N   UNL     1     -12.035   9.439  69.520  1.00  0.00     0.534 NA 
HETATM   24  C   UNL     1     -13.013  10.025  71.684  1.00  0.00    -0.554 C  
HETATM   25  C   UNL     1     -10.960   9.333  68.734  1.00  0.00    -0.007 A  
HETATM   26  N   UNL     1     -11.218   8.859  67.444  1.00  0.00    -0.188 NA 
HETATM   27  H1  UNL     1     -12.164   8.653  67.122  1.00  0.00     0.000 HD 
HETATM   28  H2  UNL     1     -10.652   8.022  67.302  1.00  0.00     0.000 HD 
ENDBRANCH  18  19
ENDBRANCH   6  18
TORSDOF 7
ENDMDL
MODEL      337
REMARK 921   NORMALIZED FREE ENERGY PREDICTED BY IDOCK:   -1.59 KCAL/MOL
REMARK 922        TOTAL FREE ENERGY PREDICTED BY IDOCK:   -3.23 KCAL/MOL
REMARK 923 INTER-LIGAND FREE ENERGY PREDICTED BY IDOCK:   -2.77 KCAL/MOL
REMARK 924 INTRA-LIGAND FREE ENERGY PREDICTED BY IDOCK:   -0.46 KCAL/MOL
REMARK 927      BINDING AFFINITY PREDICTED BY RF-SCORE:    0.00 PKD
ROOT
HETATM    1  C   UNL     1     -11.735  11.389  69.200  1.00  0.00    -0.410 C  
HETATM    2  C   UNL     1     -10.276  11.114  69.145  1.00  0.00    -0.141 C  
HETATM    3  C   UNL     1      -9.619   9.956  69.560  1.00  0.00    -0.225 C  
HETATM    4  C   UNL     1      -8.114  11.712  68.661  1.00  0.00    -0.121 C  
HETATM    5  S   UNL     1      -7.909  10.224  69.413  1.00  0.00    -0.162 SA 
HETATM    6  N   UNL     1      -9.395  12.056  68.597  1.00  0.00    -0.111 NA 
ENDROOT
BRANCH   3   7
HETATM    7  C   UNL     1     -10.147   8.604  70.075  1.00  0.00    -0.195 C  
BRANCH   7   8
HETATM    8  C   UNL     1      -8.975   7.728  70.539  1.00  0.00    -0.150 C  
BRANCH   8   9
HETATM    9  O   UNL     1      -9.237   6.494  71.169  1.00  0.00    -0.155 OA 
BRANCH   9  10
HETATM   10  P   UNL     1      -8.900   6.515  72.820  1.00  0.00    -0.120 P  
HETATM   11  O   UNL     1     -10.599   6.426  73.131  1.00  0.00    -0.225 OA 
HETATM   12  O   UNL     1      -8.983   7.989  73.264  1.00  0.00    -0.228 OA 
BRANCH  10  13
HETATM   13  O   UNL     1      -7.200   6.603  72.509  1.00  0.00    -0.082 OA 
HETATM   14  O   UNL     1      -7.183   4.944  74.426  1.00  0.00    -0.079 OA 
HETATM   15  P   UNL     1      -6.351   5.513  73.325  1.00  0.00    -0.065 P  
HETATM   16  O   UNL     1      -5.581   4.677  72.339  1.00  0.00    -0.007 OA 
HETATM   17  O   UNL     1      -5.226   6.476  73.955  1.00  0.00    -0.040 OA 
ENDBRANCH  10  13
ENDBRANCH   9  10
ENDBRANCH   8   9
ENDBRANCH   7   8
ENDBRANCH   3   7
BRANCH   6  18
HETATM   18  C   UNL     1      -9.746  13.287  67.868  1.00  0.00    -0.224 C  
BRANCH  18  19
HETATM   19  C   UNL     1      -8.701  14.354  67.987  1.00  0.00    -0.170 A  
HETATM   20  C   UNL     1      -8.069  14.833  66.862  1.00  0.00    -0.048 A  
HETATM   21  N   UNL     1      -7.246  15.891  66.858  1.00  0.00    -0.187 NA 
HETATM   22  C   UNL     1      -7.046  16.495  68.039  1.00  0.00    -0.143 A  
HETATM   23  N   UNL     1      -7.500  16.015  69.209  1.00  0.00    -0.225 NA 
HETATM   24  C   UNL     1      -6.302  17.793  68.033  1.00  0.00    -0.176 C  
HETATM   25  C   UNL     1      -8.279  14.930  69.168  1.00  0.00    -0.151 A  
HETATM   26  N   UNL     1      -8.591  14.382  70.416  1.00  0.00     1.074 NA 
HETATM   27  H1  UNL     1      -8.278  14.808  71.289  1.00  0.00     0.000 HD 
HETATM   28  H2  UNL     1      -8.277  13.411  70.415  1.00  0.00     0.000 HD 
ENDBRANCH  18  19
ENDBRANCH   6  18
TORSDOF 7
ENDMDL
MODEL      338
REMARK 921   NORMALIZED FREE ENERGY PREDICTED BY IDOCK:   -1.55 KCAL/MOL
REMARK 922        TOTAL FREE ENERGY PREDICTED BY IDOCK:   -3.17 KCAL/MOL
REMARK 923 INTER-LIGAND FREE ENERGY PREDICTED BY IDOCK:   -4.25 KCAL/MOL
REMARK 924 INTRA-LIGAND FREE ENERGY PREDICTED BY IDOCK:    1.07 KCAL/MOL
REMARK 927      BINDING AFFINITY PREDICTED BY RF-SCORE:    0.00 PKD
ROOT
HETATM    1  C   UNL     1     -10.488   9.938  68.009  1.00  0.00    -0.266 C  
HETATM    2  C   UNL     1      -9.751   8.760  67.482  1.00  0.00    -0.167 C  
HETATM    3  C   UNL     1     -10.008   7.416  67.749  1.00  0.00    -0.167 C  
HETATM    4  C   UNL     1      -8.080   7.802  66.235  1.00  0.00    -0.114 C  
HETATM    5  S   UNL     1      -8.757   6.469  67.002  1.00  0.00    -0.114 SA 
HETATM    6  N   UNL     1      -8.690   8.929  66.582  1.00  0.00    -0.125 NA 
ENDROOT
BRANCH   3   7
HETATM    7  C   UNL     1     -11.136   6.722  68.533  1.00  0.00    -0.217 C  
BRANCH   7   8
HETATM    8  C   UNL     1     -10.540   5.869  69.662  1.00  0.00    -0.313 C  
BRANCH   8   9
HETATM    9  O   UNL     1     -10.684   6.290  71.000  1.00  0.00    -0.237 OA 
BRANCH   9  10
HETATM   10  P   UNL     1      -9.249   6.184  71.879  1.00  0.00    -0.144 P  
HETATM   11  O   UNL     1      -9.217   7.911  71.965  1.00  0.00    -0.135 OA 
HETATM   12  O   UNL     1      -8.102   6.300  70.856  1.00  0.00    -0.119 OA 
BRANCH  10  13
HETATM   13  O   UNL     1      -9.281   4.457  71.793  1.00  0.00    -0.126 OA 
HETATM   14  O   UNL     1      -9.922   4.761  74.228  1.00  0.00    -0.157 OA 
HETATM   15  P   UNL     1      -9.885   3.770  73.111  1.00  0.00    -0.140 P  
HETATM   16  O   UNL     1     -11.058   2.919  72.708  1.00  0.00     0.024 OA 
HETATM   17  O   UNL     1      -8.726   2.691  73.400  1.00  0.00    -0.076 OA 
ENDBRANCH  10  13
ENDBRANCH   9  10
ENDBRANCH   8   9
ENDBRANCH   7   8
ENDBRANCH   3   7
BRANCH   6  18
HETATM   18  C   UNL     1      -8.280  10.174  65.910  1.00  0.00    -0.138 C  
BRANCH  18  19
HETATM   19  C   UNL     1      -8.570  11.399  66.723  1.00  0.00    -0.166 A  
HETATM   20  C   UNL     1      -7.808  11.691  67.833  1.00  0.00    -0.129 A  
HETATM   21  N   UNL     1      -7.892  12.840  68.518  1.00  0.00    -0.126 NA 
HETATM   22  C   UNL     1      -8.785  13.736  68.071  1.00  0.00    -0.181 A  
HETATM   23  N   UNL     1      -9.670  13.484  67.093  1.00  0.00    -0.238 NA 
HETATM   24  C   UNL     1      -8.757  15.101  68.685  1.00  0.00    -0.174 C  
HETATM   25  C   UNL     1      -9.578  12.307  66.468  1.00  0.00    -0.238 A  
HETATM   26  N   UNL     1     -10.616  12.033  65.572  1.00  0.00    -0.263 NA 
HETATM   27  H1  UNL     1     -11.361  12.704  65.384  1.00  0.00     0.000 HD 
HETATM   28  H2  UNL     1     -11.053  11.158  65.863  1.00  0.00     0.000 HD 
ENDBRANCH  18  19
ENDBRANCH   6  18
TORSDOF 7
ENDMDL
MODEL      339
REMARK 921   NORMALIZED FREE ENERGY PREDICTED BY IDOCK:   -1.13 KCAL/MOL
REMARK 922        TOTAL FREE ENERGY PREDICTED BY IDOCK:   -2.58 KCAL/MOL
REMARK 923 INTER-LIGAND FREE ENERGY PREDICTED BY IDOCK:   -4.21 KCAL/MOL
REMARK 924 INTRA-LIGAND FREE ENERGY PREDICTED BY IDOCK:    1.63 KCAL/MOL
REMARK 927      BINDING AFFINITY PREDICTED BY RF-SCORE:    0.00 PKD
ROOT
HETATM    1  C   UNL     1     -10.399  10.024  68.225  1.00  0.00    -0.224 C  
HETATM    2  C   UNL     1      -9.508   8.849  68.042  1.00  0.00    -0.143 C  
HETATM    3  C   UNL     1      -9.713   7.553  68.515  1.00  0.00    -0.156 C  
HETATM    4  C   UNL     1      -7.596   7.854  67.255  1.00  0.00    -0.101 C  
HETATM    5  S   UNL     1      -8.297   6.615  68.149  1.00  0.00    -0.117 SA 
HETATM    6  N   UNL     1      -8.329   8.960  67.293  1.00  0.00    -0.104 NA 
ENDROOT
BRANCH   3   7
HETATM    7  C   UNL     1     -10.904   6.901  69.240  1.00  0.00    -0.270 C  
BRANCH   7   8
HETATM    8  C   UNL     1     -10.400   6.058  70.419  1.00  0.00    -0.223 C  
BRANCH   8   9
HETATM    9  O   UNL     1      -9.957   6.701  71.593  1.00  0.00    -0.175 OA 
BRANCH   9  10
HETATM   10  P   UNL     1      -9.054   5.690  72.595  1.00  0.00    -0.128 P  
HETATM   11  O   UNL     1     -10.278   4.481  72.417  1.00  0.00    -0.180 OA 
HETATM   12  O   UNL     1      -9.591   5.900  74.025  1.00  0.00    -0.143 OA 
BRANCH  10  13
HETATM   13  O   UNL     1      -7.829   6.898  72.772  1.00  0.00    -0.097 OA 
HETATM   14  O   UNL     1      -6.795   5.535  70.901  1.00  0.00    -0.045 OA 
HETATM   15  P   UNL     1      -6.713   6.840  71.621  1.00  0.00    -0.063 P  
HETATM   16  O   UNL     1      -6.672   8.176  70.931  1.00  0.00    -0.037 OA 
HETATM   17  O   UNL     1      -5.390   6.856  72.538  1.00  0.00    -0.036 OA 
ENDBRANCH  10  13
ENDBRANCH   9  10
ENDBRANCH   8   9
ENDBRANCH   7   8
ENDBRANCH   3   7
BRANCH   6  18
HETATM   18  C   UNL     1      -7.900  10.103  66.468  1.00  0.00    -0.112 C  
BRANCH  18  19
HETATM   19  C   UNL     1      -8.725  11.331  66.700  1.00  0.00    -0.174 A  
HETATM   20  C   UNL     1      -8.457  12.154  67.772  1.00  0.00    -0.160 A  
HETATM   21  N   UNL     1      -9.033  13.349  67.963  1.00  0.00    -0.183 NA 
HETATM   22  C   UNL     1      -9.923  13.735  67.036  1.00  0.00    -0.251 A  
HETATM   23  N   UNL     1     -10.356  12.944  66.040  1.00  0.00    -0.277 NA 
HETATM   24  C   UNL     1     -10.427  15.143  67.109  1.00  0.00    -0.280 C  
HETATM   25  C   UNL     1      -9.784  11.743  65.917  1.00  0.00    -0.237 A  
HETATM   26  N   UNL     1     -10.379  10.902  64.971  1.00  0.00    -0.295 NA 
HETATM   27  H1  UNL     1     -11.162  11.206  64.392  1.00  0.00     0.000 HD 
HETATM   28  H2  UNL     1     -10.660  10.046  65.449  1.00  0.00     0.000 HD 
ENDBRANCH  18  19
ENDBRANCH   6  18
TORSDOF 7
ENDMDL
MODEL      340
REMARK 921   NORMALIZED FREE ENERGY PREDICTED BY IDOCK:   -0.77 KCAL/MOL
REMARK 922        TOTAL FREE ENERGY PREDICTED BY IDOCK:   -2.07 KCAL/MOL
REMARK 923 INTER-LIGAND FREE ENERGY PREDICTED BY IDOCK:   -3.83 KCAL/MOL
REMARK 924 INTRA-LIGAND FREE ENERGY PREDICTED BY IDOCK:    1.75 KCAL/MOL
REMARK 927      BINDING AFFINITY PREDICTED BY RF-SCORE:    0.00 PKD
ROOT
HETATM    1  C   UNL     1      -5.370  10.703  68.467  1.00  0.00    -0.040 C  
HETATM    2  C   UNL     1      -6.832  10.437  68.494  1.00  0.00    -0.061 C  
HETATM    3  C   UNL     1      -7.767  10.761  67.512  1.00  0.00    -0.105 C  
HETATM    4  C   UNL     1      -8.732   9.636  69.503  1.00  0.00    -0.185 C  
HETATM    5  S   UNL     1      -9.346  10.363  68.118  1.00  0.00    -0.148 SA 
HETATM    6  N   UNL     1      -7.412   9.757  69.574  1.00  0.00    -0.088 NA 
ENDROOT
BRANCH   3   7
HETATM    7  C   UNL     1      -7.611  11.360  66.102  1.00  0.00     0.104 C  
BRANCH   7   8
HETATM    8  C   UNL     1      -8.991  11.695  65.520  1.00  0.00     0.037 C  
BRANCH   8   9
HETATM    9  O   UNL     1      -9.500  13.004  65.648  1.00  0.00    -0.077 OA 
BRANCH   9  10
HETATM   10  P   UNL     1     -11.104  13.037  66.163  1.00  0.00    -0.305 P  
HETATM   11  O   UNL     1     -11.145  11.313  66.030  1.00  0.00    -0.228 OA 
HETATM   12  O   UNL     1     -11.971  13.069  64.888  1.00  0.00    -0.353 OA 
BRANCH  10  13
HETATM   13  O   UNL     1     -11.064  14.761  66.297  1.00  0.00    -0.332 OA 
HETATM   14  O   UNL     1      -9.196  14.179  67.909  1.00  0.00    -0.183 OA 
HETATM   15  P   UNL     1      -9.808  15.300  67.137  1.00  0.00    -0.231 P  
HETATM   16  O   UNL     1      -9.024  16.243  66.266  1.00  0.00    -0.276 OA 
HETATM   17  O   UNL     1     -10.576  16.285  68.153  1.00  0.00    -0.281 OA 
ENDBRANCH  10  13
ENDBRANCH   9  10
ENDBRANCH   8   9
ENDBRANCH   7   8
ENDBRANCH   3   7
BRANCH   6  18
HETATM   18  C   UNL     1      -6.713   9.077  70.679  1.00  0.00    -0.064 C  
BRANCH  18  19
HETATM   19  C   UNL     1      -7.649   8.473  71.679  1.00  0.00    -0.135 A  
HETATM   20  C   UNL     1      -8.906   9.007  71.862  1.00  0.00     0.104 A  
HETATM   21  N   UNL     1      -9.860   8.437  72.612  1.00  0.00    -0.281 NA 
HETATM   22  C   UNL     1      -9.537   7.280  73.208  1.00  0.00    -0.212 A  
HETATM   23  N   UNL     1      -8.299   6.760  73.208  1.00  0.00    -0.117 NA 
HETATM   24  C   UNL     1     -10.638   6.520  73.879  1.00  0.00    -0.250 C  
HETATM   25  C   UNL     1      -7.368   7.388  72.483  1.00  0.00    -0.073 A  
HETATM   26  N   UNL     1      -6.068   6.900  72.645  1.00  0.00    -0.045 NA 
HETATM   27  H1  UNL     1      -5.860   6.097  73.239  1.00  0.00     0.000 HD 
HETATM   28  H2  UNL     1      -5.482   7.675  72.953  1.00  0.00     0.000 HD 
ENDBRANCH  18  19
ENDBRANCH   6  18
TORSDOF 7
ENDMDL
MODEL      341
REMARK 921   NORMALIZED FREE ENERGY PREDICTED BY IDOCK:   -0.49 KCAL/MOL
REMARK 922        TOTAL FREE ENERGY PREDICTED BY IDOCK:   -1.68 KCAL/MOL
REMARK 923 INTER-LIGAND FREE ENERGY PREDICTED BY IDOCK:   -2.34 KCAL/MOL
REMARK 924 INTRA-LIGAND FREE ENERGY PREDICTED BY IDOCK:    0.65 KCAL/MOL
REMARK 927      BINDING AFFINITY PREDICTED BY RF-SCORE:    0.00 PKD
ROOT
HETATM    1  C   UNL     1     -10.807  11.534  68.001  1.00  0.00    -0.259 C  
HETATM    2  C   UNL     1      -9.410  11.049  67.865  1.00  0.00    -0.158 C  
HETATM    3  C   UNL     1      -8.944   9.750  68.067  1.00  0.00    -0.118 C  
HETATM    4  C   UNL     1      -7.180  11.375  67.431  1.00  0.00    -0.115 C  
HETATM    5  S   UNL     1      -7.213   9.769  67.923  1.00  0.00    -0.085 SA 
HETATM    6  N   UNL     1      -8.390  11.920  67.456  1.00  0.00    -0.150 NA 
ENDROOT
BRANCH   3   7
HETATM    7  C   UNL     1      -9.678   8.430  68.367  1.00  0.00    -0.168 C  
BRANCH   7   8
HETATM    8  C   UNL     1      -8.981   7.269  67.646  1.00  0.00    -0.126 C  
BRANCH   8   9
HETATM    9  O   UNL     1      -9.458   6.844  66.389  1.00  0.00    -0.171 OA 
BRANCH   9  10
HETATM   10  P   UNL     1      -9.350   5.175  66.175  1.00  0.00    -0.164 P  
HETATM   11  O   UNL     1      -9.646   5.410  64.487  1.00  0.00     0.380 OA 
HETATM   12  O   UNL     1     -10.790   4.631  66.263  1.00  0.00    -0.138 OA 
BRANCH  10  13
HETATM   13  O   UNL     1      -9.054   4.941  67.863  1.00  0.00    -0.108 OA 
HETATM   14  O   UNL     1      -7.548   3.129  66.925  1.00  0.00    -0.074 OA 
HETATM   15  P   UNL     1      -7.859   3.912  68.158  1.00  0.00    -0.072 P  
HETATM   16  O   UNL     1      -6.820   4.616  68.987  1.00  0.00    -0.048 OA 
HETATM   17  O   UNL     1      -8.595   2.954  69.222  1.00  0.00    -0.060 OA 
ENDBRANCH  10  13
ENDBRANCH   9  10
ENDBRANCH   8   9
ENDBRANCH   7   8
ENDBRANCH   3   7
BRANCH   6  18
HETATM   18  C   UNL     1      -8.542  13.294  66.949  1.00  0.00    -0.105 C  
BRANCH  18  19
HETATM   19  C   UNL     1      -9.733  13.458  66.055  1.00  0.00    -0.228 A  
HETATM   20  C   UNL     1     -10.052  12.479  65.140  1.00  0.00    -0.246 A  
HETATM   21  N   UNL     1     -11.182  12.468  64.419  1.00  0.00    -0.319 NA 
HETATM   22  C   UNL     1     -12.030  13.488  64.623  1.00  0.00    -0.400 A  
HETATM   23  N   UNL     1     -11.741  14.558  65.382  1.00  0.00    -0.355 NA 
HETATM   24  C   UNL     1     -13.383  13.396  63.991  1.00  0.00     1.534 C  
HETATM   25  C   UNL     1     -10.582  14.546  66.046  1.00  0.00    -0.307 A  
HETATM   26  N   UNL     1     -10.259  15.746  66.689  1.00  0.00    -0.277 NA 
HETATM   27  H1  UNL     1     -10.887  16.550  66.682  1.00  0.00     0.000 HD 
HETATM   28  H2  UNL     1      -9.354  16.054  66.334  1.00  0.00     0.000 HD 
ENDBRANCH  18  19
ENDBRANCH   6  18
TORSDOF 7
ENDMDL
MODEL      342
REMARK 921   NORMALIZED FREE ENERGY PREDICTED BY IDOCK:    0.52 KCAL/MOL
REMARK 922        TOTAL FREE ENERGY PREDICTED BY IDOCK:   -0.25 KCAL/MOL
REMARK 923 INTER-LIGAND FREE ENERGY PREDICTED BY IDOCK:   -4.36 KCAL/MOL
REMARK 924 INTRA-LIGAND FREE ENERGY PREDICTED BY IDOCK:    4.11 KCAL/MOL
REMARK 927      BINDING AFFINITY PREDICTED BY RF-SCORE:    0.00 PKD
ROOT
HETATM    1  C   UNL     1      -7.813  11.702  67.027  1.00  0.00    -0.164 C  
HETATM    2  C   UNL     1      -6.962  11.905  68.229  1.00  0.00    -0.077 C  
HETATM    3  C   UNL     1      -6.893  13.042  69.032  1.00  0.00    -0.081 C  
HETATM    4  C   UNL     1      -5.385  11.204  69.742  1.00  0.00    -0.049 C  
HETATM    5  S   UNL     1      -5.634  12.800  70.204  1.00  0.00    -0.153 SA 
HETATM    6  N   UNL     1      -6.135  10.875  68.697  1.00  0.00    -0.043 NA 
ENDROOT
BRANCH   3   7
HETATM    7  C   UNL     1      -7.702  14.353  69.028  1.00  0.00    -0.093 C  
BRANCH   7   8
HETATM    8  C   UNL     1      -8.377  14.546  67.664  1.00  0.00    -0.180 C  
BRANCH   8   9
HETATM    9  O   UNL     1      -9.189  13.520  67.139  1.00  0.00    -0.218 OA 
BRANCH   9  10
HETATM   10  P   UNL     1     -10.799  13.642  67.623  1.00  0.00    -0.266 P  
HETATM   11  O   UNL     1     -10.446  12.576  68.939  1.00  0.00    -0.185 OA 
HETATM   12  O   UNL     1     -11.540  12.456  66.975  1.00  0.00    -0.335 OA 
BRANCH  10  13
HETATM   13  O   UNL     1     -11.152  14.708  66.308  1.00  0.00    -0.325 OA 
HETATM   14  O   UNL     1     -11.887  12.514  65.270  1.00  0.00    -0.374 OA 
HETATM   15  P   UNL     1     -11.963  13.998  65.120  1.00  0.00    -0.434 P  
HETATM   16  O   UNL     1     -13.247  14.752  64.904  1.00  0.00    -0.221 OA 
HETATM   17  O   UNL     1     -11.052  14.451  63.873  1.00  0.00     0.207 OA 
ENDBRANCH  10  13
ENDBRANCH   9  10
ENDBRANCH   8   9
ENDBRANCH   7   8
ENDBRANCH   3   7
BRANCH   6  18
HETATM   18  C   UNL     1      -6.108   9.475  68.239  1.00  0.00    -0.048 C  
BRANCH  18  19
HETATM   19  C   UNL     1      -7.464   8.838  68.231  1.00  0.00    -0.092 A  
HETATM   20  C   UNL     1      -7.965   8.290  67.070  1.00  0.00    -0.100 A  
HETATM   21  N   UNL     1      -9.089   7.563  67.010  1.00  0.00    -0.130 NA 
HETATM   22  C   UNL     1      -9.744   7.380  68.167  1.00  0.00    -0.151 A  
HETATM   23  N   UNL     1      -9.415   7.993  69.316  1.00  0.00    -0.155 NA 
HETATM   24  C   UNL     1     -10.882   6.408  68.169  1.00  0.00    -0.386 C  
HETATM   25  C   UNL     1      -8.311   8.745  69.317  1.00  0.00    -0.120 A  
HETATM   26  N   UNL     1      -8.103   9.485  70.486  1.00  0.00    -0.188 NA 
HETATM   27  H1  UNL     1      -8.729   9.416  71.289  1.00  0.00     0.000 HD 
HETATM   28  H2  UNL     1      -8.040  10.468  70.223  1.00  0.00     0.000 HD 
ENDBRANCH  18  19
ENDBRANCH   6  18
TORSDOF 7
ENDMDL
MODEL      343
REMARK 921   NORMALIZED FREE ENERGY PREDICTED BY IDOCK:    0.62 KCAL/MOL
REMARK 922        TOTAL FREE ENERGY PREDICTED BY IDOCK:   -0.11 KCAL/MOL
REMARK 923 INTER-LIGAND FREE ENERGY PREDICTED BY IDOCK:   -0.61 KCAL/MOL
REMARK 924 INTRA-LIGAND FREE ENERGY PREDICTED BY IDOCK:    0.49 KCAL/MOL
REMARK 927      BINDING AFFINITY PREDICTED BY RF-SCORE:    0.00 PKD
ROOT
HETATM    1  C   UNL     1      -7.589  11.817  65.595  1.00  0.00     1.051 C  
HETATM    2  C   UNL     1      -7.573  12.154  67.042  1.00  0.00    -0.093 C  
HETATM    3  C   UNL     1      -8.568  12.810  67.766  1.00  0.00    -0.184 C  
HETATM    4  C   UNL     1      -6.575  12.188  69.108  1.00  0.00    -0.106 C  
HETATM    5  S   UNL     1      -7.973  13.080  69.376  1.00  0.00     1.039 SA 
HETATM    6  N   UNL     1      -6.492  11.775  67.849  1.00  0.00    -0.063 NA 
ENDROOT
BRANCH   3   7
HETATM    7  C   UNL     1      -9.983  13.277  67.378  1.00  0.00    -0.233 C  
BRANCH   7   8
HETATM    8  C   UNL     1     -10.933  13.112  68.572  1.00  0.00    -0.263 C  
BRANCH   8   9
HETATM    9  O   UNL     1     -11.695  11.932  68.695  1.00  0.00    -0.283 OA 
BRANCH   9  10
HETATM   10  P   UNL     1     -10.792  10.536  68.418  1.00  0.00    -0.276 P  
HETATM   11  O   UNL     1     -11.257  10.609  66.754  1.00  0.00    -0.191 OA 
HETATM   12  O   UNL     1     -11.770   9.351  68.549  1.00  0.00     0.559 OA 
BRANCH  10  13
HETATM   13  O   UNL     1     -10.327  10.462  70.082  1.00  0.00    -0.218 OA 
HETATM   14  O   UNL     1     -10.281   7.987  69.532  1.00  0.00    -0.199 OA 
HETATM   15  P   UNL     1      -9.852   9.000  70.542  1.00  0.00    -0.255 P  
HETATM   16  O   UNL     1      -8.451   9.103  71.080  1.00  0.00    -0.239 OA 
HETATM   17  O   UNL     1     -10.749   8.838  71.868  1.00  0.00    -0.313 OA 
ENDBRANCH  10  13
ENDBRANCH   9  10
ENDBRANCH   8   9
ENDBRANCH   7   8
ENDBRANCH   3   7
BRANCH   6  18
HETATM   18  C   UNL     1      -5.374  10.889  67.483  1.00  0.00    -0.040 C  
BRANCH  18  19
HETATM   19  C   UNL     1      -5.732   9.436  67.557  1.00  0.00    -0.041 A  
HETATM   20  C   UNL     1      -6.096   8.753  66.417  1.00  0.00    -0.060 A  
HETATM   21  N   UNL     1      -6.274   7.426  66.364  1.00  0.00    -0.040 NA 
HETATM   22  C   UNL     1      -6.081   6.752  67.508  1.00  0.00    -0.032 A  
HETATM   23  N   UNL     1      -5.870   7.344  68.696  1.00  0.00    -0.023 NA 
HETATM   24  C   UNL     1      -6.070   5.258  67.435  1.00  0.00    -0.030 C  
HETATM   25  C   UNL     1      -5.745   8.674  68.707  1.00  0.00    -0.041 A  
HETATM   26  N   UNL     1      -5.686   9.249  69.981  1.00  0.00    -0.034 NA 
HETATM   27  H1  UNL     1      -5.695   8.685  70.831  1.00  0.00     0.000 HD 
HETATM   28  H2  UNL     1      -6.444   9.927  70.049  1.00  0.00     0.000 HD 
ENDBRANCH  18  19
ENDBRANCH   6  18
TORSDOF 7
ENDMDL
MODEL      344
REMARK 921   NORMALIZED FREE ENERGY PREDICTED BY IDOCK:    1.05 KCAL/MOL
REMARK 922        TOTAL FREE ENERGY PREDICTED BY IDOCK:    0.49 KCAL/MOL
REMARK 923 INTER-LIGAND FREE ENERGY PREDICTED BY IDOCK:   -0.10 KCAL/MOL
REMARK 924 INTRA-LIGAND FREE ENERGY PREDICTED BY IDOCK:    0.59 KCAL/MOL
REMARK 927      BINDING AFFINITY PREDICTED BY RF-SCORE:    0.00 PKD
ROOT
HETATM    1  C   UNL     1     -12.205  10.325  68.328  1.00  0.00     1.517 C  
HETATM    2  C   UNL     1     -10.782  10.371  68.751  1.00  0.00    -0.225 C  
HETATM    3  C   UNL     1     -10.201  11.251  69.663  1.00  0.00     0.304 C  
HETATM    4  C   UNL     1      -8.613   9.625  68.667  1.00  0.00    -0.120 C  
HETATM    5  S   UNL     1      -8.487  10.965  69.673  1.00  0.00     0.560 SA 
HETATM    6  N   UNL     1      -9.861   9.438  68.255  1.00  0.00    -0.156 NA 
ENDROOT
BRANCH   3   7
HETATM    7  C   UNL     1     -10.807  12.333  70.576  1.00  0.00     2.092 C  
BRANCH   7   8
HETATM    8  C   UNL     1     -11.611  13.335  69.737  1.00  0.00    -0.227 C  
BRANCH   8   9
HETATM    9  O   UNL     1     -10.937  14.185  68.836  1.00  0.00    -0.244 OA 
BRANCH   9  10
HETATM   10  P   UNL     1     -11.042  15.812  69.265  1.00  0.00    -0.357 P  
HETATM   11  O   UNL     1     -12.424  15.430  70.232  1.00  0.00    -0.376 OA 
HETATM   12  O   UNL     1     -12.025  16.462  68.272  1.00  0.00     0.050 OA 
BRANCH  10  13
HETATM   13  O   UNL     1      -9.660  16.194  68.298  1.00  0.00    -0.210 OA 
HETATM   14  O   UNL     1     -11.204  15.323  66.485  1.00  0.00    -0.316 OA 
HETATM   15  P   UNL     1      -9.941  16.084  66.722  1.00  0.00    -0.282 P  
HETATM   16  O   UNL     1      -9.636  17.415  66.091  1.00  0.00    -0.402 OA 
HETATM   17  O   UNL     1      -8.686  15.173  66.294  1.00  0.00    -0.251 OA 
ENDBRANCH  10  13
ENDBRANCH   9  10
ENDBRANCH   8   9
ENDBRANCH   7   8
ENDBRANCH   3   7
BRANCH   6  18
HETATM   18  C   UNL     1     -10.153   8.238  67.451  1.00  0.00    -0.233 C  
BRANCH  18  19
HETATM   19  C   UNL     1      -9.253   8.099  66.262  1.00  0.00    -0.245 A  
HETATM   20  C   UNL     1      -8.453   6.986  66.125  1.00  0.00    -0.135 A  
HETATM   21  N   UNL     1      -7.744   6.704  65.023  1.00  0.00    -0.096 NA 
HETATM   22  C   UNL     1      -7.838   7.582  64.013  1.00  0.00    -0.127 A  
HETATM   23  N   UNL     1      -8.472   8.762  64.107  1.00  0.00    -0.147 NA 
HETATM   24  C   UNL     1      -7.227   7.194  62.703  1.00  0.00    -0.075 C  
HETATM   25  C   UNL     1      -9.128   9.020  65.242  1.00  0.00    -0.167 A  
HETATM   26  N   UNL     1      -9.633  10.320  65.349  1.00  0.00    -0.229 NA 
HETATM   27  H1  UNL     1      -9.540  11.000  64.594  1.00  0.00     0.000 HD 
HETATM   28  H2  UNL     1      -9.241  10.736  66.193  1.00  0.00     0.000 HD 
ENDBRANCH  18  19
ENDBRANCH   6  18
TORSDOF 7
ENDMDL
MODEL      345
REMARK 921   NORMALIZED FREE ENERGY PREDICTED BY IDOCK:    5.77 KCAL/MOL
REMARK 922        TOTAL FREE ENERGY PREDICTED BY IDOCK:    7.14 KCAL/MOL
REMARK 923 INTER-LIGAND FREE ENERGY PREDICTED BY IDOCK:    5.30 KCAL/MOL
REMARK 924 INTRA-LIGAND FREE ENERGY PREDICTED BY IDOCK:    1.84 KCAL/MOL
REMARK 927      BINDING AFFINITY PREDICTED BY RF-SCORE:    0.00 PKD
ROOT
HETATM    1  C   UNL     1      -7.915  13.270  67.728  1.00  0.00    -0.166 C  
HETATM    2  C   UNL     1      -7.251  13.369  69.054  1.00  0.00    -0.018 C  
HETATM    3  C   UNL     1      -7.796  13.875  70.234  1.00  0.00     1.832 C  
HETATM    4  C   UNL     1      -5.451  13.091  70.450  1.00  0.00    -0.142 C  
HETATM    5  S   UNL     1      -6.545  13.895  71.440  1.00  0.00     1.657 SA 
HETATM    6  N   UNL     1      -5.946  12.890  69.235  1.00  0.00    -0.086 NA 
ENDROOT
BRANCH   3   7
HETATM    7  C   UNL     1      -9.212  14.365  70.585  1.00  0.00     2.684 C  
BRANCH   7   8
HETATM    8  C   UNL     1      -9.336  15.865  70.283  1.00  0.00     0.846 C  
BRANCH   8   9
HETATM    9  O   UNL     1      -9.217  16.318  68.953  1.00  0.00    -0.228 OA 
BRANCH   9  10
HETATM   10  P   UNL     1     -10.703  16.692  68.251  1.00  0.00    -0.342 P  
HETATM   11  O   UNL     1     -10.994  14.999  68.052  1.00  0.00    -0.265 OA 
HETATM   12  O   UNL     1     -10.466  16.742  66.728  1.00  0.00    -0.301 OA 
BRANCH  10  13
HETATM   13  O   UNL     1     -10.412  18.385  68.450  1.00  0.00    -0.347 OA 
HETATM   14  O   UNL     1     -11.008  18.356  65.985  1.00  0.00    -0.098 OA 
HETATM   15  P   UNL     1     -10.826  19.253  67.165  1.00  0.00    -0.155 P  
HETATM   16  O   UNL     1     -11.833  20.285  67.594  1.00  0.00     1.389 OA 
HETATM   17  O   UNL     1      -9.475  20.106  66.978  1.00  0.00    -0.360 OA 
ENDBRANCH  10  13
ENDBRANCH   9  10
ENDBRANCH   8   9
ENDBRANCH   7   8
ENDBRANCH   3   7
BRANCH   6  18
HETATM   18  C   UNL     1      -5.146  12.101  68.282  1.00  0.00    -0.054 C  
BRANCH  18  19
HETATM   19  C   UNL     1      -5.805  10.814  67.892  1.00  0.00    -0.042 A  
HETATM   20  C   UNL     1      -5.801  10.403  66.578  1.00  0.00    -0.068 A  
HETATM   21  N   UNL     1      -6.221   9.198  66.168  1.00  0.00    -0.063 NA 
HETATM   22  C   UNL     1      -6.669   8.367  67.121  1.00  0.00    -0.063 A  
HETATM   23  N   UNL     1      -6.847   8.728  68.403  1.00  0.00    -0.064 NA 
HETATM   24  C   UNL     1      -6.948   6.951  66.725  1.00  0.00    -0.066 C  
HETATM   25  C   UNL     1      -6.456   9.956  68.756  1.00  0.00    -0.045 A  
HETATM   26  N   UNL     1      -6.809  10.335  70.055  1.00  0.00    -0.131 NA 
HETATM   27  H1  UNL     1      -7.290   9.701  70.693  1.00  0.00     0.000 HD 
HETATM   28  H2  UNL     1      -7.362  11.189  69.989  1.00  0.00     0.000 HD 
ENDBRANCH  18  19
ENDBRANCH   6  18
TORSDOF 7
ENDMDL
MODEL      346
REMARK 921   NORMALIZED FREE ENERGY PREDICTED BY IDOCK:    6.51 KCAL/MOL
REMARK 922        TOTAL FREE ENERGY PREDICTED BY IDOCK:    8.19 KCAL/MOL
REMARK 923 INTER-LIGAND FREE ENERGY PREDICTED BY IDOCK:    6.96 KCAL/MOL
REMARK 924 INTRA-LIGAND FREE ENERGY PREDICTED BY IDOCK:    1.23 KCAL/MOL
REMARK 927      BINDING AFFINITY PREDICTED BY RF-SCORE:    0.00 PKD
ROOT
HETATM    1  C   UNL     1      -7.938  13.263  67.755  1.00  0.00    -0.166 C  
HETATM    2  C   UNL     1      -7.302  13.276  69.099  1.00  0.00     0.115 C  
HETATM    3  C   UNL     1      -7.887  13.660  70.305  1.00  0.00     2.265 C  
HETATM    4  C   UNL     1      -5.517  12.954  70.504  1.00  0.00    -0.163 C  
HETATM    5  S   UNL     1      -6.660  13.628  71.534  1.00  0.00     2.257 SA 
HETATM    6  N   UNL     1      -5.982  12.836  69.266  1.00  0.00    -0.086 NA 
ENDROOT
BRANCH   3   7
HETATM    7  C   UNL     1      -9.329  14.063  70.665  1.00  0.00     3.713 C  
BRANCH   7   8
HETATM    8  C   UNL     1      -9.510  15.576  70.481  1.00  0.00     0.997 C  
BRANCH   8   9
HETATM    9  O   UNL     1      -9.419  16.135  69.189  1.00  0.00    -0.236 OA 
BRANCH   9  10
HETATM   10  P   UNL     1     -10.925  16.490  68.520  1.00  0.00    -0.272 P  
HETATM   11  O   UNL     1     -11.383  17.210  70.025  1.00  0.00     0.442 OA 
HETATM   12  O   UNL     1     -11.856  15.320  68.896  1.00  0.00    -0.338 OA 
BRANCH  10  13
HETATM   13  O   UNL     1     -10.467  15.770  67.016  1.00  0.00    -0.297 OA 
HETATM   14  O   UNL     1     -12.667  14.566  67.397  1.00  0.00     0.247 OA 
HETATM   15  P   UNL     1     -11.625  14.866  66.370  1.00  0.00    -0.083 P  
HETATM   16  O   UNL     1     -11.933  15.399  64.997  1.00  0.00    -0.102 OA 
HETATM   17  O   UNL     1     -10.779  13.531  66.069  1.00  0.00    -0.275 OA 
ENDBRANCH  10  13
ENDBRANCH   9  10
ENDBRANCH   8   9
ENDBRANCH   7   8
ENDBRANCH   3   7
BRANCH   6  18
HETATM   18  C   UNL     1      -5.134  12.161  68.268  1.00  0.00    -0.054 C  
BRANCH  18  19
HETATM   19  C   UNL     1      -5.735  10.888  67.756  1.00  0.00    -0.042 A  
HETATM   20  C   UNL     1      -6.121   9.902  68.636  1.00  0.00    -0.041 A  
HETATM   21  N   UNL     1      -6.810   8.808  68.280  1.00  0.00    -0.065 NA 
HETATM   22  C   UNL     1      -7.122   8.698  66.980  1.00  0.00    -0.075 A  
HETATM   23  N   UNL     1      -6.666   9.530  66.029  1.00  0.00    -0.080 NA 
HETATM   24  C   UNL     1      -8.062   7.601  66.588  1.00  0.00    -0.119 C  
HETATM   25  C   UNL     1      -5.944  10.581  66.427  1.00  0.00    -0.084 A  
HETATM   26  N   UNL     1      -5.362  11.322  65.393  1.00  0.00    -0.501 NA 
HETATM   27  H1  UNL     1      -5.517  11.095  64.411  1.00  0.00     0.000 HD 
HETATM   28  H2  UNL     1      -4.355  11.339  65.553  1.00  0.00     0.000 HD 
ENDBRANCH  18  19
ENDBRANCH   6  18
TORSDOF 7
ENDMDL
MODEL      347
REMARK 921   NORMALIZED FREE ENERGY PREDICTED BY IDOCK:    7.46 KCAL/MOL
REMARK 922        TOTAL FREE ENERGY PREDICTED BY IDOCK:    9.53 KCAL/MOL
REMARK 923 INTER-LIGAND FREE ENERGY PREDICTED BY IDOCK:    1.41 KCAL/MOL
REMARK 924 INTRA-LIGAND FREE ENERGY PREDICTED BY IDOCK:    8.12 KCAL/MOL
REMARK 927      BINDING AFFINITY PREDICTED BY RF-SCORE:    0.00 PKD
ROOT
HETATM    1  C   UNL     1      -8.658  13.022  68.866  1.00  0.00     0.295 C  
HETATM    2  C   UNL     1      -7.341  13.160  69.541  1.00  0.00     0.462 C  
HETATM    3  C   UNL     1      -6.821  14.300  70.151  1.00  0.00     0.065 C  
HETATM    4  C   UNL     1      -5.313  12.331  70.224  1.00  0.00    -0.120 C  
HETATM    5  S   UNL     1      -5.192  13.953  70.645  1.00  0.00    -0.130 SA 
HETATM    6  N   UNL     1      -6.479  12.060  69.652  1.00  0.00    -0.113 NA 
ENDROOT
BRANCH   3   7
HETATM    7  C   UNL     1      -7.432  15.687  70.427  1.00  0.00     0.900 C  
BRANCH   7   8
HETATM    8  C   UNL     1      -6.326  16.751  70.440  1.00  0.00     0.513 C  
BRANCH   8   9
HETATM    9  O   UNL     1      -6.102  17.534  69.289  1.00  0.00    -0.207 OA 
BRANCH   9  10
HETATM   10  P   UNL     1      -7.514  18.226  68.680  1.00  0.00    -0.257 P  
HETATM   11  O   UNL     1      -7.598  16.945  67.521  1.00  0.00    -0.158 OA 
HETATM   12  O   UNL     1      -7.085  19.137  67.513  1.00  0.00    -0.209 OA 
BRANCH  10  13
HETATM   13  O   UNL     1      -7.430  19.507  69.839  1.00  0.00    -0.018 OA 
HETATM   14  O   UNL     1      -5.700  17.940  70.830  1.00  0.00    -0.083 OA 
HETATM   15  P   UNL     1      -6.221  19.338  70.881  1.00  0.00     0.506 P  
HETATM   16  O   UNL     1      -5.348  20.560  70.797  1.00  0.00    -0.307 OA 
HETATM   17  O   UNL     1      -7.029  19.553  72.257  1.00  0.00     1.279 OA 
ENDBRANCH  10  13
ENDBRANCH   9  10
ENDBRANCH   8   9
ENDBRANCH   7   8
ENDBRANCH   3   7
BRANCH   6  18
HETATM   18  C   UNL     1      -6.780  10.655  69.323  1.00  0.00    -0.075 C  
BRANCH  18  19
HETATM   19  C   UNL     1      -7.243  10.473  67.910  1.00  0.00    -0.084 A  
HETATM   20  C   UNL     1      -8.439   9.841  67.649  1.00  0.00    -0.122 A  
HETATM   21  N   UNL     1      -9.004   9.779  66.436  1.00  0.00    -0.148 NA 
HETATM   22  C   UNL     1      -8.337  10.375  65.436  1.00  0.00    -0.165 A  
HETATM   23  N   UNL     1      -7.101  10.886  65.564  1.00  0.00     0.035 NA 
HETATM   24  C   UNL     1      -9.036  10.501  64.119  1.00  0.00    -0.258 C  
HETATM   25  C   UNL     1      -6.558  10.885  66.785  1.00  0.00    -0.116 A  
HETATM   26  N   UNL     1      -5.217  11.279  66.834  1.00  0.00    -0.074 NA 
HETATM   27  H1  UNL     1      -4.712  11.584  66.002  1.00  0.00     0.000 HD 
HETATM   28  H2  UNL     1      -4.687  10.519  67.260  1.00  0.00     0.000 HD 
ENDBRANCH  18  19
ENDBRANCH   6  18
TORSDOF 7
ENDMDL
MODEL      348
REMARK 921   NORMALIZED FREE ENERGY PREDICTED BY IDOCK:    8.03 KCAL/MOL
REMARK 922        TOTAL FREE ENERGY PREDICTED BY IDOCK:   10.33 KCAL/MOL
REMARK 923 INTER-LIGAND FREE ENERGY PREDICTED BY IDOCK:    8.76 KCAL/MOL
REMARK 924 INTRA-LIGAND FREE ENERGY PREDICTED BY IDOCK:    1.57 KCAL/MOL
REMARK 927      BINDING AFFINITY PREDICTED BY RF-SCORE:    0.00 PKD
ROOT
HETATM    1  C   UNL     1      -7.880  12.607  64.883  1.00  0.00     4.828 C  
HETATM    2  C   UNL     1      -8.511  12.646  66.228  1.00  0.00     0.385 C  
HETATM    3  C   UNL     1      -9.455  11.757  66.742  1.00  0.00    -0.193 C  
HETATM    4  C   UNL     1      -8.827  13.588  68.296  1.00  0.00    -0.179 C  
HETATM    5  S   UNL     1      -9.965  12.351  68.293  1.00  0.00    -0.215 SA 
HETATM    6  N   UNL     1      -8.148  13.630  67.157  1.00  0.00    -0.128 NA 
ENDROOT
BRANCH   3   7
HETATM    7  C   UNL     1     -10.046  10.450  66.185  1.00  0.00    -0.299 C  
BRANCH   7   8
HETATM    8  C   UNL     1      -9.007   9.324  66.280  1.00  0.00    -0.159 C  
BRANCH   8   9
HETATM    9  O   UNL     1      -8.115   9.109  65.209  1.00  0.00    -0.113 OA 
BRANCH   9  10
HETATM   10  P   UNL     1      -6.528   8.854  65.717  1.00  0.00    -0.061 P  
HETATM   11  O   UNL     1      -6.628  10.311  66.643  1.00  0.00    -0.071 OA 
HETATM   12  O   UNL     1      -5.627   9.637  64.742  1.00  0.00    -0.061 OA 
BRANCH  10  13
HETATM   13  O   UNL     1      -6.428   7.396  64.792  1.00  0.00    -0.037 OA 
HETATM   14  O   UNL     1      -8.336   6.771  66.340  1.00  0.00    -0.112 OA 
HETATM   15  P   UNL     1      -7.635   6.379  65.082  1.00  0.00    -0.102 P  
HETATM   16  O   UNL     1      -8.340   6.098  63.783  1.00  0.00    -0.051 OA 
HETATM   17  O   UNL     1      -6.788   5.035  65.344  1.00  0.00    -0.057 OA 
ENDBRANCH  10  13
ENDBRANCH   9  10
ENDBRANCH   8   9
ENDBRANCH   7   8
ENDBRANCH   3   7
BRANCH   6  18
HETATM   18  C   UNL     1      -7.039  14.593  67.047  1.00  0.00     0.448 C  
BRANCH  18  19
HETATM   19  C   UNL     1      -7.504  16.016  67.000  1.00  0.00    -0.264 A  
HETATM   20  C   UNL     1      -8.207  16.551  68.056  1.00  0.00    -0.172 A  
HETATM   21  N   UNL     1      -8.519  17.850  68.168  1.00  0.00    -0.260 NA 
HETATM   22  C   UNL     1      -8.108  18.649  67.172  1.00  0.00    -0.247 A  
HETATM   23  N   UNL     1      -7.547  18.199  66.037  1.00  0.00    -0.465 NA 
HETATM   24  C   UNL     1      -8.259  20.125  67.366  1.00  0.00    -0.385 C  
HETATM   25  C   UNL     1      -7.297  16.890  65.951  1.00  0.00     0.292 A  
HETATM   26  N   UNL     1      -6.864  16.454  64.695  1.00  0.00     6.435 NA 
HETATM   27  H1  UNL     1      -6.711  17.100  63.921  1.00  0.00     0.000 HD 
HETATM   28  H2  UNL     1      -7.511  15.733  64.377  1.00  0.00     0.000 HD 
ENDBRANCH  18  19
ENDBRANCH   6  18
TORSDOF 7
ENDMDL
MODEL      349
REMARK 921   NORMALIZED FREE ENERGY PREDICTED BY IDOCK:    8.49 KCAL/MOL
REMARK 922        TOTAL FREE ENERGY PREDICTED BY IDOCK:   10.98 KCAL/MOL
REMARK 923 INTER-LIGAND FREE ENERGY PREDICTED BY IDOCK:    5.29 KCAL/MOL
REMARK 924 INTRA-LIGAND FREE ENERGY PREDICTED BY IDOCK:    5.69 KCAL/MOL
REMARK 927      BINDING AFFINITY PREDICTED BY RF-SCORE:    0.00 PKD
ROOT
HETATM    1  C   UNL     1      -8.838  13.169  69.100  1.00  0.00     0.668 C  
HETATM    2  C   UNL     1      -7.541  13.408  69.786  1.00  0.00     0.984 C  
HETATM    3  C   UNL     1      -7.115  14.586  70.397  1.00  0.00     0.356 C  
HETATM    4  C   UNL     1      -5.462  12.737  70.489  1.00  0.00    -0.159 C  
HETATM    5  S   UNL     1      -5.468  14.365  70.906  1.00  0.00    -0.175 SA 
HETATM    6  N   UNL     1      -6.600  12.377  69.908  1.00  0.00     0.027 NA 
ENDROOT
BRANCH   3   7
HETATM    7  C   UNL     1      -7.831  15.923  70.663  1.00  0.00     2.203 C  
BRANCH   7   8
HETATM    8  C   UNL     1      -6.801  17.056  70.770  1.00  0.00     2.436 C  
BRANCH   8   9
HETATM    9  O   UNL     1      -6.511  17.839  69.634  1.00  0.00    -0.227 OA 
BRANCH   9  10
HETATM   10  P   UNL     1      -7.894  18.420  68.865  1.00  0.00    -0.057 P  
HETATM   11  O   UNL     1      -8.395  19.111  70.370  1.00  0.00     1.473 OA 
HETATM   12  O   UNL     1      -8.992  17.361  69.086  1.00  0.00    -0.117 OA 
BRANCH  10  13
HETATM   13  O   UNL     1      -7.393  17.729  67.361  1.00  0.00    -0.183 OA 
HETATM   14  O   UNL     1      -5.143  17.866  68.522  1.00  0.00    -0.146 OA 
HETATM   15  P   UNL     1      -5.860  17.257  67.362  1.00  0.00    -0.165 P  
HETATM   16  O   UNL     1      -5.814  15.791  67.027  1.00  0.00    -0.316 OA 
HETATM   17  O   UNL     1      -5.366  17.965  66.004  1.00  0.00    -0.164 OA 
ENDBRANCH  10  13
ENDBRANCH   9  10
ENDBRANCH   8   9
ENDBRANCH   7   8
ENDBRANCH   3   7
BRANCH   6  18
HETATM   18  C   UNL     1      -6.790  10.953  69.581  1.00  0.00    -0.137 C  
BRANCH  18  19
HETATM   19  C   UNL     1      -7.804  10.732  68.502  1.00  0.00    -0.122 A  
HETATM   20  C   UNL     1      -9.145  10.669  68.813  1.00  0.00    -0.169 A  
HETATM   21  N   UNL     1     -10.125  10.637  67.899  1.00  0.00    -0.164 NA 
HETATM   22  C   UNL     1      -9.743  10.666  66.614  1.00  0.00    -0.184 A  
HETATM   23  N   UNL     1      -8.463  10.579  66.213  1.00  0.00    -0.144 NA 
HETATM   24  C   UNL     1     -10.812  10.839  65.581  1.00  0.00    -0.065 C  
HETATM   25  C   UNL     1      -7.522  10.568  67.161  1.00  0.00    -0.097 A  
HETATM   26  N   UNL     1      -6.225  10.317  66.700  1.00  0.00    -0.066 NA 
HETATM   27  H1  UNL     1      -6.017  10.196  65.708  1.00  0.00     0.000 HD 
HETATM   28  H2  UNL     1      -5.874   9.497  67.194  1.00  0.00     0.000 HD 
ENDBRANCH  18  19
ENDBRANCH   6  18
TORSDOF 7
ENDMDL
MODEL      350
REMARK 921   NORMALIZED FREE ENERGY PREDICTED BY IDOCK:   12.57 KCAL/MOL
REMARK 922        TOTAL FREE ENERGY PREDICTED BY IDOCK:   16.73 KCAL/MOL
REMARK 923 INTER-LIGAND FREE ENERGY PREDICTED BY IDOCK:   16.15 KCAL/MOL
REMARK 924 INTRA-LIGAND FREE ENERGY PREDICTED BY IDOCK:    0.58 KCAL/MOL
REMARK 927      BINDING AFFINITY PREDICTED BY RF-SCORE:    0.00 PKD
ROOT
HETATM    1  C   UNL     1     -10.948  11.683  68.305  1.00  0.00    -0.273 C  
HETATM    2  C   UNL     1      -9.774  11.280  69.122  1.00  0.00     0.031 C  
HETATM    3  C   UNL     1      -9.405   9.987  69.490  1.00  0.00    -0.229 C  
HETATM    4  C   UNL     1      -7.895  11.759  70.351  1.00  0.00     3.381 C  
HETATM    5  S   UNL     1      -8.046  10.099  70.567  1.00  0.00     0.827 SA 
HETATM    6  N   UNL     1      -8.865  12.243  69.585  1.00  0.00     1.619 NA 
ENDROOT
BRANCH   3   7
HETATM    7  C   UNL     1      -9.974   8.609  69.108  1.00  0.00    -0.193 C  
BRANCH   7   8
HETATM    8  C   UNL     1      -8.837   7.676  68.669  1.00  0.00    -0.127 C  
BRANCH   8   9
HETATM    9  O   UNL     1      -8.479   7.612  67.306  1.00  0.00    -0.120 OA 
BRANCH   9  10
HETATM   10  P   UNL     1      -8.157   6.042  66.785  1.00  0.00    -0.106 P  
HETATM   11  O   UNL     1      -7.430   6.703  65.362  1.00  0.00    -0.073 OA 
HETATM   12  O   UNL     1      -9.340   5.631  65.885  1.00  0.00    -0.159 OA 
BRANCH  10  13
HETATM   13  O   UNL     1      -8.885   5.381  68.208  1.00  0.00    -0.105 OA 
HETATM   14  O   UNL     1      -6.991   3.722  67.905  1.00  0.00    -0.050 OA 
HETATM   15  P   UNL     1      -8.017   4.208  68.875  1.00  0.00    -0.071 P  
HETATM   16  O   UNL     1      -7.708   4.595  70.296  1.00  0.00    -0.056 OA 
HETATM   17  O   UNL     1      -9.165   3.091  69.036  1.00  0.00    -0.132 OA 
ENDBRANCH  10  13
ENDBRANCH   9  10
ENDBRANCH   8   9
ENDBRANCH   7   8
ENDBRANCH   3   7
BRANCH   6  18
HETATM   18  C   UNL     1      -8.810  13.667  69.215  1.00  0.00     0.681 C  
BRANCH  18  19
HETATM   19  C   UNL     1      -7.982  14.484  70.158  1.00  0.00     0.818 A  
HETATM   20  C   UNL     1      -7.873  14.116  71.481  1.00  0.00     5.081 A  
HETATM   21  N   UNL     1      -7.031  14.691  72.351  1.00  0.00     1.914 NA 
HETATM   22  C   UNL     1      -6.265  15.683  71.873  1.00  0.00     1.700 A  
HETATM   23  N   UNL     1      -6.403  16.206  70.644  1.00  0.00     0.416 NA 
HETATM   24  C   UNL     1      -5.176  16.201  72.760  1.00  0.00     1.616 C  
HETATM   25  C   UNL     1      -7.288  15.630  69.826  1.00  0.00    -0.065 A  
HETATM   26  N   UNL     1      -7.506  16.308  68.622  1.00  0.00    -0.173 NA 
HETATM   27  H1  UNL     1      -6.993  17.155  68.377  1.00  0.00     0.000 HD 
HETATM   28  H2  UNL     1      -8.502  16.520  68.562  1.00  0.00     0.000 HD 
ENDBRANCH  18  19
ENDBRANCH   6  18
TORSDOF 7
ENDMDL
MODEL      351
REMARK 921   NORMALIZED FREE ENERGY PREDICTED BY IDOCK:   28.79 KCAL/MOL
REMARK 922        TOTAL FREE ENERGY PREDICTED BY IDOCK:   39.59 KCAL/MOL
REMARK 923 INTER-LIGAND FREE ENERGY PREDICTED BY IDOCK:   38.16 KCAL/MOL
REMARK 924 INTRA-LIGAND FREE ENERGY PREDICTED BY IDOCK:    1.43 KCAL/MOL
REMARK 927      BINDING AFFINITY PREDICTED BY RF-SCORE:    0.00 PKD
ROOT
HETATM    1  C   UNL     1     -10.128  15.686  67.438  1.00  0.00    -0.251 C  
HETATM    2  C   UNL     1     -10.962  15.900  68.648  1.00  0.00    -0.320 C  
HETATM    3  C   UNL     1     -10.624  16.629  69.788  1.00  0.00    -0.227 C  
HETATM    4  C   UNL     1     -12.876  15.590  69.876  1.00  0.00     0.080 C  
HETATM    5  S   UNL     1     -11.897  16.429  70.954  1.00  0.00     0.248 SA 
HETATM    6  N   UNL     1     -12.261  15.377  68.720  1.00  0.00    -0.135 NA 
ENDROOT
BRANCH   3   7
HETATM    7  C   UNL     1      -9.402  17.504  70.123  1.00  0.00     2.089 C  
BRANCH   7   8
HETATM    8  C   UNL     1      -8.157  16.622  70.288  1.00  0.00     2.301 C  
BRANCH   8   9
HETATM    9  O   UNL     1      -8.176  15.296  69.808  1.00  0.00    -0.200 OA 
BRANCH   9  10
HETATM   10  P   UNL     1      -6.788  14.431  70.213  1.00  0.00     0.380 P  
HETATM   11  O   UNL     1      -6.493  14.184  68.527  1.00  0.00    -0.084 OA 
HETATM   12  O   UNL     1      -7.201  12.946  70.270  1.00  0.00     0.952 OA 
BRANCH  10  13
HETATM   13  O   UNL     1      -7.082  14.677  71.900  1.00  0.00     1.515 OA 
HETATM   14  O   UNL     1      -6.617  12.185  71.923  1.00  0.00     2.759 OA 
HETATM   15  P   UNL     1      -6.743  13.390  72.795  1.00  0.00     5.812 P  
HETATM   16  O   UNL     1      -5.725  13.785  73.829  1.00  0.00    -0.494 OA 
HETATM   17  O   UNL     1      -8.110  13.291  73.639  1.00  0.00     8.747 OA 
ENDBRANCH  10  13
ENDBRANCH   9  10
ENDBRANCH   8   9
ENDBRANCH   7   8
ENDBRANCH   3   7
BRANCH   6  18
HETATM   18  C   UNL     1     -13.029  14.747  67.632  1.00  0.00     2.141 C  
BRANCH  18  19
HETATM   19  C   UNL     1     -12.623  13.328  67.377  1.00  0.00     0.484 A  
HETATM   20  C   UNL     1     -12.700  12.392  68.385  1.00  0.00     1.647 A  
HETATM   21  N   UNL     1     -12.513  11.078  68.203  1.00  0.00     0.270 NA 
HETATM   22  C   UNL     1     -12.232  10.683  66.952  1.00  0.00     3.191 A  
HETATM   23  N   UNL     1     -11.993  11.531  65.938  1.00  0.00    -0.058 NA 
HETATM   24  C   UNL     1     -12.222   9.212  66.679  1.00  0.00     8.000 C  
HETATM   25  C   UNL     1     -12.147  12.836  66.178  1.00  0.00    -0.364 A  
HETATM   26  N   UNL     1     -11.733  13.678  65.141  1.00  0.00    -0.320 NA 
HETATM   27  H1  UNL     1     -11.381  13.315  64.255  1.00  0.00     0.000 HD 
HETATM   28  H2  UNL     1     -11.028  14.312  65.519  1.00  0.00     0.000 HD 
ENDBRANCH  18  19
ENDBRANCH   6  18
TORSDOF 7
ENDMDL
