MODEL        1
REMARK 921   NORMALIZED FREE ENERGY PREDICTED BY IDOCK:   -3.48 KCAL/MOL
REMARK 922        TOTAL FREE ENERGY PREDICTED BY IDOCK:   -3.73 KCAL/MOL
REMARK 923 INTER-LIGAND FREE ENERGY PREDICTED BY IDOCK:   -3.69 KCAL/MOL
REMARK 924 INTRA-LIGAND FREE ENERGY PREDICTED BY IDOCK:   -0.04 KCAL/MOL
REMARK 927      BINDING AFFINITY PREDICTED BY RF-SCORE:    0.00 PKD
ROOT
HETATM    1  O   UNL     1     -12.475  13.547  63.087  1.00  0.00    -0.759 OA 
HETATM    2  S   UNL     1     -12.252  14.540  64.340  1.00  0.00    -0.375 S  
HETATM    3  O   UNL     1     -13.155  14.113  65.382  1.00  0.00    -0.743 OA 
HETATM    4  O   UNL     1     -12.267  15.883  63.810  1.00  0.00    -0.817 OA 
HETATM    5  C   UNL     1     -10.583  14.061  64.748  1.00  0.00    -0.421 C  
ENDROOT
BRANCH   5   6
HETATM    6  C   UNL     1     -10.112  14.854  65.949  1.00  0.00    -0.325 C  
HETATM    7  S   UNL     1     -10.088  13.809  67.438  1.00  0.00    -0.247 SA 
HETATM    8  H   UNL     1      -9.655  14.537  68.542  1.00  0.00     0.000 H  
ENDBRANCH   5   6
TORSDOF 1
ENDMDL
MODEL        2
REMARK 921   NORMALIZED FREE ENERGY PREDICTED BY IDOCK:   -3.47 KCAL/MOL
REMARK 922        TOTAL FREE ENERGY PREDICTED BY IDOCK:   -3.71 KCAL/MOL
REMARK 923 INTER-LIGAND FREE ENERGY PREDICTED BY IDOCK:   -3.69 KCAL/MOL
REMARK 924 INTRA-LIGAND FREE ENERGY PREDICTED BY IDOCK:   -0.02 KCAL/MOL
REMARK 927      BINDING AFFINITY PREDICTED BY RF-SCORE:    0.00 PKD
ROOT
HETATM    1  O   UNL     1     -12.433  14.178  63.798  1.00  0.00    -0.791 OA 
HETATM    2  S   UNL     1     -12.258  12.624  64.198  1.00  0.00    -0.466 S  
HETATM    3  O   UNL     1     -13.057  11.858  63.271  1.00  0.00    -0.674 OA 
HETATM    4  O   UNL     1     -12.446  12.541  65.627  1.00  0.00    -0.648 OA 
HETATM    5  C   UNL     1     -10.529  12.452  63.796  1.00  0.00    -0.443 C  
ENDROOT
BRANCH   5   6
HETATM    6  C   UNL     1     -10.089  11.028  64.066  1.00  0.00    -0.350 C  
HETATM    7  S   UNL     1      -9.159  10.365  62.650  1.00  0.00    -0.323 SA 
HETATM    8  H   UNL     1      -8.755   9.058  62.898  1.00  0.00     0.000 H  
ENDBRANCH   5   6
TORSDOF 1
ENDMDL
MODEL        3
REMARK 921   NORMALIZED FREE ENERGY PREDICTED BY IDOCK:   -3.40 KCAL/MOL
REMARK 922        TOTAL FREE ENERGY PREDICTED BY IDOCK:   -3.64 KCAL/MOL
REMARK 923 INTER-LIGAND FREE ENERGY PREDICTED BY IDOCK:   -3.64 KCAL/MOL
REMARK 924 INTRA-LIGAND FREE ENERGY PREDICTED BY IDOCK:   -0.01 KCAL/MOL
REMARK 927      BINDING AFFINITY PREDICTED BY RF-SCORE:    0.00 PKD
ROOT
HETATM    1  O   UNL     1     -12.976  11.860  63.438  1.00  0.00    -0.730 OA 
HETATM    2  S   UNL     1     -12.023  13.068  63.928  1.00  0.00    -0.508 S  
HETATM    3  O   UNL     1     -12.639  14.296  63.486  1.00  0.00    -0.814 OA 
HETATM    4  O   UNL     1     -10.675  12.706  63.560  1.00  0.00    -0.417 OA 
HETATM    5  C   UNL     1     -12.251  12.873  65.687  1.00  0.00    -0.463 C  
ENDROOT
BRANCH   5   6
HETATM    6  C   UNL     1     -11.453  13.932  66.418  1.00  0.00    -0.344 C  
HETATM    7  S   UNL     1     -11.799  13.876  68.204  1.00  0.00    -0.361 SA 
HETATM    8  H   UNL     1     -11.067  14.849  68.875  1.00  0.00     0.000 H  
ENDBRANCH   5   6
TORSDOF 1
ENDMDL
MODEL        4
REMARK 921   NORMALIZED FREE ENERGY PREDICTED BY IDOCK:   -3.39 KCAL/MOL
REMARK 922        TOTAL FREE ENERGY PREDICTED BY IDOCK:   -3.62 KCAL/MOL
REMARK 923 INTER-LIGAND FREE ENERGY PREDICTED BY IDOCK:   -3.61 KCAL/MOL
REMARK 924 INTRA-LIGAND FREE ENERGY PREDICTED BY IDOCK:   -0.02 KCAL/MOL
REMARK 927      BINDING AFFINITY PREDICTED BY RF-SCORE:    0.00 PKD
ROOT
HETATM    1  O   UNL     1     -12.790  12.210  63.868  1.00  0.00    -0.687 OA 
HETATM    2  S   UNL     1     -12.323  12.995  65.200  1.00  0.00    -0.495 S  
HETATM    3  O   UNL     1     -12.053  11.996  66.205  1.00  0.00    -0.596 OA 
HETATM    4  O   UNL     1     -13.277  14.059  65.409  1.00  0.00    -0.761 OA 
HETATM    5  C   UNL     1     -10.790  13.661  64.577  1.00  0.00    -0.406 C  
ENDROOT
BRANCH   5   6
HETATM    6  C   UNL     1     -10.106  14.456  65.670  1.00  0.00    -0.353 C  
HETATM    7  S   UNL     1     -10.483  16.229  65.503  1.00  0.00    -0.310 SA 
HETATM    8  H   UNL     1      -9.855  16.960  66.505  1.00  0.00     0.000 H  
ENDBRANCH   5   6
TORSDOF 1
ENDMDL
MODEL        5
REMARK 921   NORMALIZED FREE ENERGY PREDICTED BY IDOCK:   -3.38 KCAL/MOL
REMARK 922        TOTAL FREE ENERGY PREDICTED BY IDOCK:   -3.62 KCAL/MOL
REMARK 923 INTER-LIGAND FREE ENERGY PREDICTED BY IDOCK:   -3.61 KCAL/MOL
REMARK 924 INTRA-LIGAND FREE ENERGY PREDICTED BY IDOCK:   -0.01 KCAL/MOL
REMARK 927      BINDING AFFINITY PREDICTED BY RF-SCORE:    0.00 PKD
ROOT
HETATM    1  O   UNL     1     -13.233  12.515  64.582  1.00  0.00    -0.848 OA 
HETATM    2  S   UNL     1     -12.084  13.645  64.683  1.00  0.00    -0.419 S  
HETATM    3  O   UNL     1     -12.598  14.827  64.033  1.00  0.00    -0.822 OA 
HETATM    4  O   UNL     1     -10.849  13.017  64.274  1.00  0.00    -0.363 OA 
HETATM    5  C   UNL     1     -12.102  13.868  66.452  1.00  0.00    -0.455 C  
ENDROOT
BRANCH   5   6
HETATM    6  C   UNL     1     -11.093  14.931  66.836  1.00  0.00    -0.337 C  
HETATM    7  S   UNL     1     -11.465  15.602  68.486  1.00  0.00    -0.369 SA 
HETATM    8  H   UNL     1     -10.538  16.577  68.838  1.00  0.00     0.000 H  
ENDBRANCH   5   6
TORSDOF 1
ENDMDL
MODEL        6
REMARK 921   NORMALIZED FREE ENERGY PREDICTED BY IDOCK:   -3.38 KCAL/MOL
REMARK 922        TOTAL FREE ENERGY PREDICTED BY IDOCK:   -3.61 KCAL/MOL
REMARK 923 INTER-LIGAND FREE ENERGY PREDICTED BY IDOCK:   -3.61 KCAL/MOL
REMARK 924 INTRA-LIGAND FREE ENERGY PREDICTED BY IDOCK:   -0.01 KCAL/MOL
REMARK 927      BINDING AFFINITY PREDICTED BY RF-SCORE:    0.00 PKD
ROOT
HETATM    1  O   UNL     1     -12.655  14.715  63.877  1.00  0.00    -0.834 OA 
HETATM    2  S   UNL     1     -12.206  13.399  64.697  1.00  0.00    -0.404 S  
HETATM    3  O   UNL     1     -10.845  13.107  64.313  1.00  0.00    -0.374 OA 
HETATM    4  O   UNL     1     -13.271  12.436  64.548  1.00  0.00    -0.834 OA 
HETATM    5  C   UNL     1     -12.237  14.099  66.337  1.00  0.00    -0.446 C  
ENDROOT
BRANCH   5   6
HETATM    6  C   UNL     1     -11.821  13.045  67.342  1.00  0.00    -0.357 C  
HETATM    7  S   UNL     1     -11.905  13.706  69.035  1.00  0.00    -0.357 SA 
HETATM    8  H   UNL     1     -11.523  12.738  69.958  1.00  0.00     0.000 H  
ENDBRANCH   5   6
TORSDOF 1
ENDMDL
MODEL        7
REMARK 921   NORMALIZED FREE ENERGY PREDICTED BY IDOCK:   -3.32 KCAL/MOL
REMARK 922        TOTAL FREE ENERGY PREDICTED BY IDOCK:   -3.55 KCAL/MOL
REMARK 923 INTER-LIGAND FREE ENERGY PREDICTED BY IDOCK:   -3.51 KCAL/MOL
REMARK 924 INTRA-LIGAND FREE ENERGY PREDICTED BY IDOCK:   -0.04 KCAL/MOL
REMARK 927      BINDING AFFINITY PREDICTED BY RF-SCORE:    0.00 PKD
ROOT
HETATM    1  O   UNL     1     -12.224  14.978  74.247  1.00  0.00    -0.604 OA 
HETATM    2  S   UNL     1     -13.103  14.958  72.893  1.00  0.00    -0.514 S  
HETATM    3  O   UNL     1     -14.002  16.085  72.958  1.00  0.00    -0.564 OA 
HETATM    4  O   UNL     1     -13.576  13.604  72.727  1.00  0.00    -0.672 OA 
HETATM    5  C   UNL     1     -11.790  15.295  71.733  1.00  0.00    -0.406 C  
ENDROOT
BRANCH   5   6
HETATM    6  C   UNL     1     -12.360  15.354  70.331  1.00  0.00    -0.402 C  
HETATM    7  S   UNL     1     -11.909  13.861  69.393  1.00  0.00    -0.350 SA 
HETATM    8  H   UNL     1     -12.432  13.915  68.105  1.00  0.00     0.000 H  
ENDBRANCH   5   6
TORSDOF 1
ENDMDL
MODEL        8
REMARK 921   NORMALIZED FREE ENERGY PREDICTED BY IDOCK:   -3.28 KCAL/MOL
REMARK 922        TOTAL FREE ENERGY PREDICTED BY IDOCK:   -3.51 KCAL/MOL
REMARK 923 INTER-LIGAND FREE ENERGY PREDICTED BY IDOCK:   -3.47 KCAL/MOL
REMARK 924 INTRA-LIGAND FREE ENERGY PREDICTED BY IDOCK:   -0.04 KCAL/MOL
REMARK 927      BINDING AFFINITY PREDICTED BY RF-SCORE:    0.00 PKD
ROOT
HETATM    1  O   UNL     1     -11.490  14.557  66.727  1.00  0.00    -0.345 OA 
HETATM    2  S   UNL     1     -12.077  13.415  65.748  1.00  0.00    -0.458 S  
HETATM    3  O   UNL     1     -13.269  13.955  65.137  1.00  0.00    -0.768 OA 
HETATM    4  O   UNL     1     -12.090  12.186  66.507  1.00  0.00    -0.627 OA 
HETATM    5  C   UNL     1     -10.745  13.389  64.562  1.00  0.00    -0.419 C  
ENDROOT
BRANCH   5   6
HETATM    6  C   UNL     1     -11.057  12.378  63.477  1.00  0.00    -0.458 C  
HETATM    7  S   UNL     1      -9.902  10.974  63.559  1.00  0.00    -0.393 SA 
HETATM    8  H   UNL     1     -10.188  10.046  62.563  1.00  0.00     0.000 H  
ENDBRANCH   5   6
TORSDOF 1
ENDMDL
MODEL        9
REMARK 921   NORMALIZED FREE ENERGY PREDICTED BY IDOCK:   -3.26 KCAL/MOL
REMARK 922        TOTAL FREE ENERGY PREDICTED BY IDOCK:   -3.50 KCAL/MOL
REMARK 923 INTER-LIGAND FREE ENERGY PREDICTED BY IDOCK:   -3.48 KCAL/MOL
REMARK 924 INTRA-LIGAND FREE ENERGY PREDICTED BY IDOCK:   -0.01 KCAL/MOL
REMARK 927      BINDING AFFINITY PREDICTED BY RF-SCORE:    0.00 PKD
ROOT
HETATM    1  O   UNL     1     -11.162  12.578  63.302  1.00  0.00    -0.452 OA 
HETATM    2  S   UNL     1     -12.229  13.243  64.315  1.00  0.00    -0.377 S  
HETATM    3  O   UNL     1     -13.320  12.308  64.451  1.00  0.00    -0.786 OA 
HETATM    4  O   UNL     1     -12.430  14.602  63.870  1.00  0.00    -0.813 OA 
HETATM    5  C   UNL     1     -11.225  13.223  65.789  1.00  0.00    -0.294 C  
ENDROOT
BRANCH   5   6
HETATM    6  C   UNL     1     -12.018  13.795  66.946  1.00  0.00    -0.421 C  
HETATM    7  S   UNL     1     -11.661  12.884  68.480  1.00  0.00    -0.340 SA 
HETATM    8  H   UNL     1     -12.389  13.409  69.542  1.00  0.00     0.000 H  
ENDBRANCH   5   6
TORSDOF 1
ENDMDL
MODEL       10
REMARK 921   NORMALIZED FREE ENERGY PREDICTED BY IDOCK:   -3.18 KCAL/MOL
REMARK 922        TOTAL FREE ENERGY PREDICTED BY IDOCK:   -3.40 KCAL/MOL
REMARK 923 INTER-LIGAND FREE ENERGY PREDICTED BY IDOCK:   -3.39 KCAL/MOL
REMARK 924 INTRA-LIGAND FREE ENERGY PREDICTED BY IDOCK:   -0.01 KCAL/MOL
REMARK 927      BINDING AFFINITY PREDICTED BY RF-SCORE:    0.00 PKD
ROOT
HETATM    1  O   UNL     1     -12.596  14.590  63.777  1.00  0.00    -0.825 OA 
HETATM    2  S   UNL     1     -12.398  13.427  64.879  1.00  0.00    -0.406 S  
HETATM    3  O   UNL     1     -13.161  12.288  64.430  1.00  0.00    -0.806 OA 
HETATM    4  O   UNL     1     -12.614  14.039  66.169  1.00  0.00    -0.468 OA 
HETATM    5  C   UNL     1     -10.657  13.131  64.625  1.00  0.00    -0.392 C  
ENDROOT
BRANCH   5   6
HETATM    6  C   UNL     1     -10.194  12.027  65.553  1.00  0.00    -0.258 C  
HETATM    7  S   UNL     1      -9.473  12.727  67.070  1.00  0.00    -0.239 SA 
HETATM    8  H   UNL     1      -9.047  11.714  67.922  1.00  0.00     0.000 H  
ENDBRANCH   5   6
TORSDOF 1
ENDMDL
MODEL       11
REMARK 921   NORMALIZED FREE ENERGY PREDICTED BY IDOCK:   -3.17 KCAL/MOL
REMARK 922        TOTAL FREE ENERGY PREDICTED BY IDOCK:   -3.40 KCAL/MOL
REMARK 923 INTER-LIGAND FREE ENERGY PREDICTED BY IDOCK:   -3.39 KCAL/MOL
REMARK 924 INTRA-LIGAND FREE ENERGY PREDICTED BY IDOCK:   -0.01 KCAL/MOL
REMARK 927      BINDING AFFINITY PREDICTED BY RF-SCORE:    0.00 PKD
ROOT
HETATM    1  O   UNL     1      -9.077  16.560  65.470  1.00  0.00    -0.404 OA 
HETATM    2  S   UNL     1     -10.654  16.215  65.444  1.00  0.00    -0.324 S  
HETATM    3  O   UNL     1     -11.255  17.067  64.446  1.00  0.00    -1.167 OA 
HETATM    4  O   UNL     1     -11.098  16.207  66.818  1.00  0.00    -0.155 OA 
HETATM    5  C   UNL     1     -10.538  14.545  64.828  1.00  0.00    -0.377 C  
ENDROOT
BRANCH   5   6
HETATM    6  C   UNL     1     -11.930  13.965  64.682  1.00  0.00    -0.419 C  
HETATM    7  S   UNL     1     -11.928  12.588  63.492  1.00  0.00    -0.546 SA 
HETATM    8  H   UNL     1     -13.206  12.055  63.359  1.00  0.00     0.000 H  
ENDBRANCH   5   6
TORSDOF 1
ENDMDL
MODEL       12
REMARK 921   NORMALIZED FREE ENERGY PREDICTED BY IDOCK:   -3.13 KCAL/MOL
REMARK 922        TOTAL FREE ENERGY PREDICTED BY IDOCK:   -3.35 KCAL/MOL
REMARK 923 INTER-LIGAND FREE ENERGY PREDICTED BY IDOCK:   -3.31 KCAL/MOL
REMARK 924 INTRA-LIGAND FREE ENERGY PREDICTED BY IDOCK:   -0.04 KCAL/MOL
REMARK 927      BINDING AFFINITY PREDICTED BY RF-SCORE:    0.00 PKD
ROOT
HETATM    1  O   UNL     1     -12.570  14.594  63.712  1.00  0.00    -0.820 OA 
HETATM    2  S   UNL     1     -11.302  14.644  64.710  1.00  0.00    -0.383 S  
HETATM    3  O   UNL     1     -10.842  16.012  64.739  1.00  0.00    -0.587 OA 
HETATM    4  O   UNL     1     -10.438  13.549  64.337  1.00  0.00    -0.430 OA 
HETATM    5  C   UNL     1     -12.158  14.259  66.227  1.00  0.00    -0.413 C  
ENDROOT
BRANCH   5   6
HETATM    6  C   UNL     1     -11.171  14.260  67.376  1.00  0.00    -0.316 C  
HETATM    7  S   UNL     1     -11.389  15.744  68.406  1.00  0.00    -0.361 SA 
HETATM    8  H   UNL     1     -10.483  15.745  69.461  1.00  0.00     0.000 H  
ENDBRANCH   5   6
TORSDOF 1
ENDMDL
MODEL       13
REMARK 921   NORMALIZED FREE ENERGY PREDICTED BY IDOCK:   -3.09 KCAL/MOL
REMARK 922        TOTAL FREE ENERGY PREDICTED BY IDOCK:   -3.31 KCAL/MOL
REMARK 923 INTER-LIGAND FREE ENERGY PREDICTED BY IDOCK:   -3.30 KCAL/MOL
REMARK 924 INTRA-LIGAND FREE ENERGY PREDICTED BY IDOCK:   -0.01 KCAL/MOL
REMARK 927      BINDING AFFINITY PREDICTED BY RF-SCORE:    0.00 PKD
ROOT
HETATM    1  O   UNL     1     -12.044  12.041  67.029  1.00  0.00    -0.603 OA 
HETATM    2  S   UNL     1     -11.857  12.734  65.582  1.00  0.00    -0.445 S  
HETATM    3  O   UNL     1     -11.215  14.007  65.805  1.00  0.00    -0.298 OA 
HETATM    4  O   UNL     1     -13.126  12.619  64.902  1.00  0.00    -0.850 OA 
HETATM    5  C   UNL     1     -10.687  11.575  64.896  1.00  0.00    -0.297 C  
ENDROOT
BRANCH   5   6
HETATM    6  C   UNL     1     -10.309  12.012  63.496  1.00  0.00    -0.461 C  
HETATM    7  S   UNL     1      -9.215  10.786  62.715  1.00  0.00    -0.348 SA 
HETATM    8  H   UNL     1      -8.868  11.186  61.430  1.00  0.00     0.000 H  
ENDBRANCH   5   6
TORSDOF 1
ENDMDL
MODEL       14
REMARK 921   NORMALIZED FREE ENERGY PREDICTED BY IDOCK:   -3.08 KCAL/MOL
REMARK 922        TOTAL FREE ENERGY PREDICTED BY IDOCK:   -3.30 KCAL/MOL
REMARK 923 INTER-LIGAND FREE ENERGY PREDICTED BY IDOCK:   -3.26 KCAL/MOL
REMARK 924 INTRA-LIGAND FREE ENERGY PREDICTED BY IDOCK:   -0.04 KCAL/MOL
REMARK 927      BINDING AFFINITY PREDICTED BY RF-SCORE:    0.00 PKD
ROOT
HETATM    1  O   UNL     1     -10.963  15.918  66.749  1.00  0.00    -0.271 OA 
HETATM    2  S   UNL     1     -10.266  17.072  65.861  1.00  0.00    -0.237 S  
HETATM    3  O   UNL     1     -11.093  17.262  64.693  1.00  0.00    -1.052 OA 
HETATM    4  O   UNL     1      -8.866  16.731  65.765  1.00  0.00    -0.505 OA 
HETATM    5  C   UNL     1     -10.490  18.433  66.992  1.00  0.00    -0.399 C  
ENDROOT
BRANCH   5   6
HETATM    6  C   UNL     1      -9.922  19.696  66.378  1.00  0.00    -0.455 C  
HETATM    7  S   UNL     1      -8.357  20.153  67.186  1.00  0.00    -0.338 SA 
HETATM    8  H   UNL     1      -7.835  21.313  66.622  1.00  0.00     0.000 H  
ENDBRANCH   5   6
TORSDOF 1
ENDMDL
MODEL       15
REMARK 921   NORMALIZED FREE ENERGY PREDICTED BY IDOCK:   -3.07 KCAL/MOL
REMARK 922        TOTAL FREE ENERGY PREDICTED BY IDOCK:   -3.29 KCAL/MOL
REMARK 923 INTER-LIGAND FREE ENERGY PREDICTED BY IDOCK:   -3.25 KCAL/MOL
REMARK 924 INTRA-LIGAND FREE ENERGY PREDICTED BY IDOCK:   -0.04 KCAL/MOL
REMARK 927      BINDING AFFINITY PREDICTED BY RF-SCORE:    0.00 PKD
ROOT
HETATM    1  O   UNL     1     -12.726  14.342  64.766  1.00  0.00    -0.646 OA 
HETATM    2  S   UNL     1     -11.295  15.081  64.879  1.00  0.00    -0.396 S  
HETATM    3  O   UNL     1     -11.420  16.347  64.197  1.00  0.00    -0.951 OA 
HETATM    4  O   UNL     1     -10.296  14.104  64.513  1.00  0.00    -0.390 OA 
HETATM    5  C   UNL     1     -11.282  15.339  66.644  1.00  0.00    -0.232 C  
ENDROOT
BRANCH   5   6
HETATM    6  C   UNL     1     -10.010  16.062  67.037  1.00  0.00    -0.257 C  
HETATM    7  S   UNL     1     -10.371  17.780  67.514  1.00  0.00    -0.376 SA 
HETATM    8  H   UNL     1      -9.203  18.444  67.875  1.00  0.00     0.000 H  
ENDBRANCH   5   6
TORSDOF 1
ENDMDL
MODEL       16
REMARK 921   NORMALIZED FREE ENERGY PREDICTED BY IDOCK:   -3.05 KCAL/MOL
REMARK 922        TOTAL FREE ENERGY PREDICTED BY IDOCK:   -3.27 KCAL/MOL
REMARK 923 INTER-LIGAND FREE ENERGY PREDICTED BY IDOCK:   -3.26 KCAL/MOL
REMARK 924 INTRA-LIGAND FREE ENERGY PREDICTED BY IDOCK:   -0.01 KCAL/MOL
REMARK 927      BINDING AFFINITY PREDICTED BY RF-SCORE:    0.00 PKD
ROOT
HETATM    1  O   UNL     1     -12.581  13.593  63.140  1.00  0.00    -0.792 OA 
HETATM    2  S   UNL     1     -11.652  13.233  64.410  1.00  0.00    -0.403 S  
HETATM    3  O   UNL     1     -10.449  12.625  63.892  1.00  0.00    -0.410 OA 
HETATM    4  O   UNL     1     -12.501  12.565  65.368  1.00  0.00    -0.630 OA 
HETATM    5  C   UNL     1     -11.306  14.897  64.952  1.00  0.00    -0.413 C  
ENDROOT
BRANCH   5   6
HETATM    6  C   UNL     1     -10.401  14.853  66.165  1.00  0.00    -0.301 C  
HETATM    7  S   UNL     1      -9.515  16.430  66.361  1.00  0.00    -0.315 SA 
HETATM    8  H   UNL     1      -8.684  16.391  67.475  1.00  0.00     0.000 H  
ENDBRANCH   5   6
TORSDOF 1
ENDMDL
MODEL       17
REMARK 921   NORMALIZED FREE ENERGY PREDICTED BY IDOCK:   -3.04 KCAL/MOL
REMARK 922        TOTAL FREE ENERGY PREDICTED BY IDOCK:   -3.26 KCAL/MOL
REMARK 923 INTER-LIGAND FREE ENERGY PREDICTED BY IDOCK:   -3.35 KCAL/MOL
REMARK 924 INTRA-LIGAND FREE ENERGY PREDICTED BY IDOCK:    0.08 KCAL/MOL
REMARK 927      BINDING AFFINITY PREDICTED BY RF-SCORE:    0.00 PKD
ROOT
HETATM    1  O   UNL     1     -12.620  14.087  63.264  1.00  0.00    -0.801 OA 
HETATM    2  S   UNL     1     -12.218  12.700  63.987  1.00  0.00    -0.478 S  
HETATM    3  O   UNL     1     -10.983  12.255  63.387  1.00  0.00    -0.441 OA 
HETATM    4  O   UNL     1     -13.407  11.881  63.999  1.00  0.00    -0.646 OA 
HETATM    5  C   UNL     1     -11.903  13.347  65.619  1.00  0.00    -0.370 C  
ENDROOT
BRANCH   5   6
HETATM    6  C   UNL     1     -11.472  12.218  66.532  1.00  0.00    -0.381 C  
HETATM    7  S   UNL     1      -9.671  11.973  66.441  1.00  0.00    -0.229 SA 
HETATM    8  H   UNL     1      -9.275  10.937  67.280  1.00  0.00     0.000 H  
ENDBRANCH   5   6
TORSDOF 1
ENDMDL
MODEL       18
REMARK 921   NORMALIZED FREE ENERGY PREDICTED BY IDOCK:   -3.00 KCAL/MOL
REMARK 922        TOTAL FREE ENERGY PREDICTED BY IDOCK:   -3.22 KCAL/MOL
REMARK 923 INTER-LIGAND FREE ENERGY PREDICTED BY IDOCK:   -3.18 KCAL/MOL
REMARK 924 INTRA-LIGAND FREE ENERGY PREDICTED BY IDOCK:   -0.04 KCAL/MOL
REMARK 927      BINDING AFFINITY PREDICTED BY RF-SCORE:    0.00 PKD
ROOT
HETATM    1  O   UNL     1     -10.624  17.639  66.973  1.00  0.00    -0.328 OA 
HETATM    2  S   UNL     1     -10.231  16.710  65.713  1.00  0.00    -0.260 S  
HETATM    3  O   UNL     1      -8.789  16.675  65.650  1.00  0.00    -0.448 OA 
HETATM    4  O   UNL     1     -11.040  17.156  64.602  1.00  0.00    -1.036 OA 
HETATM    5  C   UNL     1     -10.850  15.159  66.338  1.00  0.00    -0.326 C  
ENDROOT
BRANCH   5   6
HETATM    6  C   UNL     1     -10.583  14.065  65.324  1.00  0.00    -0.363 C  
HETATM    7  S   UNL     1     -12.131  13.543  64.523  1.00  0.00    -0.418 SA 
HETATM    8  H   UNL     1     -11.886  12.539  63.592  1.00  0.00     0.000 H  
ENDBRANCH   5   6
TORSDOF 1
ENDMDL
MODEL       19
REMARK 921   NORMALIZED FREE ENERGY PREDICTED BY IDOCK:   -2.90 KCAL/MOL
REMARK 922        TOTAL FREE ENERGY PREDICTED BY IDOCK:   -3.11 KCAL/MOL
REMARK 923 INTER-LIGAND FREE ENERGY PREDICTED BY IDOCK:   -3.07 KCAL/MOL
REMARK 924 INTRA-LIGAND FREE ENERGY PREDICTED BY IDOCK:   -0.04 KCAL/MOL
REMARK 927      BINDING AFFINITY PREDICTED BY RF-SCORE:    0.00 PKD
ROOT
HETATM    1  O   UNL     1     -11.184  16.905  64.525  1.00  0.00    -1.057 OA 
HETATM    2  S   UNL     1     -10.411  15.963  65.584  1.00  0.00    -0.401 S  
HETATM    3  O   UNL     1     -11.112  16.078  66.841  1.00  0.00    -0.200 OA 
HETATM    4  O   UNL     1      -9.004  16.265  65.457  1.00  0.00    -0.336 OA 
HETATM    5  C   UNL     1     -10.770  14.387  64.831  1.00  0.00    -0.426 C  
ENDROOT
BRANCH   5   6
HETATM    6  C   UNL     1     -10.156  13.280  65.663  1.00  0.00    -0.272 C  
HETATM    7  S   UNL     1     -11.450  12.329  66.519  1.00  0.00    -0.379 SA 
HETATM    8  H   UNL     1     -10.887  11.313  67.283  1.00  0.00     0.000 H  
ENDBRANCH   5   6
TORSDOF 1
ENDMDL
MODEL       20
REMARK 921   NORMALIZED FREE ENERGY PREDICTED BY IDOCK:   -2.87 KCAL/MOL
REMARK 922        TOTAL FREE ENERGY PREDICTED BY IDOCK:   -3.08 KCAL/MOL
REMARK 923 INTER-LIGAND FREE ENERGY PREDICTED BY IDOCK:   -3.05 KCAL/MOL
REMARK 924 INTRA-LIGAND FREE ENERGY PREDICTED BY IDOCK:   -0.03 KCAL/MOL
REMARK 927      BINDING AFFINITY PREDICTED BY RF-SCORE:    0.00 PKD
ROOT
HETATM    1  O   UNL     1     -11.135  17.077  64.530  1.00  0.00    -1.098 OA 
HETATM    2  S   UNL     1     -10.365  16.579  65.860  1.00  0.00    -0.314 S  
HETATM    3  O   UNL     1      -8.968  16.459  65.517  1.00  0.00    -0.352 OA 
HETATM    4  O   UNL     1     -11.126  15.471  66.387  1.00  0.00    -0.283 OA 
HETATM    5  C   UNL     1     -10.623  18.032  66.861  1.00  0.00    -0.280 C  
ENDROOT
BRANCH   5   6
HETATM    6  C   UNL     1      -9.960  17.837  68.210  1.00  0.00    -0.355 C  
HETATM    7  S   UNL     1      -8.722  19.137  68.508  1.00  0.00    -0.366 SA 
HETATM    8  H   UNL     1      -8.114  18.958  69.746  1.00  0.00     0.000 H  
ENDBRANCH   5   6
TORSDOF 1
ENDMDL
MODEL       21
REMARK 921   NORMALIZED FREE ENERGY PREDICTED BY IDOCK:   -2.81 KCAL/MOL
REMARK 922        TOTAL FREE ENERGY PREDICTED BY IDOCK:   -3.02 KCAL/MOL
REMARK 923 INTER-LIGAND FREE ENERGY PREDICTED BY IDOCK:   -2.98 KCAL/MOL
REMARK 924 INTRA-LIGAND FREE ENERGY PREDICTED BY IDOCK:   -0.04 KCAL/MOL
REMARK 927      BINDING AFFINITY PREDICTED BY RF-SCORE:    0.00 PKD
ROOT
HETATM    1  O   UNL     1     -13.029  12.697  63.878  1.00  0.00    -0.706 OA 
HETATM    2  S   UNL     1     -11.745  12.679  64.856  1.00  0.00    -0.373 S  
HETATM    3  O   UNL     1     -12.208  12.244  66.152  1.00  0.00    -0.647 OA 
HETATM    4  O   UNL     1     -11.063  13.938  64.665  1.00  0.00    -0.362 OA 
HETATM    5  C   UNL     1     -10.839  11.364  64.062  1.00  0.00    -0.383 C  
ENDROOT
BRANCH   5   6
HETATM    6  C   UNL     1      -9.549  11.115  64.816  1.00  0.00    -0.240 C  
HETATM    7  S   UNL     1      -9.605   9.509  65.668  1.00  0.00    -0.270 SA 
HETATM    8  H   UNL     1      -8.421   9.279  66.360  1.00  0.00     0.000 H  
ENDBRANCH   5   6
TORSDOF 1
ENDMDL
MODEL       22
REMARK 921   NORMALIZED FREE ENERGY PREDICTED BY IDOCK:   -2.81 KCAL/MOL
REMARK 922        TOTAL FREE ENERGY PREDICTED BY IDOCK:   -3.02 KCAL/MOL
REMARK 923 INTER-LIGAND FREE ENERGY PREDICTED BY IDOCK:   -2.98 KCAL/MOL
REMARK 924 INTRA-LIGAND FREE ENERGY PREDICTED BY IDOCK:   -0.04 KCAL/MOL
REMARK 927      BINDING AFFINITY PREDICTED BY RF-SCORE:    0.00 PKD
ROOT
HETATM    1  O   UNL     1     -10.615  19.895  66.114  1.00  0.00    -0.467 OA 
HETATM    2  S   UNL     1     -10.163  18.353  65.955  1.00  0.00    -0.257 S  
HETATM    3  O   UNL     1      -8.724  18.346  65.840  1.00  0.00    -0.497 OA 
HETATM    4  O   UNL     1     -11.019  17.773  64.947  1.00  0.00    -0.866 OA 
HETATM    5  C   UNL     1     -10.645  17.779  67.574  1.00  0.00    -0.359 C  
ENDROOT
BRANCH   5   6
HETATM    6  C   UNL     1     -10.303  16.310  67.709  1.00  0.00    -0.287 C  
HETATM    7  S   UNL     1      -8.893  16.082  68.837  1.00  0.00    -0.245 SA 
HETATM    8  H   UNL     1      -8.579  14.733  68.962  1.00  0.00     0.000 H  
ENDBRANCH   5   6
TORSDOF 1
ENDMDL
MODEL       23
REMARK 921   NORMALIZED FREE ENERGY PREDICTED BY IDOCK:   -2.78 KCAL/MOL
REMARK 922        TOTAL FREE ENERGY PREDICTED BY IDOCK:   -2.99 KCAL/MOL
REMARK 923 INTER-LIGAND FREE ENERGY PREDICTED BY IDOCK:   -2.95 KCAL/MOL
REMARK 924 INTRA-LIGAND FREE ENERGY PREDICTED BY IDOCK:   -0.03 KCAL/MOL
REMARK 927      BINDING AFFINITY PREDICTED BY RF-SCORE:    0.00 PKD
ROOT
HETATM    1  O   UNL     1      -8.852  18.817  65.925  1.00  0.00    -0.465 OA 
HETATM    2  S   UNL     1     -10.296  18.167  66.241  1.00  0.00    -0.353 S  
HETATM    3  O   UNL     1     -10.928  17.907  64.970  1.00  0.00    -0.776 OA 
HETATM    4  O   UNL     1     -10.910  18.996  67.251  1.00  0.00    -0.472 OA 
HETATM    5  C   UNL     1      -9.732  16.636  66.963  1.00  0.00    -0.249 C  
ENDROOT
BRANCH   5   6
HETATM    6  C   UNL     1     -10.929  15.791  67.347  1.00  0.00    -0.279 C  
HETATM    7  S   UNL     1     -11.261  15.925  69.131  1.00  0.00    -0.357 SA 
HETATM    8  H   UNL     1     -12.359  15.148  69.485  1.00  0.00     0.000 H  
ENDBRANCH   5   6
TORSDOF 1
ENDMDL
MODEL       24
REMARK 921   NORMALIZED FREE ENERGY PREDICTED BY IDOCK:   -2.77 KCAL/MOL
REMARK 922        TOTAL FREE ENERGY PREDICTED BY IDOCK:   -2.97 KCAL/MOL
REMARK 923 INTER-LIGAND FREE ENERGY PREDICTED BY IDOCK:   -2.95 KCAL/MOL
REMARK 924 INTRA-LIGAND FREE ENERGY PREDICTED BY IDOCK:   -0.02 KCAL/MOL
REMARK 927      BINDING AFFINITY PREDICTED BY RF-SCORE:    0.00 PKD
ROOT
HETATM    1  O   UNL     1     -10.322  17.499  65.368  1.00  0.00    -0.629 OA 
HETATM    2  S   UNL     1     -10.274  18.776  66.356  1.00  0.00    -0.438 S  
HETATM    3  O   UNL     1     -10.871  18.366  67.604  1.00  0.00    -0.406 OA 
HETATM    4  O   UNL     1     -10.767  19.903  65.599  1.00  0.00    -0.478 OA 
HETATM    5  C   UNL     1      -8.503  18.888  66.538  1.00  0.00    -0.304 C  
ENDROOT
BRANCH   5   6
HETATM    6  C   UNL     1      -8.164  20.036  67.467  1.00  0.00    -0.329 C  
HETATM    7  S   UNL     1      -7.111  19.463  68.835  1.00  0.00    -0.366 SA 
HETATM    8  H   UNL     1      -6.800  20.516  69.689  1.00  0.00     0.000 H  
ENDBRANCH   5   6
TORSDOF 1
ENDMDL
MODEL       25
REMARK 921   NORMALIZED FREE ENERGY PREDICTED BY IDOCK:   -2.76 KCAL/MOL
REMARK 922        TOTAL FREE ENERGY PREDICTED BY IDOCK:   -2.96 KCAL/MOL
REMARK 923 INTER-LIGAND FREE ENERGY PREDICTED BY IDOCK:   -2.95 KCAL/MOL
REMARK 924 INTRA-LIGAND FREE ENERGY PREDICTED BY IDOCK:   -0.01 KCAL/MOL
REMARK 927      BINDING AFFINITY PREDICTED BY RF-SCORE:    0.00 PKD
ROOT
HETATM    1  O   UNL     1     -10.930  17.172  64.797  1.00  0.00    -0.898 OA 
HETATM    2  S   UNL     1     -10.229  17.810  66.104  1.00  0.00    -0.283 S  
HETATM    3  O   UNL     1     -10.869  19.081  66.348  1.00  0.00    -0.345 OA 
HETATM    4  O   UNL     1      -8.803  17.692  65.909  1.00  0.00    -0.521 OA 
HETATM    5  C   UNL     1     -10.785  16.610  67.301  1.00  0.00    -0.227 C  
ENDROOT
BRANCH   5   6
HETATM    6  C   UNL     1     -10.269  16.991  68.673  1.00  0.00    -0.321 C  
HETATM    7  S   UNL     1     -10.906  15.848  69.937  1.00  0.00    -0.357 SA 
HETATM    8  H   UNL     1     -10.432  16.197  71.197  1.00  0.00     0.000 H  
ENDBRANCH   5   6
TORSDOF 1
ENDMDL
MODEL       26
REMARK 921   NORMALIZED FREE ENERGY PREDICTED BY IDOCK:   -2.70 KCAL/MOL
REMARK 922        TOTAL FREE ENERGY PREDICTED BY IDOCK:   -2.90 KCAL/MOL
REMARK 923 INTER-LIGAND FREE ENERGY PREDICTED BY IDOCK:   -2.96 KCAL/MOL
REMARK 924 INTRA-LIGAND FREE ENERGY PREDICTED BY IDOCK:    0.06 KCAL/MOL
REMARK 927      BINDING AFFINITY PREDICTED BY RF-SCORE:    0.00 PKD
ROOT
HETATM    1  O   UNL     1     -12.158  15.681  68.983  1.00  0.00    -0.337 OA 
HETATM    2  S   UNL     1     -11.897  14.829  70.329  1.00  0.00    -0.323 S  
HETATM    3  O   UNL     1     -10.695  15.352  70.932  1.00  0.00    -0.301 OA 
HETATM    4  O   UNL     1     -12.036  13.437  69.971  1.00  0.00    -0.326 OA 
HETATM    5  C   UNL     1     -13.325  15.370  71.252  1.00  0.00    -0.520 C  
ENDROOT
BRANCH   5   6
HETATM    6  C   UNL     1     -13.319  14.714  72.618  1.00  0.00    -0.482 C  
HETATM    7  S   UNL     1     -12.412  15.740  73.816  1.00  0.00    -0.666 SA 
HETATM    8  H   UNL     1     -12.407  15.138  75.070  1.00  0.00     0.000 H  
ENDBRANCH   5   6
TORSDOF 1
ENDMDL
MODEL       27
REMARK 921   NORMALIZED FREE ENERGY PREDICTED BY IDOCK:   -2.69 KCAL/MOL
REMARK 922        TOTAL FREE ENERGY PREDICTED BY IDOCK:   -2.89 KCAL/MOL
REMARK 923 INTER-LIGAND FREE ENERGY PREDICTED BY IDOCK:   -2.86 KCAL/MOL
REMARK 924 INTRA-LIGAND FREE ENERGY PREDICTED BY IDOCK:   -0.03 KCAL/MOL
REMARK 927      BINDING AFFINITY PREDICTED BY RF-SCORE:    0.00 PKD
ROOT
HETATM    1  O   UNL     1     -10.290  14.408  64.607  1.00  0.00    -0.397 OA 
HETATM    2  S   UNL     1     -11.029  15.682  65.268  1.00  0.00    -0.338 S  
HETATM    3  O   UNL     1     -11.940  15.170  66.263  1.00  0.00    -0.037 OA 
HETATM    4  O   UNL     1     -11.471  16.516  64.175  1.00  0.00    -1.059 OA 
HETATM    5  C   UNL     1      -9.610  16.414  66.063  1.00  0.00    -0.319 C  
ENDROOT
BRANCH   5   6
HETATM    6  C   UNL     1     -10.038  17.664  66.804  1.00  0.00    -0.334 C  
HETATM    7  S   UNL     1     -10.235  17.320  68.580  1.00  0.00    -0.379 SA 
HETATM    8  H   UNL     1     -10.628  18.468  69.260  1.00  0.00     0.000 H  
ENDBRANCH   5   6
TORSDOF 1
ENDMDL
MODEL       28
REMARK 921   NORMALIZED FREE ENERGY PREDICTED BY IDOCK:   -2.69 KCAL/MOL
REMARK 922        TOTAL FREE ENERGY PREDICTED BY IDOCK:   -2.89 KCAL/MOL
REMARK 923 INTER-LIGAND FREE ENERGY PREDICTED BY IDOCK:   -2.94 KCAL/MOL
REMARK 924 INTRA-LIGAND FREE ENERGY PREDICTED BY IDOCK:    0.05 KCAL/MOL
REMARK 927      BINDING AFFINITY PREDICTED BY RF-SCORE:    0.00 PKD
ROOT
HETATM    1  O   UNL     1     -11.405  15.332  66.844  1.00  0.00    -0.307 OA 
HETATM    2  S   UNL     1     -10.939  14.939  65.350  1.00  0.00    -0.387 S  
HETATM    3  O   UNL     1      -9.691  14.223  65.472  1.00  0.00    -0.266 OA 
HETATM    4  O   UNL     1     -11.065  16.134  64.549  1.00  0.00    -0.634 OA 
HETATM    5  C   UNL     1     -12.257  13.800  64.964  1.00  0.00    -0.424 C  
ENDROOT
BRANCH   5   6
HETATM    6  C   UNL     1     -12.049  13.243  63.571  1.00  0.00    -0.482 C  
HETATM    7  S   UNL     1     -11.053  11.721  63.632  1.00  0.00    -0.435 SA 
HETATM    8  H   UNL     1     -10.862  11.209  62.353  1.00  0.00     0.000 H  
ENDBRANCH   5   6
TORSDOF 1
ENDMDL
MODEL       29
REMARK 921   NORMALIZED FREE ENERGY PREDICTED BY IDOCK:   -2.66 KCAL/MOL
REMARK 922        TOTAL FREE ENERGY PREDICTED BY IDOCK:   -2.86 KCAL/MOL
REMARK 923 INTER-LIGAND FREE ENERGY PREDICTED BY IDOCK:   -2.85 KCAL/MOL
REMARK 924 INTRA-LIGAND FREE ENERGY PREDICTED BY IDOCK:   -0.01 KCAL/MOL
REMARK 927      BINDING AFFINITY PREDICTED BY RF-SCORE:    0.00 PKD
ROOT
HETATM    1  O   UNL     1     -12.237  13.674  68.806  1.00  0.00    -0.339 OA 
HETATM    2  S   UNL     1     -11.546  12.513  67.922  1.00  0.00    -0.359 S  
HETATM    3  O   UNL     1     -12.259  11.290  68.201  1.00  0.00    -0.622 OA 
HETATM    4  O   UNL     1     -10.120  12.636  68.120  1.00  0.00    -0.218 OA 
HETATM    5  C   UNL     1     -11.994  13.123  66.307  1.00  0.00    -0.415 C  
ENDROOT
BRANCH   5   6
HETATM    6  C   UNL     1     -11.469  12.177  65.247  1.00  0.00    -0.336 C  
HETATM    7  S   UNL     1     -12.155  12.597  63.615  1.00  0.00    -0.565 SA 
HETATM    8  H   UNL     1     -11.673  11.728  62.643  1.00  0.00     0.000 H  
ENDBRANCH   5   6
TORSDOF 1
ENDMDL
MODEL       30
REMARK 921   NORMALIZED FREE ENERGY PREDICTED BY IDOCK:   -2.59 KCAL/MOL
REMARK 922        TOTAL FREE ENERGY PREDICTED BY IDOCK:   -2.79 KCAL/MOL
REMARK 923 INTER-LIGAND FREE ENERGY PREDICTED BY IDOCK:   -2.75 KCAL/MOL
REMARK 924 INTRA-LIGAND FREE ENERGY PREDICTED BY IDOCK:   -0.04 KCAL/MOL
REMARK 927      BINDING AFFINITY PREDICTED BY RF-SCORE:    0.00 PKD
ROOT
HETATM    1  O   UNL     1     -11.962  13.975  68.335  1.00  0.00    -0.349 OA 
HETATM    2  S   UNL     1     -11.193  14.342  66.964  1.00  0.00    -0.336 S  
HETATM    3  O   UNL     1     -10.138  13.371  66.800  1.00  0.00    -0.250 OA 
HETATM    4  O   UNL     1     -10.934  15.762  67.002  1.00  0.00    -0.304 OA 
HETATM    5  C   UNL     1     -12.523  13.992  65.827  1.00  0.00    -0.494 C  
ENDROOT
BRANCH   5   6
HETATM    6  C   UNL     1     -12.051  14.242  64.409  1.00  0.00    -0.468 C  
HETATM    7  S   UNL     1     -11.964  12.681  63.479  1.00  0.00    -0.549 SA 
HETATM    8  H   UNL     1     -11.532  12.910  62.177  1.00  0.00     0.000 H  
ENDBRANCH   5   6
TORSDOF 1
ENDMDL
MODEL       31
REMARK 921   NORMALIZED FREE ENERGY PREDICTED BY IDOCK:   -2.58 KCAL/MOL
REMARK 922        TOTAL FREE ENERGY PREDICTED BY IDOCK:   -2.78 KCAL/MOL
REMARK 923 INTER-LIGAND FREE ENERGY PREDICTED BY IDOCK:   -2.76 KCAL/MOL
REMARK 924 INTRA-LIGAND FREE ENERGY PREDICTED BY IDOCK:   -0.02 KCAL/MOL
REMARK 927      BINDING AFFINITY PREDICTED BY RF-SCORE:    0.00 PKD
ROOT
HETATM    1  O   UNL     1     -10.254  11.447  66.069  1.00  0.00    -0.228 OA 
HETATM    2  S   UNL     1     -11.576  12.195  66.615  1.00  0.00    -0.309 S  
HETATM    3  O   UNL     1     -12.073  11.416  67.724  1.00  0.00    -0.637 OA 
HETATM    4  O   UNL     1     -12.389  12.495  65.460  1.00  0.00    -0.600 OA 
HETATM    5  C   UNL     1     -10.795  13.681  67.218  1.00  0.00    -0.284 C  
ENDROOT
BRANCH   5   6
HETATM    6  C   UNL     1     -11.844  14.589  67.826  1.00  0.00    -0.357 C  
HETATM    7  S   UNL     1     -11.881  14.404  69.636  1.00  0.00    -0.340 SA 
HETATM    8  H   UNL     1     -12.844  15.238  70.194  1.00  0.00     0.000 H  
ENDBRANCH   5   6
TORSDOF 1
ENDMDL
MODEL       32
REMARK 921   NORMALIZED FREE ENERGY PREDICTED BY IDOCK:   -2.51 KCAL/MOL
REMARK 922        TOTAL FREE ENERGY PREDICTED BY IDOCK:   -2.69 KCAL/MOL
REMARK 923 INTER-LIGAND FREE ENERGY PREDICTED BY IDOCK:   -2.68 KCAL/MOL
REMARK 924 INTRA-LIGAND FREE ENERGY PREDICTED BY IDOCK:   -0.01 KCAL/MOL
REMARK 927      BINDING AFFINITY PREDICTED BY RF-SCORE:    0.00 PKD
ROOT
HETATM    1  O   UNL     1     -12.079  11.816  67.970  1.00  0.00    -0.572 OA 
HETATM    2  S   UNL     1     -11.544  13.337  67.884  1.00  0.00    -0.354 S  
HETATM    3  O   UNL     1     -12.218  13.958  66.768  1.00  0.00    -0.429 OA 
HETATM    4  O   UNL     1     -10.104  13.274  67.976  1.00  0.00    -0.222 OA 
HETATM    5  C   UNL     1     -12.231  13.934  69.417  1.00  0.00    -0.292 C  
ENDROOT
BRANCH   5   6
HETATM    6  C   UNL     1     -11.885  15.399  69.587  1.00  0.00    -0.347 C  
HETATM    7  S   UNL     1     -11.616  15.795  71.343  1.00  0.00    -0.469 SA 
HETATM    8  H   UNL     1     -11.298  17.139  71.499  1.00  0.00     0.000 H  
ENDBRANCH   5   6
TORSDOF 1
ENDMDL
MODEL       33
REMARK 921   NORMALIZED FREE ENERGY PREDICTED BY IDOCK:   -2.50 KCAL/MOL
REMARK 922        TOTAL FREE ENERGY PREDICTED BY IDOCK:   -2.69 KCAL/MOL
REMARK 923 INTER-LIGAND FREE ENERGY PREDICTED BY IDOCK:   -2.66 KCAL/MOL
REMARK 924 INTRA-LIGAND FREE ENERGY PREDICTED BY IDOCK:   -0.03 KCAL/MOL
REMARK 927      BINDING AFFINITY PREDICTED BY RF-SCORE:    0.00 PKD
ROOT
HETATM    1  O   UNL     1     -11.034  19.555  65.156  1.00  0.00    -0.410 OA 
HETATM    2  S   UNL     1     -10.333  18.611  66.262  1.00  0.00    -0.428 S  
HETATM    3  O   UNL     1     -10.261  17.284  65.699  1.00  0.00    -0.579 OA 
HETATM    4  O   UNL     1     -10.996  18.881  67.516  1.00  0.00    -0.422 OA 
HETATM    5  C   UNL     1      -8.716  19.364  66.250  1.00  0.00    -0.346 C  
ENDROOT
BRANCH   5   6
HETATM    6  C   UNL     1      -7.813  18.633  67.222  1.00  0.00    -0.232 C  
HETATM    7  S   UNL     1      -6.393  17.902  66.350  1.00  0.00    -0.238 SA 
HETATM    8  H   UNL     1      -5.563  17.231  67.242  1.00  0.00     0.000 H  
ENDBRANCH   5   6
TORSDOF 1
ENDMDL
MODEL       34
REMARK 921   NORMALIZED FREE ENERGY PREDICTED BY IDOCK:   -2.49 KCAL/MOL
REMARK 922        TOTAL FREE ENERGY PREDICTED BY IDOCK:   -2.68 KCAL/MOL
REMARK 923 INTER-LIGAND FREE ENERGY PREDICTED BY IDOCK:   -2.64 KCAL/MOL
REMARK 924 INTRA-LIGAND FREE ENERGY PREDICTED BY IDOCK:   -0.04 KCAL/MOL
REMARK 927      BINDING AFFINITY PREDICTED BY RF-SCORE:    0.00 PKD
ROOT
HETATM    1  O   UNL     1     -10.492  10.310  66.217  1.00  0.00    -0.215 OA 
HETATM    2  S   UNL     1     -11.020  11.699  66.847  1.00  0.00    -0.304 S  
HETATM    3  O   UNL     1      -9.854  12.470  67.205  1.00  0.00    -0.205 OA 
HETATM    4  O   UNL     1     -12.040  11.355  67.810  1.00  0.00    -0.637 OA 
HETATM    5  C   UNL     1     -11.769  12.376  65.377  1.00  0.00    -0.402 C  
ENDROOT
BRANCH   5   6
HETATM    6  C   UNL     1     -12.348  13.740  65.689  1.00  0.00    -0.482 C  
HETATM    7  S   UNL     1     -11.367  15.051  64.896  1.00  0.00    -0.396 SA 
HETATM    8  H   UNL     1     -11.899  16.303  65.182  1.00  0.00     0.000 H  
ENDBRANCH   5   6
TORSDOF 1
ENDMDL
MODEL       35
REMARK 921   NORMALIZED FREE ENERGY PREDICTED BY IDOCK:   -2.49 KCAL/MOL
REMARK 922        TOTAL FREE ENERGY PREDICTED BY IDOCK:   -2.68 KCAL/MOL
REMARK 923 INTER-LIGAND FREE ENERGY PREDICTED BY IDOCK:   -2.67 KCAL/MOL
REMARK 924 INTRA-LIGAND FREE ENERGY PREDICTED BY IDOCK:   -0.01 KCAL/MOL
REMARK 927      BINDING AFFINITY PREDICTED BY RF-SCORE:    0.00 PKD
ROOT
HETATM    1  O   UNL     1     -10.781  18.323  67.605  1.00  0.00    -0.419 OA 
HETATM    2  S   UNL     1      -9.489  19.096  67.022  1.00  0.00    -0.329 S  
HETATM    3  O   UNL     1      -9.834  20.496  66.946  1.00  0.00    -0.450 OA 
HETATM    4  O   UNL     1      -9.045  18.349  65.869  1.00  0.00    -0.488 OA 
HETATM    5  C   UNL     1      -8.386  18.817  68.396  1.00  0.00    -0.342 C  
ENDROOT
BRANCH   5   6
HETATM    6  C   UNL     1      -7.053  19.479  68.114  1.00  0.00    -0.284 C  
HETATM    7  S   UNL     1      -6.232  19.953  69.667  1.00  0.00    -0.357 SA 
HETATM    8  H   UNL     1      -5.008  20.560  69.408  1.00  0.00     0.000 H  
ENDBRANCH   5   6
TORSDOF 1
ENDMDL
MODEL       36
REMARK 921   NORMALIZED FREE ENERGY PREDICTED BY IDOCK:   -2.49 KCAL/MOL
REMARK 922        TOTAL FREE ENERGY PREDICTED BY IDOCK:   -2.67 KCAL/MOL
REMARK 923 INTER-LIGAND FREE ENERGY PREDICTED BY IDOCK:   -2.66 KCAL/MOL
REMARK 924 INTRA-LIGAND FREE ENERGY PREDICTED BY IDOCK:   -0.01 KCAL/MOL
REMARK 927      BINDING AFFINITY PREDICTED BY RF-SCORE:    0.00 PKD
ROOT
HETATM    1  O   UNL     1     -12.047  11.514  67.717  1.00  0.00    -0.626 OA 
HETATM    2  S   UNL     1     -11.434  12.336  66.470  1.00  0.00    -0.379 S  
HETATM    3  O   UNL     1     -12.548  12.755  65.654  1.00  0.00    -0.596 OA 
HETATM    4  O   UNL     1     -10.349  11.541  65.944  1.00  0.00    -0.232 OA 
HETATM    5  C   UNL     1     -10.788  13.729  67.378  1.00  0.00    -0.277 C  
ENDROOT
BRANCH   5   6
HETATM    6  C   UNL     1     -10.150  14.707  66.412  1.00  0.00    -0.278 C  
HETATM    7  S   UNL     1     -10.110  16.379  67.127  1.00  0.00    -0.276 SA 
HETATM    8  H   UNL     1      -9.524  17.277  66.241  1.00  0.00     0.000 H  
ENDBRANCH   5   6
TORSDOF 1
ENDMDL
MODEL       37
REMARK 921   NORMALIZED FREE ENERGY PREDICTED BY IDOCK:   -2.48 KCAL/MOL
REMARK 922        TOTAL FREE ENERGY PREDICTED BY IDOCK:   -2.67 KCAL/MOL
REMARK 923 INTER-LIGAND FREE ENERGY PREDICTED BY IDOCK:   -2.66 KCAL/MOL
REMARK 924 INTRA-LIGAND FREE ENERGY PREDICTED BY IDOCK:   -0.01 KCAL/MOL
REMARK 927      BINDING AFFINITY PREDICTED BY RF-SCORE:    0.00 PKD
ROOT
HETATM    1  O   UNL     1     -11.843  16.589  72.178  1.00  0.00    -0.501 OA 
HETATM    2  S   UNL     1     -12.446  15.429  71.231  1.00  0.00    -0.437 S  
HETATM    3  O   UNL     1     -13.827  15.765  70.979  1.00  0.00    -0.501 OA 
HETATM    4  O   UNL     1     -12.055  14.170  71.821  1.00  0.00    -0.254 OA 
HETATM    5  C   UNL     1     -11.466  15.755  69.776  1.00  0.00    -0.349 C  
ENDROOT
BRANCH   5   6
HETATM    6  C   UNL     1     -11.856  14.785  68.680  1.00  0.00    -0.300 C  
HETATM    7  S   UNL     1     -10.841  15.056  67.195  1.00  0.00    -0.319 SA 
HETATM    8  H   UNL     1     -11.198  14.165  66.188  1.00  0.00     0.000 H  
ENDBRANCH   5   6
TORSDOF 1
ENDMDL
MODEL       38
REMARK 921   NORMALIZED FREE ENERGY PREDICTED BY IDOCK:   -2.47 KCAL/MOL
REMARK 922        TOTAL FREE ENERGY PREDICTED BY IDOCK:   -2.65 KCAL/MOL
REMARK 923 INTER-LIGAND FREE ENERGY PREDICTED BY IDOCK:   -2.81 KCAL/MOL
REMARK 924 INTRA-LIGAND FREE ENERGY PREDICTED BY IDOCK:    0.16 KCAL/MOL
REMARK 927      BINDING AFFINITY PREDICTED BY RF-SCORE:    0.00 PKD
ROOT
HETATM    1  O   UNL     1     -13.042  14.048  65.276  1.00  0.00    -0.782 OA 
HETATM    2  S   UNL     1     -12.052  13.557  66.452  1.00  0.00    -0.403 S  
HETATM    3  O   UNL     1     -12.200  12.125  66.557  1.00  0.00    -0.584 OA 
HETATM    4  O   UNL     1     -12.274  14.438  67.575  1.00  0.00    -0.342 OA 
HETATM    5  C   UNL     1     -10.502  13.951  65.662  1.00  0.00    -0.312 C  
ENDROOT
BRANCH   5   6
HETATM    6  C   UNL     1      -9.358  13.559  66.573  1.00  0.00    -0.215 C  
HETATM    7  S   UNL     1      -8.988  11.785  66.410  1.00  0.00    -0.174 SA 
HETATM    8  H   UNL     1      -7.938  11.424  67.247  1.00  0.00     0.000 H  
ENDBRANCH   5   6
TORSDOF 1
ENDMDL
MODEL       39
REMARK 921   NORMALIZED FREE ENERGY PREDICTED BY IDOCK:   -2.44 KCAL/MOL
REMARK 922        TOTAL FREE ENERGY PREDICTED BY IDOCK:   -2.62 KCAL/MOL
REMARK 923 INTER-LIGAND FREE ENERGY PREDICTED BY IDOCK:   -2.59 KCAL/MOL
REMARK 924 INTRA-LIGAND FREE ENERGY PREDICTED BY IDOCK:   -0.03 KCAL/MOL
REMARK 927      BINDING AFFINITY PREDICTED BY RF-SCORE:    0.00 PKD
ROOT
HETATM    1  O   UNL     1      -8.613  20.145  66.814  1.00  0.00    -0.319 OA 
HETATM    2  S   UNL     1     -10.019  19.353  66.859  1.00  0.00    -0.405 S  
HETATM    3  O   UNL     1     -10.701  19.635  65.620  1.00  0.00    -0.503 OA 
HETATM    4  O   UNL     1     -10.611  19.635  68.146  1.00  0.00    -0.416 OA 
HETATM    5  C   UNL     1      -9.373  17.690  66.833  1.00  0.00    -0.264 C  
ENDROOT
BRANCH   5   6
HETATM    6  C   UNL     1     -10.523  16.704  66.848  1.00  0.00    -0.271 C  
HETATM    7  S   UNL     1     -10.515  15.688  65.338  1.00  0.00    -0.413 SA 
HETATM    8  H   UNL     1     -11.571  14.782  65.352  1.00  0.00     0.000 H  
ENDBRANCH   5   6
TORSDOF 1
ENDMDL
MODEL       40
REMARK 921   NORMALIZED FREE ENERGY PREDICTED BY IDOCK:   -2.43 KCAL/MOL
REMARK 922        TOTAL FREE ENERGY PREDICTED BY IDOCK:   -2.62 KCAL/MOL
REMARK 923 INTER-LIGAND FREE ENERGY PREDICTED BY IDOCK:   -2.58 KCAL/MOL
REMARK 924 INTRA-LIGAND FREE ENERGY PREDICTED BY IDOCK:   -0.04 KCAL/MOL
REMARK 927      BINDING AFFINITY PREDICTED BY RF-SCORE:    0.00 PKD
ROOT
HETATM    1  O   UNL     1     -11.217  15.618  67.593  1.00  0.00    -0.326 OA 
HETATM    2  S   UNL     1     -10.621  14.346  66.797  1.00  0.00    -0.285 S  
HETATM    3  O   UNL     1     -10.014  13.481  67.779  1.00  0.00    -0.222 OA 
HETATM    4  O   UNL     1      -9.884  14.870  65.671  1.00  0.00    -0.328 OA 
HETATM    5  C   UNL     1     -12.167  13.647  66.244  1.00  0.00    -0.436 C  
ENDROOT
BRANCH   5   6
HETATM    6  C   UNL     1     -11.894  12.381  65.458  1.00  0.00    -0.412 C  
HETATM    7  S   UNL     1     -12.123  12.672  63.676  1.00  0.00    -0.565 SA 
HETATM    8  H   UNL     1     -11.873  11.510  62.954  1.00  0.00     0.000 H  
ENDBRANCH   5   6
TORSDOF 1
ENDMDL
MODEL       41
REMARK 921   NORMALIZED FREE ENERGY PREDICTED BY IDOCK:   -2.40 KCAL/MOL
REMARK 922        TOTAL FREE ENERGY PREDICTED BY IDOCK:   -2.58 KCAL/MOL
REMARK 923 INTER-LIGAND FREE ENERGY PREDICTED BY IDOCK:   -2.54 KCAL/MOL
REMARK 924 INTRA-LIGAND FREE ENERGY PREDICTED BY IDOCK:   -0.04 KCAL/MOL
REMARK 927      BINDING AFFINITY PREDICTED BY RF-SCORE:    0.00 PKD
ROOT
HETATM    1  O   UNL     1     -10.637  13.749  68.683  1.00  0.00    -0.246 OA 
HETATM    2  S   UNL     1     -11.169  15.103  69.385  1.00  0.00    -0.305 S  
HETATM    3  O   UNL     1     -11.702  15.939  68.336  1.00  0.00    -0.358 OA 
HETATM    4  O   UNL     1     -10.118  15.551  70.268  1.00  0.00    -0.270 OA 
HETATM    5  C   UNL     1     -12.502  14.391  70.331  1.00  0.00    -0.357 C  
ENDROOT
BRANCH   5   6
HETATM    6  C   UNL     1     -13.214  15.485  71.100  1.00  0.00    -0.507 C  
HETATM    7  S   UNL     1     -12.691  15.487  72.843  1.00  0.00    -0.498 SA 
HETATM    8  H   UNL     1     -13.344  16.491  73.549  1.00  0.00     0.000 H  
ENDBRANCH   5   6
TORSDOF 1
ENDMDL
MODEL       42
REMARK 921   NORMALIZED FREE ENERGY PREDICTED BY IDOCK:   -2.40 KCAL/MOL
REMARK 922        TOTAL FREE ENERGY PREDICTED BY IDOCK:   -2.58 KCAL/MOL
REMARK 923 INTER-LIGAND FREE ENERGY PREDICTED BY IDOCK:   -2.62 KCAL/MOL
REMARK 924 INTRA-LIGAND FREE ENERGY PREDICTED BY IDOCK:    0.05 KCAL/MOL
REMARK 927      BINDING AFFINITY PREDICTED BY RF-SCORE:    0.00 PKD
ROOT
HETATM    1  O   UNL     1     -11.774   5.828  72.474  1.00  0.00    -0.309 OA 
HETATM    2  S   UNL     1     -12.176   6.888  71.325  1.00  0.00    -0.373 S  
HETATM    3  O   UNL     1     -13.599   7.108  71.434  1.00  0.00    -0.375 OA 
HETATM    4  O   UNL     1     -11.560   6.427  70.103  1.00  0.00    -0.408 OA 
HETATM    5  C   UNL     1     -11.292   8.300  71.962  1.00  0.00    -0.325 C  
ENDROOT
BRANCH   5   6
HETATM    6  C   UNL     1     -11.521   9.489  71.052  1.00  0.00    -0.349 C  
HETATM    7  S   UNL     1     -12.972  10.442  71.596  1.00  0.00    -0.484 SA 
HETATM    8  H   UNL     1     -13.182  11.535  70.761  1.00  0.00     0.000 H  
ENDBRANCH   5   6
TORSDOF 1
ENDMDL
MODEL       43
REMARK 921   NORMALIZED FREE ENERGY PREDICTED BY IDOCK:   -2.38 KCAL/MOL
REMARK 922        TOTAL FREE ENERGY PREDICTED BY IDOCK:   -2.56 KCAL/MOL
REMARK 923 INTER-LIGAND FREE ENERGY PREDICTED BY IDOCK:   -2.52 KCAL/MOL
REMARK 924 INTRA-LIGAND FREE ENERGY PREDICTED BY IDOCK:   -0.04 KCAL/MOL
REMARK 927      BINDING AFFINITY PREDICTED BY RF-SCORE:    0.00 PKD
ROOT
HETATM    1  O   UNL     1     -13.143   8.889  72.359  1.00  0.00    -0.407 OA 
HETATM    2  S   UNL     1     -11.701   8.268  71.979  1.00  0.00    -0.373 S  
HETATM    3  O   UNL     1     -11.135   7.744  73.199  1.00  0.00    -0.409 OA 
HETATM    4  O   UNL     1     -11.022   9.260  71.179  1.00  0.00    -0.281 OA 
HETATM    5  C   UNL     1     -12.267   6.929  70.946  1.00  0.00    -0.353 C  
ENDROOT
BRANCH   5   6
HETATM    6  C   UNL     1     -11.074   6.137  70.451  1.00  0.00    -0.352 C  
HETATM    7  S   UNL     1     -10.880   6.328  68.652  1.00  0.00    -0.345 SA 
HETATM    8  H   UNL     1      -9.785   5.602  68.198  1.00  0.00     0.000 H  
ENDBRANCH   5   6
TORSDOF 1
ENDMDL
MODEL       44
REMARK 921   NORMALIZED FREE ENERGY PREDICTED BY IDOCK:   -2.37 KCAL/MOL
REMARK 922        TOTAL FREE ENERGY PREDICTED BY IDOCK:   -2.55 KCAL/MOL
REMARK 923 INTER-LIGAND FREE ENERGY PREDICTED BY IDOCK:   -2.52 KCAL/MOL
REMARK 924 INTRA-LIGAND FREE ENERGY PREDICTED BY IDOCK:   -0.03 KCAL/MOL
REMARK 927      BINDING AFFINITY PREDICTED BY RF-SCORE:    0.00 PKD
ROOT
HETATM    1  O   UNL     1     -10.107  19.717  69.359  1.00  0.00    -0.390 OA 
HETATM    2  S   UNL     1      -9.486  19.431  67.896  1.00  0.00    -0.346 S  
HETATM    3  O   UNL     1      -8.186  18.837  68.099  1.00  0.00    -0.285 OA 
HETATM    4  O   UNL     1      -9.669  20.639  67.126  1.00  0.00    -0.454 OA 
HETATM    5  C   UNL     1     -10.647  18.185  67.367  1.00  0.00    -0.388 C  
ENDROOT
BRANCH   5   6
HETATM    6  C   UNL     1     -10.274  17.706  65.979  1.00  0.00    -0.297 C  
HETATM    7  S   UNL     1     -10.024  15.904  65.968  1.00  0.00    -0.360 SA 
HETATM    8  H   UNL     1      -9.682  15.464  64.694  1.00  0.00     0.000 H  
ENDBRANCH   5   6
TORSDOF 1
ENDMDL
MODEL       45
REMARK 921   NORMALIZED FREE ENERGY PREDICTED BY IDOCK:   -2.34 KCAL/MOL
REMARK 922        TOTAL FREE ENERGY PREDICTED BY IDOCK:   -2.52 KCAL/MOL
REMARK 923 INTER-LIGAND FREE ENERGY PREDICTED BY IDOCK:   -2.48 KCAL/MOL
REMARK 924 INTRA-LIGAND FREE ENERGY PREDICTED BY IDOCK:   -0.04 KCAL/MOL
REMARK 927      BINDING AFFINITY PREDICTED BY RF-SCORE:    0.00 PKD
ROOT
HETATM    1  O   UNL     1     -12.151  11.464  68.077  1.00  0.00    -0.629 OA 
HETATM    2  S   UNL     1     -11.077  12.301  67.209  1.00  0.00    -0.293 S  
HETATM    3  O   UNL     1     -10.970  11.648  65.927  1.00  0.00    -0.291 OA 
HETATM    4  O   UNL     1      -9.931  12.513  68.063  1.00  0.00    -0.206 OA 
HETATM    5  C   UNL     1     -12.006  13.814  67.045  1.00  0.00    -0.413 C  
ENDROOT
BRANCH   5   6
HETATM    6  C   UNL     1     -11.210  14.808  66.225  1.00  0.00    -0.343 C  
HETATM    7  S   UNL     1     -10.434  16.052  67.302  1.00  0.00    -0.308 SA 
HETATM    8  H   UNL     1      -9.702  16.964  66.549  1.00  0.00     0.000 H  
ENDBRANCH   5   6
TORSDOF 1
ENDMDL
MODEL       46
REMARK 921   NORMALIZED FREE ENERGY PREDICTED BY IDOCK:   -2.30 KCAL/MOL
REMARK 922        TOTAL FREE ENERGY PREDICTED BY IDOCK:   -2.48 KCAL/MOL
REMARK 923 INTER-LIGAND FREE ENERGY PREDICTED BY IDOCK:   -2.44 KCAL/MOL
REMARK 924 INTRA-LIGAND FREE ENERGY PREDICTED BY IDOCK:   -0.04 KCAL/MOL
REMARK 927      BINDING AFFINITY PREDICTED BY RF-SCORE:    0.00 PKD
ROOT
HETATM    1  O   UNL     1     -14.197   9.030  73.197  1.00  0.00    -0.334 OA 
HETATM    2  S   UNL     1     -13.518   8.627  71.788  1.00  0.00    -0.391 S  
HETATM    3  O   UNL     1     -13.468   9.827  70.987  1.00  0.00    -0.347 OA 
HETATM    4  O   UNL     1     -14.182   7.427  71.338  1.00  0.00    -0.433 OA 
HETATM    5  C   UNL     1     -11.888   8.235  72.396  1.00  0.00    -0.396 C  
ENDROOT
BRANCH   5   6
HETATM    6  C   UNL     1     -11.003   7.829  71.236  1.00  0.00    -0.234 C  
HETATM    7  S   UNL     1      -9.821   9.154  70.837  1.00  0.00    -0.299 SA 
HETATM    8  H   UNL     1      -9.008   8.781  69.772  1.00  0.00     0.000 H  
ENDBRANCH   5   6
TORSDOF 1
ENDMDL
MODEL       47
REMARK 921   NORMALIZED FREE ENERGY PREDICTED BY IDOCK:   -2.29 KCAL/MOL
REMARK 922        TOTAL FREE ENERGY PREDICTED BY IDOCK:   -2.47 KCAL/MOL
REMARK 923 INTER-LIGAND FREE ENERGY PREDICTED BY IDOCK:   -2.46 KCAL/MOL
REMARK 924 INTRA-LIGAND FREE ENERGY PREDICTED BY IDOCK:   -0.01 KCAL/MOL
REMARK 927      BINDING AFFINITY PREDICTED BY RF-SCORE:    0.00 PKD
ROOT
HETATM    1  O   UNL     1     -10.595  13.274  66.689  1.00  0.00    -0.277 OA 
HETATM    2  S   UNL     1     -11.075  12.612  68.081  1.00  0.00    -0.269 S  
HETATM    3  O   UNL     1      -9.884  12.192  68.781  1.00  0.00    -0.145 OA 
HETATM    4  O   UNL     1     -12.141  11.693  67.756  1.00  0.00    -0.613 OA 
HETATM    5  C   UNL     1     -11.742  14.079  68.844  1.00  0.00    -0.340 C  
ENDROOT
BRANCH   5   6
HETATM    6  C   UNL     1     -12.264  13.737  70.224  1.00  0.00    -0.359 C  
HETATM    7  S   UNL     1     -13.105  15.170  70.965  1.00  0.00    -0.459 SA 
HETATM    8  H   UNL     1     -13.584  14.856  72.232  1.00  0.00     0.000 H  
ENDBRANCH   5   6
TORSDOF 1
ENDMDL
MODEL       48
REMARK 921   NORMALIZED FREE ENERGY PREDICTED BY IDOCK:   -2.28 KCAL/MOL
REMARK 922        TOTAL FREE ENERGY PREDICTED BY IDOCK:   -2.45 KCAL/MOL
REMARK 923 INTER-LIGAND FREE ENERGY PREDICTED BY IDOCK:   -2.42 KCAL/MOL
REMARK 924 INTRA-LIGAND FREE ENERGY PREDICTED BY IDOCK:   -0.03 KCAL/MOL
REMARK 927      BINDING AFFINITY PREDICTED BY RF-SCORE:    0.00 PKD
ROOT
HETATM    1  O   UNL     1     -12.910   6.727  71.851  1.00  0.00    -0.338 OA 
HETATM    2  S   UNL     1     -12.156   8.111  72.203  1.00  0.00    -0.366 S  
HETATM    3  O   UNL     1     -11.140   7.800  73.180  1.00  0.00    -0.409 OA 
HETATM    4  O   UNL     1     -13.187   9.092  72.450  1.00  0.00    -0.420 OA 
HETATM    5  C   UNL     1     -11.402   8.400  70.613  1.00  0.00    -0.244 C  
ENDROOT
BRANCH   5   6
HETATM    6  C   UNL     1     -10.585   9.675  70.668  1.00  0.00    -0.319 C  
HETATM    7  S   UNL     1     -11.511  11.061  69.939  1.00  0.00    -0.324 SA 
HETATM    8  H   UNL     1     -10.762  12.231  69.990  1.00  0.00     0.000 H  
ENDBRANCH   5   6
TORSDOF 1
ENDMDL
MODEL       49
REMARK 921   NORMALIZED FREE ENERGY PREDICTED BY IDOCK:   -2.28 KCAL/MOL
REMARK 922        TOTAL FREE ENERGY PREDICTED BY IDOCK:   -2.45 KCAL/MOL
REMARK 923 INTER-LIGAND FREE ENERGY PREDICTED BY IDOCK:   -2.41 KCAL/MOL
REMARK 924 INTRA-LIGAND FREE ENERGY PREDICTED BY IDOCK:   -0.04 KCAL/MOL
REMARK 927      BINDING AFFINITY PREDICTED BY RF-SCORE:    0.00 PKD
ROOT
HETATM    1  O   UNL     1     -12.762  13.366  71.206  1.00  0.00    -0.354 OA 
HETATM    2  S   UNL     1     -12.326  14.856  70.762  1.00  0.00    -0.361 S  
HETATM    3  O   UNL     1     -11.061  15.132  71.398  1.00  0.00    -0.317 OA 
HETATM    4  O   UNL     1     -13.484  15.698  70.950  1.00  0.00    -0.569 OA 
HETATM    5  C   UNL     1     -12.076  14.539  69.024  1.00  0.00    -0.251 C  
ENDROOT
BRANCH   5   6
HETATM    6  C   UNL     1     -11.625  15.813  68.340  1.00  0.00    -0.338 C  
HETATM    7  S   UNL     1      -9.892  15.673  67.804  1.00  0.00    -0.221 SA 
HETATM    8  H   UNL     1      -9.477  16.842  67.176  1.00  0.00     0.000 H  
ENDBRANCH   5   6
TORSDOF 1
ENDMDL
MODEL       50
REMARK 921   NORMALIZED FREE ENERGY PREDICTED BY IDOCK:   -2.27 KCAL/MOL
REMARK 922        TOTAL FREE ENERGY PREDICTED BY IDOCK:   -2.45 KCAL/MOL
REMARK 923 INTER-LIGAND FREE ENERGY PREDICTED BY IDOCK:   -2.41 KCAL/MOL
REMARK 924 INTRA-LIGAND FREE ENERGY PREDICTED BY IDOCK:   -0.03 KCAL/MOL
REMARK 927      BINDING AFFINITY PREDICTED BY RF-SCORE:    0.00 PKD
ROOT
HETATM    1  O   UNL     1     -11.586  10.790  67.472  1.00  0.00    -0.510 OA 
HETATM    2  S   UNL     1     -10.597  11.353  66.327  1.00  0.00    -0.264 S  
HETATM    3  O   UNL     1     -10.402  10.284  65.377  1.00  0.00    -0.269 OA 
HETATM    4  O   UNL     1      -9.493  11.988  67.010  1.00  0.00    -0.189 OA 
HETATM    5  C   UNL     1     -11.683  12.588  65.638  1.00  0.00    -0.423 C  
ENDROOT
BRANCH   5   6
HETATM    6  C   UNL     1     -10.988  13.284  64.486  1.00  0.00    -0.382 C  
HETATM    7  S   UNL     1     -10.790  15.059  64.835  1.00  0.00    -0.377 SA 
HETATM    8  H   UNL     1     -10.152  15.698  63.777  1.00  0.00     0.000 H  
ENDBRANCH   5   6
TORSDOF 1
ENDMDL
MODEL       51
REMARK 921   NORMALIZED FREE ENERGY PREDICTED BY IDOCK:   -2.27 KCAL/MOL
REMARK 922        TOTAL FREE ENERGY PREDICTED BY IDOCK:   -2.44 KCAL/MOL
REMARK 923 INTER-LIGAND FREE ENERGY PREDICTED BY IDOCK:   -2.44 KCAL/MOL
REMARK 924 INTRA-LIGAND FREE ENERGY PREDICTED BY IDOCK:   -0.01 KCAL/MOL
REMARK 927      BINDING AFFINITY PREDICTED BY RF-SCORE:    0.00 PKD
ROOT
HETATM    1  O   UNL     1     -10.393  14.613  65.989  1.00  0.00    -0.280 OA 
HETATM    2  S   UNL     1     -10.249  16.213  66.151  1.00  0.00    -0.352 S  
HETATM    3  O   UNL     1     -10.855  16.565  67.413  1.00  0.00    -0.294 OA 
HETATM    4  O   UNL     1     -10.679  16.795  64.902  1.00  0.00    -0.721 OA 
HETATM    5  C   UNL     1      -8.473  16.295  66.287  1.00  0.00    -0.334 C  
ENDROOT
BRANCH   5   6
HETATM    6  C   UNL     1      -8.049  17.737  66.475  1.00  0.00    -0.272 C  
HETATM    7  S   UNL     1      -6.257  17.844  66.772  1.00  0.00    -0.183 SA 
HETATM    8  H   UNL     1      -5.867  19.168  66.944  1.00  0.00     0.000 H  
ENDBRANCH   5   6
TORSDOF 1
ENDMDL
MODEL       52
REMARK 921   NORMALIZED FREE ENERGY PREDICTED BY IDOCK:   -2.27 KCAL/MOL
REMARK 922        TOTAL FREE ENERGY PREDICTED BY IDOCK:   -2.44 KCAL/MOL
REMARK 923 INTER-LIGAND FREE ENERGY PREDICTED BY IDOCK:   -2.40 KCAL/MOL
REMARK 924 INTRA-LIGAND FREE ENERGY PREDICTED BY IDOCK:   -0.04 KCAL/MOL
REMARK 927      BINDING AFFINITY PREDICTED BY RF-SCORE:    0.00 PKD
ROOT
HETATM    1  O   UNL     1     -12.383  12.355  65.881  1.00  0.00    -0.638 OA 
HETATM    2  S   UNL     1     -11.462  12.139  67.189  1.00  0.00    -0.338 S  
HETATM    3  O   UNL     1     -12.217  11.318  68.105  1.00  0.00    -0.622 OA 
HETATM    4  O   UNL     1     -10.957  13.440  67.558  1.00  0.00    -0.259 OA 
HETATM    5  C   UNL     1     -10.169  11.171  66.431  1.00  0.00    -0.233 C  
ENDROOT
BRANCH   5   6
HETATM    6  C   UNL     1      -9.140  10.799  67.478  1.00  0.00    -0.139 C  
HETATM    7  S   UNL     1      -7.663  11.851  67.328  1.00  0.00    -0.170 SA 
HETATM    8  H   UNL     1      -6.718  11.510  68.289  1.00  0.00     0.000 H  
ENDBRANCH   5   6
TORSDOF 1
ENDMDL
MODEL       53
REMARK 921   NORMALIZED FREE ENERGY PREDICTED BY IDOCK:   -2.26 KCAL/MOL
REMARK 922        TOTAL FREE ENERGY PREDICTED BY IDOCK:   -2.43 KCAL/MOL
REMARK 923 INTER-LIGAND FREE ENERGY PREDICTED BY IDOCK:   -2.40 KCAL/MOL
REMARK 924 INTRA-LIGAND FREE ENERGY PREDICTED BY IDOCK:   -0.03 KCAL/MOL
REMARK 927      BINDING AFFINITY PREDICTED BY RF-SCORE:    0.00 PKD
ROOT
HETATM    1  O   UNL     1     -13.566   8.876  72.701  1.00  0.00    -0.439 OA 
HETATM    2  S   UNL     1     -12.239   8.334  71.959  1.00  0.00    -0.370 S  
HETATM    3  O   UNL     1     -12.671   7.378  70.968  1.00  0.00    -0.295 OA 
HETATM    4  O   UNL     1     -11.294   7.994  72.997  1.00  0.00    -0.386 OA 
HETATM    5  C   UNL     1     -11.754   9.855  71.164  1.00  0.00    -0.396 C  
ENDROOT
BRANCH   5   6
HETATM    6  C   UNL     1     -10.497   9.620  70.351  1.00  0.00    -0.293 C  
HETATM    7  S   UNL     1     -10.784  10.019  68.599  1.00  0.00    -0.226 SA 
HETATM    8  H   UNL     1      -9.631   9.803  67.853  1.00  0.00     0.000 H  
ENDBRANCH   5   6
TORSDOF 1
ENDMDL
MODEL       54
REMARK 921   NORMALIZED FREE ENERGY PREDICTED BY IDOCK:   -2.25 KCAL/MOL
REMARK 922        TOTAL FREE ENERGY PREDICTED BY IDOCK:   -2.42 KCAL/MOL
REMARK 923 INTER-LIGAND FREE ENERGY PREDICTED BY IDOCK:   -2.39 KCAL/MOL
REMARK 924 INTRA-LIGAND FREE ENERGY PREDICTED BY IDOCK:   -0.03 KCAL/MOL
REMARK 927      BINDING AFFINITY PREDICTED BY RF-SCORE:    0.00 PKD
ROOT
HETATM    1  O   UNL     1     -12.134  11.437  67.940  1.00  0.00    -0.646 OA 
HETATM    2  S   UNL     1     -11.713  12.928  67.486  1.00  0.00    -0.356 S  
HETATM    3  O   UNL     1     -12.076  13.815  68.565  1.00  0.00    -0.363 OA 
HETATM    4  O   UNL     1     -12.210  13.107  66.142  1.00  0.00    -0.419 OA 
HETATM    5  C   UNL     1      -9.945  12.695  67.459  1.00  0.00    -0.205 C  
ENDROOT
BRANCH   5   6
HETATM    6  C   UNL     1      -9.272  13.995  67.069  1.00  0.00    -0.254 C  
HETATM    7  S   UNL     1      -8.079  14.507  68.344  1.00  0.00    -0.150 SA 
HETATM    8  H   UNL     1      -7.461  15.701  67.986  1.00  0.00     0.000 H  
ENDBRANCH   5   6
TORSDOF 1
ENDMDL
MODEL       55
REMARK 921   NORMALIZED FREE ENERGY PREDICTED BY IDOCK:   -2.24 KCAL/MOL
REMARK 922        TOTAL FREE ENERGY PREDICTED BY IDOCK:   -2.42 KCAL/MOL
REMARK 923 INTER-LIGAND FREE ENERGY PREDICTED BY IDOCK:   -2.38 KCAL/MOL
REMARK 924 INTRA-LIGAND FREE ENERGY PREDICTED BY IDOCK:   -0.04 KCAL/MOL
REMARK 927      BINDING AFFINITY PREDICTED BY RF-SCORE:    0.00 PKD
ROOT
HETATM    1  O   UNL     1     -11.445   6.031  69.718  1.00  0.00    -0.395 OA 
HETATM    2  S   UNL     1     -11.722   6.938  71.025  1.00  0.00    -0.362 S  
HETATM    3  O   UNL     1     -10.844   6.457  72.065  1.00  0.00    -0.224 OA 
HETATM    4  O   UNL     1     -13.155   6.996  71.193  1.00  0.00    -0.345 OA 
HETATM    5  C   UNL     1     -11.116   8.491  70.390  1.00  0.00    -0.231 C  
ENDROOT
BRANCH   5   6
HETATM    6  C   UNL     1     -11.243   9.556  71.459  1.00  0.00    -0.367 C  
HETATM    7  S   UNL     1     -12.674  10.629  71.127  1.00  0.00    -0.451 SA 
HETATM    8  H   UNL     1     -12.791  11.608  72.108  1.00  0.00     0.000 H  
ENDBRANCH   5   6
TORSDOF 1
ENDMDL
MODEL       56
REMARK 921   NORMALIZED FREE ENERGY PREDICTED BY IDOCK:   -2.24 KCAL/MOL
REMARK 922        TOTAL FREE ENERGY PREDICTED BY IDOCK:   -2.41 KCAL/MOL
REMARK 923 INTER-LIGAND FREE ENERGY PREDICTED BY IDOCK:   -2.38 KCAL/MOL
REMARK 924 INTRA-LIGAND FREE ENERGY PREDICTED BY IDOCK:   -0.04 KCAL/MOL
REMARK 927      BINDING AFFINITY PREDICTED BY RF-SCORE:    0.00 PKD
ROOT
HETATM    1  O   UNL     1     -10.849  19.704  65.948  1.00  0.00    -0.446 OA 
HETATM    2  S   UNL     1      -9.923  19.331  67.218  1.00  0.00    -0.390 S  
HETATM    3  O   UNL     1     -10.246  20.272  68.264  1.00  0.00    -0.384 OA 
HETATM    4  O   UNL     1      -8.579  19.168  66.716  1.00  0.00    -0.285 OA 
HETATM    5  C   UNL     1     -10.635  17.739  67.592  1.00  0.00    -0.379 C  
ENDROOT
BRANCH   5   6
HETATM    6  C   UNL     1      -9.941  17.149  68.802  1.00  0.00    -0.315 C  
HETATM    7  S   UNL     1      -8.711  15.909  68.293  1.00  0.00    -0.179 SA 
HETATM    8  H   UNL     1      -8.073  15.367  69.404  1.00  0.00     0.000 H  
ENDBRANCH   5   6
TORSDOF 1
ENDMDL
MODEL       57
REMARK 921   NORMALIZED FREE ENERGY PREDICTED BY IDOCK:   -2.23 KCAL/MOL
REMARK 922        TOTAL FREE ENERGY PREDICTED BY IDOCK:   -2.40 KCAL/MOL
REMARK 923 INTER-LIGAND FREE ENERGY PREDICTED BY IDOCK:   -2.39 KCAL/MOL
REMARK 924 INTRA-LIGAND FREE ENERGY PREDICTED BY IDOCK:   -0.02 KCAL/MOL
REMARK 927      BINDING AFFINITY PREDICTED BY RF-SCORE:    0.00 PKD
ROOT
HETATM    1  O   UNL     1     -12.309  12.889  64.494  1.00  0.00    -0.403 OA 
HETATM    2  S   UNL     1     -11.480  13.364  65.795  1.00  0.00    -0.330 S  
HETATM    3  O   UNL     1     -12.381  14.144  66.608  1.00  0.00    -0.455 OA 
HETATM    4  O   UNL     1     -10.224  13.892  65.314  1.00  0.00    -0.336 OA 
HETATM    5  C   UNL     1     -11.227  11.761  66.534  1.00  0.00    -0.321 C  
ENDROOT
BRANCH   5   6
HETATM    6  C   UNL     1     -10.461  11.919  67.831  1.00  0.00    -0.204 C  
HETATM    7  S   UNL     1     -11.598  11.913  69.252  1.00  0.00    -0.337 SA 
HETATM    8  H   UNL     1     -10.895  12.059  70.443  1.00  0.00     0.000 H  
ENDBRANCH   5   6
TORSDOF 1
ENDMDL
MODEL       58
REMARK 921   NORMALIZED FREE ENERGY PREDICTED BY IDOCK:   -2.23 KCAL/MOL
REMARK 922        TOTAL FREE ENERGY PREDICTED BY IDOCK:   -2.40 KCAL/MOL
REMARK 923 INTER-LIGAND FREE ENERGY PREDICTED BY IDOCK:   -2.39 KCAL/MOL
REMARK 924 INTRA-LIGAND FREE ENERGY PREDICTED BY IDOCK:   -0.01 KCAL/MOL
REMARK 927      BINDING AFFINITY PREDICTED BY RF-SCORE:    0.00 PKD
ROOT
HETATM    1  O   UNL     1     -13.738   9.218  71.266  1.00  0.00    -0.342 OA 
HETATM    2  S   UNL     1     -12.550  10.308  71.350  1.00  0.00    -0.467 S  
HETATM    3  O   UNL     1     -11.345   9.593  71.694  1.00  0.00    -0.374 OA 
HETATM    4  O   UNL     1     -13.050  11.404  72.148  1.00  0.00    -0.462 OA 
HETATM    5  C   UNL     1     -12.511  10.772  69.628  1.00  0.00    -0.097 C  
ENDROOT
BRANCH   5   6
HETATM    6  C   UNL     1     -11.428  11.810  69.411  1.00  0.00    -0.307 C  
HETATM    7  S   UNL     1     -11.737  12.748  67.883  1.00  0.00    -0.345 SA 
HETATM    8  H   UNL     1     -10.743  13.700  67.684  1.00  0.00     0.000 H  
ENDBRANCH   5   6
TORSDOF 1
ENDMDL
MODEL       59
REMARK 921   NORMALIZED FREE ENERGY PREDICTED BY IDOCK:   -2.23 KCAL/MOL
REMARK 922        TOTAL FREE ENERGY PREDICTED BY IDOCK:   -2.40 KCAL/MOL
REMARK 923 INTER-LIGAND FREE ENERGY PREDICTED BY IDOCK:   -2.38 KCAL/MOL
REMARK 924 INTRA-LIGAND FREE ENERGY PREDICTED BY IDOCK:   -0.02 KCAL/MOL
REMARK 927      BINDING AFFINITY PREDICTED BY RF-SCORE:    0.00 PKD
ROOT
HETATM    1  O   UNL     1      -9.283  16.824  68.672  1.00  0.00    -0.241 OA 
HETATM    2  S   UNL     1     -10.577  16.788  67.707  1.00  0.00    -0.325 S  
HETATM    3  O   UNL     1     -10.705  18.102  67.125  1.00  0.00    -0.375 OA 
HETATM    4  O   UNL     1     -11.642  16.174  68.466  1.00  0.00    -0.377 OA 
HETATM    5  C   UNL     1      -9.953  15.643  66.490  1.00  0.00    -0.273 C  
ENDROOT
BRANCH   5   6
HETATM    6  C   UNL     1     -10.998  15.435  65.413  1.00  0.00    -0.368 C  
HETATM    7  S   UNL     1     -11.964  13.928  65.740  1.00  0.00    -0.424 SA 
HETATM    8  H   UNL     1     -12.924  13.737  64.751  1.00  0.00     0.000 H  
ENDBRANCH   5   6
TORSDOF 1
ENDMDL
MODEL       60
REMARK 921   NORMALIZED FREE ENERGY PREDICTED BY IDOCK:   -2.22 KCAL/MOL
REMARK 922        TOTAL FREE ENERGY PREDICTED BY IDOCK:   -2.39 KCAL/MOL
REMARK 923 INTER-LIGAND FREE ENERGY PREDICTED BY IDOCK:   -2.39 KCAL/MOL
REMARK 924 INTRA-LIGAND FREE ENERGY PREDICTED BY IDOCK:   -0.01 KCAL/MOL
REMARK 927      BINDING AFFINITY PREDICTED BY RF-SCORE:    0.00 PKD
ROOT
HETATM    1  O   UNL     1     -14.279   9.289  73.073  1.00  0.00    -0.387 OA 
HETATM    2  S   UNL     1     -13.184   8.888  71.957  1.00  0.00    -0.441 S  
HETATM    3  O   UNL     1     -13.865   8.089  70.967  1.00  0.00    -0.092 OA 
HETATM    4  O   UNL     1     -12.024   8.406  72.670  1.00  0.00    -0.396 OA 
HETATM    5  C   UNL     1     -12.872  10.520  71.310  1.00  0.00    -0.431 C  
ENDROOT
BRANCH   5   6
HETATM    6  C   UNL     1     -11.856  10.432  70.190  1.00  0.00    -0.297 C  
HETATM    7  S   UNL     1     -11.666  12.045  69.369  1.00  0.00    -0.342 SA 
HETATM    8  H   UNL     1     -10.733  11.964  68.341  1.00  0.00     0.000 H  
ENDBRANCH   5   6
TORSDOF 1
ENDMDL
MODEL       61
REMARK 921   NORMALIZED FREE ENERGY PREDICTED BY IDOCK:   -2.22 KCAL/MOL
REMARK 922        TOTAL FREE ENERGY PREDICTED BY IDOCK:   -2.39 KCAL/MOL
REMARK 923 INTER-LIGAND FREE ENERGY PREDICTED BY IDOCK:   -2.35 KCAL/MOL
REMARK 924 INTRA-LIGAND FREE ENERGY PREDICTED BY IDOCK:   -0.04 KCAL/MOL
REMARK 927      BINDING AFFINITY PREDICTED BY RF-SCORE:    0.00 PKD
ROOT
HETATM    1  O   UNL     1     -13.694   6.898  71.775  1.00  0.00    -0.303 OA 
HETATM    2  S   UNL     1     -12.093   6.813  71.587  1.00  0.00    -0.367 S  
HETATM    3  O   UNL     1     -11.846   6.559  70.188  1.00  0.00    -0.416 OA 
HETATM    4  O   UNL     1     -11.600   5.940  72.627  1.00  0.00    -0.290 OA 
HETATM    5  C   UNL     1     -11.702   8.509  71.975  1.00  0.00    -0.362 C  
ENDROOT
BRANCH   5   6
HETATM    6  C   UNL     1     -10.207   8.722  71.851  1.00  0.00    -0.345 C  
HETATM    7  S   UNL     1      -9.807   9.577  70.296  1.00  0.00    -0.272 SA 
HETATM    8  H   UNL     1      -8.435   9.772  70.182  1.00  0.00     0.000 H  
ENDBRANCH   5   6
TORSDOF 1
ENDMDL
MODEL       62
REMARK 921   NORMALIZED FREE ENERGY PREDICTED BY IDOCK:   -2.22 KCAL/MOL
REMARK 922        TOTAL FREE ENERGY PREDICTED BY IDOCK:   -2.39 KCAL/MOL
REMARK 923 INTER-LIGAND FREE ENERGY PREDICTED BY IDOCK:   -2.38 KCAL/MOL
REMARK 924 INTRA-LIGAND FREE ENERGY PREDICTED BY IDOCK:   -0.01 KCAL/MOL
REMARK 927      BINDING AFFINITY PREDICTED BY RF-SCORE:    0.00 PKD
ROOT
HETATM    1  O   UNL     1     -12.072  11.747  66.861  1.00  0.00    -0.566 OA 
HETATM    2  S   UNL     1     -10.704  12.099  66.080  1.00  0.00    -0.285 S  
HETATM    3  O   UNL     1      -9.770  11.036  66.367  1.00  0.00    -0.191 OA 
HETATM    4  O   UNL     1     -10.408  13.483  66.368  1.00  0.00    -0.278 OA 
HETATM    5  C   UNL     1     -11.315  11.937  64.412  1.00  0.00    -0.326 C  
ENDROOT
BRANCH   5   6
HETATM    6  C   UNL     1     -10.189  12.204  63.435  1.00  0.00    -0.388 C  
HETATM    7  S   UNL     1      -9.437  10.642  62.882  1.00  0.00    -0.346 SA 
HETATM    8  H   UNL     1      -8.403  10.887  61.985  1.00  0.00     0.000 H  
ENDBRANCH   5   6
TORSDOF 1
ENDMDL
MODEL       63
REMARK 921   NORMALIZED FREE ENERGY PREDICTED BY IDOCK:   -2.22 KCAL/MOL
REMARK 922        TOTAL FREE ENERGY PREDICTED BY IDOCK:   -2.39 KCAL/MOL
REMARK 923 INTER-LIGAND FREE ENERGY PREDICTED BY IDOCK:   -2.38 KCAL/MOL
REMARK 924 INTRA-LIGAND FREE ENERGY PREDICTED BY IDOCK:   -0.01 KCAL/MOL
REMARK 927      BINDING AFFINITY PREDICTED BY RF-SCORE:    0.00 PKD
ROOT
HETATM    1  O   UNL     1     -12.039  11.828  67.909  1.00  0.00    -0.592 OA 
HETATM    2  S   UNL     1     -10.982  10.820  68.597  1.00  0.00    -0.261 S  
HETATM    3  O   UNL     1      -9.766  11.568  68.812  1.00  0.00    -0.196 OA 
HETATM    4  O   UNL     1     -11.009   9.601  67.824  1.00  0.00    -0.260 OA 
HETATM    5  C   UNL     1     -11.831  10.583  70.147  1.00  0.00    -0.320 C  
ENDROOT
BRANCH   5   6
HETATM    6  C   UNL     1     -11.017   9.659  71.030  1.00  0.00    -0.361 C  
HETATM    7  S   UNL     1     -12.109   8.564  71.989  1.00  0.00    -0.390 SA 
HETATM    8  H   UNL     1     -11.363   7.715  72.800  1.00  0.00     0.000 H  
ENDBRANCH   5   6
TORSDOF 1
ENDMDL
MODEL       64
REMARK 921   NORMALIZED FREE ENERGY PREDICTED BY IDOCK:   -2.20 KCAL/MOL
REMARK 922        TOTAL FREE ENERGY PREDICTED BY IDOCK:   -2.37 KCAL/MOL
REMARK 923 INTER-LIGAND FREE ENERGY PREDICTED BY IDOCK:   -2.34 KCAL/MOL
REMARK 924 INTRA-LIGAND FREE ENERGY PREDICTED BY IDOCK:   -0.04 KCAL/MOL
REMARK 927      BINDING AFFINITY PREDICTED BY RF-SCORE:    0.00 PKD
ROOT
HETATM    1  O   UNL     1      -9.881  20.552  67.460  1.00  0.00    -0.433 OA 
HETATM    2  S   UNL     1      -8.400  20.051  67.057  1.00  0.00    -0.332 S  
HETATM    3  O   UNL     1      -7.489  21.121  67.385  1.00  0.00    -0.406 OA 
HETATM    4  O   UNL     1      -8.498  19.504  65.723  1.00  0.00    -0.418 OA 
HETATM    5  C   UNL     1      -8.245  18.733  68.249  1.00  0.00    -0.325 C  
ENDROOT
BRANCH   5   6
HETATM    6  C   UNL     1      -6.887  18.078  68.101  1.00  0.00    -0.210 C  
HETATM    7  S   UNL     1      -7.026  16.517  67.177  1.00  0.00    -0.213 SA 
HETATM    8  H   UNL     1      -5.779  15.916  67.041  1.00  0.00     0.000 H  
ENDBRANCH   5   6
TORSDOF 1
ENDMDL
MODEL       65
REMARK 921   NORMALIZED FREE ENERGY PREDICTED BY IDOCK:   -2.19 KCAL/MOL
REMARK 922        TOTAL FREE ENERGY PREDICTED BY IDOCK:   -2.36 KCAL/MOL
REMARK 923 INTER-LIGAND FREE ENERGY PREDICTED BY IDOCK:   -2.32 KCAL/MOL
REMARK 924 INTRA-LIGAND FREE ENERGY PREDICTED BY IDOCK:   -0.04 KCAL/MOL
REMARK 927      BINDING AFFINITY PREDICTED BY RF-SCORE:    0.00 PKD
ROOT
HETATM    1  O   UNL     1     -12.956  11.388  72.047  1.00  0.00    -0.442 OA 
HETATM    2  S   UNL     1     -12.793  10.158  71.013  1.00  0.00    -0.379 S  
HETATM    3  O   UNL     1     -12.521  10.730  69.717  1.00  0.00    -0.309 OA 
HETATM    4  O   UNL     1     -13.910   9.272  71.246  1.00  0.00    -0.323 OA 
HETATM    5  C   UNL     1     -11.302   9.453  71.691  1.00  0.00    -0.382 C  
ENDROOT
BRANCH   5   6
HETATM    6  C   UNL     1     -10.895   8.248  70.869  1.00  0.00    -0.230 C  
HETATM    7  S   UNL     1     -11.083   6.718  71.837  1.00  0.00    -0.258 SA 
HETATM    8  H   UNL     1     -10.710   5.612  71.082  1.00  0.00     0.000 H  
ENDBRANCH   5   6
TORSDOF 1
ENDMDL
MODEL       66
REMARK 921   NORMALIZED FREE ENERGY PREDICTED BY IDOCK:   -2.18 KCAL/MOL
REMARK 922        TOTAL FREE ENERGY PREDICTED BY IDOCK:   -2.34 KCAL/MOL
REMARK 923 INTER-LIGAND FREE ENERGY PREDICTED BY IDOCK:   -2.33 KCAL/MOL
REMARK 924 INTRA-LIGAND FREE ENERGY PREDICTED BY IDOCK:   -0.01 KCAL/MOL
REMARK 927      BINDING AFFINITY PREDICTED BY RF-SCORE:    0.00 PKD
ROOT
HETATM    1  O   UNL     1      -9.331  18.063  65.862  1.00  0.00    -0.520 OA 
HETATM    2  S   UNL     1      -9.780  17.458  67.290  1.00  0.00    -0.276 S  
HETATM    3  O   UNL     1     -10.781  18.347  67.829  1.00  0.00    -0.414 OA 
HETATM    4  O   UNL     1      -8.565  17.142  68.005  1.00  0.00    -0.215 OA 
HETATM    5  C   UNL     1     -10.550  15.961  66.699  1.00  0.00    -0.305 C  
ENDROOT
BRANCH   5   6
HETATM    6  C   UNL     1     -11.098  15.180  67.875  1.00  0.00    -0.321 C  
HETATM    7  S   UNL     1     -11.073  13.394  67.525  1.00  0.00    -0.283 SA 
HETATM    8  H   UNL     1     -11.577  12.676  68.605  1.00  0.00     0.000 H  
ENDBRANCH   5   6
TORSDOF 1
ENDMDL
MODEL       67
REMARK 921   NORMALIZED FREE ENERGY PREDICTED BY IDOCK:   -2.17 KCAL/MOL
REMARK 922        TOTAL FREE ENERGY PREDICTED BY IDOCK:   -2.34 KCAL/MOL
REMARK 923 INTER-LIGAND FREE ENERGY PREDICTED BY IDOCK:   -2.30 KCAL/MOL
REMARK 924 INTRA-LIGAND FREE ENERGY PREDICTED BY IDOCK:   -0.04 KCAL/MOL
REMARK 927      BINDING AFFINITY PREDICTED BY RF-SCORE:    0.00 PKD
ROOT
HETATM    1  O   UNL     1     -10.956  12.881  63.671  1.00  0.00    -0.401 OA 
HETATM    2  S   UNL     1     -11.008  12.220  65.143  1.00  0.00    -0.313 S  
HETATM    3  O   UNL     1     -10.315  10.956  65.061  1.00  0.00    -0.285 OA 
HETATM    4  O   UNL     1     -12.376  12.320  65.593  1.00  0.00    -0.619 OA 
HETATM    5  C   UNL     1      -9.993  13.415  65.993  1.00  0.00    -0.293 C  
ENDROOT
BRANCH   5   6
HETATM    6  C   UNL     1      -9.852  13.012  67.447  1.00  0.00    -0.215 C  
HETATM    7  S   UNL     1      -8.228  12.248  67.745  1.00  0.00    -0.174 SA 
HETATM    8  H   UNL     1      -8.099  11.878  69.080  1.00  0.00     0.000 H  
ENDBRANCH   5   6
TORSDOF 1
ENDMDL
MODEL       68
REMARK 921   NORMALIZED FREE ENERGY PREDICTED BY IDOCK:   -2.17 KCAL/MOL
REMARK 922        TOTAL FREE ENERGY PREDICTED BY IDOCK:   -2.33 KCAL/MOL
REMARK 923 INTER-LIGAND FREE ENERGY PREDICTED BY IDOCK:   -2.30 KCAL/MOL
REMARK 924 INTRA-LIGAND FREE ENERGY PREDICTED BY IDOCK:   -0.03 KCAL/MOL
REMARK 927      BINDING AFFINITY PREDICTED BY RF-SCORE:    0.00 PKD
ROOT
HETATM    1  O   UNL     1     -10.907  18.668  67.214  1.00  0.00    -0.426 OA 
HETATM    2  S   UNL     1      -9.312  18.418  67.207  1.00  0.00    -0.274 S  
HETATM    3  O   UNL     1      -9.080  17.201  66.468  1.00  0.00    -0.246 OA 
HETATM    4  O   UNL     1      -8.861  18.591  68.568  1.00  0.00    -0.320 OA 
HETATM    5  C   UNL     1      -8.839  19.827  66.222  1.00  0.00    -0.370 C  
ENDROOT
BRANCH   5   6
HETATM    6  C   UNL     1      -7.336  19.828  66.034  1.00  0.00    -0.307 C  
HETATM    7  S   UNL     1      -6.544  20.974  67.205  1.00  0.00    -0.360 SA 
HETATM    8  H   UNL     1      -5.165  20.975  67.032  1.00  0.00     0.000 H  
ENDBRANCH   5   6
TORSDOF 1
ENDMDL
MODEL       69
REMARK 921   NORMALIZED FREE ENERGY PREDICTED BY IDOCK:   -2.15 KCAL/MOL
REMARK 922        TOTAL FREE ENERGY PREDICTED BY IDOCK:   -2.31 KCAL/MOL
REMARK 923 INTER-LIGAND FREE ENERGY PREDICTED BY IDOCK:   -2.27 KCAL/MOL
REMARK 924 INTRA-LIGAND FREE ENERGY PREDICTED BY IDOCK:   -0.04 KCAL/MOL
REMARK 927      BINDING AFFINITY PREDICTED BY RF-SCORE:    0.00 PKD
ROOT
HETATM    1  O   UNL     1      -7.593  17.484  65.685  1.00  0.00    -0.480 OA 
HETATM    2  S   UNL     1      -8.077  18.672  66.665  1.00  0.00    -0.279 S  
HETATM    3  O   UNL     1      -8.497  18.054  67.900  1.00  0.00    -0.243 OA 
HETATM    4  O   UNL     1      -8.955  19.516  65.890  1.00  0.00    -0.406 OA 
HETATM    5  C   UNL     1      -6.500  19.472  66.892  1.00  0.00    -0.192 C  
ENDROOT
BRANCH   5   6
HETATM    6  C   UNL     1      -6.665  20.655  67.823  1.00  0.00    -0.328 C  
HETATM    7  S   UNL     1      -6.009  20.267  69.475  1.00  0.00    -0.343 SA 
HETATM    8  H   UNL     1      -6.160  21.354  70.330  1.00  0.00     0.000 H  
ENDBRANCH   5   6
TORSDOF 1
ENDMDL
MODEL       70
REMARK 921   NORMALIZED FREE ENERGY PREDICTED BY IDOCK:   -2.12 KCAL/MOL
REMARK 922        TOTAL FREE ENERGY PREDICTED BY IDOCK:   -2.28 KCAL/MOL
REMARK 923 INTER-LIGAND FREE ENERGY PREDICTED BY IDOCK:   -2.24 KCAL/MOL
REMARK 924 INTRA-LIGAND FREE ENERGY PREDICTED BY IDOCK:   -0.04 KCAL/MOL
REMARK 927      BINDING AFFINITY PREDICTED BY RF-SCORE:    0.00 PKD
ROOT
HETATM    1  O   UNL     1     -10.164  15.437  70.154  1.00  0.00    -0.292 OA 
HETATM    2  S   UNL     1     -11.452  14.787  69.430  1.00  0.00    -0.319 S  
HETATM    3  O   UNL     1     -12.019  15.808  68.582  1.00  0.00    -0.344 OA 
HETATM    4  O   UNL     1     -12.219  14.129  70.461  1.00  0.00    -0.315 OA 
HETATM    5  C   UNL     1     -10.598  13.577  68.435  1.00  0.00    -0.248 C  
ENDROOT
BRANCH   5   6
HETATM    6  C   UNL     1     -11.605  12.807  67.605  1.00  0.00    -0.358 C  
HETATM    7  S   UNL     1     -11.544  13.340  65.866  1.00  0.00    -0.364 SA 
HETATM    8  H   UNL     1     -12.468  12.634  65.104  1.00  0.00     0.000 H  
ENDBRANCH   5   6
TORSDOF 1
ENDMDL
MODEL       71
REMARK 921   NORMALIZED FREE ENERGY PREDICTED BY IDOCK:   -2.10 KCAL/MOL
REMARK 922        TOTAL FREE ENERGY PREDICTED BY IDOCK:   -2.27 KCAL/MOL
REMARK 923 INTER-LIGAND FREE ENERGY PREDICTED BY IDOCK:   -2.26 KCAL/MOL
REMARK 924 INTRA-LIGAND FREE ENERGY PREDICTED BY IDOCK:   -0.01 KCAL/MOL
REMARK 927      BINDING AFFINITY PREDICTED BY RF-SCORE:    0.00 PKD
ROOT
HETATM    1  O   UNL     1     -12.322  11.054  68.742  1.00  0.00    -0.533 OA 
HETATM    2  S   UNL     1     -11.288  11.576  67.617  1.00  0.00    -0.283 S  
HETATM    3  O   UNL     1     -10.361  12.465  68.277  1.00  0.00    -0.215 OA 
HETATM    4  O   UNL     1     -12.084  11.995  66.487  1.00  0.00    -0.617 OA 
HETATM    5  C   UNL     1     -10.492  10.020  67.263  1.00  0.00    -0.254 C  
ENDROOT
BRANCH   5   6
HETATM    6  C   UNL     1      -9.420  10.231  66.213  1.00  0.00    -0.177 C  
HETATM    7  S   UNL     1      -8.759   8.634  65.643  1.00  0.00    -0.182 SA 
HETATM    8  H   UNL     1      -7.775   8.827  64.680  1.00  0.00     0.000 H  
ENDBRANCH   5   6
TORSDOF 1
ENDMDL
MODEL       72
REMARK 921   NORMALIZED FREE ENERGY PREDICTED BY IDOCK:   -2.10 KCAL/MOL
REMARK 922        TOTAL FREE ENERGY PREDICTED BY IDOCK:   -2.27 KCAL/MOL
REMARK 923 INTER-LIGAND FREE ENERGY PREDICTED BY IDOCK:   -2.24 KCAL/MOL
REMARK 924 INTRA-LIGAND FREE ENERGY PREDICTED BY IDOCK:   -0.03 KCAL/MOL
REMARK 927      BINDING AFFINITY PREDICTED BY RF-SCORE:    0.00 PKD
ROOT
HETATM    1  O   UNL     1      -9.620   7.031  71.116  1.00  0.00    -0.166 OA 
HETATM    2  S   UNL     1     -11.015   7.578  70.514  1.00  0.00    -0.254 S  
HETATM    3  O   UNL     1     -11.787   6.423  70.124  1.00  0.00    -0.409 OA 
HETATM    4  O   UNL     1     -10.679   8.629  69.582  1.00  0.00    -0.229 OA 
HETATM    5  C   UNL     1     -11.681   8.277  72.013  1.00  0.00    -0.346 C  
ENDROOT
BRANCH   5   6
HETATM    6  C   UNL     1     -13.048   8.865  71.730  1.00  0.00    -0.374 C  
HETATM    7  S   UNL     1     -12.936  10.666  71.498  1.00  0.00    -0.460 SA 
HETATM    8  H   UNL     1     -14.191  11.206  71.238  1.00  0.00     0.000 H  
ENDBRANCH   5   6
TORSDOF 1
ENDMDL
MODEL       73
REMARK 921   NORMALIZED FREE ENERGY PREDICTED BY IDOCK:   -2.10 KCAL/MOL
REMARK 922        TOTAL FREE ENERGY PREDICTED BY IDOCK:   -2.26 KCAL/MOL
REMARK 923 INTER-LIGAND FREE ENERGY PREDICTED BY IDOCK:   -2.24 KCAL/MOL
REMARK 924 INTRA-LIGAND FREE ENERGY PREDICTED BY IDOCK:   -0.02 KCAL/MOL
REMARK 927      BINDING AFFINITY PREDICTED BY RF-SCORE:    0.00 PKD
ROOT
HETATM    1  O   UNL     1     -11.952  16.015  68.874  1.00  0.00    -0.348 OA 
HETATM    2  S   UNL     1     -10.480  16.223  68.247  1.00  0.00    -0.298 S  
HETATM    3  O   UNL     1     -10.567  15.884  66.847  1.00  0.00    -0.311 OA 
HETATM    4  O   UNL     1      -9.553  15.570  69.141  1.00  0.00    -0.217 OA 
HETATM    5  C   UNL     1     -10.371  17.993  68.437  1.00  0.00    -0.368 C  
ENDROOT
BRANCH   5   6
HETATM    6  C   UNL     1      -9.045  18.478  67.889  1.00  0.00    -0.290 C  
HETATM    7  S   UNL     1      -9.297  19.857  66.728  1.00  0.00    -0.409 SA 
HETATM    8  H   UNL     1      -8.079  20.302  66.225  1.00  0.00     0.000 H  
ENDBRANCH   5   6
TORSDOF 1
ENDMDL
MODEL       74
REMARK 921   NORMALIZED FREE ENERGY PREDICTED BY IDOCK:   -2.09 KCAL/MOL
REMARK 922        TOTAL FREE ENERGY PREDICTED BY IDOCK:   -2.26 KCAL/MOL
REMARK 923 INTER-LIGAND FREE ENERGY PREDICTED BY IDOCK:   -2.25 KCAL/MOL
REMARK 924 INTRA-LIGAND FREE ENERGY PREDICTED BY IDOCK:   -0.01 KCAL/MOL
REMARK 927      BINDING AFFINITY PREDICTED BY RF-SCORE:    0.00 PKD
ROOT
HETATM    1  O   UNL     1     -11.616   6.361  69.642  1.00  0.00    -0.417 OA 
HETATM    2  S   UNL     1     -11.845   7.303  70.933  1.00  0.00    -0.298 S  
HETATM    3  O   UNL     1     -13.148   6.981  71.463  1.00  0.00    -0.380 OA 
HETATM    4  O   UNL     1     -11.485   8.644  70.535  1.00  0.00    -0.260 OA 
HETATM    5  C   UNL     1     -10.576   6.613  71.978  1.00  0.00    -0.211 C  
ENDROOT
BRANCH   5   6
HETATM    6  C   UNL     1     -10.582   7.325  73.315  1.00  0.00    -0.382 C  
HETATM    7  S   UNL     1      -9.550   6.436  74.520  1.00  0.00    -0.301 SA 
HETATM    8  H   UNL     1      -9.555   7.090  75.747  1.00  0.00     0.000 H  
ENDBRANCH   5   6
TORSDOF 1
ENDMDL
MODEL       75
REMARK 921   NORMALIZED FREE ENERGY PREDICTED BY IDOCK:   -2.09 KCAL/MOL
REMARK 922        TOTAL FREE ENERGY PREDICTED BY IDOCK:   -2.25 KCAL/MOL
REMARK 923 INTER-LIGAND FREE ENERGY PREDICTED BY IDOCK:   -2.23 KCAL/MOL
REMARK 924 INTRA-LIGAND FREE ENERGY PREDICTED BY IDOCK:   -0.02 KCAL/MOL
REMARK 927      BINDING AFFINITY PREDICTED BY RF-SCORE:    0.00 PKD
ROOT
HETATM    1  O   UNL     1     -13.201  15.260  70.655  1.00  0.00    -0.394 OA 
HETATM    2  S   UNL     1     -11.794  15.125  69.875  1.00  0.00    -0.354 S  
HETATM    3  O   UNL     1     -10.752  15.202  70.871  1.00  0.00    -0.212 OA 
HETATM    4  O   UNL     1     -11.855  16.031  68.753  1.00  0.00    -0.375 OA 
HETATM    5  C   UNL     1     -11.976  13.441  69.315  1.00  0.00    -0.317 C  
ENDROOT
BRANCH   5   6
HETATM    6  C   UNL     1     -10.739  13.032  68.541  1.00  0.00    -0.255 C  
HETATM    7  S   UNL     1     -11.189  12.433  66.883  1.00  0.00    -0.325 SA 
HETATM    8  H   UNL     1     -10.054  12.058  66.173  1.00  0.00     0.000 H  
ENDBRANCH   5   6
TORSDOF 1
ENDMDL
MODEL       76
REMARK 921   NORMALIZED FREE ENERGY PREDICTED BY IDOCK:   -2.09 KCAL/MOL
REMARK 922        TOTAL FREE ENERGY PREDICTED BY IDOCK:   -2.25 KCAL/MOL
REMARK 923 INTER-LIGAND FREE ENERGY PREDICTED BY IDOCK:   -2.21 KCAL/MOL
REMARK 924 INTRA-LIGAND FREE ENERGY PREDICTED BY IDOCK:   -0.04 KCAL/MOL
REMARK 927      BINDING AFFINITY PREDICTED BY RF-SCORE:    0.00 PKD
ROOT
HETATM    1  O   UNL     1     -13.474   9.123  72.670  1.00  0.00    -0.463 OA 
HETATM    2  S   UNL     1     -12.505   8.341  71.643  1.00  0.00    -0.329 S  
HETATM    3  O   UNL     1     -11.959   9.329  70.743  1.00  0.00    -0.276 OA 
HETATM    4  O   UNL     1     -13.244   7.193  71.170  1.00  0.00    -0.347 OA 
HETATM    5  C   UNL     1     -11.258   7.828  72.811  1.00  0.00    -0.398 C  
ENDROOT
BRANCH   5   6
HETATM    6  C   UNL     1     -10.173   7.060  72.084  1.00  0.00    -0.186 C  
HETATM    7  S   UNL     1     -10.367   5.271  72.350  1.00  0.00    -0.215 SA 
HETATM    8  H   UNL     1      -9.371   4.566  71.683  1.00  0.00     0.000 H  
ENDBRANCH   5   6
TORSDOF 1
ENDMDL
MODEL       77
REMARK 921   NORMALIZED FREE ENERGY PREDICTED BY IDOCK:   -2.08 KCAL/MOL
REMARK 922        TOTAL FREE ENERGY PREDICTED BY IDOCK:   -2.24 KCAL/MOL
REMARK 923 INTER-LIGAND FREE ENERGY PREDICTED BY IDOCK:   -2.22 KCAL/MOL
REMARK 924 INTRA-LIGAND FREE ENERGY PREDICTED BY IDOCK:   -0.02 KCAL/MOL
REMARK 927      BINDING AFFINITY PREDICTED BY RF-SCORE:    0.00 PKD
ROOT
HETATM    1  O   UNL     1     -10.462   9.944  66.808  1.00  0.00    -0.230 OA 
HETATM    2  S   UNL     1     -11.142  11.399  66.968  1.00  0.00    -0.282 S  
HETATM    3  O   UNL     1     -12.128  11.291  68.016  1.00  0.00    -0.638 OA 
HETATM    4  O   UNL     1     -11.479  11.846  65.636  1.00  0.00    -0.322 OA 
HETATM    5  C   UNL     1      -9.712  12.283  67.567  1.00  0.00    -0.190 C  
ENDROOT
BRANCH   5   6
HETATM    6  C   UNL     1     -10.087  13.727  67.829  1.00  0.00    -0.245 C  
HETATM    7  S   UNL     1      -9.606  14.779  66.424  1.00  0.00    -0.313 SA 
HETATM    8  H   UNL     1      -9.950  16.104  66.665  1.00  0.00     0.000 H  
ENDBRANCH   5   6
TORSDOF 1
ENDMDL
MODEL       78
REMARK 921   NORMALIZED FREE ENERGY PREDICTED BY IDOCK:   -2.07 KCAL/MOL
REMARK 922        TOTAL FREE ENERGY PREDICTED BY IDOCK:   -2.23 KCAL/MOL
REMARK 923 INTER-LIGAND FREE ENERGY PREDICTED BY IDOCK:   -2.22 KCAL/MOL
REMARK 924 INTRA-LIGAND FREE ENERGY PREDICTED BY IDOCK:   -0.01 KCAL/MOL
REMARK 927      BINDING AFFINITY PREDICTED BY RF-SCORE:    0.00 PKD
ROOT
HETATM    1  O   UNL     1     -11.251   8.011  72.849  1.00  0.00    -0.401 OA 
HETATM    2  S   UNL     1     -10.690   8.891  71.616  1.00  0.00    -0.367 S  
HETATM    3  O   UNL     1      -9.295   9.147  71.883  1.00  0.00    -0.349 OA 
HETATM    4  O   UNL     1     -11.641   9.956  71.402  1.00  0.00    -0.374 OA 
HETATM    5  C   UNL     1     -10.848   7.661  70.334  1.00  0.00    -0.244 C  
ENDROOT
BRANCH   5   6
HETATM    6  C   UNL     1     -10.354   8.235  69.023  1.00  0.00    -0.221 C  
HETATM    7  S   UNL     1     -10.573   7.033  67.674  1.00  0.00    -0.268 SA 
HETATM    8  H   UNL     1     -10.120   7.560  66.470  1.00  0.00     0.000 H  
ENDBRANCH   5   6
TORSDOF 1
ENDMDL
MODEL       79
REMARK 921   NORMALIZED FREE ENERGY PREDICTED BY IDOCK:   -2.05 KCAL/MOL
REMARK 922        TOTAL FREE ENERGY PREDICTED BY IDOCK:   -2.21 KCAL/MOL
REMARK 923 INTER-LIGAND FREE ENERGY PREDICTED BY IDOCK:   -2.17 KCAL/MOL
REMARK 924 INTRA-LIGAND FREE ENERGY PREDICTED BY IDOCK:   -0.04 KCAL/MOL
REMARK 927      BINDING AFFINITY PREDICTED BY RF-SCORE:    0.00 PKD
ROOT
HETATM    1  O   UNL     1      -9.863   7.471  73.736  1.00  0.00    -0.296 OA 
HETATM    2  S   UNL     1     -10.116   8.002  72.233  1.00  0.00    -0.273 S  
HETATM    3  O   UNL     1     -10.003   6.860  71.358  1.00  0.00    -0.182 OA 
HETATM    4  O   UNL     1      -9.300   9.182  72.068  1.00  0.00    -0.337 OA 
HETATM    5  C   UNL     1     -11.830   8.463  72.412  1.00  0.00    -0.384 C  
ENDROOT
BRANCH   5   6
HETATM    6  C   UNL     1     -12.349   8.995  71.093  1.00  0.00    -0.251 C  
HETATM    7  S   UNL     1     -12.657  10.785  71.200  1.00  0.00    -0.447 SA 
HETATM    8  H   UNL     1     -13.133  11.274  69.989  1.00  0.00     0.000 H  
ENDBRANCH   5   6
TORSDOF 1
ENDMDL
MODEL       80
REMARK 921   NORMALIZED FREE ENERGY PREDICTED BY IDOCK:   -2.05 KCAL/MOL
REMARK 922        TOTAL FREE ENERGY PREDICTED BY IDOCK:   -2.21 KCAL/MOL
REMARK 923 INTER-LIGAND FREE ENERGY PREDICTED BY IDOCK:   -2.17 KCAL/MOL
REMARK 924 INTRA-LIGAND FREE ENERGY PREDICTED BY IDOCK:   -0.04 KCAL/MOL
REMARK 927      BINDING AFFINITY PREDICTED BY RF-SCORE:    0.00 PKD
ROOT
HETATM    1  O   UNL     1     -10.318  19.110  68.605  1.00  0.00    -0.373 OA 
HETATM    2  S   UNL     1      -9.820  17.654  68.118  1.00  0.00    -0.338 S  
HETATM    3  O   UNL     1      -8.434  17.532  68.502  1.00  0.00    -0.270 OA 
HETATM    4  O   UNL     1     -10.255  17.505  66.749  1.00  0.00    -0.306 OA 
HETATM    5  C   UNL     1     -10.838  16.664  69.196  1.00  0.00    -0.315 C  
ENDROOT
BRANCH   5   6
HETATM    6  C   UNL     1     -10.548  15.197  68.955  1.00  0.00    -0.245 C  
HETATM    7  S   UNL     1     -11.854  14.445  67.935  1.00  0.00    -0.321 SA 
HETATM    8  H   UNL     1     -11.588  13.098  67.713  1.00  0.00     0.000 H  
ENDBRANCH   5   6
TORSDOF 1
ENDMDL
MODEL       81
REMARK 921   NORMALIZED FREE ENERGY PREDICTED BY IDOCK:   -2.04 KCAL/MOL
REMARK 922        TOTAL FREE ENERGY PREDICTED BY IDOCK:   -2.20 KCAL/MOL
REMARK 923 INTER-LIGAND FREE ENERGY PREDICTED BY IDOCK:   -2.19 KCAL/MOL
REMARK 924 INTRA-LIGAND FREE ENERGY PREDICTED BY IDOCK:   -0.01 KCAL/MOL
REMARK 927      BINDING AFFINITY PREDICTED BY RF-SCORE:    0.00 PKD
ROOT
HETATM    1  O   UNL     1     -11.904  15.511  67.969  1.00  0.00    -0.277 OA 
HETATM    2  S   UNL     1     -11.463  14.337  66.953  1.00  0.00    -0.379 S  
HETATM    3  O   UNL     1     -10.124  14.644  66.510  1.00  0.00    -0.263 OA 
HETATM    4  O   UNL     1     -12.558  14.157  66.029  1.00  0.00    -0.478 OA 
HETATM    5  C   UNL     1     -11.421  12.992  68.123  1.00  0.00    -0.319 C  
ENDROOT
BRANCH   5   6
HETATM    6  C   UNL     1     -11.000  11.721  67.415  1.00  0.00    -0.262 C  
HETATM    7  S   UNL     1     -11.149  10.288  68.526  1.00  0.00    -0.215 SA 
HETATM    8  H   UNL     1     -10.762   9.121  67.875  1.00  0.00     0.000 H  
ENDBRANCH   5   6
TORSDOF 1
ENDMDL
MODEL       82
REMARK 921   NORMALIZED FREE ENERGY PREDICTED BY IDOCK:   -2.03 KCAL/MOL
REMARK 922        TOTAL FREE ENERGY PREDICTED BY IDOCK:   -2.19 KCAL/MOL
REMARK 923 INTER-LIGAND FREE ENERGY PREDICTED BY IDOCK:   -2.15 KCAL/MOL
REMARK 924 INTRA-LIGAND FREE ENERGY PREDICTED BY IDOCK:   -0.04 KCAL/MOL
REMARK 927      BINDING AFFINITY PREDICTED BY RF-SCORE:    0.00 PKD
ROOT
HETATM    1  O   UNL     1      -8.466   8.584  72.920  1.00  0.00    -0.350 OA 
HETATM    2  S   UNL     1      -9.940   7.980  72.656  1.00  0.00    -0.305 S  
HETATM    3  O   UNL     1     -10.697   9.001  71.973  1.00  0.00    -0.349 OA 
HETATM    4  O   UNL     1     -10.378   7.401  73.904  1.00  0.00    -0.317 OA 
HETATM    5  C   UNL     1      -9.484   6.692  71.510  1.00  0.00    -0.156 C  
ENDROOT
BRANCH   5   6
HETATM    6  C   UNL     1     -10.727   5.950  71.066  1.00  0.00    -0.267 C  
HETATM    7  S   UNL     1     -11.121   6.338  69.332  1.00  0.00    -0.407 SA 
HETATM    8  H   UNL     1     -12.263   5.656  68.925  1.00  0.00     0.000 H  
ENDBRANCH   5   6
TORSDOF 1
ENDMDL
MODEL       83
REMARK 921   NORMALIZED FREE ENERGY PREDICTED BY IDOCK:   -2.03 KCAL/MOL
REMARK 922        TOTAL FREE ENERGY PREDICTED BY IDOCK:   -2.19 KCAL/MOL
REMARK 923 INTER-LIGAND FREE ENERGY PREDICTED BY IDOCK:   -2.15 KCAL/MOL
REMARK 924 INTRA-LIGAND FREE ENERGY PREDICTED BY IDOCK:   -0.04 KCAL/MOL
REMARK 927      BINDING AFFINITY PREDICTED BY RF-SCORE:    0.00 PKD
ROOT
HETATM    1  O   UNL     1     -13.461   7.217  71.414  1.00  0.00    -0.388 OA 
HETATM    2  S   UNL     1     -11.872   7.456  71.570  1.00  0.00    -0.313 S  
HETATM    3  O   UNL     1     -11.700   8.565  72.477  1.00  0.00    -0.380 OA 
HETATM    4  O   UNL     1     -11.321   7.460  70.235  1.00  0.00    -0.274 OA 
HETATM    5  C   UNL     1     -11.467   5.928  72.396  1.00  0.00    -0.306 C  
ENDROOT
BRANCH   5   6
HETATM    6  C   UNL     1      -9.982   5.894  72.692  1.00  0.00    -0.176 C  
HETATM    7  S   UNL     1      -9.676   6.167  74.465  1.00  0.00    -0.311 SA 
HETATM    8  H   UNL     1      -8.313   6.137  74.738  1.00  0.00     0.000 H  
ENDBRANCH   5   6
TORSDOF 1
ENDMDL
MODEL       84
REMARK 921   NORMALIZED FREE ENERGY PREDICTED BY IDOCK:   -2.02 KCAL/MOL
REMARK 922        TOTAL FREE ENERGY PREDICTED BY IDOCK:   -2.18 KCAL/MOL
REMARK 923 INTER-LIGAND FREE ENERGY PREDICTED BY IDOCK:   -2.14 KCAL/MOL
REMARK 924 INTRA-LIGAND FREE ENERGY PREDICTED BY IDOCK:   -0.04 KCAL/MOL
REMARK 927      BINDING AFFINITY PREDICTED BY RF-SCORE:    0.00 PKD
ROOT
HETATM    1  O   UNL     1      -8.234   8.705  72.643  1.00  0.00    -0.372 OA 
HETATM    2  S   UNL     1      -9.406   8.358  71.588  1.00  0.00    -0.239 S  
HETATM    3  O   UNL     1      -9.094   7.067  71.022  1.00  0.00    -0.151 OA 
HETATM    4  O   UNL     1      -9.587   9.533  70.769  1.00  0.00    -0.259 OA 
HETATM    5  C   UNL     1     -10.753   8.204  72.747  1.00  0.00    -0.321 C  
ENDROOT
BRANCH   5   6
HETATM    6  C   UNL     1     -12.021   7.847  71.999  1.00  0.00    -0.319 C  
HETATM    7  S   UNL     1     -13.215   9.218  72.072  1.00  0.00    -0.479 SA 
HETATM    8  H   UNL     1     -14.380   8.890  71.386  1.00  0.00     0.000 H  
ENDBRANCH   5   6
TORSDOF 1
ENDMDL
MODEL       85
REMARK 921   NORMALIZED FREE ENERGY PREDICTED BY IDOCK:   -2.00 KCAL/MOL
REMARK 922        TOTAL FREE ENERGY PREDICTED BY IDOCK:   -2.16 KCAL/MOL
REMARK 923 INTER-LIGAND FREE ENERGY PREDICTED BY IDOCK:   -2.14 KCAL/MOL
REMARK 924 INTRA-LIGAND FREE ENERGY PREDICTED BY IDOCK:   -0.02 KCAL/MOL
REMARK 927      BINDING AFFINITY PREDICTED BY RF-SCORE:    0.00 PKD
ROOT
HETATM    1  O   UNL     1      -9.601  14.173  68.063  1.00  0.00    -0.205 OA 
HETATM    2  S   UNL     1     -10.423  15.470  68.562  1.00  0.00    -0.245 S  
HETATM    3  O   UNL     1     -10.205  15.587  69.984  1.00  0.00    -0.301 OA 
HETATM    4  O   UNL     1     -11.746  15.366  67.992  1.00  0.00    -0.336 OA 
HETATM    5  C   UNL     1      -9.481  16.714  67.698  1.00  0.00    -0.226 C  
ENDROOT
BRANCH   5   6
HETATM    6  C   UNL     1     -10.045  18.084  68.016  1.00  0.00    -0.365 C  
HETATM    7  S   UNL     1     -10.327  19.030  66.488  1.00  0.00    -0.464 SA 
HETATM    8  H   UNL     1     -10.845  20.287  66.779  1.00  0.00     0.000 H  
ENDBRANCH   5   6
TORSDOF 1
ENDMDL
MODEL       86
REMARK 921   NORMALIZED FREE ENERGY PREDICTED BY IDOCK:   -2.00 KCAL/MOL
REMARK 922        TOTAL FREE ENERGY PREDICTED BY IDOCK:   -2.16 KCAL/MOL
REMARK 923 INTER-LIGAND FREE ENERGY PREDICTED BY IDOCK:   -2.15 KCAL/MOL
REMARK 924 INTRA-LIGAND FREE ENERGY PREDICTED BY IDOCK:   -0.01 KCAL/MOL
REMARK 927      BINDING AFFINITY PREDICTED BY RF-SCORE:    0.00 PKD
ROOT
HETATM    1  O   UNL     1     -12.348  13.280  66.043  1.00  0.00    -0.420 OA 
HETATM    2  S   UNL     1     -11.312  14.471  66.384  1.00  0.00    -0.352 S  
HETATM    3  O   UNL     1     -11.769  15.089  67.606  1.00  0.00    -0.342 OA 
HETATM    4  O   UNL     1     -11.128  15.221  65.164  1.00  0.00    -0.370 OA 
HETATM    5  C   UNL     1      -9.874  13.469  66.711  1.00  0.00    -0.267 C  
ENDROOT
BRANCH   5   6
HETATM    6  C   UNL     1      -8.712  14.364  67.091  1.00  0.00    -0.226 C  
HETATM    7  S   UNL     1      -7.354  13.385  67.802  1.00  0.00    -0.173 SA 
HETATM    8  H   UNL     1      -6.288  14.207  68.151  1.00  0.00     0.000 H  
ENDBRANCH   5   6
TORSDOF 1
ENDMDL
MODEL       87
REMARK 921   NORMALIZED FREE ENERGY PREDICTED BY IDOCK:   -1.95 KCAL/MOL
REMARK 922        TOTAL FREE ENERGY PREDICTED BY IDOCK:   -2.11 KCAL/MOL
REMARK 923 INTER-LIGAND FREE ENERGY PREDICTED BY IDOCK:   -2.08 KCAL/MOL
REMARK 924 INTRA-LIGAND FREE ENERGY PREDICTED BY IDOCK:   -0.03 KCAL/MOL
REMARK 927      BINDING AFFINITY PREDICTED BY RF-SCORE:    0.00 PKD
ROOT
HETATM    1  O   UNL     1     -11.423   6.430  69.109  1.00  0.00    -0.364 OA 
HETATM    2  S   UNL     1     -10.666   7.350  70.199  1.00  0.00    -0.244 S  
HETATM    3  O   UNL     1     -10.870   8.723  69.804  1.00  0.00    -0.235 OA 
HETATM    4  O   UNL     1      -9.348   6.786  70.372  1.00  0.00    -0.162 OA 
HETATM    5  C   UNL     1     -11.688   6.965  71.609  1.00  0.00    -0.304 C  
ENDROOT
BRANCH   5   6
HETATM    6  C   UNL     1     -11.194   7.739  72.814  1.00  0.00    -0.398 C  
HETATM    7  S   UNL     1     -10.166   6.681  73.878  1.00  0.00    -0.370 SA 
HETATM    8  H   UNL     1      -9.712   7.391  74.985  1.00  0.00     0.000 H  
ENDBRANCH   5   6
TORSDOF 1
ENDMDL
MODEL       88
REMARK 921   NORMALIZED FREE ENERGY PREDICTED BY IDOCK:   -1.95 KCAL/MOL
REMARK 922        TOTAL FREE ENERGY PREDICTED BY IDOCK:   -2.10 KCAL/MOL
REMARK 923 INTER-LIGAND FREE ENERGY PREDICTED BY IDOCK:   -2.07 KCAL/MOL
REMARK 924 INTRA-LIGAND FREE ENERGY PREDICTED BY IDOCK:   -0.03 KCAL/MOL
REMARK 927      BINDING AFFINITY PREDICTED BY RF-SCORE:    0.00 PKD
ROOT
HETATM    1  O   UNL     1      -8.611   8.983  63.392  1.00  0.00    -0.194 OA 
HETATM    2  S   UNL     1      -9.067  10.135  64.428  1.00  0.00    -0.267 S  
HETATM    3  O   UNL     1      -7.862  10.704  64.981  1.00  0.00    -0.100 OA 
HETATM    4  O   UNL     1     -10.099   9.560  65.258  1.00  0.00    -0.165 OA 
HETATM    5  C   UNL     1      -9.786  11.264  63.249  1.00  0.00    -0.389 C  
ENDROOT
BRANCH   5   6
HETATM    6  C   UNL     1     -10.296  12.492  63.976  1.00  0.00    -0.404 C  
HETATM    7  S   UNL     1     -12.100  12.640  63.796  1.00  0.00    -0.550 SA 
HETATM    8  H   UNL     1     -12.568  13.768  64.463  1.00  0.00     0.000 H  
ENDBRANCH   5   6
TORSDOF 1
ENDMDL
MODEL       89
REMARK 921   NORMALIZED FREE ENERGY PREDICTED BY IDOCK:   -1.94 KCAL/MOL
REMARK 922        TOTAL FREE ENERGY PREDICTED BY IDOCK:   -2.09 KCAL/MOL
REMARK 923 INTER-LIGAND FREE ENERGY PREDICTED BY IDOCK:   -2.05 KCAL/MOL
REMARK 924 INTRA-LIGAND FREE ENERGY PREDICTED BY IDOCK:   -0.04 KCAL/MOL
REMARK 927      BINDING AFFINITY PREDICTED BY RF-SCORE:    0.00 PKD
ROOT
HETATM    1  O   UNL     1     -12.815   9.571  70.975  1.00  0.00    -0.298 OA 
HETATM    2  S   UNL     1     -11.452   8.707  70.952  1.00  0.00    -0.265 S  
HETATM    3  O   UNL     1     -10.762   8.976  72.191  1.00  0.00    -0.332 OA 
HETATM    4  O   UNL     1     -10.839   8.935  69.664  1.00  0.00    -0.233 OA 
HETATM    5  C   UNL     1     -12.181   7.080  71.004  1.00  0.00    -0.374 C  
ENDROOT
BRANCH   5   6
HETATM    6  C   UNL     1     -11.084   6.036  71.012  1.00  0.00    -0.282 C  
HETATM    7  S   UNL     1     -10.870   5.345  72.682  1.00  0.00    -0.271 SA 
HETATM    8  H   UNL     1      -9.863   4.387  72.691  1.00  0.00     0.000 H  
ENDBRANCH   5   6
TORSDOF 1
ENDMDL
MODEL       90
REMARK 921   NORMALIZED FREE ENERGY PREDICTED BY IDOCK:   -1.93 KCAL/MOL
REMARK 922        TOTAL FREE ENERGY PREDICTED BY IDOCK:   -2.08 KCAL/MOL
REMARK 923 INTER-LIGAND FREE ENERGY PREDICTED BY IDOCK:   -2.04 KCAL/MOL
REMARK 924 INTRA-LIGAND FREE ENERGY PREDICTED BY IDOCK:   -0.04 KCAL/MOL
REMARK 927      BINDING AFFINITY PREDICTED BY RF-SCORE:    0.00 PKD
ROOT
HETATM    1  O   UNL     1     -10.277  15.291  66.586  1.00  0.00    -0.259 OA 
HETATM    2  S   UNL     1     -10.115  14.926  68.150  1.00  0.00    -0.225 S  
HETATM    3  O   UNL     1      -9.821  16.159  68.842  1.00  0.00    -0.217 OA 
HETATM    4  O   UNL     1      -9.242  13.778  68.219  1.00  0.00    -0.198 OA 
HETATM    5  C   UNL     1     -11.800  14.436  68.472  1.00  0.00    -0.334 C  
ENDROOT
BRANCH   5   6
HETATM    6  C   UNL     1     -11.941  14.048  69.929  1.00  0.00    -0.336 C  
HETATM    7  S   UNL     1     -12.782  15.364  70.864  1.00  0.00    -0.474 SA 
HETATM    8  H   UNL     1     -12.913  15.008  72.202  1.00  0.00     0.000 H  
ENDBRANCH   5   6
TORSDOF 1
ENDMDL
MODEL       91
REMARK 921   NORMALIZED FREE ENERGY PREDICTED BY IDOCK:   -1.90 KCAL/MOL
REMARK 922        TOTAL FREE ENERGY PREDICTED BY IDOCK:   -2.05 KCAL/MOL
REMARK 923 INTER-LIGAND FREE ENERGY PREDICTED BY IDOCK:   -2.05 KCAL/MOL
REMARK 924 INTRA-LIGAND FREE ENERGY PREDICTED BY IDOCK:   -0.01 KCAL/MOL
REMARK 927      BINDING AFFINITY PREDICTED BY RF-SCORE:    0.00 PKD
ROOT
HETATM    1  O   UNL     1     -11.625   5.486  72.543  1.00  0.00    -0.283 OA 
HETATM    2  S   UNL     1     -11.618   6.713  71.493  1.00  0.00    -0.325 S  
HETATM    3  O   UNL     1     -10.615   7.648  71.943  1.00  0.00    -0.210 OA 
HETATM    4  O   UNL     1     -12.996   7.097  71.296  1.00  0.00    -0.383 OA 
HETATM    5  C   UNL     1     -11.021   5.822  70.067  1.00  0.00    -0.311 C  
ENDROOT
BRANCH   5   6
HETATM    6  C   UNL     1     -10.895   6.774  68.895  1.00  0.00    -0.243 C  
HETATM    7  S   UNL     1     -10.542   5.860  67.362  1.00  0.00    -0.290 SA 
HETATM    8  H   UNL     1     -10.427   6.734  66.286  1.00  0.00     0.000 H  
ENDBRANCH   5   6
TORSDOF 1
ENDMDL
MODEL       92
REMARK 921   NORMALIZED FREE ENERGY PREDICTED BY IDOCK:   -1.90 KCAL/MOL
REMARK 922        TOTAL FREE ENERGY PREDICTED BY IDOCK:   -2.05 KCAL/MOL
REMARK 923 INTER-LIGAND FREE ENERGY PREDICTED BY IDOCK:   -2.01 KCAL/MOL
REMARK 924 INTRA-LIGAND FREE ENERGY PREDICTED BY IDOCK:   -0.04 KCAL/MOL
REMARK 927      BINDING AFFINITY PREDICTED BY RF-SCORE:    0.00 PKD
ROOT
HETATM    1  O   UNL     1     -11.773  14.953  67.169  1.00  0.00    -0.356 OA 
HETATM    2  S   UNL     1     -10.904  14.128  68.251  1.00  0.00    -0.255 S  
HETATM    3  O   UNL     1     -11.237  14.658  69.551  1.00  0.00    -0.251 OA 
HETATM    4  O   UNL     1      -9.547  14.099  67.756  1.00  0.00    -0.209 OA 
HETATM    5  C   UNL     1     -11.671  12.533  68.030  1.00  0.00    -0.355 C  
ENDROOT
BRANCH   5   6
HETATM    6  C   UNL     1     -11.036  11.534  68.975  1.00  0.00    -0.245 C  
HETATM    7  S   UNL     1     -12.257  10.927  70.180  1.00  0.00    -0.343 SA 
HETATM    8  H   UNL     1     -11.674  10.010  71.048  1.00  0.00     0.000 H  
ENDBRANCH   5   6
TORSDOF 1
ENDMDL
MODEL       93
REMARK 921   NORMALIZED FREE ENERGY PREDICTED BY IDOCK:   -1.90 KCAL/MOL
REMARK 922        TOTAL FREE ENERGY PREDICTED BY IDOCK:   -2.05 KCAL/MOL
REMARK 923 INTER-LIGAND FREE ENERGY PREDICTED BY IDOCK:   -2.01 KCAL/MOL
REMARK 924 INTRA-LIGAND FREE ENERGY PREDICTED BY IDOCK:   -0.04 KCAL/MOL
REMARK 927      BINDING AFFINITY PREDICTED BY RF-SCORE:    0.00 PKD
ROOT
HETATM    1  O   UNL     1      -6.794  18.696  68.676  1.00  0.00    -0.255 OA 
HETATM    2  S   UNL     1      -8.289  18.430  68.127  1.00  0.00    -0.291 S  
HETATM    3  O   UNL     1      -8.219  18.462  66.686  1.00  0.00    -0.249 OA 
HETATM    4  O   UNL     1      -9.165  19.300  68.875  1.00  0.00    -0.367 OA 
HETATM    5  C   UNL     1      -8.469  16.747  68.689  1.00  0.00    -0.259 C  
ENDROOT
BRANCH   5   6
HETATM    6  C   UNL     1      -9.827  16.220  68.274  1.00  0.00    -0.227 C  
HETATM    7  S   UNL     1     -10.903  16.007  69.726  1.00  0.00    -0.360 SA 
HETATM    8  H   UNL     1     -12.150  15.524  69.345  1.00  0.00     0.000 H  
ENDBRANCH   5   6
TORSDOF 1
ENDMDL
MODEL       94
REMARK 921   NORMALIZED FREE ENERGY PREDICTED BY IDOCK:   -1.88 KCAL/MOL
REMARK 922        TOTAL FREE ENERGY PREDICTED BY IDOCK:   -2.03 KCAL/MOL
REMARK 923 INTER-LIGAND FREE ENERGY PREDICTED BY IDOCK:   -2.00 KCAL/MOL
REMARK 924 INTRA-LIGAND FREE ENERGY PREDICTED BY IDOCK:   -0.03 KCAL/MOL
REMARK 927      BINDING AFFINITY PREDICTED BY RF-SCORE:    0.00 PKD
ROOT
HETATM    1  O   UNL     1     -10.348   8.730  69.695  1.00  0.00    -0.203 OA 
HETATM    2  S   UNL     1     -10.387   8.956  71.293  1.00  0.00    -0.314 S  
HETATM    3  O   UNL     1     -11.456   9.888  71.561  1.00  0.00    -0.365 OA 
HETATM    4  O   UNL     1      -9.027   9.204  71.708  1.00  0.00    -0.345 OA 
HETATM    5  C   UNL     1     -10.883   7.310  71.769  1.00  0.00    -0.224 C  
ENDROOT
BRANCH   5   6
HETATM    6  C   UNL     1     -11.021   7.242  73.276  1.00  0.00    -0.311 C  
HETATM    7  S   UNL     1      -9.823   6.065  73.977  1.00  0.00    -0.239 SA 
HETATM    8  H   UNL     1      -9.949   6.003  75.360  1.00  0.00     0.000 H  
ENDBRANCH   5   6
TORSDOF 1
ENDMDL
MODEL       95
REMARK 921   NORMALIZED FREE ENERGY PREDICTED BY IDOCK:   -1.87 KCAL/MOL
REMARK 922        TOTAL FREE ENERGY PREDICTED BY IDOCK:   -2.02 KCAL/MOL
REMARK 923 INTER-LIGAND FREE ENERGY PREDICTED BY IDOCK:   -1.98 KCAL/MOL
REMARK 924 INTRA-LIGAND FREE ENERGY PREDICTED BY IDOCK:   -0.04 KCAL/MOL
REMARK 927      BINDING AFFINITY PREDICTED BY RF-SCORE:    0.00 PKD
ROOT
HETATM    1  O   UNL     1     -10.163   8.815  72.131  1.00  0.00    -0.325 OA 
HETATM    2  S   UNL     1     -11.198   8.995  70.905  1.00  0.00    -0.307 S  
HETATM    3  O   UNL     1     -12.337   9.718  71.418  1.00  0.00    -0.334 OA 
HETATM    4  O   UNL     1     -11.326   7.701  70.278  1.00  0.00    -0.262 OA 
HETATM    5  C   UNL     1     -10.202  10.072  69.890  1.00  0.00    -0.260 C  
ENDROOT
BRANCH   5   6
HETATM    6  C   UNL     1     -10.969  10.429  68.633  1.00  0.00    -0.243 C  
HETATM    7  S   UNL     1     -10.302   9.530  67.198  1.00  0.00    -0.247 SA 
HETATM    8  H   UNL     1     -11.006   9.858  66.045  1.00  0.00     0.000 H  
ENDBRANCH   5   6
TORSDOF 1
ENDMDL
MODEL       96
REMARK 921   NORMALIZED FREE ENERGY PREDICTED BY IDOCK:   -1.86 KCAL/MOL
REMARK 922        TOTAL FREE ENERGY PREDICTED BY IDOCK:   -2.01 KCAL/MOL
REMARK 923 INTER-LIGAND FREE ENERGY PREDICTED BY IDOCK:   -2.00 KCAL/MOL
REMARK 924 INTRA-LIGAND FREE ENERGY PREDICTED BY IDOCK:   -0.01 KCAL/MOL
REMARK 927      BINDING AFFINITY PREDICTED BY RF-SCORE:    0.00 PKD
ROOT
HETATM    1  O   UNL     1     -10.850  17.653  67.759  1.00  0.00    -0.367 OA 
HETATM    2  S   UNL     1      -9.443  17.053  67.242  1.00  0.00    -0.244 S  
HETATM    3  O   UNL     1      -8.412  17.611  68.085  1.00  0.00    -0.244 OA 
HETATM    4  O   UNL     1      -9.430  17.207  65.806  1.00  0.00    -0.525 OA 
HETATM    5  C   UNL     1      -9.721  15.345  67.673  1.00  0.00    -0.211 C  
ENDROOT
BRANCH   5   6
HETATM    6  C   UNL     1      -8.501  14.527  67.302  1.00  0.00    -0.215 C  
HETATM    7  S   UNL     1      -8.737  12.782  67.759  1.00  0.00    -0.196 SA 
HETATM    8  H   UNL     1      -7.617  12.031  67.419  1.00  0.00     0.000 H  
ENDBRANCH   5   6
TORSDOF 1
ENDMDL
MODEL       97
REMARK 921   NORMALIZED FREE ENERGY PREDICTED BY IDOCK:   -1.85 KCAL/MOL
REMARK 922        TOTAL FREE ENERGY PREDICTED BY IDOCK:   -2.00 KCAL/MOL
REMARK 923 INTER-LIGAND FREE ENERGY PREDICTED BY IDOCK:   -1.97 KCAL/MOL
REMARK 924 INTRA-LIGAND FREE ENERGY PREDICTED BY IDOCK:   -0.03 KCAL/MOL
REMARK 927      BINDING AFFINITY PREDICTED BY RF-SCORE:    0.00 PKD
ROOT
HETATM    1  O   UNL     1      -9.936   9.803  64.604  1.00  0.00    -0.172 OA 
HETATM    2  S   UNL     1     -10.338  11.225  63.954  1.00  0.00    -0.413 S  
HETATM    3  O   UNL     1     -11.719  11.124  63.543  1.00  0.00     0.029 OA 
HETATM    4  O   UNL     1      -9.284  11.570  63.030  1.00  0.00    -0.295 OA 
HETATM    5  C   UNL     1     -10.214  12.222  65.427  1.00  0.00    -0.270 C  
ENDROOT
BRANCH   5   6
HETATM    6  C   UNL     1     -10.573  13.656  65.097  1.00  0.00    -0.361 C  
HETATM    7  S   UNL     1     -12.286  14.017  65.592  1.00  0.00    -0.484 SA 
HETATM    8  H   UNL     1     -12.616  15.334  65.288  1.00  0.00     0.000 H  
ENDBRANCH   5   6
TORSDOF 1
ENDMDL
MODEL       98
REMARK 921   NORMALIZED FREE ENERGY PREDICTED BY IDOCK:   -1.85 KCAL/MOL
REMARK 922        TOTAL FREE ENERGY PREDICTED BY IDOCK:   -2.00 KCAL/MOL
REMARK 923 INTER-LIGAND FREE ENERGY PREDICTED BY IDOCK:   -1.96 KCAL/MOL
REMARK 924 INTRA-LIGAND FREE ENERGY PREDICTED BY IDOCK:   -0.04 KCAL/MOL
REMARK 927      BINDING AFFINITY PREDICTED BY RF-SCORE:    0.00 PKD
ROOT
HETATM    1  O   UNL     1      -9.462  19.689  67.890  1.00  0.00    -0.325 OA 
HETATM    2  S   UNL     1      -9.679  18.122  67.564  1.00  0.00    -0.313 S  
HETATM    3  O   UNL     1     -10.152  18.036  66.204  1.00  0.00    -0.426 OA 
HETATM    4  O   UNL     1     -10.420  17.569  68.674  1.00  0.00    -0.356 OA 
HETATM    5  C   UNL     1      -7.974  17.607  67.649  1.00  0.00    -0.208 C  
ENDROOT
BRANCH   5   6
HETATM    6  C   UNL     1      -7.881  16.124  67.352  1.00  0.00    -0.154 C  
HETATM    7  S   UNL     1      -7.664  15.176  68.889  1.00  0.00    -0.174 SA 
HETATM    8  H   UNL     1      -7.578  13.815  68.617  1.00  0.00     0.000 H  
ENDBRANCH   5   6
TORSDOF 1
ENDMDL
MODEL       99
REMARK 921   NORMALIZED FREE ENERGY PREDICTED BY IDOCK:   -1.85 KCAL/MOL
REMARK 922        TOTAL FREE ENERGY PREDICTED BY IDOCK:   -2.00 KCAL/MOL
REMARK 923 INTER-LIGAND FREE ENERGY PREDICTED BY IDOCK:   -1.98 KCAL/MOL
REMARK 924 INTRA-LIGAND FREE ENERGY PREDICTED BY IDOCK:   -0.01 KCAL/MOL
REMARK 927      BINDING AFFINITY PREDICTED BY RF-SCORE:    0.00 PKD
ROOT
HETATM    1  O   UNL     1     -10.428  15.771  69.548  1.00  0.00    -0.228 OA 
HETATM    2  S   UNL     1     -10.420  16.328  68.032  1.00  0.00    -0.304 S  
HETATM    3  O   UNL     1     -10.800  17.719  68.093  1.00  0.00    -0.329 OA 
HETATM    4  O   UNL     1     -11.142  15.366  67.234  1.00  0.00    -0.325 OA 
HETATM    5  C   UNL     1      -8.669  16.190  67.722  1.00  0.00    -0.172 C  
ENDROOT
BRANCH   5   6
HETATM    6  C   UNL     1      -8.365  16.685  66.323  1.00  0.00    -0.325 C  
HETATM    7  S   UNL     1      -6.818  17.642  66.303  1.00  0.00    -0.300 SA 
HETATM    8  H   UNL     1      -6.539  18.095  65.018  1.00  0.00     0.000 H  
ENDBRANCH   5   6
TORSDOF 1
ENDMDL
MODEL      100
REMARK 921   NORMALIZED FREE ENERGY PREDICTED BY IDOCK:   -1.84 KCAL/MOL
REMARK 922        TOTAL FREE ENERGY PREDICTED BY IDOCK:   -1.99 KCAL/MOL
REMARK 923 INTER-LIGAND FREE ENERGY PREDICTED BY IDOCK:   -1.95 KCAL/MOL
REMARK 924 INTRA-LIGAND FREE ENERGY PREDICTED BY IDOCK:   -0.04 KCAL/MOL
REMARK 927      BINDING AFFINITY PREDICTED BY RF-SCORE:    0.00 PKD
ROOT
HETATM    1  O   UNL     1      -7.485  15.885  66.895  1.00  0.00    -0.221 OA 
HETATM    2  S   UNL     1      -7.939  17.109  67.844  1.00  0.00    -0.196 S  
HETATM    3  O   UNL     1      -7.184  18.267  67.428  1.00  0.00    -0.198 OA 
HETATM    4  O   UNL     1      -7.907  16.615  69.201  1.00  0.00    -0.237 OA 
HETATM    5  C   UNL     1      -9.627  17.252  67.284  1.00  0.00    -0.254 C  
ENDROOT
BRANCH   5   6
HETATM    6  C   UNL     1     -10.309  18.384  68.025  1.00  0.00    -0.384 C  
HETATM    7  S   UNL     1     -10.502  19.833  66.941  1.00  0.00    -0.458 SA 
HETATM    8  H   UNL     1     -11.128  20.872  67.621  1.00  0.00     0.000 H  
ENDBRANCH   5   6
TORSDOF 1
ENDMDL
MODEL      101
REMARK 921   NORMALIZED FREE ENERGY PREDICTED BY IDOCK:   -1.83 KCAL/MOL
REMARK 922        TOTAL FREE ENERGY PREDICTED BY IDOCK:   -1.98 KCAL/MOL
REMARK 923 INTER-LIGAND FREE ENERGY PREDICTED BY IDOCK:   -1.96 KCAL/MOL
REMARK 924 INTRA-LIGAND FREE ENERGY PREDICTED BY IDOCK:   -0.01 KCAL/MOL
REMARK 927      BINDING AFFINITY PREDICTED BY RF-SCORE:    0.00 PKD
ROOT
HETATM    1  O   UNL     1     -10.921  11.293  69.537  1.00  0.00    -0.236 OA 
HETATM    2  S   UNL     1     -10.992  12.597  68.588  1.00  0.00    -0.263 S  
HETATM    3  O   UNL     1      -9.633  12.953  68.259  1.00  0.00    -0.218 OA 
HETATM    4  O   UNL     1     -11.898  13.523  69.225  1.00  0.00    -0.301 OA 
HETATM    5  C   UNL     1     -11.780  11.841  67.177  1.00  0.00    -0.188 C  
ENDROOT
BRANCH   5   6
HETATM    6  C   UNL     1     -11.956  12.875  66.085  1.00  0.00    -0.429 C  
HETATM    7  S   UNL     1     -10.601  12.768  64.876  1.00  0.00    -0.329 SA 
HETATM    8  H   UNL     1     -10.762  13.717  63.873  1.00  0.00     0.000 H  
ENDBRANCH   5   6
TORSDOF 1
ENDMDL
MODEL      102
REMARK 921   NORMALIZED FREE ENERGY PREDICTED BY IDOCK:   -1.83 KCAL/MOL
REMARK 922        TOTAL FREE ENERGY PREDICTED BY IDOCK:   -1.98 KCAL/MOL
REMARK 923 INTER-LIGAND FREE ENERGY PREDICTED BY IDOCK:   -1.96 KCAL/MOL
REMARK 924 INTRA-LIGAND FREE ENERGY PREDICTED BY IDOCK:   -0.02 KCAL/MOL
REMARK 927      BINDING AFFINITY PREDICTED BY RF-SCORE:    0.00 PKD
ROOT
HETATM    1  O   UNL     1      -9.214   5.684  74.030  1.00  0.00    -0.125 OA 
HETATM    2  S   UNL     1     -10.368   5.780  72.905  1.00  0.00    -0.211 S  
HETATM    3  O   UNL     1     -11.456   4.939  73.344  1.00  0.00    -0.336 OA 
HETATM    4  O   UNL     1      -9.717   5.594  71.629  1.00  0.00    -0.156 OA 
HETATM    5  C   UNL     1     -10.799   7.496  73.129  1.00  0.00    -0.395 C  
ENDROOT
BRANCH   5   6
HETATM    6  C   UNL     1     -11.916   7.863  72.175  1.00  0.00    -0.332 C  
HETATM    7  S   UNL     1     -11.556   9.442  71.344  1.00  0.00    -0.405 SA 
HETATM    8  H   UNL     1     -12.582   9.779  70.468  1.00  0.00     0.000 H  
ENDBRANCH   5   6
TORSDOF 1
ENDMDL
MODEL      103
REMARK 921   NORMALIZED FREE ENERGY PREDICTED BY IDOCK:   -1.81 KCAL/MOL
REMARK 922        TOTAL FREE ENERGY PREDICTED BY IDOCK:   -1.96 KCAL/MOL
REMARK 923 INTER-LIGAND FREE ENERGY PREDICTED BY IDOCK:   -1.92 KCAL/MOL
REMARK 924 INTRA-LIGAND FREE ENERGY PREDICTED BY IDOCK:   -0.04 KCAL/MOL
REMARK 927      BINDING AFFINITY PREDICTED BY RF-SCORE:    0.00 PKD
ROOT
HETATM    1  O   UNL     1     -10.012  15.508  65.488  1.00  0.00    -0.340 OA 
HETATM    2  S   UNL     1      -9.727  15.824  67.045  1.00  0.00    -0.232 S  
HETATM    3  O   UNL     1      -8.990  14.702  67.574  1.00  0.00    -0.176 OA 
HETATM    4  O   UNL     1     -10.980  16.260  67.615  1.00  0.00    -0.315 OA 
HETATM    5  C   UNL     1      -8.636  17.218  66.824  1.00  0.00    -0.249 C  
ENDROOT
BRANCH   5   6
HETATM    6  C   UNL     1      -8.182  17.721  68.179  1.00  0.00    -0.260 C  
HETATM    7  S   UNL     1      -8.804  19.404  68.479  1.00  0.00    -0.352 SA 
HETATM    8  H   UNL     1      -8.387  19.866  69.723  1.00  0.00     0.000 H  
ENDBRANCH   5   6
TORSDOF 1
ENDMDL
MODEL      104
REMARK 921   NORMALIZED FREE ENERGY PREDICTED BY IDOCK:   -1.81 KCAL/MOL
REMARK 922        TOTAL FREE ENERGY PREDICTED BY IDOCK:   -1.96 KCAL/MOL
REMARK 923 INTER-LIGAND FREE ENERGY PREDICTED BY IDOCK:   -1.93 KCAL/MOL
REMARK 924 INTRA-LIGAND FREE ENERGY PREDICTED BY IDOCK:   -0.03 KCAL/MOL
REMARK 927      BINDING AFFINITY PREDICTED BY RF-SCORE:    0.00 PKD
ROOT
HETATM    1  O   UNL     1     -10.749   4.945  74.166  1.00  0.00    -0.289 OA 
HETATM    2  S   UNL     1     -10.299   6.085  73.116  1.00  0.00    -0.227 S  
HETATM    3  O   UNL     1      -9.080   5.626  72.492  1.00  0.00    -0.136 OA 
HETATM    4  O   UNL     1     -10.378   7.347  73.815  1.00  0.00    -0.348 OA 
HETATM    5  C   UNL     1     -11.661   5.931  71.974  1.00  0.00    -0.228 C  
ENDROOT
BRANCH   5   6
HETATM    6  C   UNL     1     -11.475   6.910  70.834  1.00  0.00    -0.323 C  
HETATM    7  S   UNL     1     -10.823   6.062  69.362  1.00  0.00    -0.375 SA 
HETATM    8  H   UNL     1     -10.652   6.961  68.314  1.00  0.00     0.000 H  
ENDBRANCH   5   6
TORSDOF 1
ENDMDL
MODEL      105
REMARK 921   NORMALIZED FREE ENERGY PREDICTED BY IDOCK:   -1.79 KCAL/MOL
REMARK 922        TOTAL FREE ENERGY PREDICTED BY IDOCK:   -1.94 KCAL/MOL
REMARK 923 INTER-LIGAND FREE ENERGY PREDICTED BY IDOCK:   -1.94 KCAL/MOL
REMARK 924 INTRA-LIGAND FREE ENERGY PREDICTED BY IDOCK:   -0.00 KCAL/MOL
REMARK 927      BINDING AFFINITY PREDICTED BY RF-SCORE:    0.00 PKD
ROOT
HETATM    1  O   UNL     1      -8.789  15.949  66.194  1.00  0.00    -0.326 OA 
HETATM    2  S   UNL     1      -8.814  17.482  66.701  1.00  0.00    -0.267 S  
HETATM    3  O   UNL     1      -9.070  17.452  68.121  1.00  0.00    -0.252 OA 
HETATM    4  O   UNL     1      -9.657  18.208  65.782  1.00  0.00    -0.492 OA 
HETATM    5  C   UNL     1      -7.100  17.875  66.402  1.00  0.00    -0.257 C  
ENDROOT
BRANCH   5   6
HETATM    6  C   UNL     1      -6.830  19.305  66.824  1.00  0.00    -0.198 C  
HETATM    7  S   UNL     1      -6.984  20.432  65.404  1.00  0.00    -0.145 SA 
HETATM    8  H   UNL     1      -6.736  21.744  65.792  1.00  0.00     0.000 H  
ENDBRANCH   5   6
TORSDOF 1
ENDMDL
MODEL      106
REMARK 921   NORMALIZED FREE ENERGY PREDICTED BY IDOCK:   -1.79 KCAL/MOL
REMARK 922        TOTAL FREE ENERGY PREDICTED BY IDOCK:   -1.94 KCAL/MOL
REMARK 923 INTER-LIGAND FREE ENERGY PREDICTED BY IDOCK:   -1.90 KCAL/MOL
REMARK 924 INTRA-LIGAND FREE ENERGY PREDICTED BY IDOCK:   -0.04 KCAL/MOL
REMARK 927      BINDING AFFINITY PREDICTED BY RF-SCORE:    0.00 PKD
ROOT
HETATM    1  O   UNL     1     -10.967  16.520  70.295  1.00  0.00    -0.332 OA 
HETATM    2  S   UNL     1     -11.064  15.720  68.896  1.00  0.00    -0.321 S  
HETATM    3  O   UNL     1     -11.031  16.706  67.843  1.00  0.00    -0.342 OA 
HETATM    4  O   UNL     1     -12.150  14.777  69.034  1.00  0.00    -0.287 OA 
HETATM    5  C   UNL     1      -9.499  14.869  68.981  1.00  0.00    -0.196 C  
ENDROOT
BRANCH   5   6
HETATM    6  C   UNL     1      -9.316  14.027  67.735  1.00  0.00    -0.205 C  
HETATM    7  S   UNL     1      -9.541  12.262  68.116  1.00  0.00    -0.212 SA 
HETATM    8  H   UNL     1      -9.373  11.488  66.973  1.00  0.00     0.000 H  
ENDBRANCH   5   6
TORSDOF 1
ENDMDL
MODEL      107
REMARK 921   NORMALIZED FREE ENERGY PREDICTED BY IDOCK:   -1.78 KCAL/MOL
REMARK 922        TOTAL FREE ENERGY PREDICTED BY IDOCK:   -1.93 KCAL/MOL
REMARK 923 INTER-LIGAND FREE ENERGY PREDICTED BY IDOCK:   -1.90 KCAL/MOL
REMARK 924 INTRA-LIGAND FREE ENERGY PREDICTED BY IDOCK:   -0.03 KCAL/MOL
REMARK 927      BINDING AFFINITY PREDICTED BY RF-SCORE:    0.00 PKD
ROOT
HETATM    1  O   UNL     1     -11.187   9.985  71.141  1.00  0.00    -0.350 OA 
HETATM    2  S   UNL     1     -10.069   8.821  71.107  1.00  0.00    -0.273 S  
HETATM    3  O   UNL     1      -9.294   8.946  72.319  1.00  0.00    -0.360 OA 
HETATM    4  O   UNL     1      -9.463   8.867  69.798  1.00  0.00    -0.163 OA 
HETATM    5  C   UNL     1     -11.162   7.417  71.227  1.00  0.00    -0.252 C  
ENDROOT
BRANCH   5   6
HETATM    6  C   UNL     1     -10.344   6.142  71.238  1.00  0.00    -0.217 C  
HETATM    7  S   UNL     1     -10.327   5.378  69.587  1.00  0.00    -0.283 SA 
HETATM    8  H   UNL     1      -9.576   4.208  69.596  1.00  0.00     0.000 H  
ENDBRANCH   5   6
TORSDOF 1
ENDMDL
MODEL      108
REMARK 921   NORMALIZED FREE ENERGY PREDICTED BY IDOCK:   -1.78 KCAL/MOL
REMARK 922        TOTAL FREE ENERGY PREDICTED BY IDOCK:   -1.92 KCAL/MOL
REMARK 923 INTER-LIGAND FREE ENERGY PREDICTED BY IDOCK:   -1.89 KCAL/MOL
REMARK 924 INTRA-LIGAND FREE ENERGY PREDICTED BY IDOCK:   -0.03 KCAL/MOL
REMARK 927      BINDING AFFINITY PREDICTED BY RF-SCORE:    0.00 PKD
ROOT
HETATM    1  O   UNL     1      -8.411  16.376  66.195  1.00  0.00    -0.324 OA 
HETATM    2  S   UNL     1      -7.210  17.017  67.062  1.00  0.00    -0.212 S  
HETATM    3  O   UNL     1      -6.042  16.200  66.833  1.00  0.00    -0.321 OA 
HETATM    4  O   UNL     1      -7.736  17.255  68.386  1.00  0.00    -0.226 OA 
HETATM    5  C   UNL     1      -7.055  18.559  66.179  1.00  0.00    -0.266 C  
ENDROOT
BRANCH   5   6
HETATM    6  C   UNL     1      -5.941  19.381  66.793  1.00  0.00    -0.165 C  
HETATM    7  S   UNL     1      -6.585  20.962  67.423  1.00  0.00    -0.377 SA 
HETATM    8  H   UNL     1      -5.562  21.717  67.987  1.00  0.00     0.000 H  
ENDBRANCH   5   6
TORSDOF 1
ENDMDL
MODEL      109
REMARK 921   NORMALIZED FREE ENERGY PREDICTED BY IDOCK:   -1.77 KCAL/MOL
REMARK 922        TOTAL FREE ENERGY PREDICTED BY IDOCK:   -1.92 KCAL/MOL
REMARK 923 INTER-LIGAND FREE ENERGY PREDICTED BY IDOCK:   -1.88 KCAL/MOL
REMARK 924 INTRA-LIGAND FREE ENERGY PREDICTED BY IDOCK:   -0.04 KCAL/MOL
REMARK 927      BINDING AFFINITY PREDICTED BY RF-SCORE:    0.00 PKD
ROOT
HETATM    1  O   UNL     1     -12.114  12.402  66.675  1.00  0.00    -0.592 OA 
HETATM    2  S   UNL     1     -10.648  11.785  66.951  1.00  0.00    -0.246 S  
HETATM    3  O   UNL     1      -9.709  12.878  66.867  1.00  0.00    -0.227 OA 
HETATM    4  O   UNL     1     -10.533  10.606  66.125  1.00  0.00    -0.243 OA 
HETATM    5  C   UNL     1     -10.886  11.318  68.655  1.00  0.00    -0.204 C  
ENDROOT
BRANCH   5   6
HETATM    6  C   UNL     1      -9.608  10.708  69.193  1.00  0.00    -0.177 C  
HETATM    7  S   UNL     1      -9.812   8.919  69.452  1.00  0.00    -0.188 SA 
HETATM    8  H   UNL     1      -8.639   8.358  69.945  1.00  0.00     0.000 H  
ENDBRANCH   5   6
TORSDOF 1
ENDMDL
MODEL      110
REMARK 921   NORMALIZED FREE ENERGY PREDICTED BY IDOCK:   -1.77 KCAL/MOL
REMARK 922        TOTAL FREE ENERGY PREDICTED BY IDOCK:   -1.92 KCAL/MOL
REMARK 923 INTER-LIGAND FREE ENERGY PREDICTED BY IDOCK:   -1.91 KCAL/MOL
REMARK 924 INTRA-LIGAND FREE ENERGY PREDICTED BY IDOCK:   -0.01 KCAL/MOL
REMARK 927      BINDING AFFINITY PREDICTED BY RF-SCORE:    0.00 PKD
ROOT
HETATM    1  O   UNL     1      -6.012  19.118  67.957  1.00  0.00    -0.207 OA 
HETATM    2  S   UNL     1      -7.538  19.184  67.435  1.00  0.00    -0.235 S  
HETATM    3  O   UNL     1      -7.546  20.022  66.260  1.00  0.00    -0.288 OA 
HETATM    4  O   UNL     1      -8.358  19.470  68.589  1.00  0.00    -0.354 OA 
HETATM    5  C   UNL     1      -7.719  17.474  66.963  1.00  0.00    -0.212 C  
ENDROOT
BRANCH   5   6
HETATM    6  C   UNL     1      -9.107  17.252  66.399  1.00  0.00    -0.253 C  
HETATM    7  S   UNL     1      -9.413  15.478  66.129  1.00  0.00    -0.358 SA 
HETATM    8  H   UNL     1     -10.687  15.274  65.610  1.00  0.00     0.000 H  
ENDBRANCH   5   6
TORSDOF 1
ENDMDL
MODEL      111
REMARK 921   NORMALIZED FREE ENERGY PREDICTED BY IDOCK:   -1.77 KCAL/MOL
REMARK 922        TOTAL FREE ENERGY PREDICTED BY IDOCK:   -1.91 KCAL/MOL
REMARK 923 INTER-LIGAND FREE ENERGY PREDICTED BY IDOCK:   -1.89 KCAL/MOL
REMARK 924 INTRA-LIGAND FREE ENERGY PREDICTED BY IDOCK:   -0.03 KCAL/MOL
REMARK 927      BINDING AFFINITY PREDICTED BY RF-SCORE:    0.00 PKD
ROOT
HETATM    1  O   UNL     1     -11.821  11.045  67.616  1.00  0.00    -0.599 OA 
HETATM    2  S   UNL     1     -10.759  11.949  66.802  1.00  0.00    -0.258 S  
HETATM    3  O   UNL     1     -11.086  13.329  67.073  1.00  0.00    -0.272 OA 
HETATM    4  O   UNL     1     -10.708  11.419  65.460  1.00  0.00    -0.276 OA 
HETATM    5  C   UNL     1      -9.290  11.485  67.701  1.00  0.00    -0.171 C  
ENDROOT
BRANCH   5   6
HETATM    6  C   UNL     1      -8.099  12.231  67.137  1.00  0.00    -0.173 C  
HETATM    7  S   UNL     1      -6.802  11.067  66.615  1.00  0.00    -0.137 SA 
HETATM    8  H   UNL     1      -5.708  11.751  66.097  1.00  0.00     0.000 H  
ENDBRANCH   5   6
TORSDOF 1
ENDMDL
MODEL      112
REMARK 921   NORMALIZED FREE ENERGY PREDICTED BY IDOCK:   -1.75 KCAL/MOL
REMARK 922        TOTAL FREE ENERGY PREDICTED BY IDOCK:   -1.90 KCAL/MOL
REMARK 923 INTER-LIGAND FREE ENERGY PREDICTED BY IDOCK:   -1.86 KCAL/MOL
REMARK 924 INTRA-LIGAND FREE ENERGY PREDICTED BY IDOCK:   -0.04 KCAL/MOL
REMARK 927      BINDING AFFINITY PREDICTED BY RF-SCORE:    0.00 PKD
ROOT
HETATM    1  O   UNL     1      -9.597   5.194  68.350  1.00  0.00    -0.126 OA 
HETATM    2  S   UNL     1     -10.679   6.390  68.402  1.00  0.00    -0.310 S  
HETATM    3  O   UNL     1     -11.480   6.182  69.585  1.00  0.00    -0.429 OA 
HETATM    4  O   UNL     1     -11.261   6.479  67.084  1.00  0.00    -0.388 OA 
HETATM    5  C   UNL     1      -9.548   7.744  68.665  1.00  0.00    -0.154 C  
ENDROOT
BRANCH   5   6
HETATM    6  C   UNL     1     -10.328   9.038  68.776  1.00  0.00    -0.215 C  
HETATM    7  S   UNL     1     -10.224   9.983  67.226  1.00  0.00    -0.236 SA 
HETATM    8  H   UNL     1     -10.941  11.171  67.327  1.00  0.00     0.000 H  
ENDBRANCH   5   6
TORSDOF 1
ENDMDL
MODEL      113
REMARK 921   NORMALIZED FREE ENERGY PREDICTED BY IDOCK:   -1.75 KCAL/MOL
REMARK 922        TOTAL FREE ENERGY PREDICTED BY IDOCK:   -1.90 KCAL/MOL
REMARK 923 INTER-LIGAND FREE ENERGY PREDICTED BY IDOCK:   -1.89 KCAL/MOL
REMARK 924 INTRA-LIGAND FREE ENERGY PREDICTED BY IDOCK:   -0.01 KCAL/MOL
REMARK 927      BINDING AFFINITY PREDICTED BY RF-SCORE:    0.00 PKD
ROOT
HETATM    1  O   UNL     1     -11.167  13.959  65.722  1.00  0.00    -0.299 OA 
HETATM    2  S   UNL     1     -10.291  14.537  66.950  1.00  0.00    -0.267 S  
HETATM    3  O   UNL     1      -9.549  13.427  67.497  1.00  0.00    -0.210 OA 
HETATM    4  O   UNL     1     -11.185  15.337  67.754  1.00  0.00    -0.310 OA 
HETATM    5  C   UNL     1      -9.202  15.591  66.010  1.00  0.00    -0.326 C  
ENDROOT
BRANCH   5   6
HETATM    6  C   UNL     1      -8.224  16.268  66.948  1.00  0.00    -0.226 C  
HETATM    7  S   UNL     1      -7.745  17.901  66.304  1.00  0.00    -0.248 SA 
HETATM    8  H   UNL     1      -6.847  18.523  67.165  1.00  0.00     0.000 H  
ENDBRANCH   5   6
TORSDOF 1
ENDMDL
MODEL      114
REMARK 921   NORMALIZED FREE ENERGY PREDICTED BY IDOCK:   -1.75 KCAL/MOL
REMARK 922        TOTAL FREE ENERGY PREDICTED BY IDOCK:   -1.89 KCAL/MOL
REMARK 923 INTER-LIGAND FREE ENERGY PREDICTED BY IDOCK:   -1.86 KCAL/MOL
REMARK 924 INTRA-LIGAND FREE ENERGY PREDICTED BY IDOCK:   -0.04 KCAL/MOL
REMARK 927      BINDING AFFINITY PREDICTED BY RF-SCORE:    0.00 PKD
ROOT
HETATM    1  O   UNL     1      -8.944   7.005  66.289  1.00  0.00    -0.150 OA 
HETATM    2  S   UNL     1     -10.250   7.517  67.089  1.00  0.00    -0.308 S  
HETATM    3  O   UNL     1     -11.262   6.498  66.939  1.00  0.00    -0.387 OA 
HETATM    4  O   UNL     1     -10.471   8.886  66.688  1.00  0.00    -0.249 OA 
HETATM    5  C   UNL     1      -9.575   7.463  68.739  1.00  0.00    -0.147 C  
ENDROOT
BRANCH   5   6
HETATM    6  C   UNL     1     -10.636   7.891  69.732  1.00  0.00    -0.242 C  
HETATM    7  S   UNL     1     -11.360   6.442  70.560  1.00  0.00    -0.373 SA 
HETATM    8  H   UNL     1     -12.334   6.835  71.472  1.00  0.00     0.000 H  
ENDBRANCH   5   6
TORSDOF 1
ENDMDL
MODEL      115
REMARK 921   NORMALIZED FREE ENERGY PREDICTED BY IDOCK:   -1.75 KCAL/MOL
REMARK 922        TOTAL FREE ENERGY PREDICTED BY IDOCK:   -1.89 KCAL/MOL
REMARK 923 INTER-LIGAND FREE ENERGY PREDICTED BY IDOCK:   -1.88 KCAL/MOL
REMARK 924 INTRA-LIGAND FREE ENERGY PREDICTED BY IDOCK:   -0.01 KCAL/MOL
REMARK 927      BINDING AFFINITY PREDICTED BY RF-SCORE:    0.00 PKD
ROOT
HETATM    1  O   UNL     1     -11.440   6.848  71.290  1.00  0.00    -0.267 OA 
HETATM    2  S   UNL     1     -10.809   8.299  70.968  1.00  0.00    -0.240 S  
HETATM    3  O   UNL     1     -10.440   8.297  69.573  1.00  0.00    -0.223 OA 
HETATM    4  O   UNL     1      -9.856   8.577  72.017  1.00  0.00    -0.254 OA 
HETATM    5  C   UNL     1     -12.284   9.274  71.205  1.00  0.00    -0.334 C  
ENDROOT
BRANCH   5   6
HETATM    6  C   UNL     1     -11.971  10.732  70.937  1.00  0.00    -0.333 C  
HETATM    7  S   UNL     1     -13.113  11.812  71.854  1.00  0.00    -0.232 SA 
HETATM    8  H   UNL     1     -12.826  13.150  71.607  1.00  0.00     0.000 H  
ENDBRANCH   5   6
TORSDOF 1
ENDMDL
MODEL      116
REMARK 921   NORMALIZED FREE ENERGY PREDICTED BY IDOCK:   -1.74 KCAL/MOL
REMARK 922        TOTAL FREE ENERGY PREDICTED BY IDOCK:   -1.88 KCAL/MOL
REMARK 923 INTER-LIGAND FREE ENERGY PREDICTED BY IDOCK:   -1.87 KCAL/MOL
REMARK 924 INTRA-LIGAND FREE ENERGY PREDICTED BY IDOCK:   -0.01 KCAL/MOL
REMARK 927      BINDING AFFINITY PREDICTED BY RF-SCORE:    0.00 PKD
ROOT
HETATM    1  O   UNL     1      -8.958   6.816  68.546  1.00  0.00    -0.123 OA 
HETATM    2  S   UNL     1     -10.331   6.182  69.112  1.00  0.00    -0.246 S  
HETATM    3  O   UNL     1      -9.979   4.963  69.801  1.00  0.00    -0.209 OA 
HETATM    4  O   UNL     1     -11.278   6.205  68.023  1.00  0.00    -0.310 OA 
HETATM    5  C   UNL     1     -10.728   7.456  70.296  1.00  0.00    -0.237 C  
ENDROOT
BRANCH   5   6
HETATM    6  C   UNL     1     -12.010   7.092  71.016  1.00  0.00    -0.361 C  
HETATM    7  S   UNL     1     -12.583   8.478  72.045  1.00  0.00    -0.385 SA 
HETATM    8  H   UNL     1     -13.761   8.144  72.706  1.00  0.00     0.000 H  
ENDBRANCH   5   6
TORSDOF 1
ENDMDL
MODEL      117
REMARK 921   NORMALIZED FREE ENERGY PREDICTED BY IDOCK:   -1.72 KCAL/MOL
REMARK 922        TOTAL FREE ENERGY PREDICTED BY IDOCK:   -1.86 KCAL/MOL
REMARK 923 INTER-LIGAND FREE ENERGY PREDICTED BY IDOCK:   -1.83 KCAL/MOL
REMARK 924 INTRA-LIGAND FREE ENERGY PREDICTED BY IDOCK:   -0.03 KCAL/MOL
REMARK 927      BINDING AFFINITY PREDICTED BY RF-SCORE:    0.00 PKD
ROOT
HETATM    1  O   UNL     1      -8.799  10.396  64.061  1.00  0.00    -0.187 OA 
HETATM    2  S   UNL     1     -10.050  10.676  65.042  1.00  0.00    -0.317 S  
HETATM    3  O   UNL     1     -10.269   9.468  65.801  1.00  0.00    -0.255 OA 
HETATM    4  O   UNL     1     -11.084  11.275  64.232  1.00  0.00    -0.333 OA 
HETATM    5  C   UNL     1      -9.288  11.913  66.077  1.00  0.00    -0.206 C  
ENDROOT
BRANCH   5   6
HETATM    6  C   UNL     1     -10.273  12.356  67.140  1.00  0.00    -0.216 C  
HETATM    7  S   UNL     1     -11.051  13.933  66.674  1.00  0.00    -0.312 SA 
HETATM    8  H   UNL     1     -11.955  14.340  67.650  1.00  0.00     0.000 H  
ENDBRANCH   5   6
TORSDOF 1
ENDMDL
MODEL      118
REMARK 921   NORMALIZED FREE ENERGY PREDICTED BY IDOCK:   -1.71 KCAL/MOL
REMARK 922        TOTAL FREE ENERGY PREDICTED BY IDOCK:   -1.85 KCAL/MOL
REMARK 923 INTER-LIGAND FREE ENERGY PREDICTED BY IDOCK:   -1.83 KCAL/MOL
REMARK 924 INTRA-LIGAND FREE ENERGY PREDICTED BY IDOCK:   -0.03 KCAL/MOL
REMARK 927      BINDING AFFINITY PREDICTED BY RF-SCORE:    0.00 PKD
ROOT
HETATM    1  O   UNL     1      -6.530  16.586  66.537  1.00  0.00    -0.262 OA 
HETATM    2  S   UNL     1      -7.368  15.479  67.362  1.00  0.00    -0.216 S  
HETATM    3  O   UNL     1      -7.665  16.053  68.653  1.00  0.00    -0.156 OA 
HETATM    4  O   UNL     1      -6.656  14.231  67.220  1.00  0.00    -0.278 OA 
HETATM    5  C   UNL     1      -8.836  15.467  66.350  1.00  0.00    -0.324 C  
ENDROOT
BRANCH   5   6
HETATM    6  C   UNL     1      -9.839  14.491  66.930  1.00  0.00    -0.262 C  
HETATM    7  S   UNL     1     -11.106  15.372  67.895  1.00  0.00    -0.328 SA 
HETATM    8  H   UNL     1     -12.027  14.476  68.428  1.00  0.00     0.000 H  
ENDBRANCH   5   6
TORSDOF 1
ENDMDL
MODEL      119
REMARK 921   NORMALIZED FREE ENERGY PREDICTED BY IDOCK:   -1.71 KCAL/MOL
REMARK 922        TOTAL FREE ENERGY PREDICTED BY IDOCK:   -1.85 KCAL/MOL
REMARK 923 INTER-LIGAND FREE ENERGY PREDICTED BY IDOCK:   -1.83 KCAL/MOL
REMARK 924 INTRA-LIGAND FREE ENERGY PREDICTED BY IDOCK:   -0.01 KCAL/MOL
REMARK 927      BINDING AFFINITY PREDICTED BY RF-SCORE:    0.00 PKD
ROOT
HETATM    1  O   UNL     1     -11.075   6.169  66.795  1.00  0.00    -0.322 OA 
HETATM    2  S   UNL     1     -10.309   6.975  67.965  1.00  0.00    -0.207 S  
HETATM    3  O   UNL     1     -10.533   8.381  67.724  1.00  0.00    -0.236 OA 
HETATM    4  O   UNL     1      -8.983   6.411  68.056  1.00  0.00    -0.117 OA 
HETATM    5  C   UNL     1     -11.303   6.430  69.342  1.00  0.00    -0.377 C  
ENDROOT
BRANCH   5   6
HETATM    6  C   UNL     1     -10.797   7.076  70.615  1.00  0.00    -0.246 C  
HETATM    7  S   UNL     1     -12.188   7.651  71.638  1.00  0.00    -0.329 SA 
HETATM    8  H   UNL     1     -11.724   8.244  72.807  1.00  0.00     0.000 H  
ENDBRANCH   5   6
TORSDOF 1
ENDMDL
MODEL      120
REMARK 921   NORMALIZED FREE ENERGY PREDICTED BY IDOCK:   -1.68 KCAL/MOL
REMARK 922        TOTAL FREE ENERGY PREDICTED BY IDOCK:   -1.82 KCAL/MOL
REMARK 923 INTER-LIGAND FREE ENERGY PREDICTED BY IDOCK:   -1.81 KCAL/MOL
REMARK 924 INTRA-LIGAND FREE ENERGY PREDICTED BY IDOCK:   -0.01 KCAL/MOL
REMARK 927      BINDING AFFINITY PREDICTED BY RF-SCORE:    0.00 PKD
ROOT
HETATM    1  O   UNL     1      -9.526   9.203  65.523  1.00  0.00    -0.250 OA 
HETATM    2  S   UNL     1      -9.939   8.965  67.066  1.00  0.00    -0.259 S  
HETATM    3  O   UNL     1      -8.716   8.946  67.832  1.00  0.00    -0.128 OA 
HETATM    4  O   UNL     1     -10.873   7.863  67.078  1.00  0.00    -0.305 OA 
HETATM    5  C   UNL     1     -10.802  10.502  67.337  1.00  0.00    -0.291 C  
ENDROOT
BRANCH   5   6
HETATM    6  C   UNL     1     -11.298  10.555  68.767  1.00  0.00    -0.249 C  
HETATM    7  S   UNL     1     -11.656  12.270  69.258  1.00  0.00    -0.330 SA 
HETATM    8  H   UNL     1     -12.111  12.319  70.571  1.00  0.00     0.000 H  
ENDBRANCH   5   6
TORSDOF 1
ENDMDL
MODEL      121
REMARK 921   NORMALIZED FREE ENERGY PREDICTED BY IDOCK:   -1.67 KCAL/MOL
REMARK 922        TOTAL FREE ENERGY PREDICTED BY IDOCK:   -1.80 KCAL/MOL
REMARK 923 INTER-LIGAND FREE ENERGY PREDICTED BY IDOCK:   -1.76 KCAL/MOL
REMARK 924 INTRA-LIGAND FREE ENERGY PREDICTED BY IDOCK:   -0.04 KCAL/MOL
REMARK 927      BINDING AFFINITY PREDICTED BY RF-SCORE:    0.00 PKD
ROOT
HETATM    1  O   UNL     1      -8.646  17.381  66.079  1.00  0.00    -0.500 OA 
HETATM    2  S   UNL     1      -8.689  17.516  67.688  1.00  0.00    -0.225 S  
HETATM    3  O   UNL     1      -8.784  16.178  68.220  1.00  0.00    -0.173 OA 
HETATM    4  O   UNL     1      -9.665  18.537  67.991  1.00  0.00    -0.301 OA 
HETATM    5  C   UNL     1      -7.041  18.152  67.933  1.00  0.00    -0.218 C  
ENDROOT
BRANCH   5   6
HETATM    6  C   UNL     1      -6.797  18.359  69.414  1.00  0.00    -0.137 C  
HETATM    7  S   UNL     1      -5.736  17.039  70.079  1.00  0.00    -0.210 SA 
HETATM    8  H   UNL     1      -5.512  17.229  71.438  1.00  0.00     0.000 H  
ENDBRANCH   5   6
TORSDOF 1
ENDMDL
MODEL      122
REMARK 921   NORMALIZED FREE ENERGY PREDICTED BY IDOCK:   -1.66 KCAL/MOL
REMARK 922        TOTAL FREE ENERGY PREDICTED BY IDOCK:   -1.80 KCAL/MOL
REMARK 923 INTER-LIGAND FREE ENERGY PREDICTED BY IDOCK:   -1.76 KCAL/MOL
REMARK 924 INTRA-LIGAND FREE ENERGY PREDICTED BY IDOCK:   -0.04 KCAL/MOL
REMARK 927      BINDING AFFINITY PREDICTED BY RF-SCORE:    0.00 PKD
ROOT
HETATM    1  O   UNL     1      -8.801  10.516  69.205  1.00  0.00    -0.166 OA 
HETATM    2  S   UNL     1      -9.126   9.399  70.325  1.00  0.00    -0.255 S  
HETATM    3  O   UNL     1     -10.468   9.651  70.793  1.00  0.00    -0.290 OA 
HETATM    4  O   UNL     1      -7.992   9.368  71.219  1.00  0.00    -0.328 OA 
HETATM    5  C   UNL     1      -9.110   7.965  69.265  1.00  0.00    -0.148 C  
ENDROOT
BRANCH   5   6
HETATM    6  C   UNL     1      -9.419   6.730  70.086  1.00  0.00    -0.158 C  
HETATM    7  S   UNL     1     -11.113   6.151  69.761  1.00  0.00    -0.416 SA 
HETATM    8  H   UNL     1     -11.396   5.017  70.514  1.00  0.00     0.000 H  
ENDBRANCH   5   6
TORSDOF 1
ENDMDL
MODEL      123
REMARK 921   NORMALIZED FREE ENERGY PREDICTED BY IDOCK:   -1.66 KCAL/MOL
REMARK 922        TOTAL FREE ENERGY PREDICTED BY IDOCK:   -1.79 KCAL/MOL
REMARK 923 INTER-LIGAND FREE ENERGY PREDICTED BY IDOCK:   -1.76 KCAL/MOL
REMARK 924 INTRA-LIGAND FREE ENERGY PREDICTED BY IDOCK:   -0.04 KCAL/MOL
REMARK 927      BINDING AFFINITY PREDICTED BY RF-SCORE:    0.00 PKD
ROOT
HETATM    1  O   UNL     1      -9.493  10.444  67.797  1.00  0.00    -0.144 OA 
HETATM    2  S   UNL     1      -9.906  11.778  66.987  1.00  0.00    -0.199 S  
HETATM    3  O   UNL     1     -10.444  11.349  65.717  1.00  0.00    -0.249 OA 
HETATM    4  O   UNL     1      -8.786  12.684  67.082  1.00  0.00    -0.190 OA 
HETATM    5  C   UNL     1     -11.228  12.323  68.053  1.00  0.00    -0.269 C  
ENDROOT
BRANCH   5   6
HETATM    6  C   UNL     1     -11.833  13.595  67.495  1.00  0.00    -0.381 C  
HETATM    7  S   UNL     1     -11.504  15.000  68.604  1.00  0.00    -0.326 SA 
HETATM    8  H   UNL     1     -12.059  16.168  68.092  1.00  0.00     0.000 H  
ENDBRANCH   5   6
TORSDOF 1
ENDMDL
MODEL      124
REMARK 921   NORMALIZED FREE ENERGY PREDICTED BY IDOCK:   -1.63 KCAL/MOL
REMARK 922        TOTAL FREE ENERGY PREDICTED BY IDOCK:   -1.76 KCAL/MOL
REMARK 923 INTER-LIGAND FREE ENERGY PREDICTED BY IDOCK:   -1.75 KCAL/MOL
REMARK 924 INTRA-LIGAND FREE ENERGY PREDICTED BY IDOCK:   -0.01 KCAL/MOL
REMARK 927      BINDING AFFINITY PREDICTED BY RF-SCORE:    0.00 PKD
ROOT
HETATM    1  O   UNL     1     -10.536   5.979  72.223  1.00  0.00    -0.195 OA 
HETATM    2  S   UNL     1     -10.736   7.575  72.357  1.00  0.00    -0.289 S  
HETATM    3  O   UNL     1      -9.732   8.050  73.279  1.00  0.00    -0.286 OA 
HETATM    4  O   UNL     1     -12.146   7.798  72.573  1.00  0.00    -0.286 OA 
HETATM    5  C   UNL     1     -10.292   8.027  70.690  1.00  0.00    -0.202 C  
ENDROOT
BRANCH   5   6
HETATM    6  C   UNL     1     -10.377   9.531  70.536  1.00  0.00    -0.288 C  
HETATM    7  S   UNL     1      -9.579  10.064  68.990  1.00  0.00    -0.208 SA 
HETATM    8  H   UNL     1      -9.658  11.445  68.848  1.00  0.00     0.000 H  
ENDBRANCH   5   6
TORSDOF 1
ENDMDL
MODEL      125
REMARK 921   NORMALIZED FREE ENERGY PREDICTED BY IDOCK:   -1.62 KCAL/MOL
REMARK 922        TOTAL FREE ENERGY PREDICTED BY IDOCK:   -1.76 KCAL/MOL
REMARK 923 INTER-LIGAND FREE ENERGY PREDICTED BY IDOCK:   -1.74 KCAL/MOL
REMARK 924 INTRA-LIGAND FREE ENERGY PREDICTED BY IDOCK:   -0.02 KCAL/MOL
REMARK 927      BINDING AFFINITY PREDICTED BY RF-SCORE:    0.00 PKD
ROOT
HETATM    1  O   UNL     1     -10.161   5.275  68.372  1.00  0.00    -0.170 OA 
HETATM    2  S   UNL     1     -10.183   6.704  69.122  1.00  0.00    -0.191 S  
HETATM    3  O   UNL     1     -10.525   7.695  68.130  1.00  0.00    -0.203 OA 
HETATM    4  O   UNL     1      -8.969   6.781  69.901  1.00  0.00    -0.144 OA 
HETATM    5  C   UNL     1     -11.580   6.408  70.191  1.00  0.00    -0.381 C  
ENDROOT
BRANCH   5   6
HETATM    6  C   UNL     1     -11.845   7.644  71.026  1.00  0.00    -0.285 C  
HETATM    7  S   UNL     1     -11.067   7.490  72.664  1.00  0.00    -0.369 SA 
HETATM    8  H   UNL     1     -11.310   8.625  73.430  1.00  0.00     0.000 H  
ENDBRANCH   5   6
TORSDOF 1
ENDMDL
MODEL      126
REMARK 921   NORMALIZED FREE ENERGY PREDICTED BY IDOCK:   -1.60 KCAL/MOL
REMARK 922        TOTAL FREE ENERGY PREDICTED BY IDOCK:   -1.74 KCAL/MOL
REMARK 923 INTER-LIGAND FREE ENERGY PREDICTED BY IDOCK:   -1.72 KCAL/MOL
REMARK 924 INTRA-LIGAND FREE ENERGY PREDICTED BY IDOCK:   -0.02 KCAL/MOL
REMARK 927      BINDING AFFINITY PREDICTED BY RF-SCORE:    0.00 PKD
ROOT
HETATM    1  O   UNL     1     -11.429   5.161  72.823  1.00  0.00    -0.268 OA 
HETATM    2  S   UNL     1     -10.372   5.839  71.808  1.00  0.00    -0.228 S  
HETATM    3  O   UNL     1     -10.049   4.847  70.811  1.00  0.00    -0.223 OA 
HETATM    4  O   UNL     1      -9.360   6.468  72.623  1.00  0.00    -0.142 OA 
HETATM    5  C   UNL     1     -11.450   7.075  71.108  1.00  0.00    -0.294 C  
ENDROOT
BRANCH   5   6
HETATM    6  C   UNL     1     -10.692   7.875  70.068  1.00  0.00    -0.244 C  
HETATM    7  S   UNL     1     -10.852   9.658  70.389  1.00  0.00    -0.319 SA 
HETATM    8  H   UNL     1     -10.155  10.392  69.435  1.00  0.00     0.000 H  
ENDBRANCH   5   6
TORSDOF 1
ENDMDL
MODEL      127
REMARK 921   NORMALIZED FREE ENERGY PREDICTED BY IDOCK:   -1.59 KCAL/MOL
REMARK 922        TOTAL FREE ENERGY PREDICTED BY IDOCK:   -1.73 KCAL/MOL
REMARK 923 INTER-LIGAND FREE ENERGY PREDICTED BY IDOCK:   -1.72 KCAL/MOL
REMARK 924 INTRA-LIGAND FREE ENERGY PREDICTED BY IDOCK:   -0.01 KCAL/MOL
REMARK 927      BINDING AFFINITY PREDICTED BY RF-SCORE:    0.00 PKD
ROOT
HETATM    1  O   UNL     1     -10.682   8.600  66.991  1.00  0.00    -0.271 OA 
HETATM    2  S   UNL     1     -10.582   9.935  67.893  1.00  0.00    -0.264 S  
HETATM    3  O   UNL     1     -10.251   9.514  69.234  1.00  0.00    -0.186 OA 
HETATM    4  O   UNL     1     -11.758  10.721  67.601  1.00  0.00    -0.538 OA 
HETATM    5  C   UNL     1      -9.151  10.661  67.114  1.00  0.00    -0.143 C  
ENDROOT
BRANCH   5   6
HETATM    6  C   UNL     1      -8.810  11.966  67.804  1.00  0.00    -0.166 C  
HETATM    7  S   UNL     1      -7.089  12.442  67.459  1.00  0.00    -0.152 SA 
HETATM    8  H   UNL     1      -6.776  13.640  68.092  1.00  0.00     0.000 H  
ENDBRANCH   5   6
TORSDOF 1
ENDMDL
MODEL      128
REMARK 921   NORMALIZED FREE ENERGY PREDICTED BY IDOCK:   -1.57 KCAL/MOL
REMARK 922        TOTAL FREE ENERGY PREDICTED BY IDOCK:   -1.71 KCAL/MOL
REMARK 923 INTER-LIGAND FREE ENERGY PREDICTED BY IDOCK:   -1.67 KCAL/MOL
REMARK 924 INTRA-LIGAND FREE ENERGY PREDICTED BY IDOCK:   -0.04 KCAL/MOL
REMARK 927      BINDING AFFINITY PREDICTED BY RF-SCORE:    0.00 PKD
ROOT
HETATM    1  O   UNL     1     -10.588   8.248  72.313  1.00  0.00    -0.273 OA 
HETATM    2  S   UNL     1     -10.567   6.781  71.639  1.00  0.00    -0.216 S  
HETATM    3  O   UNL     1     -11.683   6.049  72.190  1.00  0.00    -0.311 OA 
HETATM    4  O   UNL     1      -9.209   6.301  71.735  1.00  0.00    -0.145 OA 
HETATM    5  C   UNL     1     -10.929   7.268  69.962  1.00  0.00    -0.253 C  
ENDROOT
BRANCH   5   6
HETATM    6  C   UNL     1     -10.991   6.036  69.083  1.00  0.00    -0.359 C  
HETATM    7  S   UNL     1      -9.510   5.923  68.032  1.00  0.00    -0.109 SA 
HETATM    8  H   UNL     1      -9.567   4.792  67.225  1.00  0.00     0.000 H  
ENDBRANCH   5   6
TORSDOF 1
ENDMDL
MODEL      129
REMARK 921   NORMALIZED FREE ENERGY PREDICTED BY IDOCK:   -1.57 KCAL/MOL
REMARK 922        TOTAL FREE ENERGY PREDICTED BY IDOCK:   -1.70 KCAL/MOL
REMARK 923 INTER-LIGAND FREE ENERGY PREDICTED BY IDOCK:   -1.66 KCAL/MOL
REMARK 924 INTRA-LIGAND FREE ENERGY PREDICTED BY IDOCK:   -0.04 KCAL/MOL
REMARK 927      BINDING AFFINITY PREDICTED BY RF-SCORE:    0.00 PKD
ROOT
HETATM    1  O   UNL     1     -10.974   4.302  65.174  1.00  0.00    -0.231 OA 
HETATM    2  S   UNL     1      -9.932   4.801  66.302  1.00  0.00    -0.265 S  
HETATM    3  O   UNL     1      -8.822   5.412  65.610  1.00  0.00    -0.148 OA 
HETATM    4  O   UNL     1      -9.755   3.699  67.218  1.00  0.00    -0.198 OA 
HETATM    5  C   UNL     1     -10.950   6.061  67.048  1.00  0.00    -0.276 C  
ENDROOT
BRANCH   5   6
HETATM    6  C   UNL     1     -10.181   6.732  68.168  1.00  0.00    -0.174 C  
HETATM    7  S   UNL     1     -10.861   6.255  69.787  1.00  0.00    -0.372 SA 
HETATM    8  H   UNL     1     -10.155   6.870  70.815  1.00  0.00     0.000 H  
ENDBRANCH   5   6
TORSDOF 1
ENDMDL
MODEL      130
REMARK 921   NORMALIZED FREE ENERGY PREDICTED BY IDOCK:   -1.56 KCAL/MOL
REMARK 922        TOTAL FREE ENERGY PREDICTED BY IDOCK:   -1.70 KCAL/MOL
REMARK 923 INTER-LIGAND FREE ENERGY PREDICTED BY IDOCK:   -1.68 KCAL/MOL
REMARK 924 INTRA-LIGAND FREE ENERGY PREDICTED BY IDOCK:   -0.01 KCAL/MOL
REMARK 927      BINDING AFFINITY PREDICTED BY RF-SCORE:    0.00 PKD
ROOT
HETATM    1  O   UNL     1     -11.218   7.603  70.827  1.00  0.00    -0.261 OA 
HETATM    2  S   UNL     1     -10.481   9.022  71.055  1.00  0.00    -0.296 S  
HETATM    3  O   UNL     1      -9.460   8.811  72.053  1.00  0.00    -0.281 OA 
HETATM    4  O   UNL     1     -11.523  10.008  71.216  1.00  0.00    -0.364 OA 
HETATM    5  C   UNL     1      -9.732   9.179  69.444  1.00  0.00    -0.170 C  
ENDROOT
BRANCH   5   6
HETATM    6  C   UNL     1      -8.931  10.464  69.385  1.00  0.00    -0.151 C  
HETATM    7  S   UNL     1      -9.161  11.290  67.780  1.00  0.00    -0.160 SA 
HETATM    8  H   UNL     1      -8.426  12.469  67.726  1.00  0.00     0.000 H  
ENDBRANCH   5   6
TORSDOF 1
ENDMDL
MODEL      131
REMARK 921   NORMALIZED FREE ENERGY PREDICTED BY IDOCK:   -1.55 KCAL/MOL
REMARK 922        TOTAL FREE ENERGY PREDICTED BY IDOCK:   -1.68 KCAL/MOL
REMARK 923 INTER-LIGAND FREE ENERGY PREDICTED BY IDOCK:   -1.64 KCAL/MOL
REMARK 924 INTRA-LIGAND FREE ENERGY PREDICTED BY IDOCK:   -0.04 KCAL/MOL
REMARK 927      BINDING AFFINITY PREDICTED BY RF-SCORE:    0.00 PKD
ROOT
HETATM    1  O   UNL     1     -10.678  10.457  70.149  1.00  0.00    -0.280 OA 
HETATM    2  S   UNL     1      -9.619  10.160  68.966  1.00  0.00    -0.207 S  
HETATM    3  O   UNL     1      -8.865   8.994  69.359  1.00  0.00    -0.137 OA 
HETATM    4  O   UNL     1      -8.984  11.419  68.654  1.00  0.00    -0.172 OA 
HETATM    5  C   UNL     1     -10.784   9.727  67.687  1.00  0.00    -0.274 C  
ENDROOT
BRANCH   5   6
HETATM    6  C   UNL     1     -10.032   9.369  66.421  1.00  0.00    -0.276 C  
HETATM    7  S   UNL     1     -10.055  10.759  65.247  1.00  0.00    -0.295 SA 
HETATM    8  H   UNL     1      -9.364  10.430  64.086  1.00  0.00     0.000 H  
ENDBRANCH   5   6
TORSDOF 1
ENDMDL
MODEL      132
REMARK 921   NORMALIZED FREE ENERGY PREDICTED BY IDOCK:   -1.54 KCAL/MOL
REMARK 922        TOTAL FREE ENERGY PREDICTED BY IDOCK:   -1.67 KCAL/MOL
REMARK 923 INTER-LIGAND FREE ENERGY PREDICTED BY IDOCK:   -1.66 KCAL/MOL
REMARK 924 INTRA-LIGAND FREE ENERGY PREDICTED BY IDOCK:   -0.01 KCAL/MOL
REMARK 927      BINDING AFFINITY PREDICTED BY RF-SCORE:    0.00 PKD
ROOT
HETATM    1  O   UNL     1      -8.587   8.594  72.826  1.00  0.00    -0.394 OA 
HETATM    2  S   UNL     1      -8.351   8.851  71.249  1.00  0.00    -0.128 S  
HETATM    3  O   UNL     1      -8.110   7.563  70.644  1.00  0.00    -0.106 OA 
HETATM    4  O   UNL     1      -7.407   9.939  71.145  1.00  0.00    -0.275 OA 
HETATM    5  C   UNL     1      -9.990   9.420  70.836  1.00  0.00    -0.283 C  
ENDROOT
BRANCH   5   6
HETATM    6  C   UNL     1     -10.058   9.726  69.354  1.00  0.00    -0.209 C  
HETATM    7  S   UNL     1     -11.113  11.176  69.047  1.00  0.00    -0.265 SA 
HETATM    8  H   UNL     1     -11.175  11.457  67.686  1.00  0.00     0.000 H  
ENDBRANCH   5   6
TORSDOF 1
ENDMDL
MODEL      133
REMARK 921   NORMALIZED FREE ENERGY PREDICTED BY IDOCK:   -1.53 KCAL/MOL
REMARK 922        TOTAL FREE ENERGY PREDICTED BY IDOCK:   -1.66 KCAL/MOL
REMARK 923 INTER-LIGAND FREE ENERGY PREDICTED BY IDOCK:   -1.62 KCAL/MOL
REMARK 924 INTRA-LIGAND FREE ENERGY PREDICTED BY IDOCK:   -0.04 KCAL/MOL
REMARK 927      BINDING AFFINITY PREDICTED BY RF-SCORE:    0.00 PKD
ROOT
HETATM    1  O   UNL     1     -11.211   6.105  68.665  1.00  0.00    -0.356 OA 
HETATM    2  S   UNL     1     -10.547   6.431  67.230  1.00  0.00    -0.360 S  
HETATM    3  O   UNL     1     -10.868   7.804  66.920  1.00  0.00    -0.311 OA 
HETATM    4  O   UNL     1     -10.900   5.340  66.353  1.00  0.00    -0.292 OA 
HETATM    5  C   UNL     1      -8.833   6.302  67.709  1.00  0.00    -0.111 C  
ENDROOT
BRANCH   5   6
HETATM    6  C   UNL     1      -7.953   6.593  66.511  1.00  0.00    -0.106 C  
HETATM    7  S   UNL     1      -7.224   8.255  66.640  1.00  0.00    -0.082 SA 
HETATM    8  H   UNL     1      -6.416   8.522  65.540  1.00  0.00     0.000 H  
ENDBRANCH   5   6
TORSDOF 1
ENDMDL
MODEL      134
REMARK 921   NORMALIZED FREE ENERGY PREDICTED BY IDOCK:   -1.48 KCAL/MOL
REMARK 922        TOTAL FREE ENERGY PREDICTED BY IDOCK:   -1.61 KCAL/MOL
REMARK 923 INTER-LIGAND FREE ENERGY PREDICTED BY IDOCK:   -1.59 KCAL/MOL
REMARK 924 INTRA-LIGAND FREE ENERGY PREDICTED BY IDOCK:   -0.01 KCAL/MOL
REMARK 927      BINDING AFFINITY PREDICTED BY RF-SCORE:    0.00 PKD
ROOT
HETATM    1  O   UNL     1     -11.020   7.919  69.861  1.00  0.00    -0.243 OA 
HETATM    2  S   UNL     1     -10.295   7.537  68.470  1.00  0.00    -0.185 S  
HETATM    3  O   UNL     1     -11.147   6.586  67.798  1.00  0.00    -0.313 OA 
HETATM    4  O   UNL     1      -8.917   7.245  68.789  1.00  0.00    -0.130 OA 
HETATM    5  C   UNL     1     -10.416   9.129  67.676  1.00  0.00    -0.261 C  
ENDROOT
BRANCH   5   6
HETATM    6  C   UNL     1      -9.806   9.049  66.292  1.00  0.00    -0.291 C  
HETATM    7  S   UNL     1      -8.797  10.524  65.950  1.00  0.00    -0.171 SA 
HETATM    8  H   UNL     1      -8.237  10.450  64.679  1.00  0.00     0.000 H  
ENDBRANCH   5   6
TORSDOF 1
ENDMDL
MODEL      135
REMARK 921   NORMALIZED FREE ENERGY PREDICTED BY IDOCK:   -1.44 KCAL/MOL
REMARK 922        TOTAL FREE ENERGY PREDICTED BY IDOCK:   -1.57 KCAL/MOL
REMARK 923 INTER-LIGAND FREE ENERGY PREDICTED BY IDOCK:   -1.56 KCAL/MOL
REMARK 924 INTRA-LIGAND FREE ENERGY PREDICTED BY IDOCK:   -0.01 KCAL/MOL
REMARK 927      BINDING AFFINITY PREDICTED BY RF-SCORE:    0.00 PKD
ROOT
HETATM    1  O   UNL     1     -11.256   6.053  68.699  1.00  0.00    -0.307 OA 
HETATM    2  S   UNL     1      -9.917   5.902  69.589  1.00  0.00    -0.195 S  
HETATM    3  O   UNL     1      -9.099   7.060  69.319  1.00  0.00    -0.138 OA 
HETATM    4  O   UNL     1      -9.435   4.556  69.386  1.00  0.00    -0.140 OA 
HETATM    5  C   UNL     1     -10.665   6.049  71.201  1.00  0.00    -0.264 C  
ENDROOT
BRANCH   5   6
HETATM    6  C   UNL     1      -9.590   5.959  72.265  1.00  0.00    -0.150 C  
HETATM    7  S   UNL     1     -10.058   6.929  73.731  1.00  0.00    -0.361 SA 
HETATM    8  H   UNL     1      -9.072   6.847  74.708  1.00  0.00     0.000 H  
ENDBRANCH   5   6
TORSDOF 1
ENDMDL
MODEL      136
REMARK 921   NORMALIZED FREE ENERGY PREDICTED BY IDOCK:   -1.44 KCAL/MOL
REMARK 922        TOTAL FREE ENERGY PREDICTED BY IDOCK:   -1.56 KCAL/MOL
REMARK 923 INTER-LIGAND FREE ENERGY PREDICTED BY IDOCK:   -1.52 KCAL/MOL
REMARK 924 INTRA-LIGAND FREE ENERGY PREDICTED BY IDOCK:   -0.04 KCAL/MOL
REMARK 927      BINDING AFFINITY PREDICTED BY RF-SCORE:    0.00 PKD
ROOT
HETATM    1  O   UNL     1      -8.867  14.552  68.438  1.00  0.00    -0.169 OA 
HETATM    2  S   UNL     1      -7.640  15.576  68.213  1.00  0.00    -0.119 S  
HETATM    3  O   UNL     1      -6.868  15.072  67.103  1.00  0.00    -0.260 OA 
HETATM    4  O   UNL     1      -7.056  15.813  69.513  1.00  0.00    -0.195 OA 
HETATM    5  C   UNL     1      -8.587  16.998  67.699  1.00  0.00    -0.210 C  
ENDROOT
BRANCH   5   6
HETATM    6  C   UNL     1      -7.646  18.145  67.392  1.00  0.00    -0.213 C  
HETATM    7  S   UNL     1      -7.779  19.440  68.663  1.00  0.00    -0.357 SA 
HETATM    8  H   UNL     1      -6.915  20.493  68.382  1.00  0.00     0.000 H  
ENDBRANCH   5   6
TORSDOF 1
ENDMDL
MODEL      137
REMARK 921   NORMALIZED FREE ENERGY PREDICTED BY IDOCK:   -1.43 KCAL/MOL
REMARK 922        TOTAL FREE ENERGY PREDICTED BY IDOCK:   -1.55 KCAL/MOL
REMARK 923 INTER-LIGAND FREE ENERGY PREDICTED BY IDOCK:   -1.53 KCAL/MOL
REMARK 924 INTRA-LIGAND FREE ENERGY PREDICTED BY IDOCK:   -0.03 KCAL/MOL
REMARK 927      BINDING AFFINITY PREDICTED BY RF-SCORE:    0.00 PKD
ROOT
HETATM    1  O   UNL     1     -11.059   5.937  68.482  1.00  0.00    -0.274 OA 
HETATM    2  S   UNL     1     -10.886   6.989  69.695  1.00  0.00    -0.237 S  
HETATM    3  O   UNL     1     -12.032   6.828  70.559  1.00  0.00    -0.386 OA 
HETATM    4  O   UNL     1     -10.545   8.258  69.097  1.00  0.00    -0.219 OA 
HETATM    5  C   UNL     1      -9.446   6.263  70.457  1.00  0.00    -0.162 C  
ENDROOT
BRANCH   5   6
HETATM    6  C   UNL     1      -9.063   7.070  71.680  1.00  0.00    -0.138 C  
HETATM    7  S   UNL     1      -7.713   8.225  71.289  1.00  0.00    -0.109 SA 
HETATM    8  H   UNL     1      -7.361   8.966  72.412  1.00  0.00     0.000 H  
ENDBRANCH   5   6
TORSDOF 1
ENDMDL
MODEL      138
REMARK 921   NORMALIZED FREE ENERGY PREDICTED BY IDOCK:   -1.42 KCAL/MOL
REMARK 922        TOTAL FREE ENERGY PREDICTED BY IDOCK:   -1.54 KCAL/MOL
REMARK 923 INTER-LIGAND FREE ENERGY PREDICTED BY IDOCK:   -1.52 KCAL/MOL
REMARK 924 INTRA-LIGAND FREE ENERGY PREDICTED BY IDOCK:   -0.02 KCAL/MOL
REMARK 927      BINDING AFFINITY PREDICTED BY RF-SCORE:    0.00 PKD
ROOT
HETATM    1  O   UNL     1     -10.392   9.485  66.403  1.00  0.00    -0.240 OA 
HETATM    2  S   UNL     1     -10.043  10.937  65.789  1.00  0.00    -0.262 S  
HETATM    3  O   UNL     1     -11.286  11.511  65.333  1.00  0.00    -0.245 OA 
HETATM    4  O   UNL     1      -8.911  10.753  64.911  1.00  0.00    -0.192 OA 
HETATM    5  C   UNL     1      -9.524  11.732  67.299  1.00  0.00    -0.170 C  
ENDROOT
BRANCH   5   6
HETATM    6  C   UNL     1      -9.145  13.169  67.006  1.00  0.00    -0.231 C  
HETATM    7  S   UNL     1      -7.504  13.552  67.693  1.00  0.00    -0.181 SA 
HETATM    8  H   UNL     1      -7.155  14.871  67.424  1.00  0.00     0.000 H  
ENDBRANCH   5   6
TORSDOF 1
ENDMDL
MODEL      139
REMARK 921   NORMALIZED FREE ENERGY PREDICTED BY IDOCK:   -1.40 KCAL/MOL
REMARK 922        TOTAL FREE ENERGY PREDICTED BY IDOCK:   -1.52 KCAL/MOL
REMARK 923 INTER-LIGAND FREE ENERGY PREDICTED BY IDOCK:   -1.48 KCAL/MOL
REMARK 924 INTRA-LIGAND FREE ENERGY PREDICTED BY IDOCK:   -0.04 KCAL/MOL
REMARK 927      BINDING AFFINITY PREDICTED BY RF-SCORE:    0.00 PKD
ROOT
HETATM    1  O   UNL     1     -11.482   6.111  69.524  1.00  0.00    -0.429 OA 
HETATM    2  S   UNL     1     -10.541   5.844  70.808  1.00  0.00    -0.278 S  
HETATM    3  O   UNL     1     -10.148   4.456  70.761  1.00  0.00    -0.204 OA 
HETATM    4  O   UNL     1     -11.223   6.413  71.946  1.00  0.00    -0.253 OA 
HETATM    5  C   UNL     1      -9.168   6.880  70.335  1.00  0.00    -0.156 C  
ENDROOT
BRANCH   5   6
HETATM    6  C   UNL     1      -8.088   6.799  71.395  1.00  0.00    -0.110 C  
HETATM    7  S   UNL     1      -6.604   5.980  70.734  1.00  0.00    -0.049 SA 
HETATM    8  H   UNL     1      -5.612   5.905  71.707  1.00  0.00     0.000 H  
ENDBRANCH   5   6
TORSDOF 1
ENDMDL
MODEL      140
REMARK 921   NORMALIZED FREE ENERGY PREDICTED BY IDOCK:   -1.36 KCAL/MOL
REMARK 922        TOTAL FREE ENERGY PREDICTED BY IDOCK:   -1.48 KCAL/MOL
REMARK 923 INTER-LIGAND FREE ENERGY PREDICTED BY IDOCK:   -1.47 KCAL/MOL
REMARK 924 INTRA-LIGAND FREE ENERGY PREDICTED BY IDOCK:   -0.01 KCAL/MOL
REMARK 927      BINDING AFFINITY PREDICTED BY RF-SCORE:    0.00 PKD
ROOT
HETATM    1  O   UNL     1     -10.049   4.384  70.743  1.00  0.00    -0.204 OA 
HETATM    2  S   UNL     1     -10.080   5.582  69.660  1.00  0.00    -0.263 S  
HETATM    3  O   UNL     1      -8.902   6.385  69.886  1.00  0.00    -0.140 OA 
HETATM    4  O   UNL     1     -11.412   6.140  69.700  1.00  0.00    -0.429 OA 
HETATM    5  C   UNL     1      -9.872   4.597  68.188  1.00  0.00    -0.107 C  
ENDROOT
BRANCH   5   6
HETATM    6  C   UNL     1      -9.845   5.505  66.975  1.00  0.00    -0.158 C  
HETATM    7  S   UNL     1      -9.362   4.574  65.489  1.00  0.00    -0.171 SA 
HETATM    8  H   UNL     1      -9.337   5.407  64.375  1.00  0.00     0.000 H  
ENDBRANCH   5   6
TORSDOF 1
ENDMDL
MODEL      141
REMARK 921   NORMALIZED FREE ENERGY PREDICTED BY IDOCK:   -1.35 KCAL/MOL
REMARK 922        TOTAL FREE ENERGY PREDICTED BY IDOCK:   -1.47 KCAL/MOL
REMARK 923 INTER-LIGAND FREE ENERGY PREDICTED BY IDOCK:   -1.46 KCAL/MOL
REMARK 924 INTRA-LIGAND FREE ENERGY PREDICTED BY IDOCK:   -0.01 KCAL/MOL
REMARK 927      BINDING AFFINITY PREDICTED BY RF-SCORE:    0.00 PKD
ROOT
HETATM    1  O   UNL     1     -10.101   3.237  74.029  1.00  0.00    -0.114 OA 
HETATM    2  S   UNL     1      -9.781   4.174  72.754  1.00  0.00    -0.142 S  
HETATM    3  O   UNL     1     -10.024   3.377  71.575  1.00  0.00    -0.171 OA 
HETATM    4  O   UNL     1      -8.506   4.801  73.011  1.00  0.00    -0.103 OA 
HETATM    5  C   UNL     1     -11.100   5.355  72.971  1.00  0.00    -0.313 C  
ENDROOT
BRANCH   5   6
HETATM    6  C   UNL     1     -11.047   6.379  71.855  1.00  0.00    -0.268 C  
HETATM    7  S   UNL     1     -12.715   7.000  71.476  1.00  0.00    -0.354 SA 
HETATM    8  H   UNL     1     -12.666   7.940  70.452  1.00  0.00     0.000 H  
ENDBRANCH   5   6
TORSDOF 1
ENDMDL
MODEL      142
REMARK 921   NORMALIZED FREE ENERGY PREDICTED BY IDOCK:   -1.35 KCAL/MOL
REMARK 922        TOTAL FREE ENERGY PREDICTED BY IDOCK:   -1.47 KCAL/MOL
REMARK 923 INTER-LIGAND FREE ENERGY PREDICTED BY IDOCK:   -1.43 KCAL/MOL
REMARK 924 INTRA-LIGAND FREE ENERGY PREDICTED BY IDOCK:   -0.04 KCAL/MOL
REMARK 927      BINDING AFFINITY PREDICTED BY RF-SCORE:    0.00 PKD
ROOT
HETATM    1  O   UNL     1      -8.111   9.658  67.782  1.00  0.00    -0.111 OA 
HETATM    2  S   UNL     1      -8.881  11.035  68.127  1.00  0.00    -0.147 S  
HETATM    3  O   UNL     1      -7.917  11.913  68.745  1.00  0.00    -0.123 OA 
HETATM    4  O   UNL     1     -10.116  10.666  68.778  1.00  0.00    -0.174 OA 
HETATM    5  C   UNL     1      -9.205  11.569  66.456  1.00  0.00    -0.194 C  
ENDROOT
BRANCH   5   6
HETATM    6  C   UNL     1      -9.929  12.899  66.484  1.00  0.00    -0.259 C  
HETATM    7  S   UNL     1     -11.661  12.696  65.964  1.00  0.00    -0.425 SA 
HETATM    8  H   UNL     1     -12.327  13.917  65.990  1.00  0.00     0.000 H  
ENDBRANCH   5   6
TORSDOF 1
ENDMDL
MODEL      143
REMARK 921   NORMALIZED FREE ENERGY PREDICTED BY IDOCK:   -1.34 KCAL/MOL
REMARK 922        TOTAL FREE ENERGY PREDICTED BY IDOCK:   -1.46 KCAL/MOL
REMARK 923 INTER-LIGAND FREE ENERGY PREDICTED BY IDOCK:   -1.45 KCAL/MOL
REMARK 924 INTRA-LIGAND FREE ENERGY PREDICTED BY IDOCK:   -0.02 KCAL/MOL
REMARK 927      BINDING AFFINITY PREDICTED BY RF-SCORE:    0.00 PKD
ROOT
HETATM    1  O   UNL     1     -10.291   4.759  70.601  1.00  0.00    -0.208 OA 
HETATM    2  S   UNL     1     -10.178   6.356  70.396  1.00  0.00    -0.199 S  
HETATM    3  O   UNL     1      -8.814   6.723  70.691  1.00  0.00    -0.148 OA 
HETATM    4  O   UNL     1     -11.301   6.943  71.089  1.00  0.00    -0.263 OA 
HETATM    5  C   UNL     1     -10.453   6.404  68.634  1.00  0.00    -0.223 C  
ENDROOT
BRANCH   5   6
HETATM    6  C   UNL     1     -10.377   7.839  68.152  1.00  0.00    -0.200 C  
HETATM    7  S   UNL     1      -9.323   7.963  66.674  1.00  0.00    -0.205 SA 
HETATM    8  H   UNL     1      -9.253   9.279  66.231  1.00  0.00     0.000 H  
ENDBRANCH   5   6
TORSDOF 1
ENDMDL
MODEL      144
REMARK 921   NORMALIZED FREE ENERGY PREDICTED BY IDOCK:   -1.34 KCAL/MOL
REMARK 922        TOTAL FREE ENERGY PREDICTED BY IDOCK:   -1.46 KCAL/MOL
REMARK 923 INTER-LIGAND FREE ENERGY PREDICTED BY IDOCK:   -1.43 KCAL/MOL
REMARK 924 INTRA-LIGAND FREE ENERGY PREDICTED BY IDOCK:   -0.04 KCAL/MOL
REMARK 927      BINDING AFFINITY PREDICTED BY RF-SCORE:    0.00 PKD
ROOT
HETATM    1  O   UNL     1      -7.041  13.660  69.320  1.00  0.00    -0.080 OA 
HETATM    2  S   UNL     1      -7.539  13.689  67.785  1.00  0.00    -0.181 S  
HETATM    3  O   UNL     1      -6.916  12.570  67.119  1.00  0.00    -0.141 OA 
HETATM    4  O   UNL     1      -7.375  15.048  67.323  1.00  0.00    -0.199 OA 
HETATM    5  C   UNL     1      -9.264  13.343  68.072  1.00  0.00    -0.209 C  
ENDROOT
BRANCH   5   6
HETATM    6  C   UNL     1      -9.994  13.290  66.745  1.00  0.00    -0.263 C  
HETATM    7  S   UNL     1     -11.173  14.669  66.608  1.00  0.00    -0.353 SA 
HETATM    8  H   UNL     1     -11.844  14.622  65.390  1.00  0.00     0.000 H  
ENDBRANCH   5   6
TORSDOF 1
ENDMDL
MODEL      145
REMARK 921   NORMALIZED FREE ENERGY PREDICTED BY IDOCK:   -1.33 KCAL/MOL
REMARK 922        TOTAL FREE ENERGY PREDICTED BY IDOCK:   -1.45 KCAL/MOL
REMARK 923 INTER-LIGAND FREE ENERGY PREDICTED BY IDOCK:   -1.42 KCAL/MOL
REMARK 924 INTRA-LIGAND FREE ENERGY PREDICTED BY IDOCK:   -0.04 KCAL/MOL
REMARK 927      BINDING AFFINITY PREDICTED BY RF-SCORE:    0.00 PKD
ROOT
HETATM    1  O   UNL     1     -10.948   7.708  71.809  1.00  0.00    -0.232 OA 
HETATM    2  S   UNL     1     -10.620   6.409  72.710  1.00  0.00    -0.241 S  
HETATM    3  O   UNL     1     -11.810   5.592  72.720  1.00  0.00    -0.271 OA 
HETATM    4  O   UNL     1     -10.008   6.892  73.925  1.00  0.00    -0.264 OA 
HETATM    5  C   UNL     1      -9.387   5.672  71.653  1.00  0.00    -0.146 C  
ENDROOT
BRANCH   5   6
HETATM    6  C   UNL     1      -8.902   4.377  72.271  1.00  0.00    -0.113 C  
HETATM    7  S   UNL     1      -9.380   2.956  71.240  1.00  0.00    -0.148 SA 
HETATM    8  H   UNL     1      -8.936   1.767  71.807  1.00  0.00     0.000 H  
ENDBRANCH   5   6
TORSDOF 1
ENDMDL
MODEL      146
REMARK 921   NORMALIZED FREE ENERGY PREDICTED BY IDOCK:   -1.31 KCAL/MOL
REMARK 922        TOTAL FREE ENERGY PREDICTED BY IDOCK:   -1.42 KCAL/MOL
REMARK 923 INTER-LIGAND FREE ENERGY PREDICTED BY IDOCK:   -1.38 KCAL/MOL
REMARK 924 INTRA-LIGAND FREE ENERGY PREDICTED BY IDOCK:   -0.04 KCAL/MOL
REMARK 927      BINDING AFFINITY PREDICTED BY RF-SCORE:    0.00 PKD
ROOT
HETATM    1  O   UNL     1     -10.849   7.171  67.410  1.00  0.00    -0.282 OA 
HETATM    2  S   UNL     1      -9.867   8.416  67.714  1.00  0.00    -0.186 S  
HETATM    3  O   UNL     1      -8.540   7.875  67.881  1.00  0.00    -0.125 OA 
HETATM    4  O   UNL     1     -10.510   9.208  68.736  1.00  0.00    -0.215 OA 
HETATM    5  C   UNL     1      -9.997   9.233  66.134  1.00  0.00    -0.277 C  
ENDROOT
BRANCH   5   6
HETATM    6  C   UNL     1      -9.125  10.471  66.135  1.00  0.00    -0.162 C  
HETATM    7  S   UNL     1      -7.610  10.190  65.167  1.00  0.00    -0.135 SA 
HETATM    8  H   UNL     1      -6.810  11.327  65.168  1.00  0.00     0.000 H  
ENDBRANCH   5   6
TORSDOF 1
ENDMDL
MODEL      147
REMARK 921   NORMALIZED FREE ENERGY PREDICTED BY IDOCK:   -1.28 KCAL/MOL
REMARK 922        TOTAL FREE ENERGY PREDICTED BY IDOCK:   -1.39 KCAL/MOL
REMARK 923 INTER-LIGAND FREE ENERGY PREDICTED BY IDOCK:   -1.35 KCAL/MOL
REMARK 924 INTRA-LIGAND FREE ENERGY PREDICTED BY IDOCK:   -0.04 KCAL/MOL
REMARK 927      BINDING AFFINITY PREDICTED BY RF-SCORE:    0.00 PKD
ROOT
HETATM    1  O   UNL     1      -8.754  10.787  68.786  1.00  0.00    -0.150 OA 
HETATM    2  S   UNL     1      -8.587   9.467  67.871  1.00  0.00    -0.119 S  
HETATM    3  O   UNL     1      -7.935   8.470  68.686  1.00  0.00    -0.112 OA 
HETATM    4  O   UNL     1      -8.042   9.906  66.608  1.00  0.00    -0.115 OA 
HETATM    5  C   UNL     1     -10.315   9.065  67.688  1.00  0.00    -0.257 C  
ENDROOT
BRANCH   5   6
HETATM    6  C   UNL     1     -10.453   7.806  66.857  1.00  0.00    -0.317 C  
HETATM    7  S   UNL     1     -10.948   6.401  67.901  1.00  0.00    -0.279 SA 
HETATM    8  H   UNL     1     -11.075   5.245  67.138  1.00  0.00     0.000 H  
ENDBRANCH   5   6
TORSDOF 1
ENDMDL
MODEL      148
REMARK 921   NORMALIZED FREE ENERGY PREDICTED BY IDOCK:   -1.28 KCAL/MOL
REMARK 922        TOTAL FREE ENERGY PREDICTED BY IDOCK:   -1.39 KCAL/MOL
REMARK 923 INTER-LIGAND FREE ENERGY PREDICTED BY IDOCK:   -1.37 KCAL/MOL
REMARK 924 INTRA-LIGAND FREE ENERGY PREDICTED BY IDOCK:   -0.03 KCAL/MOL
REMARK 927      BINDING AFFINITY PREDICTED BY RF-SCORE:    0.00 PKD
ROOT
HETATM    1  O   UNL     1      -8.670   6.805  66.110  1.00  0.00    -0.140 OA 
HETATM    2  S   UNL     1      -9.599   6.863  67.429  1.00  0.00    -0.142 S  
HETATM    3  O   UNL     1      -8.907   6.133  68.465  1.00  0.00    -0.115 OA 
HETATM    4  O   UNL     1     -10.937   6.519  67.008  1.00  0.00    -0.368 OA 
HETATM    5  C   UNL     1      -9.487   8.615  67.742  1.00  0.00    -0.142 C  
ENDROOT
BRANCH   5   6
HETATM    6  C   UNL     1     -10.282   8.957  68.985  1.00  0.00    -0.206 C  
HETATM    7  S   UNL     1      -9.183   9.111  70.426  1.00  0.00    -0.252 SA 
HETATM    8  H   UNL     1      -9.913   9.425  71.568  1.00  0.00     0.000 H  
ENDBRANCH   5   6
TORSDOF 1
ENDMDL
MODEL      149
REMARK 921   NORMALIZED FREE ENERGY PREDICTED BY IDOCK:   -1.26 KCAL/MOL
REMARK 922        TOTAL FREE ENERGY PREDICTED BY IDOCK:   -1.37 KCAL/MOL
REMARK 923 INTER-LIGAND FREE ENERGY PREDICTED BY IDOCK:   -1.33 KCAL/MOL
REMARK 924 INTRA-LIGAND FREE ENERGY PREDICTED BY IDOCK:   -0.04 KCAL/MOL
REMARK 927      BINDING AFFINITY PREDICTED BY RF-SCORE:    0.00 PKD
ROOT
HETATM    1  O   UNL     1     -10.940   3.627  63.879  1.00  0.00    -0.282 OA 
HETATM    2  S   UNL     1      -9.688   4.015  64.823  1.00  0.00    -0.194 S  
HETATM    3  O   UNL     1      -8.877   4.952  64.083  1.00  0.00    -0.143 OA 
HETATM    4  O   UNL     1      -9.157   2.774  65.336  1.00  0.00    -0.144 OA 
HETATM    5  C   UNL     1     -10.591   4.870  66.101  1.00  0.00    -0.271 C  
ENDROOT
BRANCH   5   6
HETATM    6  C   UNL     1      -9.621   5.378  67.148  1.00  0.00    -0.137 C  
HETATM    7  S   UNL     1      -9.435   7.184  67.028  1.00  0.00    -0.163 SA 
HETATM    8  H   UNL     1      -8.545   7.650  67.989  1.00  0.00     0.000 H  
ENDBRANCH   5   6
TORSDOF 1
ENDMDL
MODEL      150
REMARK 921   NORMALIZED FREE ENERGY PREDICTED BY IDOCK:   -1.25 KCAL/MOL
REMARK 922        TOTAL FREE ENERGY PREDICTED BY IDOCK:   -1.37 KCAL/MOL
REMARK 923 INTER-LIGAND FREE ENERGY PREDICTED BY IDOCK:   -1.33 KCAL/MOL
REMARK 924 INTRA-LIGAND FREE ENERGY PREDICTED BY IDOCK:   -0.04 KCAL/MOL
REMARK 927      BINDING AFFINITY PREDICTED BY RF-SCORE:    0.00 PKD
ROOT
HETATM    1  O   UNL     1      -8.947  16.147  67.443  1.00  0.00    -0.188 OA 
HETATM    2  S   UNL     1      -8.048  14.934  68.012  1.00  0.00    -0.146 S  
HETATM    3  O   UNL     1      -7.904  15.146  69.433  1.00  0.00    -0.196 OA 
HETATM    4  O   UNL     1      -6.909  14.815  67.133  1.00  0.00    -0.242 OA 
HETATM    5  C   UNL     1      -9.197  13.603  67.710  1.00  0.00    -0.214 C  
ENDROOT
BRANCH   5   6
HETATM    6  C   UNL     1      -8.593  12.299  68.188  1.00  0.00    -0.181 C  
HETATM    7  S   UNL     1      -8.196  11.222  66.776  1.00  0.00    -0.160 SA 
HETATM    8  H   UNL     1      -7.641  10.024  67.214  1.00  0.00     0.000 H  
ENDBRANCH   5   6
TORSDOF 1
ENDMDL
MODEL      151
REMARK 921   NORMALIZED FREE ENERGY PREDICTED BY IDOCK:   -1.23 KCAL/MOL
REMARK 922        TOTAL FREE ENERGY PREDICTED BY IDOCK:   -1.35 KCAL/MOL
REMARK 923 INTER-LIGAND FREE ENERGY PREDICTED BY IDOCK:   -1.31 KCAL/MOL
REMARK 924 INTRA-LIGAND FREE ENERGY PREDICTED BY IDOCK:   -0.03 KCAL/MOL
REMARK 927      BINDING AFFINITY PREDICTED BY RF-SCORE:    0.00 PKD
ROOT
HETATM    1  O   UNL     1      -8.584   6.416  65.727  1.00  0.00    -0.148 OA 
HETATM    2  S   UNL     1      -9.773   5.733  66.580  1.00  0.00    -0.152 S  
HETATM    3  O   UNL     1     -10.096   4.487  65.928  1.00  0.00    -0.221 OA 
HETATM    4  O   UNL     1     -10.760   6.762  66.809  1.00  0.00    -0.294 OA 
HETATM    5  C   UNL     1      -8.859   5.416  68.078  1.00  0.00    -0.105 C  
ENDROOT
BRANCH   5   6
HETATM    6  C   UNL     1      -9.763   4.733  69.084  1.00  0.00    -0.188 C  
HETATM    7  S   UNL     1     -10.000   5.785  70.549  1.00  0.00    -0.206 SA 
HETATM    8  H   UNL     1     -10.831   5.159  71.472  1.00  0.00     0.000 H  
ENDBRANCH   5   6
TORSDOF 1
ENDMDL
MODEL      152
REMARK 921   NORMALIZED FREE ENERGY PREDICTED BY IDOCK:   -1.23 KCAL/MOL
REMARK 922        TOTAL FREE ENERGY PREDICTED BY IDOCK:   -1.34 KCAL/MOL
REMARK 923 INTER-LIGAND FREE ENERGY PREDICTED BY IDOCK:   -1.30 KCAL/MOL
REMARK 924 INTRA-LIGAND FREE ENERGY PREDICTED BY IDOCK:   -0.04 KCAL/MOL
REMARK 927      BINDING AFFINITY PREDICTED BY RF-SCORE:    0.00 PKD
ROOT
HETATM    1  O   UNL     1      -7.689   5.038  72.078  1.00  0.00    -0.098 OA 
HETATM    2  S   UNL     1      -9.212   4.762  71.617  1.00  0.00    -0.142 S  
HETATM    3  O   UNL     1      -9.535   3.413  72.016  1.00  0.00    -0.115 OA 
HETATM    4  O   UNL     1      -9.315   5.206  70.246  1.00  0.00    -0.142 OA 
HETATM    5  C   UNL     1     -10.019   5.926  72.700  1.00  0.00    -0.176 C  
ENDROOT
BRANCH   5   6
HETATM    6  C   UNL     1     -11.517   5.860  72.484  1.00  0.00    -0.298 C  
HETATM    7  S   UNL     1     -12.108   7.356  71.634  1.00  0.00    -0.333 SA 
HETATM    8  H   UNL     1     -13.483   7.295  71.435  1.00  0.00     0.000 H  
ENDBRANCH   5   6
TORSDOF 1
ENDMDL
MODEL      153
REMARK 921   NORMALIZED FREE ENERGY PREDICTED BY IDOCK:   -1.23 KCAL/MOL
REMARK 922        TOTAL FREE ENERGY PREDICTED BY IDOCK:   -1.34 KCAL/MOL
REMARK 923 INTER-LIGAND FREE ENERGY PREDICTED BY IDOCK:   -1.30 KCAL/MOL
REMARK 924 INTRA-LIGAND FREE ENERGY PREDICTED BY IDOCK:   -0.04 KCAL/MOL
REMARK 927      BINDING AFFINITY PREDICTED BY RF-SCORE:    0.00 PKD
ROOT
HETATM    1  O   UNL     1      -8.509   8.765  64.611  1.00  0.00    -0.169 OA 
HETATM    2  S   UNL     1      -8.887   9.210  66.116  1.00  0.00    -0.169 S  
HETATM    3  O   UNL     1      -7.829   8.733  66.974  1.00  0.00    -0.094 OA 
HETATM    4  O   UNL     1     -10.269   8.845  66.321  1.00  0.00    -0.284 OA 
HETATM    5  C   UNL     1      -8.745  10.975  65.901  1.00  0.00    -0.178 C  
ENDROOT
BRANCH   5   6
HETATM    6  C   UNL     1      -9.039  11.667  67.216  1.00  0.00    -0.167 C  
HETATM    7  S   UNL     1     -10.671  12.470  67.167  1.00  0.00    -0.242 SA 
HETATM    8  H   UNL     1     -10.941  13.105  68.374  1.00  0.00     0.000 H  
ENDBRANCH   5   6
TORSDOF 1
ENDMDL
MODEL      154
REMARK 921   NORMALIZED FREE ENERGY PREDICTED BY IDOCK:   -1.22 KCAL/MOL
REMARK 922        TOTAL FREE ENERGY PREDICTED BY IDOCK:   -1.34 KCAL/MOL
REMARK 923 INTER-LIGAND FREE ENERGY PREDICTED BY IDOCK:   -1.30 KCAL/MOL
REMARK 924 INTRA-LIGAND FREE ENERGY PREDICTED BY IDOCK:   -0.04 KCAL/MOL
REMARK 927      BINDING AFFINITY PREDICTED BY RF-SCORE:    0.00 PKD
ROOT
HETATM    1  O   UNL     1     -10.381   4.757  69.937  1.00  0.00    -0.238 OA 
HETATM    2  S   UNL     1     -10.477   6.044  70.907  1.00  0.00    -0.248 S  
HETATM    3  O   UNL     1     -11.782   6.009  71.524  1.00  0.00    -0.250 OA 
HETATM    4  O   UNL     1     -10.019   7.177  70.138  1.00  0.00    -0.185 OA 
HETATM    5  C   UNL     1      -9.233   5.562  72.091  1.00  0.00    -0.143 C  
ENDROOT
BRANCH   5   6
HETATM    6  C   UNL     1      -9.126   6.622  73.168  1.00  0.00    -0.127 C  
HETATM    7  S   UNL     1      -7.619   7.616  72.940  1.00  0.00    -0.105 SA 
HETATM    8  H   UNL     1      -7.520   8.590  73.928  1.00  0.00     0.000 H  
ENDBRANCH   5   6
TORSDOF 1
ENDMDL
MODEL      155
REMARK 921   NORMALIZED FREE ENERGY PREDICTED BY IDOCK:   -1.22 KCAL/MOL
REMARK 922        TOTAL FREE ENERGY PREDICTED BY IDOCK:   -1.33 KCAL/MOL
REMARK 923 INTER-LIGAND FREE ENERGY PREDICTED BY IDOCK:   -1.33 KCAL/MOL
REMARK 924 INTRA-LIGAND FREE ENERGY PREDICTED BY IDOCK:   -0.01 KCAL/MOL
REMARK 927      BINDING AFFINITY PREDICTED BY RF-SCORE:    0.00 PKD
ROOT
HETATM    1  O   UNL     1     -10.713   9.148  67.096  1.00  0.00    -0.255 OA 
HETATM    2  S   UNL     1      -9.839  10.181  66.217  1.00  0.00    -0.243 S  
HETATM    3  O   UNL     1     -10.627  11.382  66.072  1.00  0.00    -0.255 OA 
HETATM    4  O   UNL     1      -9.347   9.442  65.078  1.00  0.00    -0.251 OA 
HETATM    5  C   UNL     1      -8.520  10.457  67.385  1.00  0.00    -0.121 C  
ENDROOT
BRANCH   5   6
HETATM    6  C   UNL     1      -7.529  11.443  66.802  1.00  0.00    -0.137 C  
HETATM    7  S   UNL     1      -6.329  11.968  68.066  1.00  0.00    -0.065 SA 
HETATM    8  H   UNL     1      -5.419  12.873  67.531  1.00  0.00     0.000 H  
ENDBRANCH   5   6
TORSDOF 1
ENDMDL
MODEL      156
REMARK 921   NORMALIZED FREE ENERGY PREDICTED BY IDOCK:   -1.22 KCAL/MOL
REMARK 922        TOTAL FREE ENERGY PREDICTED BY IDOCK:   -1.33 KCAL/MOL
REMARK 923 INTER-LIGAND FREE ENERGY PREDICTED BY IDOCK:   -1.29 KCAL/MOL
REMARK 924 INTRA-LIGAND FREE ENERGY PREDICTED BY IDOCK:   -0.04 KCAL/MOL
REMARK 927      BINDING AFFINITY PREDICTED BY RF-SCORE:    0.00 PKD
ROOT
HETATM    1  O   UNL     1      -9.637   3.755  67.937  1.00  0.00    -0.181 OA 
HETATM    2  S   UNL     1      -9.503   4.908  66.815  1.00  0.00    -0.163 S  
HETATM    3  O   UNL     1     -10.820   5.109  66.259  1.00  0.00    -0.296 OA 
HETATM    4  O   UNL     1      -8.366   4.558  65.996  1.00  0.00    -0.112 OA 
HETATM    5  C   UNL     1      -9.087   6.265  67.895  1.00  0.00    -0.111 C  
ENDROOT
BRANCH   5   6
HETATM    6  C   UNL     1      -8.918   7.527  67.075  1.00  0.00    -0.130 C  
HETATM    7  S   UNL     1     -10.356   8.622  67.281  1.00  0.00    -0.296 SA 
HETATM    8  H   UNL     1     -10.202   9.781  66.528  1.00  0.00     0.000 H  
ENDBRANCH   5   6
TORSDOF 1
ENDMDL
MODEL      157
REMARK 921   NORMALIZED FREE ENERGY PREDICTED BY IDOCK:   -1.21 KCAL/MOL
REMARK 922        TOTAL FREE ENERGY PREDICTED BY IDOCK:   -1.32 KCAL/MOL
REMARK 923 INTER-LIGAND FREE ENERGY PREDICTED BY IDOCK:   -1.28 KCAL/MOL
REMARK 924 INTRA-LIGAND FREE ENERGY PREDICTED BY IDOCK:   -0.04 KCAL/MOL
REMARK 927      BINDING AFFINITY PREDICTED BY RF-SCORE:    0.00 PKD
ROOT
HETATM    1  O   UNL     1      -7.816  11.672  66.635  1.00  0.00    -0.149 OA 
HETATM    2  S   UNL     1      -7.221  12.793  67.633  1.00  0.00    -0.152 S  
HETATM    3  O   UNL     1      -5.908  13.139  67.143  1.00  0.00    -0.332 OA 
HETATM    4  O   UNL     1      -7.439  12.308  68.976  1.00  0.00    -0.058 OA 
HETATM    5  C   UNL     1      -8.373  14.102  67.259  1.00  0.00    -0.196 C  
ENDROOT
BRANCH   5   6
HETATM    6  C   UNL     1      -8.021  15.330  68.074  1.00  0.00    -0.131 C  
HETATM    7  S   UNL     1      -9.198  15.549  69.444  1.00  0.00    -0.264 SA 
HETATM    8  H   UNL     1      -8.875  16.675  70.193  1.00  0.00     0.000 H  
ENDBRANCH   5   6
TORSDOF 1
ENDMDL
MODEL      158
REMARK 921   NORMALIZED FREE ENERGY PREDICTED BY IDOCK:   -1.20 KCAL/MOL
REMARK 922        TOTAL FREE ENERGY PREDICTED BY IDOCK:   -1.31 KCAL/MOL
REMARK 923 INTER-LIGAND FREE ENERGY PREDICTED BY IDOCK:   -1.27 KCAL/MOL
REMARK 924 INTRA-LIGAND FREE ENERGY PREDICTED BY IDOCK:   -0.04 KCAL/MOL
REMARK 927      BINDING AFFINITY PREDICTED BY RF-SCORE:    0.00 PKD
ROOT
HETATM    1  O   UNL     1      -9.749  16.538  69.097  1.00  0.00    -0.259 OA 
HETATM    2  S   UNL     1      -8.762  15.437  68.449  1.00  0.00    -0.178 S  
HETATM    3  O   UNL     1      -8.537  15.828  67.078  1.00  0.00    -0.184 OA 
HETATM    4  O   UNL     1      -9.297  14.143  68.802  1.00  0.00    -0.180 OA 
HETATM    5  C   UNL     1      -7.313  15.788  69.427  1.00  0.00    -0.217 C  
ENDROOT
BRANCH   5   6
HETATM    6  C   UNL     1      -6.182  14.877  68.996  1.00  0.00    -0.097 C  
HETATM    7  S   UNL     1      -5.844  13.627  70.275  1.00  0.00    -0.154 SA 
HETATM    8  H   UNL     1      -4.806  12.790  69.880  1.00  0.00     0.000 H  
ENDBRANCH   5   6
TORSDOF 1
ENDMDL
MODEL      159
REMARK 921   NORMALIZED FREE ENERGY PREDICTED BY IDOCK:   -1.19 KCAL/MOL
REMARK 922        TOTAL FREE ENERGY PREDICTED BY IDOCK:   -1.30 KCAL/MOL
REMARK 923 INTER-LIGAND FREE ENERGY PREDICTED BY IDOCK:   -1.29 KCAL/MOL
REMARK 924 INTRA-LIGAND FREE ENERGY PREDICTED BY IDOCK:   -0.01 KCAL/MOL
REMARK 927      BINDING AFFINITY PREDICTED BY RF-SCORE:    0.00 PKD
ROOT
HETATM    1  O   UNL     1     -10.023   4.120  62.345  1.00  0.00    -0.152 OA 
HETATM    2  S   UNL     1     -10.465   3.258  63.637  1.00  0.00    -0.252 S  
HETATM    3  O   UNL     1     -10.792   1.933  63.168  1.00  0.00    -0.177 OA 
HETATM    4  O   UNL     1     -11.407   4.069  64.373  1.00  0.00    -0.293 OA 
HETATM    5  C   UNL     1      -8.891   3.234  64.476  1.00  0.00    -0.108 C  
ENDROOT
BRANCH   5   6
HETATM    6  C   UNL     1      -9.017   2.443  65.761  1.00  0.00    -0.121 C  
HETATM    7  S   UNL     1      -9.328   3.552  67.169  1.00  0.00    -0.183 SA 
HETATM    8  H   UNL     1      -9.444   2.825  68.349  1.00  0.00     0.000 H  
ENDBRANCH   5   6
TORSDOF 1
ENDMDL
MODEL      160
REMARK 921   NORMALIZED FREE ENERGY PREDICTED BY IDOCK:   -1.17 KCAL/MOL
REMARK 922        TOTAL FREE ENERGY PREDICTED BY IDOCK:   -1.28 KCAL/MOL
REMARK 923 INTER-LIGAND FREE ENERGY PREDICTED BY IDOCK:   -1.26 KCAL/MOL
REMARK 924 INTRA-LIGAND FREE ENERGY PREDICTED BY IDOCK:   -0.03 KCAL/MOL
REMARK 927      BINDING AFFINITY PREDICTED BY RF-SCORE:    0.00 PKD
ROOT
HETATM    1  O   UNL     1      -8.722   8.136  67.909  1.00  0.00    -0.127 OA 
HETATM    2  S   UNL     1      -9.505   7.243  66.815  1.00  0.00    -0.176 S  
HETATM    3  O   UNL     1      -8.713   7.264  65.609  1.00  0.00    -0.143 OA 
HETATM    4  O   UNL     1     -10.883   7.674  66.840  1.00  0.00    -0.328 OA 
HETATM    5  C   UNL     1      -9.344   5.659  67.620  1.00  0.00    -0.110 C  
ENDROOT
BRANCH   5   6
HETATM    6  C   UNL     1      -9.999   4.593  66.767  1.00  0.00    -0.225 C  
HETATM    7  S   UNL     1      -8.821   3.257  66.395  1.00  0.00    -0.149 SA 
HETATM    8  H   UNL     1      -9.423   2.277  65.612  1.00  0.00     0.000 H  
ENDBRANCH   5   6
TORSDOF 1
ENDMDL
MODEL      161
REMARK 921   NORMALIZED FREE ENERGY PREDICTED BY IDOCK:   -1.17 KCAL/MOL
REMARK 922        TOTAL FREE ENERGY PREDICTED BY IDOCK:   -1.28 KCAL/MOL
REMARK 923 INTER-LIGAND FREE ENERGY PREDICTED BY IDOCK:   -1.24 KCAL/MOL
REMARK 924 INTRA-LIGAND FREE ENERGY PREDICTED BY IDOCK:   -0.04 KCAL/MOL
REMARK 927      BINDING AFFINITY PREDICTED BY RF-SCORE:    0.00 PKD
ROOT
HETATM    1  O   UNL     1      -6.449   9.577  71.342  1.00  0.00    -0.237 OA 
HETATM    2  S   UNL     1      -7.584   9.342  70.218  1.00  0.00    -0.154 S  
HETATM    3  O   UNL     1      -7.207   8.161  69.479  1.00  0.00    -0.069 OA 
HETATM    4  O   UNL     1      -7.799  10.617  69.575  1.00  0.00    -0.144 OA 
HETATM    5  C   UNL     1      -8.946   8.968  71.307  1.00  0.00    -0.211 C  
ENDROOT
BRANCH   5   6
HETATM    6  C   UNL     1     -10.183   8.675  70.483  1.00  0.00    -0.197 C  
HETATM    7  S   UNL     1     -10.553   6.894  70.493  1.00  0.00    -0.228 SA 
HETATM    8  H   UNL     1     -11.689   6.625  69.737  1.00  0.00     0.000 H  
ENDBRANCH   5   6
TORSDOF 1
ENDMDL
MODEL      162
REMARK 921   NORMALIZED FREE ENERGY PREDICTED BY IDOCK:   -1.16 KCAL/MOL
REMARK 922        TOTAL FREE ENERGY PREDICTED BY IDOCK:   -1.27 KCAL/MOL
REMARK 923 INTER-LIGAND FREE ENERGY PREDICTED BY IDOCK:   -1.25 KCAL/MOL
REMARK 924 INTRA-LIGAND FREE ENERGY PREDICTED BY IDOCK:   -0.02 KCAL/MOL
REMARK 927      BINDING AFFINITY PREDICTED BY RF-SCORE:    0.00 PKD
ROOT
HETATM    1  O   UNL     1      -8.606  10.607  68.531  1.00  0.00    -0.123 OA 
HETATM    2  S   UNL     1      -8.669   9.212  69.341  1.00  0.00    -0.147 S  
HETATM    3  O   UNL     1      -7.404   9.062  70.020  1.00  0.00    -0.050 OA 
HETATM    4  O   UNL     1      -9.171   8.220  68.420  1.00  0.00    -0.136 OA 
HETATM    5  C   UNL     1      -9.937   9.658  70.514  1.00  0.00    -0.254 C  
ENDROOT
BRANCH   5   6
HETATM    6  C   UNL     1     -10.191   8.492  71.448  1.00  0.00    -0.235 C  
HETATM    7  S   UNL     1     -11.952   8.035  71.438  1.00  0.00    -0.304 SA 
HETATM    8  H   UNL     1     -12.185   6.965  72.295  1.00  0.00     0.000 H  
ENDBRANCH   5   6
TORSDOF 1
ENDMDL
MODEL      163
REMARK 921   NORMALIZED FREE ENERGY PREDICTED BY IDOCK:   -1.16 KCAL/MOL
REMARK 922        TOTAL FREE ENERGY PREDICTED BY IDOCK:   -1.26 KCAL/MOL
REMARK 923 INTER-LIGAND FREE ENERGY PREDICTED BY IDOCK:   -1.25 KCAL/MOL
REMARK 924 INTRA-LIGAND FREE ENERGY PREDICTED BY IDOCK:   -0.01 KCAL/MOL
REMARK 927      BINDING AFFINITY PREDICTED BY RF-SCORE:    0.00 PKD
ROOT
HETATM    1  O   UNL     1     -10.105   6.952  68.107  1.00  0.00    -0.153 OA 
HETATM    2  S   UNL     1      -9.102   7.782  69.062  1.00  0.00    -0.143 S  
HETATM    3  O   UNL     1      -8.989   9.108  68.504  1.00  0.00    -0.132 OA 
HETATM    4  O   UNL     1      -7.951   6.939  69.285  1.00  0.00    -0.112 OA 
HETATM    5  C   UNL     1     -10.123   7.824  70.525  1.00  0.00    -0.192 C  
ENDROOT
BRANCH   5   6
HETATM    6  C   UNL     1      -9.406   8.590  71.617  1.00  0.00    -0.241 C  
HETATM    7  S   UNL     1      -9.728   7.841  73.243  1.00  0.00    -0.278 SA 
HETATM    8  H   UNL     1      -9.070   8.544  74.246  1.00  0.00     0.000 H  
ENDBRANCH   5   6
TORSDOF 1
ENDMDL
MODEL      164
REMARK 921   NORMALIZED FREE ENERGY PREDICTED BY IDOCK:   -1.15 KCAL/MOL
REMARK 922        TOTAL FREE ENERGY PREDICTED BY IDOCK:   -1.25 KCAL/MOL
REMARK 923 INTER-LIGAND FREE ENERGY PREDICTED BY IDOCK:   -1.21 KCAL/MOL
REMARK 924 INTRA-LIGAND FREE ENERGY PREDICTED BY IDOCK:   -0.04 KCAL/MOL
REMARK 927      BINDING AFFINITY PREDICTED BY RF-SCORE:    0.00 PKD
ROOT
HETATM    1  O   UNL     1      -6.986   6.683  66.080  1.00  0.00    -0.059 OA 
HETATM    2  S   UNL     1      -8.566   7.011  66.132  1.00  0.00    -0.145 S  
HETATM    3  O   UNL     1      -9.260   5.791  65.800  1.00  0.00    -0.148 OA 
HETATM    4  O   UNL     1      -8.759   8.234  65.389  1.00  0.00    -0.164 OA 
HETATM    5  C   UNL     1      -8.701   7.330  67.882  1.00  0.00    -0.123 C  
ENDROOT
BRANCH   5   6
HETATM    6  C   UNL     1     -10.140   7.656  68.224  1.00  0.00    -0.186 C  
HETATM    7  S   UNL     1     -10.918   6.270  69.111  1.00  0.00    -0.390 SA 
HETATM    8  H   UNL     1     -12.239   6.570  69.426  1.00  0.00     0.000 H  
ENDBRANCH   5   6
TORSDOF 1
ENDMDL
MODEL      165
REMARK 921   NORMALIZED FREE ENERGY PREDICTED BY IDOCK:   -1.12 KCAL/MOL
REMARK 922        TOTAL FREE ENERGY PREDICTED BY IDOCK:   -1.23 KCAL/MOL
REMARK 923 INTER-LIGAND FREE ENERGY PREDICTED BY IDOCK:   -1.21 KCAL/MOL
REMARK 924 INTRA-LIGAND FREE ENERGY PREDICTED BY IDOCK:   -0.02 KCAL/MOL
REMARK 927      BINDING AFFINITY PREDICTED BY RF-SCORE:    0.00 PKD
ROOT
HETATM    1  O   UNL     1      -7.509   7.419  69.243  1.00  0.00    -0.087 OA 
HETATM    2  S   UNL     1      -8.986   7.630  68.625  1.00  0.00    -0.131 S  
HETATM    3  O   UNL     1      -9.869   6.731  69.328  1.00  0.00    -0.153 OA 
HETATM    4  O   UNL     1      -8.841   7.602  67.189  1.00  0.00    -0.122 OA 
HETATM    5  C   UNL     1      -9.256   9.304  69.181  1.00  0.00    -0.149 C  
ENDROOT
BRANCH   5   6
HETATM    6  C   UNL     1     -10.630   9.765  68.740  1.00  0.00    -0.219 C  
HETATM    7  S   UNL     1     -11.543  10.488  70.138  1.00  0.00    -0.350 SA 
HETATM    8  H   UNL     1     -12.804  10.912  69.733  1.00  0.00     0.000 H  
ENDBRANCH   5   6
TORSDOF 1
ENDMDL
MODEL      166
REMARK 921   NORMALIZED FREE ENERGY PREDICTED BY IDOCK:   -1.12 KCAL/MOL
REMARK 922        TOTAL FREE ENERGY PREDICTED BY IDOCK:   -1.23 KCAL/MOL
REMARK 923 INTER-LIGAND FREE ENERGY PREDICTED BY IDOCK:   -1.30 KCAL/MOL
REMARK 924 INTRA-LIGAND FREE ENERGY PREDICTED BY IDOCK:    0.07 KCAL/MOL
REMARK 927      BINDING AFFINITY PREDICTED BY RF-SCORE:    0.00 PKD
ROOT
HETATM    1  O   UNL     1      -9.521   9.350  66.939  1.00  0.00    -0.144 OA 
HETATM    2  S   UNL     1      -9.379   8.473  68.287  1.00  0.00    -0.138 S  
HETATM    3  O   UNL     1      -9.783   9.319  69.384  1.00  0.00    -0.163 OA 
HETATM    4  O   UNL     1      -8.080   7.844  68.236  1.00  0.00    -0.120 OA 
HETATM    5  C   UNL     1     -10.654   7.274  67.944  1.00  0.00    -0.202 C  
ENDROOT
BRANCH   5   6
HETATM    6  C   UNL     1     -10.755   6.301  69.101  1.00  0.00    -0.301 C  
HETATM    7  S   UNL     1     -11.911   6.923  70.361  1.00  0.00    -0.238 SA 
HETATM    8  H   UNL     1     -12.003   6.030  71.424  1.00  0.00     0.000 H  
ENDBRANCH   5   6
TORSDOF 1
ENDMDL
MODEL      167
REMARK 921   NORMALIZED FREE ENERGY PREDICTED BY IDOCK:   -1.12 KCAL/MOL
REMARK 922        TOTAL FREE ENERGY PREDICTED BY IDOCK:   -1.23 KCAL/MOL
REMARK 923 INTER-LIGAND FREE ENERGY PREDICTED BY IDOCK:   -1.19 KCAL/MOL
REMARK 924 INTRA-LIGAND FREE ENERGY PREDICTED BY IDOCK:   -0.04 KCAL/MOL
REMARK 927      BINDING AFFINITY PREDICTED BY RF-SCORE:    0.00 PKD
ROOT
HETATM    1  O   UNL     1     -11.482   2.432  63.225  1.00  0.00    -0.321 OA 
HETATM    2  S   UNL     1     -10.328   3.307  63.937  1.00  0.00    -0.206 S  
HETATM    3  O   UNL     1      -9.326   2.381  64.407  1.00  0.00    -0.129 OA 
HETATM    4  O   UNL     1     -10.997   4.232  64.823  1.00  0.00    -0.249 OA 
HETATM    5  C   UNL     1      -9.733   4.166  62.492  1.00  0.00    -0.139 C  
ENDROOT
BRANCH   5   6
HETATM    6  C   UNL     1      -8.588   5.077  62.883  1.00  0.00    -0.114 C  
HETATM    7  S   UNL     1      -6.996   4.367  62.360  1.00  0.00    -0.032 SA 
HETATM    8  H   UNL     1      -5.945   5.203  62.719  1.00  0.00     0.000 H  
ENDBRANCH   5   6
TORSDOF 1
ENDMDL
MODEL      168
REMARK 921   NORMALIZED FREE ENERGY PREDICTED BY IDOCK:   -1.12 KCAL/MOL
REMARK 922        TOTAL FREE ENERGY PREDICTED BY IDOCK:   -1.23 KCAL/MOL
REMARK 923 INTER-LIGAND FREE ENERGY PREDICTED BY IDOCK:   -1.22 KCAL/MOL
REMARK 924 INTRA-LIGAND FREE ENERGY PREDICTED BY IDOCK:   -0.01 KCAL/MOL
REMARK 927      BINDING AFFINITY PREDICTED BY RF-SCORE:    0.00 PKD
ROOT
HETATM    1  O   UNL     1     -10.920  11.676  67.138  1.00  0.00    -0.248 OA 
HETATM    2  S   UNL     1     -10.165  11.146  68.463  1.00  0.00    -0.205 S  
HETATM    3  O   UNL     1     -11.175  10.963  69.478  1.00  0.00    -0.235 OA 
HETATM    4  O   UNL     1      -9.022  12.007  68.660  1.00  0.00    -0.135 OA 
HETATM    5  C   UNL     1      -9.638   9.561  67.838  1.00  0.00    -0.133 C  
ENDROOT
BRANCH   5   6
HETATM    6  C   UNL     1      -8.894   8.814  68.925  1.00  0.00    -0.137 C  
HETATM    7  S   UNL     1      -8.622   7.081  68.440  1.00  0.00    -0.125 SA 
HETATM    8  H   UNL     1      -7.938   6.395  69.438  1.00  0.00     0.000 H  
ENDBRANCH   5   6
TORSDOF 1
ENDMDL
MODEL      169
REMARK 921   NORMALIZED FREE ENERGY PREDICTED BY IDOCK:   -1.12 KCAL/MOL
REMARK 922        TOTAL FREE ENERGY PREDICTED BY IDOCK:   -1.23 KCAL/MOL
REMARK 923 INTER-LIGAND FREE ENERGY PREDICTED BY IDOCK:   -1.19 KCAL/MOL
REMARK 924 INTRA-LIGAND FREE ENERGY PREDICTED BY IDOCK:   -0.04 KCAL/MOL
REMARK 927      BINDING AFFINITY PREDICTED BY RF-SCORE:    0.00 PKD
ROOT
HETATM    1  O   UNL     1      -8.968   5.809  65.293  1.00  0.00    -0.108 OA 
HETATM    2  S   UNL     1      -9.872   4.618  65.902  1.00  0.00    -0.239 S  
HETATM    3  O   UNL     1     -10.575   4.015  64.795  1.00  0.00    -0.243 OA 
HETATM    4  O   UNL     1     -10.562   5.166  67.046  1.00  0.00    -0.223 OA 
HETATM    5  C   UNL     1      -8.551   3.546  66.439  1.00  0.00    -0.117 C  
ENDROOT
BRANCH   5   6
HETATM    6  C   UNL     1      -9.139   2.293  67.054  1.00  0.00    -0.106 C  
HETATM    7  S   UNL     1      -9.038   2.362  68.870  1.00  0.00    -0.149 SA 
HETATM    8  H   UNL     1      -9.577   1.212  69.435  1.00  0.00     0.000 H  
ENDBRANCH   5   6
TORSDOF 1
ENDMDL
MODEL      170
REMARK 921   NORMALIZED FREE ENERGY PREDICTED BY IDOCK:   -1.11 KCAL/MOL
REMARK 922        TOTAL FREE ENERGY PREDICTED BY IDOCK:   -1.22 KCAL/MOL
REMARK 923 INTER-LIGAND FREE ENERGY PREDICTED BY IDOCK:   -1.18 KCAL/MOL
REMARK 924 INTRA-LIGAND FREE ENERGY PREDICTED BY IDOCK:   -0.04 KCAL/MOL
REMARK 927      BINDING AFFINITY PREDICTED BY RF-SCORE:    0.00 PKD
ROOT
HETATM    1  O   UNL     1     -10.487   3.444  63.348  1.00  0.00    -0.196 OA 
HETATM    2  S   UNL     1      -9.835   3.845  64.770  1.00  0.00    -0.199 S  
HETATM    3  O   UNL     1      -9.168   2.668  65.274  1.00  0.00    -0.150 OA 
HETATM    4  O   UNL     1     -10.864   4.527  65.519  1.00  0.00    -0.280 OA 
HETATM    5  C   UNL     1      -8.631   5.017  64.175  1.00  0.00    -0.125 C  
ENDROOT
BRANCH   5   6
HETATM    6  C   UNL     1      -7.832   5.556  65.344  1.00  0.00    -0.100 C  
HETATM    7  S   UNL     1      -8.427   7.209  65.818  1.00  0.00    -0.129 SA 
HETATM    8  H   UNL     1      -7.694   7.704  66.891  1.00  0.00     0.000 H  
ENDBRANCH   5   6
TORSDOF 1
ENDMDL
MODEL      171
REMARK 921   NORMALIZED FREE ENERGY PREDICTED BY IDOCK:   -1.11 KCAL/MOL
REMARK 922        TOTAL FREE ENERGY PREDICTED BY IDOCK:   -1.21 KCAL/MOL
REMARK 923 INTER-LIGAND FREE ENERGY PREDICTED BY IDOCK:   -1.17 KCAL/MOL
REMARK 924 INTRA-LIGAND FREE ENERGY PREDICTED BY IDOCK:   -0.04 KCAL/MOL
REMARK 927      BINDING AFFINITY PREDICTED BY RF-SCORE:    0.00 PKD
ROOT
HETATM    1  O   UNL     1     -10.601   5.834  69.905  1.00  0.00    -0.261 OA 
HETATM    2  S   UNL     1      -9.758   6.886  70.793  1.00  0.00    -0.170 S  
HETATM    3  O   UNL     1      -8.529   6.229  71.171  1.00  0.00    -0.123 OA 
HETATM    4  O   UNL     1     -10.673   7.429  71.770  1.00  0.00    -0.213 OA 
HETATM    5  C   UNL     1      -9.434   8.092  69.519  1.00  0.00    -0.156 C  
ENDROOT
BRANCH   5   6
HETATM    6  C   UNL     1      -8.609   9.224  70.096  1.00  0.00    -0.198 C  
HETATM    7  S   UNL     1      -6.925   9.204  69.407  1.00  0.00    -0.053 SA 
HETATM    8  H   UNL     1      -6.167  10.243  69.936  1.00  0.00     0.000 H  
ENDBRANCH   5   6
TORSDOF 1
ENDMDL
MODEL      172
REMARK 921   NORMALIZED FREE ENERGY PREDICTED BY IDOCK:   -1.10 KCAL/MOL
REMARK 922        TOTAL FREE ENERGY PREDICTED BY IDOCK:   -1.20 KCAL/MOL
REMARK 923 INTER-LIGAND FREE ENERGY PREDICTED BY IDOCK:   -1.17 KCAL/MOL
REMARK 924 INTRA-LIGAND FREE ENERGY PREDICTED BY IDOCK:   -0.03 KCAL/MOL
REMARK 927      BINDING AFFINITY PREDICTED BY RF-SCORE:    0.00 PKD
ROOT
HETATM    1  O   UNL     1     -11.307   6.667  71.083  1.00  0.00    -0.274 OA 
HETATM    2  S   UNL     1      -9.857   6.013  70.806  1.00  0.00    -0.185 S  
HETATM    3  O   UNL     1      -9.053   7.027  70.167  1.00  0.00    -0.148 OA 
HETATM    4  O   UNL     1     -10.093   4.723  70.202  1.00  0.00    -0.242 OA 
HETATM    5  C   UNL     1      -9.342   5.810  72.502  1.00  0.00    -0.141 C  
ENDROOT
BRANCH   5   6
HETATM    6  C   UNL     1      -7.952   5.211  72.538  1.00  0.00    -0.102 C  
HETATM    7  S   UNL     1      -7.954   3.640  73.455  1.00  0.00    -0.080 SA 
HETATM    8  H   UNL     1      -6.677   3.089  73.488  1.00  0.00     0.000 H  
ENDBRANCH   5   6
TORSDOF 1
ENDMDL
MODEL      173
REMARK 921   NORMALIZED FREE ENERGY PREDICTED BY IDOCK:   -1.09 KCAL/MOL
REMARK 922        TOTAL FREE ENERGY PREDICTED BY IDOCK:   -1.20 KCAL/MOL
REMARK 923 INTER-LIGAND FREE ENERGY PREDICTED BY IDOCK:   -1.17 KCAL/MOL
REMARK 924 INTRA-LIGAND FREE ENERGY PREDICTED BY IDOCK:   -0.03 KCAL/MOL
REMARK 927      BINDING AFFINITY PREDICTED BY RF-SCORE:    0.00 PKD
ROOT
HETATM    1  O   UNL     1      -8.070   5.339  66.470  1.00  0.00    -0.107 OA 
HETATM    2  S   UNL     1      -8.278   6.413  67.658  1.00  0.00    -0.118 S  
HETATM    3  O   UNL     1      -7.844   7.692  67.150  1.00  0.00    -0.112 OA 
HETATM    4  O   UNL     1      -7.713   5.825  68.850  1.00  0.00    -0.087 OA 
HETATM    5  C   UNL     1     -10.060   6.362  67.735  1.00  0.00    -0.146 C  
ENDROOT
BRANCH   5   6
HETATM    6  C   UNL     1     -10.545   7.329  68.795  1.00  0.00    -0.181 C  
HETATM    7  S   UNL     1     -11.368   6.435  70.150  1.00  0.00    -0.415 SA 
HETATM    8  H   UNL     1     -11.813   7.322  71.123  1.00  0.00     0.000 H  
ENDBRANCH   5   6
TORSDOF 1
ENDMDL
MODEL      174
REMARK 921   NORMALIZED FREE ENERGY PREDICTED BY IDOCK:   -1.09 KCAL/MOL
REMARK 922        TOTAL FREE ENERGY PREDICTED BY IDOCK:   -1.20 KCAL/MOL
REMARK 923 INTER-LIGAND FREE ENERGY PREDICTED BY IDOCK:   -1.17 KCAL/MOL
REMARK 924 INTRA-LIGAND FREE ENERGY PREDICTED BY IDOCK:   -0.03 KCAL/MOL
REMARK 927      BINDING AFFINITY PREDICTED BY RF-SCORE:    0.00 PKD
ROOT
HETATM    1  O   UNL     1     -10.177   7.059  72.572  1.00  0.00    -0.177 OA 
HETATM    2  S   UNL     1     -10.069   6.787  70.984  1.00  0.00    -0.189 S  
HETATM    3  O   UNL     1      -8.730   7.151  70.585  1.00  0.00    -0.145 OA 
HETATM    4  O   UNL     1     -11.240   7.381  70.383  1.00  0.00    -0.266 OA 
HETATM    5  C   UNL     1     -10.231   5.011  71.019  1.00  0.00    -0.213 C  
ENDROOT
BRANCH   5   6
HETATM    6  C   UNL     1     -10.141   4.470  69.607  1.00  0.00    -0.091 C  
HETATM    7  S   UNL     1      -8.748   3.309  69.454  1.00  0.00    -0.089 SA 
HETATM    8  H   UNL     1      -8.665   2.812  68.158  1.00  0.00     0.000 H  
ENDBRANCH   5   6
TORSDOF 1
ENDMDL
MODEL      175
REMARK 921   NORMALIZED FREE ENERGY PREDICTED BY IDOCK:   -1.09 KCAL/MOL
REMARK 922        TOTAL FREE ENERGY PREDICTED BY IDOCK:   -1.19 KCAL/MOL
REMARK 923 INTER-LIGAND FREE ENERGY PREDICTED BY IDOCK:   -1.26 KCAL/MOL
REMARK 924 INTRA-LIGAND FREE ENERGY PREDICTED BY IDOCK:    0.06 KCAL/MOL
REMARK 927      BINDING AFFINITY PREDICTED BY RF-SCORE:    0.00 PKD
ROOT
HETATM    1  O   UNL     1     -11.090  15.625  69.860  1.00  0.00    -0.262 OA 
HETATM    2  S   UNL     1      -9.767  15.937  68.989  1.00  0.00    -0.258 S  
HETATM    3  O   UNL     1      -8.666  16.044  69.917  1.00  0.00     0.132 OA 
HETATM    4  O   UNL     1     -10.113  17.003  68.079  1.00  0.00    -0.279 OA 
HETATM    5  C   UNL     1      -9.671  14.388  68.109  1.00  0.00    -0.223 C  
ENDROOT
BRANCH   5   6
HETATM    6  C   UNL     1      -8.461  14.400  67.199  1.00  0.00    -0.208 C  
HETATM    7  S   UNL     1      -6.994  13.773  68.074  1.00  0.00    -0.157 SA 
HETATM    8  H   UNL     1      -5.883  13.784  67.238  1.00  0.00     0.000 H  
ENDBRANCH   5   6
TORSDOF 1
ENDMDL
MODEL      176
REMARK 921   NORMALIZED FREE ENERGY PREDICTED BY IDOCK:   -1.08 KCAL/MOL
REMARK 922        TOTAL FREE ENERGY PREDICTED BY IDOCK:   -1.19 KCAL/MOL
REMARK 923 INTER-LIGAND FREE ENERGY PREDICTED BY IDOCK:   -1.18 KCAL/MOL
REMARK 924 INTRA-LIGAND FREE ENERGY PREDICTED BY IDOCK:   -0.01 KCAL/MOL
REMARK 927      BINDING AFFINITY PREDICTED BY RF-SCORE:    0.00 PKD
ROOT
HETATM    1  O   UNL     1     -11.603   2.312  63.029  1.00  0.00    -0.294 OA 
HETATM    2  S   UNL     1     -10.101   2.620  63.533  1.00  0.00    -0.160 S  
HETATM    3  O   UNL     1      -9.343   3.028  62.374  1.00  0.00    -0.087 OA 
HETATM    4  O   UNL     1      -9.704   1.502  64.357  1.00  0.00    -0.127 OA 
HETATM    5  C   UNL     1     -10.461   4.037  64.553  1.00  0.00    -0.197 C  
ENDROOT
BRANCH   5   6
HETATM    6  C   UNL     1      -9.175   4.562  65.158  1.00  0.00    -0.157 C  
HETATM    7  S   UNL     1      -9.433   5.044  66.894  1.00  0.00    -0.155 SA 
HETATM    8  H   UNL     1      -8.252   5.525  67.449  1.00  0.00     0.000 H  
ENDBRANCH   5   6
TORSDOF 1
ENDMDL
MODEL      177
REMARK 921   NORMALIZED FREE ENERGY PREDICTED BY IDOCK:   -1.07 KCAL/MOL
REMARK 922        TOTAL FREE ENERGY PREDICTED BY IDOCK:   -1.17 KCAL/MOL
REMARK 923 INTER-LIGAND FREE ENERGY PREDICTED BY IDOCK:   -1.17 KCAL/MOL
REMARK 924 INTRA-LIGAND FREE ENERGY PREDICTED BY IDOCK:   -0.01 KCAL/MOL
REMARK 927      BINDING AFFINITY PREDICTED BY RF-SCORE:    0.00 PKD
ROOT
HETATM    1  O   UNL     1      -9.498   4.017  66.947  1.00  0.00    -0.173 OA 
HETATM    2  S   UNL     1      -8.957   4.499  68.391  1.00  0.00    -0.119 S  
HETATM    3  O   UNL     1      -7.858   5.402  68.149  1.00  0.00    -0.090 OA 
HETATM    4  O   UNL     1      -8.813   3.308  69.196  1.00  0.00    -0.084 OA 
HETATM    5  C   UNL     1     -10.397   5.417  68.907  1.00  0.00    -0.190 C  
ENDROOT
BRANCH   5   6
HETATM    6  C   UNL     1     -10.147   6.018  70.275  1.00  0.00    -0.194 C  
HETATM    7  S   UNL     1     -11.487   7.162  70.726  1.00  0.00    -0.316 SA 
HETATM    8  H   UNL     1     -11.258   7.714  71.982  1.00  0.00     0.000 H  
ENDBRANCH   5   6
TORSDOF 1
ENDMDL
MODEL      178
REMARK 921   NORMALIZED FREE ENERGY PREDICTED BY IDOCK:   -1.05 KCAL/MOL
REMARK 922        TOTAL FREE ENERGY PREDICTED BY IDOCK:   -1.15 KCAL/MOL
REMARK 923 INTER-LIGAND FREE ENERGY PREDICTED BY IDOCK:   -1.14 KCAL/MOL
REMARK 924 INTRA-LIGAND FREE ENERGY PREDICTED BY IDOCK:   -0.02 KCAL/MOL
REMARK 927      BINDING AFFINITY PREDICTED BY RF-SCORE:    0.00 PKD
ROOT
HETATM    1  O   UNL     1      -8.076   8.484  73.745  1.00  0.00    -0.378 OA 
HETATM    2  S   UNL     1      -8.797   7.379  72.816  1.00  0.00    -0.140 S  
HETATM    3  O   UNL     1      -7.902   7.103  71.718  1.00  0.00    -0.092 OA 
HETATM    4  O   UNL     1     -10.152   7.834  72.609  1.00  0.00    -0.214 OA 
HETATM    5  C   UNL     1      -8.776   6.022  73.973  1.00  0.00    -0.119 C  
ENDROOT
BRANCH   5   6
HETATM    6  C   UNL     1      -9.399   4.801  73.327  1.00  0.00    -0.120 C  
HETATM    7  S   UNL     1      -8.349   3.337  73.579  1.00  0.00    -0.075 SA 
HETATM    8  H   UNL     1      -8.920   2.216  72.987  1.00  0.00     0.000 H  
ENDBRANCH   5   6
TORSDOF 1
ENDMDL
MODEL      179
REMARK 921   NORMALIZED FREE ENERGY PREDICTED BY IDOCK:   -1.05 KCAL/MOL
REMARK 922        TOTAL FREE ENERGY PREDICTED BY IDOCK:   -1.15 KCAL/MOL
REMARK 923 INTER-LIGAND FREE ENERGY PREDICTED BY IDOCK:   -1.15 KCAL/MOL
REMARK 924 INTRA-LIGAND FREE ENERGY PREDICTED BY IDOCK:   -0.01 KCAL/MOL
REMARK 927      BINDING AFFINITY PREDICTED BY RF-SCORE:    0.00 PKD
ROOT
HETATM    1  O   UNL     1      -9.744   8.529  71.755  1.00  0.00    -0.212 OA 
HETATM    2  S   UNL     1      -9.749   7.084  71.034  1.00  0.00    -0.172 S  
HETATM    3  O   UNL     1     -11.112   6.815  70.641  1.00  0.00    -0.257 OA 
HETATM    4  O   UNL     1      -9.004   6.192  71.891  1.00  0.00    -0.140 OA 
HETATM    5  C   UNL     1      -8.777   7.513  69.601  1.00  0.00    -0.137 C  
ENDROOT
BRANCH   5   6
HETATM    6  C   UNL     1      -8.637   6.298  68.707  1.00  0.00    -0.122 C  
HETATM    7  S   UNL     1      -7.667   6.705  67.222  1.00  0.00    -0.106 SA 
HETATM    8  H   UNL     1      -7.538   5.590  66.401  1.00  0.00     0.000 H  
ENDBRANCH   5   6
TORSDOF 1
ENDMDL
MODEL      180
REMARK 921   NORMALIZED FREE ENERGY PREDICTED BY IDOCK:   -1.05 KCAL/MOL
REMARK 922        TOTAL FREE ENERGY PREDICTED BY IDOCK:   -1.15 KCAL/MOL
REMARK 923 INTER-LIGAND FREE ENERGY PREDICTED BY IDOCK:   -1.14 KCAL/MOL
REMARK 924 INTRA-LIGAND FREE ENERGY PREDICTED BY IDOCK:   -0.01 KCAL/MOL
REMARK 927      BINDING AFFINITY PREDICTED BY RF-SCORE:    0.00 PKD
ROOT
HETATM    1  O   UNL     1      -9.274   9.001  71.824  1.00  0.00    -0.329 OA 
HETATM    2  S   UNL     1      -8.462   8.156  70.714  1.00  0.00    -0.131 S  
HETATM    3  O   UNL     1      -9.127   6.881  70.585  1.00  0.00    -0.154 OA 
HETATM    4  O   UNL     1      -7.063   8.264  71.054  1.00  0.00    -0.048 OA 
HETATM    5  C   UNL     1      -8.829   9.178  69.299  1.00  0.00    -0.144 C  
ENDROOT
BRANCH   5   6
HETATM    6  C   UNL     1      -8.181   8.582  68.066  1.00  0.00    -0.120 C  
HETATM    7  S   UNL     1      -9.313   8.667  66.644  1.00  0.00    -0.210 SA 
HETATM    8  H   UNL     1      -8.718   8.120  65.512  1.00  0.00     0.000 H  
ENDBRANCH   5   6
TORSDOF 1
ENDMDL
MODEL      181
REMARK 921   NORMALIZED FREE ENERGY PREDICTED BY IDOCK:   -1.03 KCAL/MOL
REMARK 922        TOTAL FREE ENERGY PREDICTED BY IDOCK:   -1.13 KCAL/MOL
REMARK 923 INTER-LIGAND FREE ENERGY PREDICTED BY IDOCK:   -1.09 KCAL/MOL
REMARK 924 INTRA-LIGAND FREE ENERGY PREDICTED BY IDOCK:   -0.04 KCAL/MOL
REMARK 927      BINDING AFFINITY PREDICTED BY RF-SCORE:    0.00 PKD
ROOT
HETATM    1  O   UNL     1      -6.905  12.053  68.896  1.00  0.00    -0.092 OA 
HETATM    2  S   UNL     1      -6.912  11.294  67.471  1.00  0.00    -0.098 S  
HETATM    3  O   UNL     1      -6.798   9.882  67.745  1.00  0.00    -0.078 OA 
HETATM    4  O   UNL     1      -5.972  11.993  66.626  1.00  0.00    -0.219 OA 
HETATM    5  C   UNL     1      -8.582  11.686  66.984  1.00  0.00    -0.169 C  
ENDROOT
BRANCH   5   6
HETATM    6  C   UNL     1      -8.875  11.056  65.638  1.00  0.00    -0.178 C  
HETATM    7  S   UNL     1      -9.888   9.558  65.838  1.00  0.00    -0.261 SA 
HETATM    8  H   UNL     1     -10.156   8.980  64.602  1.00  0.00     0.000 H  
ENDBRANCH   5   6
TORSDOF 1
ENDMDL
MODEL      182
REMARK 921   NORMALIZED FREE ENERGY PREDICTED BY IDOCK:   -0.98 KCAL/MOL
REMARK 922        TOTAL FREE ENERGY PREDICTED BY IDOCK:   -1.08 KCAL/MOL
REMARK 923 INTER-LIGAND FREE ENERGY PREDICTED BY IDOCK:   -1.05 KCAL/MOL
REMARK 924 INTRA-LIGAND FREE ENERGY PREDICTED BY IDOCK:   -0.03 KCAL/MOL
REMARK 927      BINDING AFFINITY PREDICTED BY RF-SCORE:    0.00 PKD
ROOT
HETATM    1  O   UNL     1     -10.712  10.972  67.222  1.00  0.00    -0.233 OA 
HETATM    2  S   UNL     1      -9.161  10.916  67.668  1.00  0.00    -0.153 S  
HETATM    3  O   UNL     1      -8.989   9.711  68.444  1.00  0.00    -0.123 OA 
HETATM    4  O   UNL     1      -8.834  12.222  68.191  1.00  0.00    -0.178 OA 
HETATM    5  C   UNL     1      -8.439  10.705  66.051  1.00  0.00    -0.165 C  
ENDROOT
BRANCH   5   6
HETATM    6  C   UNL     1      -6.934  10.599  66.182  1.00  0.00    -0.135 C  
HETATM    7  S   UNL     1      -6.405   8.859  66.113  1.00  0.00    -0.065 SA 
HETATM    8  H   UNL     1      -5.023   8.762  66.233  1.00  0.00     0.000 H  
ENDBRANCH   5   6
TORSDOF 1
ENDMDL
MODEL      183
REMARK 921   NORMALIZED FREE ENERGY PREDICTED BY IDOCK:   -0.98 KCAL/MOL
REMARK 922        TOTAL FREE ENERGY PREDICTED BY IDOCK:   -1.07 KCAL/MOL
REMARK 923 INTER-LIGAND FREE ENERGY PREDICTED BY IDOCK:   -1.05 KCAL/MOL
REMARK 924 INTRA-LIGAND FREE ENERGY PREDICTED BY IDOCK:   -0.03 KCAL/MOL
REMARK 927      BINDING AFFINITY PREDICTED BY RF-SCORE:    0.00 PKD
ROOT
HETATM    1  O   UNL     1     -10.757   7.737  69.652  1.00  0.00    -0.243 OA 
HETATM    2  S   UNL     1      -9.672   6.637  70.119  1.00  0.00    -0.163 S  
HETATM    3  O   UNL     1     -10.237   5.942  71.251  1.00  0.00    -0.196 OA 
HETATM    4  O   UNL     1      -8.399   7.315  70.189  1.00  0.00    -0.132 OA 
HETATM    5  C   UNL     1      -9.732   5.593  68.674  1.00  0.00    -0.137 C  
ENDROOT
BRANCH   5   6
HETATM    6  C   UNL     1      -8.787   4.423  68.859  1.00  0.00    -0.098 C  
HETATM    7  S   UNL     1      -7.550   4.381  67.525  1.00  0.00    -0.077 SA 
HETATM    8  H   UNL     1      -6.683   3.308  67.695  1.00  0.00     0.000 H  
ENDBRANCH   5   6
TORSDOF 1
ENDMDL
MODEL      184
REMARK 921   NORMALIZED FREE ENERGY PREDICTED BY IDOCK:   -0.97 KCAL/MOL
REMARK 922        TOTAL FREE ENERGY PREDICTED BY IDOCK:   -1.07 KCAL/MOL
REMARK 923 INTER-LIGAND FREE ENERGY PREDICTED BY IDOCK:   -1.03 KCAL/MOL
REMARK 924 INTRA-LIGAND FREE ENERGY PREDICTED BY IDOCK:   -0.04 KCAL/MOL
REMARK 927      BINDING AFFINITY PREDICTED BY RF-SCORE:    0.00 PKD
ROOT
HETATM    1  O   UNL     1     -10.013   4.614  67.579  1.00  0.00    -0.168 OA 
HETATM    2  S   UNL     1      -9.598   4.900  66.046  1.00  0.00    -0.189 S  
HETATM    3  O   UNL     1      -9.101   6.255  65.990  1.00  0.00    -0.156 OA 
HETATM    4  O   UNL     1     -10.699   4.449  65.227  1.00  0.00    -0.262 OA 
HETATM    5  C   UNL     1      -8.239   3.750  65.932  1.00  0.00    -0.101 C  
ENDROOT
BRANCH   5   6
HETATM    6  C   UNL     1      -7.627   3.829  64.549  1.00  0.00    -0.080 C  
HETATM    7  S   UNL     1      -8.139   2.404  63.540  1.00  0.00    -0.074 SA 
HETATM    8  H   UNL     1      -7.577   2.476  62.270  1.00  0.00     0.000 H  
ENDBRANCH   5   6
TORSDOF 1
ENDMDL
MODEL      185
REMARK 921   NORMALIZED FREE ENERGY PREDICTED BY IDOCK:   -0.97 KCAL/MOL
REMARK 922        TOTAL FREE ENERGY PREDICTED BY IDOCK:   -1.07 KCAL/MOL
REMARK 923 INTER-LIGAND FREE ENERGY PREDICTED BY IDOCK:   -1.03 KCAL/MOL
REMARK 924 INTRA-LIGAND FREE ENERGY PREDICTED BY IDOCK:   -0.04 KCAL/MOL
REMARK 927      BINDING AFFINITY PREDICTED BY RF-SCORE:    0.00 PKD
ROOT
HETATM    1  O   UNL     1      -5.574   8.584  65.590  1.00  0.00    -0.041 OA 
HETATM    2  S   UNL     1      -6.421   9.927  65.296  1.00  0.00    -0.108 S  
HETATM    3  O   UNL     1      -5.851  10.536  64.118  1.00  0.00    -0.136 OA 
HETATM    4  O   UNL     1      -6.529  10.631  66.552  1.00  0.00    -0.088 OA 
HETATM    5  C   UNL     1      -7.979   9.159  64.888  1.00  0.00    -0.123 C  
ENDROOT
BRANCH   5   6
HETATM    6  C   UNL     1      -8.991  10.231  64.537  1.00  0.00    -0.219 C  
HETATM    7  S   UNL     1      -9.283  10.272  62.742  1.00  0.00    -0.312 SA 
HETATM    8  H   UNL     1     -10.212  11.256  62.420  1.00  0.00     0.000 H  
ENDBRANCH   5   6
TORSDOF 1
ENDMDL
MODEL      186
REMARK 921   NORMALIZED FREE ENERGY PREDICTED BY IDOCK:   -0.97 KCAL/MOL
REMARK 922        TOTAL FREE ENERGY PREDICTED BY IDOCK:   -1.07 KCAL/MOL
REMARK 923 INTER-LIGAND FREE ENERGY PREDICTED BY IDOCK:   -1.03 KCAL/MOL
REMARK 924 INTRA-LIGAND FREE ENERGY PREDICTED BY IDOCK:   -0.04 KCAL/MOL
REMARK 927      BINDING AFFINITY PREDICTED BY RF-SCORE:    0.00 PKD
ROOT
HETATM    1  O   UNL     1     -11.362   6.823  72.578  1.00  0.00    -0.262 OA 
HETATM    2  S   UNL     1      -9.860   6.259  72.758  1.00  0.00    -0.168 S  
HETATM    3  O   UNL     1      -9.559   5.477  71.583  1.00  0.00    -0.149 OA 
HETATM    4  O   UNL     1      -9.783   5.706  74.090  1.00  0.00    -0.152 OA 
HETATM    5  C   UNL     1      -8.995   7.817  72.690  1.00  0.00    -0.169 C  
ENDROOT
BRANCH   5   6
HETATM    6  C   UNL     1      -7.505   7.571  72.819  1.00  0.00    -0.080 C  
HETATM    7  S   UNL     1      -6.674   7.820  71.220  1.00  0.00    -0.046 SA 
HETATM    8  H   UNL     1      -5.307   7.595  71.339  1.00  0.00     0.000 H  
ENDBRANCH   5   6
TORSDOF 1
ENDMDL
MODEL      187
REMARK 921   NORMALIZED FREE ENERGY PREDICTED BY IDOCK:   -0.97 KCAL/MOL
REMARK 922        TOTAL FREE ENERGY PREDICTED BY IDOCK:   -1.07 KCAL/MOL
REMARK 923 INTER-LIGAND FREE ENERGY PREDICTED BY IDOCK:   -1.02 KCAL/MOL
REMARK 924 INTRA-LIGAND FREE ENERGY PREDICTED BY IDOCK:   -0.04 KCAL/MOL
REMARK 927      BINDING AFFINITY PREDICTED BY RF-SCORE:    0.00 PKD
ROOT
HETATM    1  O   UNL     1      -7.408   6.470  67.534  1.00  0.00    -0.090 OA 
HETATM    2  S   UNL     1      -8.658   7.151  66.770  1.00  0.00    -0.129 S  
HETATM    3  O   UNL     1      -9.857   6.575  67.330  1.00  0.00    -0.127 OA 
HETATM    4  O   UNL     1      -8.361   7.092  65.358  1.00  0.00    -0.136 OA 
HETATM    5  C   UNL     1      -8.445   8.816  67.372  1.00  0.00    -0.116 C  
ENDROOT
BRANCH   5   6
HETATM    6  C   UNL     1      -9.539   9.699  66.806  1.00  0.00    -0.173 C  
HETATM    7  S   UNL     1     -10.768  10.097  68.088  1.00  0.00    -0.255 SA 
HETATM    8  H   UNL     1     -11.772  10.908  67.569  1.00  0.00     0.000 H  
ENDBRANCH   5   6
TORSDOF 1
ENDMDL
MODEL      188
REMARK 921   NORMALIZED FREE ENERGY PREDICTED BY IDOCK:   -0.95 KCAL/MOL
REMARK 922        TOTAL FREE ENERGY PREDICTED BY IDOCK:   -1.04 KCAL/MOL
REMARK 923 INTER-LIGAND FREE ENERGY PREDICTED BY IDOCK:   -1.01 KCAL/MOL
REMARK 924 INTRA-LIGAND FREE ENERGY PREDICTED BY IDOCK:   -0.04 KCAL/MOL
REMARK 927      BINDING AFFINITY PREDICTED BY RF-SCORE:    0.00 PKD
ROOT
HETATM    1  O   UNL     1      -7.587   4.860  72.318  1.00  0.00    -0.086 OA 
HETATM    2  S   UNL     1      -8.119   5.776  71.100  1.00  0.00    -0.119 S  
HETATM    3  O   UNL     1      -8.024   4.978  69.901  1.00  0.00    -0.072 OA 
HETATM    4  O   UNL     1      -7.462   7.056  71.227  1.00  0.00    -0.079 OA 
HETATM    5  C   UNL     1      -9.823   5.908  71.608  1.00  0.00    -0.165 C  
ENDROOT
BRANCH   5   6
HETATM    6  C   UNL     1     -10.589   6.732  70.593  1.00  0.00    -0.224 C  
HETATM    7  S   UNL     1     -11.105   8.321  71.314  1.00  0.00    -0.261 SA 
HETATM    8  H   UNL     1     -11.807   9.077  70.382  1.00  0.00     0.000 H  
ENDBRANCH   5   6
TORSDOF 1
ENDMDL
MODEL      189
REMARK 921   NORMALIZED FREE ENERGY PREDICTED BY IDOCK:   -0.92 KCAL/MOL
REMARK 922        TOTAL FREE ENERGY PREDICTED BY IDOCK:   -1.02 KCAL/MOL
REMARK 923 INTER-LIGAND FREE ENERGY PREDICTED BY IDOCK:   -0.98 KCAL/MOL
REMARK 924 INTRA-LIGAND FREE ENERGY PREDICTED BY IDOCK:   -0.04 KCAL/MOL
REMARK 927      BINDING AFFINITY PREDICTED BY RF-SCORE:    0.00 PKD
ROOT
HETATM    1  O   UNL     1     -10.776   5.374  69.823  1.00  0.00    -0.315 OA 
HETATM    2  S   UNL     1      -9.689   5.325  68.631  1.00  0.00    -0.155 S  
HETATM    3  O   UNL     1     -10.192   6.161  67.567  1.00  0.00    -0.141 OA 
HETATM    4  O   UNL     1      -9.361   3.933  68.427  1.00  0.00    -0.144 OA 
HETATM    5  C   UNL     1      -8.351   6.152  69.473  1.00  0.00    -0.120 C  
ENDROOT
BRANCH   5   6
HETATM    6  C   UNL     1      -7.163   6.264  68.540  1.00  0.00    -0.085 C  
HETATM    7  S   UNL     1      -5.910   5.009  68.946  1.00  0.00    -0.021 SA 
HETATM    8  H   UNL     1      -4.818   5.111  68.090  1.00  0.00     0.000 H  
ENDBRANCH   5   6
TORSDOF 1
ENDMDL
MODEL      190
REMARK 921   NORMALIZED FREE ENERGY PREDICTED BY IDOCK:   -0.92 KCAL/MOL
REMARK 922        TOTAL FREE ENERGY PREDICTED BY IDOCK:   -1.02 KCAL/MOL
REMARK 923 INTER-LIGAND FREE ENERGY PREDICTED BY IDOCK:   -1.01 KCAL/MOL
REMARK 924 INTRA-LIGAND FREE ENERGY PREDICTED BY IDOCK:   -0.01 KCAL/MOL
REMARK 927      BINDING AFFINITY PREDICTED BY RF-SCORE:    0.00 PKD
ROOT
HETATM    1  O   UNL     1      -8.774   5.362  64.733  1.00  0.00    -0.143 OA 
HETATM    2  S   UNL     1      -8.086   5.263  66.190  1.00  0.00    -0.110 S  
HETATM    3  O   UNL     1      -7.170   6.372  66.299  1.00  0.00    -0.069 OA 
HETATM    4  O   UNL     1      -7.660   3.893  66.354  1.00  0.00    -0.086 OA 
HETATM    5  C   UNL     1      -9.538   5.575  67.177  1.00  0.00    -0.134 C  
ENDROOT
BRANCH   5   6
HETATM    6  C   UNL     1      -9.162   5.560  68.645  1.00  0.00    -0.122 C  
HETATM    7  S   UNL     1     -10.619   5.894  69.683  1.00  0.00    -0.344 SA 
HETATM    8  H   UNL     1     -10.274   5.879  71.030  1.00  0.00     0.000 H  
ENDBRANCH   5   6
TORSDOF 1
ENDMDL
MODEL      191
REMARK 921   NORMALIZED FREE ENERGY PREDICTED BY IDOCK:   -0.92 KCAL/MOL
REMARK 922        TOTAL FREE ENERGY PREDICTED BY IDOCK:   -1.01 KCAL/MOL
REMARK 923 INTER-LIGAND FREE ENERGY PREDICTED BY IDOCK:   -0.97 KCAL/MOL
REMARK 924 INTRA-LIGAND FREE ENERGY PREDICTED BY IDOCK:   -0.04 KCAL/MOL
REMARK 927      BINDING AFFINITY PREDICTED BY RF-SCORE:    0.00 PKD
ROOT
HETATM    1  O   UNL     1      -9.941   4.577  71.149  1.00  0.00    -0.190 OA 
HETATM    2  S   UNL     1      -9.594   5.484  72.439  1.00  0.00    -0.150 S  
HETATM    3  O   UNL     1     -10.714   5.375  73.343  1.00  0.00    -0.233 OA 
HETATM    4  O   UNL     1      -9.130   6.756  71.937  1.00  0.00    -0.143 OA 
HETATM    5  C   UNL     1      -8.220   4.531  73.057  1.00  0.00    -0.099 C  
ENDROOT
BRANCH   5   6
HETATM    6  C   UNL     1      -7.693   5.171  74.325  1.00  0.00    -0.093 C  
HETATM    7  S   UNL     1      -6.113   6.015  74.008  1.00  0.00    -0.065 SA 
HETATM    8  H   UNL     1      -5.629   6.603  75.171  1.00  0.00     0.000 H  
ENDBRANCH   5   6
TORSDOF 1
ENDMDL
MODEL      192
REMARK 921   NORMALIZED FREE ENERGY PREDICTED BY IDOCK:   -0.91 KCAL/MOL
REMARK 922        TOTAL FREE ENERGY PREDICTED BY IDOCK:   -1.01 KCAL/MOL
REMARK 923 INTER-LIGAND FREE ENERGY PREDICTED BY IDOCK:   -0.98 KCAL/MOL
REMARK 924 INTRA-LIGAND FREE ENERGY PREDICTED BY IDOCK:   -0.03 KCAL/MOL
REMARK 927      BINDING AFFINITY PREDICTED BY RF-SCORE:    0.00 PKD
ROOT
HETATM    1  O   UNL     1     -10.527   5.967  66.544  1.00  0.00    -0.221 OA 
HETATM    2  S   UNL     1      -9.103   6.672  66.829  1.00  0.00    -0.147 S  
HETATM    3  O   UNL     1      -9.126   7.952  66.161  1.00  0.00    -0.173 OA 
HETATM    4  O   UNL     1      -8.089   5.680  66.557  1.00  0.00    -0.104 OA 
HETATM    5  C   UNL     1      -9.282   6.901  68.588  1.00  0.00    -0.130 C  
ENDROOT
BRANCH   5   6
HETATM    6  C   UNL     1      -8.047   7.588  69.134  1.00  0.00    -0.123 C  
HETATM    7  S   UNL     1      -7.295   6.596  70.461  1.00  0.00    -0.083 SA 
HETATM    8  H   UNL     1      -6.162   7.227  70.962  1.00  0.00     0.000 H  
ENDBRANCH   5   6
TORSDOF 1
ENDMDL
MODEL      193
REMARK 921   NORMALIZED FREE ENERGY PREDICTED BY IDOCK:   -0.90 KCAL/MOL
REMARK 922        TOTAL FREE ENERGY PREDICTED BY IDOCK:   -0.99 KCAL/MOL
REMARK 923 INTER-LIGAND FREE ENERGY PREDICTED BY IDOCK:   -0.95 KCAL/MOL
REMARK 924 INTRA-LIGAND FREE ENERGY PREDICTED BY IDOCK:   -0.04 KCAL/MOL
REMARK 927      BINDING AFFINITY PREDICTED BY RF-SCORE:    0.00 PKD
ROOT
HETATM    1  O   UNL     1      -8.475   5.094  67.667  1.00  0.00    -0.106 OA 
HETATM    2  S   UNL     1      -8.164   4.820  66.107  1.00  0.00    -0.107 S  
HETATM    3  O   UNL     1      -6.802   4.349  66.026  1.00  0.00    -0.055 OA 
HETATM    4  O   UNL     1      -8.620   5.984  65.384  1.00  0.00    -0.153 OA 
HETATM    5  C   UNL     1      -9.293   3.462  65.858  1.00  0.00    -0.142 C  
ENDROOT
BRANCH   5   6
HETATM    6  C   UNL     1      -9.188   2.976  64.427  1.00  0.00    -0.137 C  
HETATM    7  S   UNL     1     -10.647   3.487  63.469  1.00  0.00    -0.251 SA 
HETATM    8  H   UNL     1     -10.551   3.042  62.155  1.00  0.00     0.000 H  
ENDBRANCH   5   6
TORSDOF 1
ENDMDL
MODEL      194
REMARK 921   NORMALIZED FREE ENERGY PREDICTED BY IDOCK:   -0.89 KCAL/MOL
REMARK 922        TOTAL FREE ENERGY PREDICTED BY IDOCK:   -0.98 KCAL/MOL
REMARK 923 INTER-LIGAND FREE ENERGY PREDICTED BY IDOCK:   -0.99 KCAL/MOL
REMARK 924 INTRA-LIGAND FREE ENERGY PREDICTED BY IDOCK:    0.01 KCAL/MOL
REMARK 927      BINDING AFFINITY PREDICTED BY RF-SCORE:    0.00 PKD
ROOT
HETATM    1  O   UNL     1      -9.316   3.738  74.106  1.00  0.00    -0.092 OA 
HETATM    2  S   UNL     1      -9.980   5.007  73.359  1.00  0.00    -0.165 S  
HETATM    3  O   UNL     1     -11.216   5.299  74.045  1.00  0.00    -0.139 OA 
HETATM    4  O   UNL     1      -9.932   4.725  71.944  1.00  0.00    -0.175 OA 
HETATM    5  C   UNL     1      -8.747   6.224  73.784  1.00  0.00    -0.123 C  
ENDROOT
BRANCH   5   6
HETATM    6  C   UNL     1      -9.145   7.566  73.205  1.00  0.00    -0.177 C  
HETATM    7  S   UNL     1      -8.384   7.810  71.570  1.00  0.00    -0.114 SA 
HETATM    8  H   UNL     1      -8.750   9.042  71.038  1.00  0.00     0.000 H  
ENDBRANCH   5   6
TORSDOF 1
ENDMDL
MODEL      195
REMARK 921   NORMALIZED FREE ENERGY PREDICTED BY IDOCK:   -0.88 KCAL/MOL
REMARK 922        TOTAL FREE ENERGY PREDICTED BY IDOCK:   -0.98 KCAL/MOL
REMARK 923 INTER-LIGAND FREE ENERGY PREDICTED BY IDOCK:   -0.95 KCAL/MOL
REMARK 924 INTRA-LIGAND FREE ENERGY PREDICTED BY IDOCK:   -0.03 KCAL/MOL
REMARK 927      BINDING AFFINITY PREDICTED BY RF-SCORE:    0.00 PKD
ROOT
HETATM    1  O   UNL     1      -9.672   5.865  72.676  1.00  0.00    -0.154 OA 
HETATM    2  S   UNL     1      -9.796   4.271  72.895  1.00  0.00    -0.141 S  
HETATM    3  O   UNL     1     -11.165   4.001  73.264  1.00  0.00    -0.222 OA 
HETATM    4  O   UNL     1      -8.682   3.879  73.727  1.00  0.00    -0.093 OA 
HETATM    5  C   UNL     1      -9.510   3.761  71.209  1.00  0.00    -0.159 C  
ENDROOT
BRANCH   5   6
HETATM    6  C   UNL     1      -9.593   2.251  71.119  1.00  0.00    -0.143 C  
HETATM    7  S   UNL     1      -8.062   1.566  70.415  1.00  0.00    -0.041 SA 
HETATM    8  H   UNL     1      -8.138   0.180  70.332  1.00  0.00     0.000 H  
ENDBRANCH   5   6
TORSDOF 1
ENDMDL
MODEL      196
REMARK 921   NORMALIZED FREE ENERGY PREDICTED BY IDOCK:   -0.87 KCAL/MOL
REMARK 922        TOTAL FREE ENERGY PREDICTED BY IDOCK:   -0.97 KCAL/MOL
REMARK 923 INTER-LIGAND FREE ENERGY PREDICTED BY IDOCK:   -0.93 KCAL/MOL
REMARK 924 INTRA-LIGAND FREE ENERGY PREDICTED BY IDOCK:   -0.03 KCAL/MOL
REMARK 927      BINDING AFFINITY PREDICTED BY RF-SCORE:    0.00 PKD
ROOT
HETATM    1  O   UNL     1      -7.551   6.683  67.329  1.00  0.00    -0.096 OA 
HETATM    2  S   UNL     1      -8.643   6.496  66.155  1.00  0.00    -0.148 S  
HETATM    3  O   UNL     1      -8.528   7.643  65.287  1.00  0.00    -0.138 OA 
HETATM    4  O   UNL     1      -9.886   6.139  66.799  1.00  0.00    -0.150 OA 
HETATM    5  C   UNL     1      -7.928   5.065  65.368  1.00  0.00    -0.108 C  
ENDROOT
BRANCH   5   6
HETATM    6  C   UNL     1      -8.773   4.671  64.174  1.00  0.00    -0.145 C  
HETATM    7  S   UNL     1      -9.486   3.014  64.413  1.00  0.00    -0.147 SA 
HETATM    8  H   UNL     1     -10.262   2.652  63.317  1.00  0.00     0.000 H  
ENDBRANCH   5   6
TORSDOF 1
ENDMDL
MODEL      197
REMARK 921   NORMALIZED FREE ENERGY PREDICTED BY IDOCK:   -0.85 KCAL/MOL
REMARK 922        TOTAL FREE ENERGY PREDICTED BY IDOCK:   -0.94 KCAL/MOL
REMARK 923 INTER-LIGAND FREE ENERGY PREDICTED BY IDOCK:   -0.91 KCAL/MOL
REMARK 924 INTRA-LIGAND FREE ENERGY PREDICTED BY IDOCK:   -0.03 KCAL/MOL
REMARK 927      BINDING AFFINITY PREDICTED BY RF-SCORE:    0.00 PKD
ROOT
HETATM    1  O   UNL     1      -8.971   1.744  73.418  1.00  0.00    -0.065 OA 
HETATM    2  S   UNL     1      -8.894   3.056  72.479  1.00  0.00    -0.084 S  
HETATM    3  O   UNL     1     -10.129   3.114  71.734  1.00  0.00    -0.151 OA 
HETATM    4  O   UNL     1      -7.604   3.025  71.831  1.00  0.00    -0.050 OA 
HETATM    5  C   UNL     1      -8.903   4.290  73.767  1.00  0.00    -0.093 C  
ENDROOT
BRANCH   5   6
HETATM    6  C   UNL     1      -8.857   5.669  73.142  1.00  0.00    -0.122 C  
HETATM    7  S   UNL     1     -10.332   6.630  73.601  1.00  0.00    -0.343 SA 
HETATM    8  H   UNL     1     -10.289   7.897  73.027  1.00  0.00     0.000 H  
ENDBRANCH   5   6
TORSDOF 1
ENDMDL
MODEL      198
REMARK 921   NORMALIZED FREE ENERGY PREDICTED BY IDOCK:   -0.84 KCAL/MOL
REMARK 922        TOTAL FREE ENERGY PREDICTED BY IDOCK:   -0.93 KCAL/MOL
REMARK 923 INTER-LIGAND FREE ENERGY PREDICTED BY IDOCK:   -0.90 KCAL/MOL
REMARK 924 INTRA-LIGAND FREE ENERGY PREDICTED BY IDOCK:   -0.03 KCAL/MOL
REMARK 927      BINDING AFFINITY PREDICTED BY RF-SCORE:    0.00 PKD
ROOT
HETATM    1  O   UNL     1      -9.338   7.411  66.721  1.00  0.00    -0.146 OA 
HETATM    2  S   UNL     1      -8.709   5.941  66.499  1.00  0.00    -0.130 S  
HETATM    3  O   UNL     1      -7.355   5.982  66.998  1.00  0.00    -0.074 OA 
HETATM    4  O   UNL     1      -9.018   5.559  65.141  1.00  0.00    -0.129 OA 
HETATM    5  C   UNL     1      -9.749   5.046  67.639  1.00  0.00    -0.154 C  
ENDROOT
BRANCH   5   6
HETATM    6  C   UNL     1      -9.347   3.586  67.647  1.00  0.00    -0.204 C  
HETATM    7  S   UNL     1      -8.332   3.208  69.110  1.00  0.00    -0.062 SA 
HETATM    8  H   UNL     1      -7.963   1.868  69.117  1.00  0.00     0.000 H  
ENDBRANCH   5   6
TORSDOF 1
ENDMDL
MODEL      199
REMARK 921   NORMALIZED FREE ENERGY PREDICTED BY IDOCK:   -0.84 KCAL/MOL
REMARK 922        TOTAL FREE ENERGY PREDICTED BY IDOCK:   -0.93 KCAL/MOL
REMARK 923 INTER-LIGAND FREE ENERGY PREDICTED BY IDOCK:   -0.89 KCAL/MOL
REMARK 924 INTRA-LIGAND FREE ENERGY PREDICTED BY IDOCK:   -0.04 KCAL/MOL
REMARK 927      BINDING AFFINITY PREDICTED BY RF-SCORE:    0.00 PKD
ROOT
HETATM    1  O   UNL     1      -7.020   5.531  65.584  1.00  0.00    -0.062 OA 
HETATM    2  S   UNL     1      -7.517   6.364  66.874  1.00  0.00    -0.085 S  
HETATM    3  O   UNL     1      -6.798   7.615  66.870  1.00  0.00    -0.064 OA 
HETATM    4  O   UNL     1      -7.476   5.455  67.995  1.00  0.00    -0.075 OA 
HETATM    5  C   UNL     1      -9.206   6.634  66.365  1.00  0.00    -0.151 C  
ENDROOT
BRANCH   5   6
HETATM    6  C   UNL     1      -9.927   7.442  67.424  1.00  0.00    -0.183 C  
HETATM    7  S   UNL     1     -10.127   9.168  66.887  1.00  0.00    -0.268 SA 
HETATM    8  H   UNL     1     -10.790   9.910  67.858  1.00  0.00     0.000 H  
ENDBRANCH   5   6
TORSDOF 1
ENDMDL
MODEL      200
REMARK 921   NORMALIZED FREE ENERGY PREDICTED BY IDOCK:   -0.81 KCAL/MOL
REMARK 922        TOTAL FREE ENERGY PREDICTED BY IDOCK:   -0.90 KCAL/MOL
REMARK 923 INTER-LIGAND FREE ENERGY PREDICTED BY IDOCK:   -0.86 KCAL/MOL
REMARK 924 INTRA-LIGAND FREE ENERGY PREDICTED BY IDOCK:   -0.04 KCAL/MOL
REMARK 927      BINDING AFFINITY PREDICTED BY RF-SCORE:    0.00 PKD
ROOT
HETATM    1  O   UNL     1      -5.405   8.334  66.616  1.00  0.00    -0.031 OA 
HETATM    2  S   UNL     1      -6.631   9.350  66.348  1.00  0.00    -0.071 S  
HETATM    3  O   UNL     1      -6.442   9.900  65.027  1.00  0.00    -0.092 OA 
HETATM    4  O   UNL     1      -6.741  10.185  67.522  1.00  0.00    -0.070 OA 
HETATM    5  C   UNL     1      -7.952   8.152  66.323  1.00  0.00    -0.101 C  
ENDROOT
BRANCH   5   6
HETATM    6  C   UNL     1      -9.267   8.857  66.059  1.00  0.00    -0.228 C  
HETATM    7  S   UNL     1     -10.303   8.863  67.555  1.00  0.00    -0.269 SA 
HETATM    8  H   UNL     1     -11.509   9.510  67.313  1.00  0.00     0.000 H  
ENDBRANCH   5   6
TORSDOF 1
ENDMDL
MODEL      201
REMARK 921   NORMALIZED FREE ENERGY PREDICTED BY IDOCK:   -0.81 KCAL/MOL
REMARK 922        TOTAL FREE ENERGY PREDICTED BY IDOCK:   -0.90 KCAL/MOL
REMARK 923 INTER-LIGAND FREE ENERGY PREDICTED BY IDOCK:   -0.86 KCAL/MOL
REMARK 924 INTRA-LIGAND FREE ENERGY PREDICTED BY IDOCK:   -0.04 KCAL/MOL
REMARK 927      BINDING AFFINITY PREDICTED BY RF-SCORE:    0.00 PKD
ROOT
HETATM    1  O   UNL     1      -7.023   4.207  62.841  1.00  0.00    -0.037 OA 
HETATM    2  S   UNL     1      -8.294   5.083  63.315  1.00  0.00    -0.117 S  
HETATM    3  O   UNL     1      -9.465   4.258  63.135  1.00  0.00    -0.146 OA 
HETATM    4  O   UNL     1      -8.160   6.378  62.690  1.00  0.00    -0.109 OA 
HETATM    5  C   UNL     1      -7.891   5.195  65.049  1.00  0.00    -0.092 C  
ENDROOT
BRANCH   5   6
HETATM    6  C   UNL     1      -8.970   5.979  65.767  1.00  0.00    -0.104 C  
HETATM    7  S   UNL     1     -10.058   4.862  66.704  1.00  0.00    -0.256 SA 
HETATM    8  H   UNL     1     -11.049   5.581  67.363  1.00  0.00     0.000 H  
ENDBRANCH   5   6
TORSDOF 1
ENDMDL
MODEL      202
REMARK 921   NORMALIZED FREE ENERGY PREDICTED BY IDOCK:   -0.79 KCAL/MOL
REMARK 922        TOTAL FREE ENERGY PREDICTED BY IDOCK:   -0.88 KCAL/MOL
REMARK 923 INTER-LIGAND FREE ENERGY PREDICTED BY IDOCK:   -0.84 KCAL/MOL
REMARK 924 INTRA-LIGAND FREE ENERGY PREDICTED BY IDOCK:   -0.04 KCAL/MOL
REMARK 927      BINDING AFFINITY PREDICTED BY RF-SCORE:    0.00 PKD
ROOT
HETATM    1  O   UNL     1      -7.689   6.499  68.654  1.00  0.00    -0.098 OA 
HETATM    2  S   UNL     1      -8.593   5.456  69.491  1.00  0.00    -0.103 S  
HETATM    3  O   UNL     1      -7.705   4.433  69.988  1.00  0.00    -0.052 OA 
HETATM    4  O   UNL     1      -9.739   5.148  68.668  1.00  0.00    -0.134 OA 
HETATM    5  C   UNL     1      -9.069   6.545  70.821  1.00  0.00    -0.154 C  
ENDROOT
BRANCH   5   6
HETATM    6  C   UNL     1      -9.941   5.789  71.803  1.00  0.00    -0.169 C  
HETATM    7  S   UNL     1      -9.068   5.550  73.382  1.00  0.00    -0.128 SA 
HETATM    8  H   UNL     1      -9.867   4.856  74.284  1.00  0.00     0.000 H  
ENDBRANCH   5   6
TORSDOF 1
ENDMDL
MODEL      203
REMARK 921   NORMALIZED FREE ENERGY PREDICTED BY IDOCK:   -0.73 KCAL/MOL
REMARK 922        TOTAL FREE ENERGY PREDICTED BY IDOCK:   -0.81 KCAL/MOL
REMARK 923 INTER-LIGAND FREE ENERGY PREDICTED BY IDOCK:   -0.78 KCAL/MOL
REMARK 924 INTRA-LIGAND FREE ENERGY PREDICTED BY IDOCK:   -0.04 KCAL/MOL
REMARK 927      BINDING AFFINITY PREDICTED BY RF-SCORE:    0.00 PKD
ROOT
HETATM    1  O   UNL     1     -10.107   7.727  67.358  1.00  0.00    -0.180 OA 
HETATM    2  S   UNL     1      -8.589   7.349  66.962  1.00  0.00    -0.121 S  
HETATM    3  O   UNL     1      -7.792   8.535  67.164  1.00  0.00    -0.096 OA 
HETATM    4  O   UNL     1      -8.651   6.671  65.688  1.00  0.00    -0.152 OA 
HETATM    5  C   UNL     1      -8.271   6.174  68.266  1.00  0.00    -0.114 C  
ENDROOT
BRANCH   5   6
HETATM    6  C   UNL     1      -6.853   5.655  68.141  1.00  0.00    -0.060 C  
HETATM    7  S   UNL     1      -6.839   4.014  67.356  1.00  0.00    -0.052 SA 
HETATM    8  H   UNL     1      -5.537   3.537  67.242  1.00  0.00     0.000 H  
ENDBRANCH   5   6
TORSDOF 1
ENDMDL
MODEL      204
REMARK 921   NORMALIZED FREE ENERGY PREDICTED BY IDOCK:   -0.71 KCAL/MOL
REMARK 922        TOTAL FREE ENERGY PREDICTED BY IDOCK:   -0.80 KCAL/MOL
REMARK 923 INTER-LIGAND FREE ENERGY PREDICTED BY IDOCK:   -0.78 KCAL/MOL
REMARK 924 INTRA-LIGAND FREE ENERGY PREDICTED BY IDOCK:   -0.02 KCAL/MOL
REMARK 927      BINDING AFFINITY PREDICTED BY RF-SCORE:    0.00 PKD
ROOT
HETATM    1  O   UNL     1     -10.251   5.073  65.982  1.00  0.00    -0.216 OA 
HETATM    2  S   UNL     1      -8.658   5.150  65.728  1.00  0.00    -0.140 S  
HETATM    3  O   UNL     1      -8.385   6.448  65.159  1.00  0.00    -0.142 OA 
HETATM    4  O   UNL     1      -8.286   3.923  65.062  1.00  0.00    -0.096 OA 
HETATM    5  C   UNL     1      -8.128   5.108  67.430  1.00  0.00    -0.100 C  
ENDROOT
BRANCH   5   6
HETATM    6  C   UNL     1      -6.616   5.191  67.489  1.00  0.00    -0.054 C  
HETATM    7  S   UNL     1      -5.940   3.851  68.518  1.00  0.00    -0.028 SA 
HETATM    8  H   UNL     1      -4.553   3.927  68.571  1.00  0.00     0.000 H  
ENDBRANCH   5   6
TORSDOF 1
ENDMDL
MODEL      205
REMARK 921   NORMALIZED FREE ENERGY PREDICTED BY IDOCK:   -0.68 KCAL/MOL
REMARK 922        TOTAL FREE ENERGY PREDICTED BY IDOCK:   -0.77 KCAL/MOL
REMARK 923 INTER-LIGAND FREE ENERGY PREDICTED BY IDOCK:   -0.73 KCAL/MOL
REMARK 924 INTRA-LIGAND FREE ENERGY PREDICTED BY IDOCK:   -0.04 KCAL/MOL
REMARK 927      BINDING AFFINITY PREDICTED BY RF-SCORE:    0.00 PKD
ROOT
HETATM    1  O   UNL     1      -8.908  10.598  68.979  1.00  0.00    -0.157 OA 
HETATM    2  S   UNL     1      -7.747   9.497  68.765  1.00  0.00    -0.081 S  
HETATM    3  O   UNL     1      -7.113   9.298  70.046  1.00  0.00    -0.055 OA 
HETATM    4  O   UNL     1      -7.006   9.900  67.593  1.00  0.00    -0.084 OA 
HETATM    5  C   UNL     1      -8.789   8.101  68.380  1.00  0.00    -0.133 C  
ENDROOT
BRANCH   5   6
HETATM    6  C   UNL     1      -7.927   6.879  68.144  1.00  0.00    -0.115 C  
HETATM    7  S   UNL     1      -7.984   5.767  69.583  1.00  0.00    -0.101 SA 
HETATM    8  H   UNL     1      -7.192   4.644  69.366  1.00  0.00     0.000 H  
ENDBRANCH   5   6
TORSDOF 1
ENDMDL
MODEL      206
REMARK 921   NORMALIZED FREE ENERGY PREDICTED BY IDOCK:   -0.66 KCAL/MOL
REMARK 922        TOTAL FREE ENERGY PREDICTED BY IDOCK:   -0.74 KCAL/MOL
REMARK 923 INTER-LIGAND FREE ENERGY PREDICTED BY IDOCK:   -0.73 KCAL/MOL
REMARK 924 INTRA-LIGAND FREE ENERGY PREDICTED BY IDOCK:   -0.01 KCAL/MOL
REMARK 927      BINDING AFFINITY PREDICTED BY RF-SCORE:    0.00 PKD
ROOT
HETATM    1  O   UNL     1      -6.388   3.045  62.864  1.00  0.00    -0.017 OA 
HETATM    2  S   UNL     1      -7.689   3.406  63.748  1.00  0.00    -0.080 S  
HETATM    3  O   UNL     1      -7.848   4.840  63.697  1.00  0.00    -0.077 OA 
HETATM    4  O   UNL     1      -7.554   2.691  64.995  1.00  0.00    -0.070 OA 
HETATM    5  C   UNL     1      -8.919   2.622  62.722  1.00  0.00    -0.088 C  
ENDROOT
BRANCH   5   6
HETATM    6  C   UNL     1     -10.290   2.832  63.330  1.00  0.00    -0.180 C  
HETATM    7  S   UNL     1     -11.505   1.707  62.574  1.00  0.00    -0.222 SA 
HETATM    8  H   UNL     1     -12.764   1.900  63.133  1.00  0.00     0.000 H  
ENDBRANCH   5   6
TORSDOF 1
ENDMDL
MODEL      207
REMARK 921   NORMALIZED FREE ENERGY PREDICTED BY IDOCK:   -0.64 KCAL/MOL
REMARK 922        TOTAL FREE ENERGY PREDICTED BY IDOCK:   -0.72 KCAL/MOL
REMARK 923 INTER-LIGAND FREE ENERGY PREDICTED BY IDOCK:   -0.68 KCAL/MOL
REMARK 924 INTRA-LIGAND FREE ENERGY PREDICTED BY IDOCK:   -0.04 KCAL/MOL
REMARK 927      BINDING AFFINITY PREDICTED BY RF-SCORE:    0.00 PKD
ROOT
HETATM    1  O   UNL     1      -8.321   6.598  68.551  1.00  0.00    -0.121 OA 
HETATM    2  S   UNL     1      -8.450   6.729  66.947  1.00  0.00    -0.117 S  
HETATM    3  O   UNL     1      -7.752   7.934  66.566  1.00  0.00    -0.093 OA 
HETATM    4  O   UNL     1      -9.840   6.509  66.624  1.00  0.00    -0.167 OA 
HETATM    5  C   UNL     1      -7.482   5.299  66.498  1.00  0.00    -0.087 C  
ENDROOT
BRANCH   5   6
HETATM    6  C   UNL     1      -7.418   5.189  64.988  1.00  0.00    -0.073 C  
HETATM    7  S   UNL     1      -5.807   5.768  64.371  1.00  0.00    -0.025 SA 
HETATM    8  H   UNL     1      -5.748   5.667  62.986  1.00  0.00     0.000 H  
ENDBRANCH   5   6
TORSDOF 1
ENDMDL
MODEL      208
REMARK 921   NORMALIZED FREE ENERGY PREDICTED BY IDOCK:   -0.59 KCAL/MOL
REMARK 922        TOTAL FREE ENERGY PREDICTED BY IDOCK:   -0.67 KCAL/MOL
REMARK 923 INTER-LIGAND FREE ENERGY PREDICTED BY IDOCK:   -0.63 KCAL/MOL
REMARK 924 INTRA-LIGAND FREE ENERGY PREDICTED BY IDOCK:   -0.04 KCAL/MOL
REMARK 927      BINDING AFFINITY PREDICTED BY RF-SCORE:    0.00 PKD
ROOT
HETATM    1  O   UNL     1      -5.283   6.216  69.819  1.00  0.00    -0.011 OA 
HETATM    2  S   UNL     1      -6.436   7.345  69.863  1.00  0.00    -0.035 S  
HETATM    3  O   UNL     1      -6.987   7.437  68.532  1.00  0.00    -0.074 OA 
HETATM    4  O   UNL     1      -5.872   8.487  70.544  1.00  0.00    -0.028 OA 
HETATM    5  C   UNL     1      -7.580   6.496  70.937  1.00  0.00    -0.089 C  
ENDROOT
BRANCH   5   6
HETATM    6  C   UNL     1      -8.812   7.354  71.139  1.00  0.00    -0.142 C  
HETATM    7  S   UNL     1      -8.872   7.999  72.839  1.00  0.00    -0.248 SA 
HETATM    8  H   UNL     1     -10.002   8.787  73.025  1.00  0.00     0.000 H  
ENDBRANCH   5   6
TORSDOF 1
ENDMDL
MODEL      209
REMARK 921   NORMALIZED FREE ENERGY PREDICTED BY IDOCK:   -0.56 KCAL/MOL
REMARK 922        TOTAL FREE ENERGY PREDICTED BY IDOCK:   -0.64 KCAL/MOL
REMARK 923 INTER-LIGAND FREE ENERGY PREDICTED BY IDOCK:   -0.63 KCAL/MOL
REMARK 924 INTRA-LIGAND FREE ENERGY PREDICTED BY IDOCK:   -0.01 KCAL/MOL
REMARK 927      BINDING AFFINITY PREDICTED BY RF-SCORE:    0.00 PKD
ROOT
HETATM    1  O   UNL     1      -5.559   6.234  68.070  1.00  0.00    -0.007 OA 
HETATM    2  S   UNL     1      -6.421   7.600  68.067  1.00  0.00    -0.056 S  
HETATM    3  O   UNL     1      -6.697   7.921  66.687  1.00  0.00    -0.060 OA 
HETATM    4  O   UNL     1      -5.742   8.518  68.951  1.00  0.00    -0.038 OA 
HETATM    5  C   UNL     1      -7.894   6.970  68.851  1.00  0.00    -0.115 C  
ENDROOT
BRANCH   5   6
HETATM    6  C   UNL     1      -8.919   8.081  68.961  1.00  0.00    -0.145 C  
HETATM    7  S   UNL     1     -10.185   7.663  70.199  1.00  0.00    -0.208 SA 
HETATM    8  H   UNL     1     -11.126   8.682  70.301  1.00  0.00     0.000 H  
ENDBRANCH   5   6
TORSDOF 1
ENDMDL
MODEL      210
REMARK 921   NORMALIZED FREE ENERGY PREDICTED BY IDOCK:   -0.54 KCAL/MOL
REMARK 922        TOTAL FREE ENERGY PREDICTED BY IDOCK:   -0.62 KCAL/MOL
REMARK 923 INTER-LIGAND FREE ENERGY PREDICTED BY IDOCK:   -0.61 KCAL/MOL
REMARK 924 INTRA-LIGAND FREE ENERGY PREDICTED BY IDOCK:   -0.01 KCAL/MOL
REMARK 927      BINDING AFFINITY PREDICTED BY RF-SCORE:    0.00 PKD
ROOT
HETATM    1  O   UNL     1      -6.559   8.638  72.569  1.00  0.00    -0.134 OA 
HETATM    2  S   UNL     1      -7.424   8.309  71.246  1.00  0.00    -0.089 S  
HETATM    3  O   UNL     1      -6.852   9.077  70.166  1.00  0.00    -0.039 OA 
HETATM    4  O   UNL     1      -8.814   8.424  71.620  1.00  0.00    -0.150 OA 
HETATM    5  C   UNL     1      -6.976   6.591  71.072  1.00  0.00    -0.068 C  
ENDROOT
BRANCH   5   6
HETATM    6  C   UNL     1      -7.658   6.014  69.848  1.00  0.00    -0.081 C  
HETATM    7  S   UNL     1      -6.688   4.635  69.164  1.00  0.00    -0.047 SA 
HETATM    8  H   UNL     1      -7.314   4.106  68.041  1.00  0.00     0.000 H  
ENDBRANCH   5   6
TORSDOF 1
ENDMDL
MODEL      211
REMARK 921   NORMALIZED FREE ENERGY PREDICTED BY IDOCK:   -0.53 KCAL/MOL
REMARK 922        TOTAL FREE ENERGY PREDICTED BY IDOCK:   -0.60 KCAL/MOL
REMARK 923 INTER-LIGAND FREE ENERGY PREDICTED BY IDOCK:   -0.56 KCAL/MOL
REMARK 924 INTRA-LIGAND FREE ENERGY PREDICTED BY IDOCK:   -0.04 KCAL/MOL
REMARK 927      BINDING AFFINITY PREDICTED BY RF-SCORE:    0.00 PKD
ROOT
HETATM    1  O   UNL     1      -6.477   6.363  67.675  1.00  0.00    -0.047 OA 
HETATM    2  S   UNL     1      -7.248   7.679  67.146  1.00  0.00    -0.092 S  
HETATM    3  O   UNL     1      -8.487   7.765  67.881  1.00  0.00    -0.122 OA 
HETATM    4  O   UNL     1      -7.211   7.627  65.703  1.00  0.00    -0.063 OA 
HETATM    5  C   UNL     1      -6.099   8.904  67.745  1.00  0.00    -0.051 C  
ENDROOT
BRANCH   5   6
HETATM    6  C   UNL     1      -6.607  10.287  67.390  1.00  0.00    -0.068 C  
HETATM    7  S   UNL     1      -7.318  11.104  68.852  1.00  0.00    -0.116 SA 
HETATM    8  H   UNL     1      -7.784  12.373  68.526  1.00  0.00     0.000 H  
ENDBRANCH   5   6
TORSDOF 1
ENDMDL
MODEL      212
REMARK 921   NORMALIZED FREE ENERGY PREDICTED BY IDOCK:   -0.48 KCAL/MOL
REMARK 922        TOTAL FREE ENERGY PREDICTED BY IDOCK:   -0.55 KCAL/MOL
REMARK 923 INTER-LIGAND FREE ENERGY PREDICTED BY IDOCK:   -0.54 KCAL/MOL
REMARK 924 INTRA-LIGAND FREE ENERGY PREDICTED BY IDOCK:   -0.01 KCAL/MOL
REMARK 927      BINDING AFFINITY PREDICTED BY RF-SCORE:    0.00 PKD
ROOT
HETATM    1  O   UNL     1      -8.794   4.606  72.439  1.00  0.00    -0.117 OA 
HETATM    2  S   UNL     1      -7.673   4.456  71.287  1.00  0.00    -0.081 S  
HETATM    3  O   UNL     1      -7.054   3.165  71.467  1.00  0.00    -0.031 OA 
HETATM    4  O   UNL     1      -6.911   5.683  71.289  1.00  0.00    -0.062 OA 
HETATM    5  C   UNL     1      -8.764   4.415  69.876  1.00  0.00    -0.073 C  
ENDROOT
BRANCH   5   6
HETATM    6  C   UNL     1      -7.945   4.253  68.612  1.00  0.00    -0.073 C  
HETATM    7  S   UNL     1      -8.762   5.076  67.210  1.00  0.00    -0.102 SA 
HETATM    8  H   UNL     1      -8.011   4.928  66.049  1.00  0.00     0.000 H  
ENDBRANCH   5   6
TORSDOF 1
ENDMDL
MODEL      213
REMARK 921   NORMALIZED FREE ENERGY PREDICTED BY IDOCK:   -0.44 KCAL/MOL
REMARK 922        TOTAL FREE ENERGY PREDICTED BY IDOCK:   -0.51 KCAL/MOL
REMARK 923 INTER-LIGAND FREE ENERGY PREDICTED BY IDOCK:   -0.57 KCAL/MOL
REMARK 924 INTRA-LIGAND FREE ENERGY PREDICTED BY IDOCK:    0.06 KCAL/MOL
REMARK 927      BINDING AFFINITY PREDICTED BY RF-SCORE:    0.00 PKD
ROOT
HETATM    1  O   UNL     1      -8.009   3.027  67.459  1.00  0.00    -0.075 OA 
HETATM    2  S   UNL     1      -7.546   3.554  68.913  1.00  0.00    -0.052 S  
HETATM    3  O   UNL     1      -6.424   4.437  68.704  1.00  0.00    -0.035 OA 
HETATM    4  O   UNL     1      -7.462   2.391  69.766  1.00  0.00    -0.043 OA 
HETATM    5  C   UNL     1      -9.001   4.504  69.313  1.00  0.00    -0.096 C  
ENDROOT
BRANCH   5   6
HETATM    6  C   UNL     1      -8.823   5.150  70.672  1.00  0.00    -0.128 C  
HETATM    7  S   UNL     1      -9.391   4.034  71.992  1.00  0.00    -0.138 SA 
HETATM    8  H   UNL     1      -9.227   4.627  73.239  1.00  0.00     0.000 H  
ENDBRANCH   5   6
TORSDOF 1
ENDMDL
MODEL      214
REMARK 921   NORMALIZED FREE ENERGY PREDICTED BY IDOCK:   -0.25 KCAL/MOL
REMARK 922        TOTAL FREE ENERGY PREDICTED BY IDOCK:   -0.31 KCAL/MOL
REMARK 923 INTER-LIGAND FREE ENERGY PREDICTED BY IDOCK:   -0.74 KCAL/MOL
REMARK 924 INTRA-LIGAND FREE ENERGY PREDICTED BY IDOCK:    0.43 KCAL/MOL
REMARK 927      BINDING AFFINITY PREDICTED BY RF-SCORE:    0.00 PKD
ROOT
HETATM    1  O   UNL     1      -9.368   9.758  69.603  1.00  0.00    -0.191 OA 
HETATM    2  S   UNL     1      -8.328   9.216  68.493  1.00  0.00    -0.124 S  
HETATM    3  O   UNL     1      -9.109   8.583  67.457  1.00  0.00    -0.133 OA 
HETATM    4  O   UNL     1      -7.287   8.515  69.208  1.00  0.00    -0.068 OA 
HETATM    5  C   UNL     1      -7.724  10.793  67.920  1.00  0.00    -0.100 C  
ENDROOT
BRANCH   5   6
HETATM    6  C   UNL     1      -6.708  10.573  66.818  1.00  0.00    -0.091 C  
HETATM    7  S   UNL     1      -5.229   9.735  67.467  1.00  0.00    -0.035 SA 
HETATM    8  H   UNL     1      -4.297   9.533  66.455  1.00  0.00     0.000 H  
ENDBRANCH   5   6
TORSDOF 1
ENDMDL
MODEL      215
REMARK 921   NORMALIZED FREE ENERGY PREDICTED BY IDOCK:    5.50 KCAL/MOL
REMARK 922        TOTAL FREE ENERGY PREDICTED BY IDOCK:    5.78 KCAL/MOL
REMARK 923 INTER-LIGAND FREE ENERGY PREDICTED BY IDOCK:    5.50 KCAL/MOL
REMARK 924 INTRA-LIGAND FREE ENERGY PREDICTED BY IDOCK:    0.28 KCAL/MOL
REMARK 927      BINDING AFFINITY PREDICTED BY RF-SCORE:    0.00 PKD
ROOT
HETATM    1  O   UNL     1     -10.332  15.879  63.181  1.00  0.00     4.478 OA 
HETATM    2  S   UNL     1     -10.510  14.952  64.491  1.00  0.00     0.378 S  
HETATM    3  O   UNL     1      -9.626  15.479  65.503  1.00  0.00    -0.312 OA 
HETATM    4  O   UNL     1     -10.437  13.582  64.041  1.00  0.00    -0.273 OA 
HETATM    5  C   UNL     1     -12.198  15.381  64.877  1.00  0.00     0.140 C  
ENDROOT
BRANCH   5   6
HETATM    6  C   UNL     1     -12.633  14.639  66.124  1.00  0.00     0.113 C  
HETATM    7  S   UNL     1     -12.920  12.881  65.757  1.00  0.00     0.973 SA 
HETATM    8  H   UNL     1     -13.319  12.200  66.902  1.00  0.00     0.000 H  
ENDBRANCH   5   6
TORSDOF 1
ENDMDL
