MODEL        1
REMARK 921   NORMALIZED FREE ENERGY PREDICTED BY IDOCK:   -6.82 KCAL/MOL
REMARK 922        TOTAL FREE ENERGY PREDICTED BY IDOCK:   -9.15 KCAL/MOL
REMARK 923 INTER-LIGAND FREE ENERGY PREDICTED BY IDOCK:   -8.41 KCAL/MOL
REMARK 924 INTRA-LIGAND FREE ENERGY PREDICTED BY IDOCK:   -0.74 KCAL/MOL
REMARK 927      BINDING AFFINITY PREDICTED BY RF-SCORE:    0.00 PKD
ROOT
HETATM    1  C   UNL     1      -6.184  19.011  66.291  1.00  0.00    -0.179 C  
HETATM    2  O   UNL     1      -5.682  17.692  66.469  1.00  0.00    -0.157 OA 
ENDROOT
BRANCH   2   3
HETATM    3  C   UNL     1      -6.593  16.720  66.787  1.00  0.00    -0.212 C  
HETATM    4  C   UNL     1      -6.327  15.767  67.779  1.00  0.00    -0.153 C  
HETATM    5  C   UNL     1      -9.793  13.719  66.704  1.00  0.00    -0.286 C  
HETATM    6  C   UNL     1      -7.275  14.627  67.947  1.00  0.00    -0.159 C  
HETATM    7  C   UNL     1      -9.820  12.789  65.700  1.00  0.00    -0.190 C  
HETATM    8  H   UNL     1     -13.252  11.166  64.310  1.00  0.00     0.000 HD 
HETATM    9  C   UNL     1      -8.471  14.566  67.123  1.00  0.00    -0.234 C  
HETATM   10  O   UNL     1     -13.341  12.102  64.450  1.00  0.00    -0.740 OA 
HETATM   11  C   UNL     1      -8.812  15.891  66.858  1.00  0.00    -0.264 C  
HETATM   12  C   UNL     1      -9.393  16.555  68.178  1.00  0.00    -0.218 C  
HETATM   13  C   UNL     1      -7.864  16.723  66.258  1.00  0.00    -0.334 C  
HETATM   14  C   UNL     1     -10.882  16.372  68.250  1.00  0.00    -0.347 C  
HETATM   15  C   UNL     1     -11.174  14.877  68.497  1.00  0.00    -0.279 C  
HETATM   16  C   UNL     1     -11.003  12.198  65.010  1.00  0.00    -0.355 C  
HETATM   17  C   UNL     1     -11.149  14.278  67.122  1.00  0.00    -0.318 C  
HETATM   18  C   UNL     1     -12.202  14.577  66.322  1.00  0.00    -0.270 C  
HETATM   19  O   UNL     1     -12.693  15.045  64.059  1.00  0.00    -0.772 OA 
HETATM   20  C   UNL     1     -12.181  12.818  64.692  1.00  0.00    -0.447 C  
HETATM   21  C   UNL     1     -12.318  14.262  64.908  1.00  0.00    -0.425 C  
BRANCH   4  22
HETATM   22  O   UNL     1      -5.233  15.912  68.629  1.00  0.00    -0.095 OA 
HETATM   23  C   UNL     1      -5.368  16.695  69.831  1.00  0.00    -0.180 C  
ENDBRANCH   4  22
BRANCH   6  24
HETATM   24  O   UNL     1      -7.165  13.762  69.035  1.00  0.00    -0.110 OA 
HETATM   25  C   UNL     1      -6.522  12.482  68.773  1.00  0.00    -0.084 C  
ENDBRANCH   6  24
BRANCH  15  26
HETATM   26  N   UNL     1     -12.457  14.732  69.160  1.00  0.00    -0.580 N  
HETATM   27  H   UNL     1     -13.285  14.540  68.597  1.00  0.00     0.000 HD 
HETATM   28  C   UNL     1     -12.590  14.847  70.528  1.00  0.00    -0.360 C  
HETATM   29  O   UNL     1     -11.673  14.778  71.329  1.00  0.00    -0.322 OA 
HETATM   30  C   UNL     1     -14.017  15.075  70.956  1.00  0.00    -0.343 C  
ENDBRANCH  15  26
ENDBRANCH   2   3
TORSDOF 4
ENDMDL
MODEL        2
REMARK 921   NORMALIZED FREE ENERGY PREDICTED BY IDOCK:   -6.81 KCAL/MOL
REMARK 922        TOTAL FREE ENERGY PREDICTED BY IDOCK:   -9.14 KCAL/MOL
REMARK 923 INTER-LIGAND FREE ENERGY PREDICTED BY IDOCK:   -8.42 KCAL/MOL
REMARK 924 INTRA-LIGAND FREE ENERGY PREDICTED BY IDOCK:   -0.72 KCAL/MOL
REMARK 927      BINDING AFFINITY PREDICTED BY RF-SCORE:    0.00 PKD
ROOT
HETATM    1  C   UNL     1     -10.189  20.146  65.788  1.00  0.00    -0.273 C  
HETATM    2  O   UNL     1      -8.971  19.413  65.850  1.00  0.00    -0.422 OA 
ENDROOT
BRANCH   2   3
HETATM    3  C   UNL     1      -8.982  18.253  66.578  1.00  0.00    -0.274 C  
HETATM    4  C   UNL     1      -8.112  18.062  67.659  1.00  0.00    -0.232 C  
HETATM    5  C   UNL     1      -9.339  14.088  67.910  1.00  0.00    -0.206 C  
HETATM    6  C   UNL     1      -8.042  16.712  68.291  1.00  0.00    -0.198 C  
HETATM    7  C   UNL     1      -8.768  13.090  67.166  1.00  0.00    -0.204 C  
HETATM    8  H   UNL     1     -10.265   9.338  67.019  1.00  0.00     0.000 HD 
HETATM    9  C   UNL     1      -8.915  15.654  67.809  1.00  0.00    -0.176 C  
HETATM   10  O   UNL     1     -10.954   9.990  66.971  1.00  0.00    -0.181 OA 
HETATM   11  C   UNL     1     -10.065  16.294  67.354  1.00  0.00    -0.260 C  
HETATM   12  C   UNL     1     -10.897  16.821  68.599  1.00  0.00    -0.336 C  
HETATM   13  C   UNL     1      -9.943  17.287  66.380  1.00  0.00    -0.319 C  
HETATM   14  C   UNL     1     -11.874  15.779  69.062  1.00  0.00    -0.367 C  
HETATM   15  C   UNL     1     -11.078  14.614  69.687  1.00  0.00    -0.253 C  
HETATM   16  C   UNL     1      -9.269  11.708  66.923  1.00  0.00    -0.187 C  
HETATM   17  C   UNL     1     -10.704  13.766  68.509  1.00  0.00    -0.274 C  
HETATM   18  C   UNL     1     -11.711  13.060  67.938  1.00  0.00    -0.402 C  
HETATM   19  O   UNL     1     -12.465  12.359  65.811  1.00  0.00    -0.615 OA 
HETATM   20  C   UNL     1     -10.569  11.305  66.769  1.00  0.00    -0.260 C  
HETATM   21  C   UNL     1     -11.632  12.312  66.694  1.00  0.00    -0.375 C  
BRANCH   4  22
HETATM   22  O   UNL     1      -7.371  19.125  68.172  1.00  0.00    -0.254 OA 
HETATM   23  C   UNL     1      -5.997  19.290  67.769  1.00  0.00    -0.201 C  
ENDBRANCH   4  22
BRANCH   6  24
HETATM   24  O   UNL     1      -7.344  16.516  69.481  1.00  0.00    -0.190 OA 
HETATM   25  C   UNL     1      -6.182  15.642  69.405  1.00  0.00    -0.136 C  
ENDBRANCH   6  24
BRANCH  15  26
HETATM   26  N   UNL     1     -11.908  13.917  70.653  1.00  0.00    -0.498 N  
HETATM   27  H   UNL     1     -12.305  13.012  70.400  1.00  0.00     0.000 HD 
HETATM   28  C   UNL     1     -12.177  14.441  71.900  1.00  0.00    -0.235 C  
HETATM   29  O   UNL     1     -11.547  15.341  72.432  1.00  0.00    -0.436 OA 
HETATM   30  C   UNL     1     -13.359  13.783  72.565  1.00  0.00    -0.656 C  
ENDBRANCH  15  26
ENDBRANCH   2   3
TORSDOF 4
ENDMDL
MODEL        3
REMARK 921   NORMALIZED FREE ENERGY PREDICTED BY IDOCK:   -6.56 KCAL/MOL
REMARK 922        TOTAL FREE ENERGY PREDICTED BY IDOCK:   -8.83 KCAL/MOL
REMARK 923 INTER-LIGAND FREE ENERGY PREDICTED BY IDOCK:   -8.24 KCAL/MOL
REMARK 924 INTRA-LIGAND FREE ENERGY PREDICTED BY IDOCK:   -0.60 KCAL/MOL
REMARK 927      BINDING AFFINITY PREDICTED BY RF-SCORE:    0.00 PKD
ROOT
HETATM    1  C   UNL     1      -5.321  16.185  70.537  1.00  0.00    -0.169 C  
HETATM    2  O   UNL     1      -6.012  16.791  69.451  1.00  0.00    -0.175 OA 
ENDROOT
BRANCH   2   3
HETATM    3  C   UNL     1      -7.273  16.330  69.183  1.00  0.00    -0.213 C  
HETATM    4  C   UNL     1      -8.268  17.177  68.679  1.00  0.00    -0.255 C  
HETATM    5  C   UNL     1     -11.075  14.139  69.186  1.00  0.00    -0.295 C  
HETATM    6  C   UNL     1      -9.666  16.663  68.587  1.00  0.00    -0.248 C  
HETATM    7  C   UNL     1     -11.732  13.931  70.369  1.00  0.00    -0.269 C  
HETATM    8  H   UNL     1     -14.071  10.701  71.035  1.00  0.00     0.000 HD 
HETATM    9  C   UNL     1      -9.945  15.287  68.964  1.00  0.00    -0.229 C  
HETATM   10  O   UNL     1     -13.267  10.463  70.588  1.00  0.00    -0.350 OA 
HETATM   11  C   UNL     1      -8.782  14.575  68.677  1.00  0.00    -0.172 C  
HETATM   12  C   UNL     1      -8.635  14.427  67.103  1.00  0.00    -0.237 C  
HETATM   13  C   UNL     1      -7.580  14.990  69.253  1.00  0.00    -0.187 C  
HETATM   14  C   UNL     1      -9.309  13.174  66.624  1.00  0.00    -0.242 C  
HETATM   15  C   UNL     1     -10.834  13.354  66.781  1.00  0.00    -0.282 C  
HETATM   16  C   UNL     1     -12.524  12.742  70.797  1.00  0.00    -0.357 C  
HETATM   17  C   UNL     1     -11.092  12.970  68.207  1.00  0.00    -0.293 C  
HETATM   18  C   UNL     1     -10.998  11.649  68.496  1.00  0.00    -0.264 C  
HETATM   19  O   UNL     1     -10.261  10.209  70.218  1.00  0.00    -0.247 OA 
HETATM   20  C   UNL     1     -12.275  11.426  70.513  1.00  0.00    -0.386 C  
HETATM   21  C   UNL     1     -11.034  11.058  69.823  1.00  0.00    -0.193 C  
BRANCH   4  22
HETATM   22  O   UNL     1      -7.950  18.453  68.220  1.00  0.00    -0.281 OA 
HETATM   23  C   UNL     1      -8.121  19.585  69.096  1.00  0.00    -0.139 C  
ENDBRANCH   4  22
BRANCH   6  24
HETATM   24  O   UNL     1     -10.651  17.388  67.920  1.00  0.00    -0.367 OA 
HETATM   25  C   UNL     1     -10.513  17.477  66.473  1.00  0.00    -0.270 C  
ENDBRANCH   6  24
BRANCH  15  26
HETATM   26  N   UNL     1     -11.527  12.508  65.826  1.00  0.00    -0.346 N  
HETATM   27  H   UNL     1     -11.304  11.513  65.795  1.00  0.00     0.000 HD 
HETATM   28  C   UNL     1     -12.476  13.008  64.960  1.00  0.00    -0.477 C  
HETATM   29  O   UNL     1     -13.042  14.083  65.086  1.00  0.00    -0.776 OA 
HETATM   30  C   UNL     1     -12.759  12.080  63.807  1.00  0.00    -0.516 C  
ENDBRANCH  15  26
ENDBRANCH   2   3
TORSDOF 4
ENDMDL
MODEL        4
REMARK 921   NORMALIZED FREE ENERGY PREDICTED BY IDOCK:   -6.41 KCAL/MOL
REMARK 922        TOTAL FREE ENERGY PREDICTED BY IDOCK:   -8.64 KCAL/MOL
REMARK 923 INTER-LIGAND FREE ENERGY PREDICTED BY IDOCK:   -7.98 KCAL/MOL
REMARK 924 INTRA-LIGAND FREE ENERGY PREDICTED BY IDOCK:   -0.66 KCAL/MOL
REMARK 927      BINDING AFFINITY PREDICTED BY RF-SCORE:    0.00 PKD
ROOT
HETATM    1  C   UNL     1      -9.724  20.625  67.516  1.00  0.00    -0.369 C  
HETATM    2  O   UNL     1      -9.079  19.794  68.474  1.00  0.00    -0.324 OA 
ENDROOT
BRANCH   2   3
HETATM    3  C   UNL     1      -9.063  18.449  68.218  1.00  0.00    -0.312 C  
HETATM    4  C   UNL     1      -7.920  17.675  68.455  1.00  0.00    -0.283 C  
HETATM    5  C   UNL     1      -9.757  14.436  66.585  1.00  0.00    -0.289 C  
HETATM    6  C   UNL     1      -7.904  16.260  67.982  1.00  0.00    -0.149 C  
HETATM    7  C   UNL     1      -9.711  14.242  65.230  1.00  0.00    -0.068 C  
HETATM    8  H   UNL     1     -11.893  11.406  63.349  1.00  0.00     0.000 HD 
HETATM    9  C   UNL     1      -9.088  15.708  67.344  1.00  0.00    -0.203 C  
HETATM   10  O   UNL     1     -12.404  11.857  64.011  1.00  0.00    -0.377 OA 
HETATM   11  C   UNL     1     -10.169  16.375  67.917  1.00  0.00    -0.268 C  
HETATM   12  C   UNL     1     -10.368  15.864  69.407  1.00  0.00    -0.265 C  
HETATM   13  C   UNL     1     -10.206  17.770  67.861  1.00  0.00    -0.362 C  
HETATM   14  C   UNL     1     -11.302  14.689  69.442  1.00  0.00    -0.314 C  
HETATM   15  C   UNL     1     -10.590  13.485  68.789  1.00  0.00    -0.218 C  
HETATM   16  C   UNL     1     -10.538  13.327  64.392  1.00  0.00    -0.438 C  
HETATM   17  C   UNL     1     -10.849  13.670  67.324  1.00  0.00    -0.292 C  
HETATM   18  C   UNL     1     -12.116  13.427  66.906  1.00  0.00    -0.406 C  
HETATM   19  O   UNL     1     -13.713  14.241  65.368  1.00  0.00    -0.311 OA 
HETATM   20  C   UNL     1     -11.858  13.005  64.560  1.00  0.00    -0.377 C  
HETATM   21  C   UNL     1     -12.647  13.701  65.581  1.00  0.00    -0.484 C  
BRANCH   4  22
HETATM   22  O   UNL     1      -6.843  18.197  69.169  1.00  0.00    -0.264 OA 
HETATM   23  C   UNL     1      -5.717  18.742  68.454  1.00  0.00    -0.192 C  
ENDBRANCH   4  22
BRANCH   6  24
HETATM   24  O   UNL     1      -6.879  15.393  68.357  1.00  0.00    -0.108 OA 
HETATM   25  C   UNL     1      -6.978  14.824  69.693  1.00  0.00    -0.172 C  
ENDBRANCH   6  24
BRANCH  15  26
HETATM   26  N   UNL     1     -11.140  12.248  69.315  1.00  0.00    -0.406 N  
HETATM   27  H   UNL     1     -12.088  12.250  69.691  1.00  0.00     0.000 HD 
HETATM   28  C   UNL     1     -10.419  11.072  69.322  1.00  0.00    -0.180 C  
HETATM   29  O   UNL     1      -9.420  10.859  68.653  1.00  0.00    -0.177 OA 
HETATM   30  C   UNL     1     -10.994  10.043  70.261  1.00  0.00    -0.377 C  
ENDBRANCH  15  26
ENDBRANCH   2   3
TORSDOF 4
ENDMDL
MODEL        5
REMARK 921   NORMALIZED FREE ENERGY PREDICTED BY IDOCK:   -6.30 KCAL/MOL
REMARK 922        TOTAL FREE ENERGY PREDICTED BY IDOCK:   -8.51 KCAL/MOL
REMARK 923 INTER-LIGAND FREE ENERGY PREDICTED BY IDOCK:   -8.27 KCAL/MOL
REMARK 924 INTRA-LIGAND FREE ENERGY PREDICTED BY IDOCK:   -0.24 KCAL/MOL
REMARK 927      BINDING AFFINITY PREDICTED BY RF-SCORE:    0.00 PKD
ROOT
HETATM    1  C   UNL     1      -6.034  11.230  66.577  1.00  0.00    -0.144 C  
HETATM    2  O   UNL     1      -7.356  10.720  66.450  1.00  0.00    -0.130 OA 
ENDROOT
BRANCH   2   3
HETATM    3  C   UNL     1      -8.379  11.629  66.498  1.00  0.00    -0.122 C  
HETATM    4  C   UNL     1      -9.650  11.325  65.994  1.00  0.00    -0.218 C  
HETATM    5  C   UNL     1     -10.796  15.290  66.566  1.00  0.00    -0.311 C  
HETATM    6  C   UNL     1     -10.664  12.416  65.905  1.00  0.00    -0.266 C  
HETATM    7  C   UNL     1     -10.568  16.266  65.634  1.00  0.00    -0.360 C  
HETATM    8  H   UNL     1     -11.211  20.189  66.369  1.00  0.00     0.000 HD 
HETATM    9  C   UNL     1     -10.327  13.743  66.395  1.00  0.00    -0.290 C  
HETATM   10  O   UNL     1     -10.790  19.761  67.106  1.00  0.00    -0.452 OA 
HETATM   11  C   UNL     1      -9.419  13.541  67.433  1.00  0.00    -0.225 C  
HETATM   12  C   UNL     1     -10.186  12.946  68.689  1.00  0.00    -0.170 C  
HETATM   13  C   UNL     1      -8.252  12.821  67.175  1.00  0.00    -0.146 C  
HETATM   14  C   UNL     1     -10.684  14.051  69.576  1.00  0.00    -0.009 C  
HETATM   15  C   UNL     1     -11.820  14.790  68.837  1.00  0.00    -0.296 C  
HETATM   16  C   UNL     1     -10.644  17.747  65.798  1.00  0.00    -0.175 C  
HETATM   17  C   UNL     1     -11.097  15.783  67.977  1.00  0.00    -0.337 C  
HETATM   18  C   UNL     1     -10.536  16.835  68.622  1.00  0.00    -0.333 C  
HETATM   19  O   UNL     1      -8.612  18.203  68.542  1.00  0.00    -0.296 OA 
HETATM   20  C   UNL     1     -10.297  18.484  66.898  1.00  0.00    -0.397 C  
HETATM   21  C   UNL     1      -9.647  17.824  68.035  1.00  0.00    -0.291 C  
BRANCH   4  22
HETATM   22  O   UNL     1      -9.980  10.019  65.637  1.00  0.00    -0.272 OA 
HETATM   23  C   UNL     1     -10.251   9.050  66.669  1.00  0.00    -0.263 C  
ENDBRANCH   4  22
BRANCH   6  24
HETATM   24  O   UNL     1     -11.993  12.133  65.595  1.00  0.00    -0.503 OA 
HETATM   25  C   UNL     1     -12.370  12.284  64.197  1.00  0.00    -0.451 C  
ENDBRANCH   6  24
BRANCH  15  26
HETATM   26  N   UNL     1     -12.708  15.410  69.803  1.00  0.00    -0.623 N  
HETATM   27  H   UNL     1     -13.040  16.360  69.631  1.00  0.00     0.000 HD 
HETATM   28  C   UNL     1     -13.118  14.756  70.946  1.00  0.00    -0.363 C  
HETATM   29  O   UNL     1     -13.047  13.551  71.127  1.00  0.00    -0.293 OA 
HETATM   30  C   UNL     1     -13.678  15.694  71.985  1.00  0.00    -0.534 C  
ENDBRANCH  15  26
ENDBRANCH   2   3
TORSDOF 4
ENDMDL
MODEL        6
REMARK 921   NORMALIZED FREE ENERGY PREDICTED BY IDOCK:   -6.02 KCAL/MOL
REMARK 922        TOTAL FREE ENERGY PREDICTED BY IDOCK:   -8.16 KCAL/MOL
REMARK 923 INTER-LIGAND FREE ENERGY PREDICTED BY IDOCK:   -7.43 KCAL/MOL
REMARK 924 INTRA-LIGAND FREE ENERGY PREDICTED BY IDOCK:   -0.73 KCAL/MOL
REMARK 927      BINDING AFFINITY PREDICTED BY RF-SCORE:    0.00 PKD
ROOT
HETATM    1  C   UNL     1      -7.787  19.491  68.456  1.00  0.00    -0.347 C  
HETATM    2  O   UNL     1      -7.098  18.562  67.629  1.00  0.00    -0.207 OA 
ENDROOT
BRANCH   2   3
HETATM    3  C   UNL     1      -7.602  17.290  67.570  1.00  0.00    -0.178 C  
HETATM    4  C   UNL     1      -6.847  16.185  67.982  1.00  0.00    -0.126 C  
HETATM    5  C   UNL     1      -9.796  13.646  66.494  1.00  0.00    -0.295 C  
HETATM    6  C   UNL     1      -7.379  14.817  67.719  1.00  0.00    -0.170 C  
HETATM    7  C   UNL     1      -9.830  13.240  65.186  1.00  0.00    -0.078 C  
HETATM    8  H   UNL     1     -12.942  11.198  63.609  1.00  0.00     0.000 HD 
HETATM    9  C   UNL     1      -8.686  14.667  67.100  1.00  0.00    -0.242 C  
HETATM   10  O   UNL     1     -13.238  11.906  64.169  1.00  0.00    -0.645 OA 
HETATM   11  C   UNL     1      -9.424  15.776  67.508  1.00  0.00    -0.218 C  
HETATM   12  C   UNL     1      -9.802  15.617  69.041  1.00  0.00    -0.236 C  
HETATM   13  C   UNL     1      -8.920  17.052  67.249  1.00  0.00    -0.224 C  
HETATM   14  C   UNL     1     -11.117  14.908  69.190  1.00  0.00    -0.279 C  
HETATM   15  C   UNL     1     -10.926  13.438  68.760  1.00  0.00    -0.257 C  
HETATM   16  C   UNL     1     -10.948  12.592  64.442  1.00  0.00    -0.386 C  
HETATM   17  C   UNL     1     -11.097  13.478  67.271  1.00  0.00    -0.302 C  
HETATM   18  C   UNL     1     -12.360  13.675  66.819  1.00  0.00    -0.354 C  
HETATM   19  O   UNL     1     -13.523  14.788  65.090  1.00  0.00    -0.063 OA 
HETATM   20  C   UNL     1     -12.290  12.829  64.577  1.00  0.00    -0.445 C  
HETATM   21  C   UNL     1     -12.747  13.922  65.441  1.00  0.00    -0.490 C  
BRANCH   4  22
HETATM   22  O   UNL     1      -5.650  16.361  68.675  1.00  0.00    -0.104 OA 
HETATM   23  C   UNL     1      -5.680  16.556  70.102  1.00  0.00    -0.194 C  
ENDBRANCH   4  22
BRANCH   6  24
HETATM   24  O   UNL     1      -6.767  13.694  68.273  1.00  0.00    -0.085 OA 
HETATM   25  C   UNL     1      -6.377  12.649  67.337  1.00  0.00    -0.150 C  
ENDBRANCH   6  24
BRANCH  15  26
HETATM   26  N   UNL     1     -11.910  12.602  69.426  1.00  0.00    -0.305 N  
HETATM   27  H   UNL     1     -12.866  12.944  69.519  1.00  0.00     0.000 HD 
HETATM   28  C   UNL     1     -11.590  11.362  69.935  1.00  0.00    -0.323 C  
HETATM   29  O   UNL     1     -10.595  10.718  69.640  1.00  0.00    -0.231 OA 
HETATM   30  C   UNL     1     -12.611  10.857  70.922  1.00  0.00    -0.494 C  
ENDBRANCH  15  26
ENDBRANCH   2   3
TORSDOF 4
ENDMDL
MODEL        7
REMARK 921   NORMALIZED FREE ENERGY PREDICTED BY IDOCK:   -5.83 KCAL/MOL
REMARK 922        TOTAL FREE ENERGY PREDICTED BY IDOCK:   -7.93 KCAL/MOL
REMARK 923 INTER-LIGAND FREE ENERGY PREDICTED BY IDOCK:   -7.30 KCAL/MOL
REMARK 924 INTRA-LIGAND FREE ENERGY PREDICTED BY IDOCK:   -0.63 KCAL/MOL
REMARK 927      BINDING AFFINITY PREDICTED BY RF-SCORE:    0.00 PKD
ROOT
HETATM    1  C   UNL     1      -5.698   8.830  66.049  1.00  0.00    -0.046 C  
HETATM    2  O   UNL     1      -6.071   9.767  67.051  1.00  0.00    -0.061 OA 
ENDROOT
BRANCH   2   3
HETATM    3  C   UNL     1      -7.362  10.223  67.025  1.00  0.00    -0.092 C  
HETATM    4  C   UNL     1      -8.429   9.417  67.441  1.00  0.00    -0.125 C  
HETATM    5  C   UNL     1     -11.108  12.293  66.058  1.00  0.00    -0.347 C  
HETATM    6  C   UNL     1      -9.822   9.900  67.213  1.00  0.00    -0.182 C  
HETATM    7  C   UNL     1     -11.538  12.338  64.759  1.00  0.00    -0.393 C  
HETATM    8  H   UNL     1     -13.728  15.399  63.282  1.00  0.00     0.000 HD 
HETATM    9  C   UNL     1     -10.033  11.212  66.623  1.00  0.00    -0.244 C  
HETATM   10  O   UNL     1     -13.021  15.711  63.835  1.00  0.00    -0.485 OA 
HETATM   11  C   UNL     1      -8.946  11.985  67.027  1.00  0.00    -0.198 C  
HETATM   12  C   UNL     1      -9.092  12.326  68.570  1.00  0.00    -0.076 C  
HETATM   13  C   UNL     1      -7.657  11.536  66.735  1.00  0.00    -0.126 C  
HETATM   14  C   UNL     1      -9.848  13.610  68.759  1.00  0.00    -0.069 C  
HETATM   15  C   UNL     1     -11.317  13.370  68.351  1.00  0.00    -0.294 C  
HETATM   16  C   UNL     1     -12.242  13.444  64.049  1.00  0.00    -0.466 C  
HETATM   17  C   UNL     1     -11.311  13.572  66.865  1.00  0.00    -0.350 C  
HETATM   18  C   UNL     1     -11.171  14.850  66.436  1.00  0.00    -0.331 C  
HETATM   19  O   UNL     1     -10.136  16.089  64.712  1.00  0.00    -0.324 OA 
HETATM   20  C   UNL     1     -12.055  14.792  64.208  1.00  0.00    -0.394 C  
HETATM   21  C   UNL     1     -10.965  15.274  65.061  1.00  0.00    -0.437 C  
BRANCH   4  22
HETATM   22  O   UNL     1      -8.195   8.215  68.106  1.00  0.00    -0.126 OA 
HETATM   23  C   UNL     1      -7.923   8.229  69.521  1.00  0.00    -0.112 C  
ENDBRANCH   4  22
BRANCH   6  24
HETATM   24  O   UNL     1     -10.910   9.235  67.774  1.00  0.00    -0.237 OA 
HETATM   25  C   UNL     1     -11.277   9.633  69.126  1.00  0.00    -0.019 C  
ENDBRANCH   6  24
BRANCH  15  26
HETATM   26  N   UNL     1     -12.178  14.307  69.051  1.00  0.00    -0.533 N  
HETATM   27  H   UNL     1     -12.613  15.065  68.525  1.00  0.00     0.000 HD 
HETATM   28  C   UNL     1     -12.424  14.203  70.403  1.00  0.00    -0.357 C  
HETATM   29  O   UNL     1     -12.220  13.206  71.078  1.00  0.00    -0.329 OA 
HETATM   30  C   UNL     1     -12.983  15.473  70.992  1.00  0.00    -0.550 C  
ENDBRANCH  15  26
ENDBRANCH   2   3
TORSDOF 4
ENDMDL
MODEL        8
REMARK 921   NORMALIZED FREE ENERGY PREDICTED BY IDOCK:   -5.80 KCAL/MOL
REMARK 922        TOTAL FREE ENERGY PREDICTED BY IDOCK:   -7.89 KCAL/MOL
REMARK 923 INTER-LIGAND FREE ENERGY PREDICTED BY IDOCK:   -7.17 KCAL/MOL
REMARK 924 INTRA-LIGAND FREE ENERGY PREDICTED BY IDOCK:   -0.72 KCAL/MOL
REMARK 927      BINDING AFFINITY PREDICTED BY RF-SCORE:    0.00 PKD
ROOT
HETATM    1  C   UNL     1      -5.175   8.607  64.535  1.00  0.00    -0.043 C  
HETATM    2  O   UNL     1      -5.650   8.913  65.840  1.00  0.00    -0.044 OA 
ENDROOT
BRANCH   2   3
HETATM    3  C   UNL     1      -6.950   9.328  65.946  1.00  0.00    -0.089 C  
HETATM    4  C   UNL     1      -7.979   8.434  66.269  1.00  0.00    -0.099 C  
HETATM    5  C   UNL     1     -10.782  11.419  65.497  1.00  0.00    -0.313 C  
HETATM    6  C   UNL     1      -9.391   8.908  66.184  1.00  0.00    -0.239 C  
HETATM    7  C   UNL     1     -11.274  11.663  64.243  1.00  0.00    -0.392 C  
HETATM    8  H   UNL     1     -13.598  14.859  63.388  1.00  0.00     0.000 HD 
HETATM    9  C   UNL     1      -9.658  10.292  65.829  1.00  0.00    -0.279 C  
HETATM   10  O   UNL     1     -12.873  15.097  63.954  1.00  0.00    -0.671 OA 
HETATM   11  C   UNL     1      -8.571  11.019  66.307  1.00  0.00    -0.167 C  
HETATM   12  C   UNL     1      -8.650  11.099  67.891  1.00  0.00    -0.135 C  
HETATM   13  C   UNL     1      -7.287  10.663  65.890  1.00  0.00    -0.128 C  
HETATM   14  C   UNL     1      -9.424  12.311  68.321  1.00  0.00    -0.209 C  
HETATM   15  C   UNL     1     -10.905  12.099  67.943  1.00  0.00    -0.217 C  
HETATM   16  C   UNL     1     -12.035  12.850  63.757  1.00  0.00    -0.582 C  
HETATM   17  C   UNL     1     -10.974  12.541  66.512  1.00  0.00    -0.303 C  
HETATM   18  C   UNL     1     -10.883  13.876  66.294  1.00  0.00    -0.290 C  
HETATM   19  O   UNL     1      -9.958  15.411  64.755  1.00  0.00    -0.222 OA 
HETATM   20  C   UNL     1     -11.870  14.158  64.128  1.00  0.00    -0.337 C  
HETATM   21  C   UNL     1     -10.751  14.525  65.001  1.00  0.00    -0.427 C  
BRANCH   4  22
HETATM   22  O   UNL     1      -7.687   7.147  66.715  1.00  0.00    -0.094 OA 
HETATM   23  C   UNL     1      -7.724   6.048  65.783  1.00  0.00    -0.097 C  
ENDBRANCH   4  22
BRANCH   6  24
HETATM   24  O   UNL     1     -10.437   8.127  66.674  1.00  0.00    -0.303 OA 
HETATM   25  C   UNL     1     -10.616   8.132  68.119  1.00  0.00    -0.110 C  
ENDBRANCH   6  24
BRANCH  15  26
HETATM   26  N   UNL     1     -11.752  12.882  68.824  1.00  0.00    -0.305 N  
HETATM   27  H   UNL     1     -12.125  13.771  68.490  1.00  0.00     0.000 HD 
HETATM   28  C   UNL     1     -12.068  12.461  70.099  1.00  0.00    -0.290 C  
HETATM   29  O   UNL     1     -11.945  11.319  70.510  1.00  0.00    -0.343 OA 
HETATM   30  C   UNL     1     -12.592  13.577  70.967  1.00  0.00    -0.438 C  
ENDBRANCH  15  26
ENDBRANCH   2   3
TORSDOF 4
ENDMDL
MODEL        9
REMARK 921   NORMALIZED FREE ENERGY PREDICTED BY IDOCK:   -5.77 KCAL/MOL
REMARK 922        TOTAL FREE ENERGY PREDICTED BY IDOCK:   -7.86 KCAL/MOL
REMARK 923 INTER-LIGAND FREE ENERGY PREDICTED BY IDOCK:   -7.17 KCAL/MOL
REMARK 924 INTRA-LIGAND FREE ENERGY PREDICTED BY IDOCK:   -0.69 KCAL/MOL
REMARK 927      BINDING AFFINITY PREDICTED BY RF-SCORE:    0.00 PKD
ROOT
HETATM    1  C   UNL     1     -13.023   8.753  72.403  1.00  0.00    -0.383 C  
HETATM    2  O   UNL     1     -11.608   8.680  72.527  1.00  0.00    -0.356 OA 
ENDROOT
BRANCH   2   3
HETATM    3  C   UNL     1     -10.869   9.108  71.456  1.00  0.00    -0.366 C  
HETATM    4  C   UNL     1      -9.482   8.922  71.405  1.00  0.00    -0.274 C  
HETATM    5  C   UNL     1      -9.317  11.279  67.973  1.00  0.00    -0.166 C  
HETATM    6  C   UNL     1      -8.713   9.574  70.306  1.00  0.00    -0.235 C  
HETATM    7  C   UNL     1      -9.217  12.644  68.018  1.00  0.00    -0.208 C  
HETATM    8  H   UNL     1      -9.562  14.975  64.733  1.00  0.00     0.000 HD 
HETATM    9  C   UNL     1      -9.425  10.331  69.289  1.00  0.00    -0.230 C  
HETATM   10  O   UNL     1     -10.213  14.284  64.740  1.00  0.00    -0.412 OA 
HETATM   11  C   UNL     1     -10.675   9.726  69.177  1.00  0.00    -0.242 C  
HETATM   12  C   UNL     1     -10.513   8.326  68.445  1.00  0.00    -0.206 C  
HETATM   13  C   UNL     1     -11.468   9.602  70.319  1.00  0.00    -0.288 C  
HETATM   14  C   UNL     1     -10.653   8.487  66.959  1.00  0.00    -0.305 C  
HETATM   15  C   UNL     1      -9.422   9.257  66.437  1.00  0.00    -0.218 C  
HETATM   16  C   UNL     1      -9.439  13.631  66.923  1.00  0.00    -0.263 C  
HETATM   17  C   UNL     1      -9.789  10.696  66.645  1.00  0.00    -0.245 C  
HETATM   18  C   UNL     1     -10.731  11.199  65.810  1.00  0.00    -0.252 C  
HETATM   19  O   UNL     1     -12.565  12.689  65.820  1.00  0.00    -0.575 OA 
HETATM   20  C   UNL     1     -10.364  13.566  65.915  1.00  0.00    -0.299 C  
HETATM   21  C   UNL     1     -11.370  12.500  65.925  1.00  0.00    -0.340 C  
BRANCH   4  22
HETATM   22  O   UNL     1      -8.841   8.098  72.328  1.00  0.00    -0.148 OA 
HETATM   23  C   UNL     1      -8.779   6.679  72.088  1.00  0.00    -0.130 C  
ENDBRANCH   4  22
BRANCH   6  24
HETATM   24  O   UNL     1      -7.369   9.270  70.096  1.00  0.00    -0.070 OA 
HETATM   25  C   UNL     1      -6.425  10.358  70.307  1.00  0.00    -0.141 C  
ENDBRANCH   6  24
BRANCH  15  26
HETATM   26  N   UNL     1      -9.190   8.922  65.044  1.00  0.00    -0.437 N  
HETATM   27  H   UNL     1      -9.976   8.608  64.474  1.00  0.00     0.000 HD 
HETATM   28  C   UNL     1      -7.941   9.017  64.467  1.00  0.00    -0.131 C  
HETATM   29  O   UNL     1      -7.002   9.643  64.929  1.00  0.00    -0.101 OA 
HETATM   30  C   UNL     1      -7.838   8.248  63.174  1.00  0.00    -0.148 C  
ENDBRANCH  15  26
ENDBRANCH   2   3
TORSDOF 4
ENDMDL
MODEL       10
REMARK 921   NORMALIZED FREE ENERGY PREDICTED BY IDOCK:   -5.71 KCAL/MOL
REMARK 922        TOTAL FREE ENERGY PREDICTED BY IDOCK:   -7.78 KCAL/MOL
REMARK 923 INTER-LIGAND FREE ENERGY PREDICTED BY IDOCK:   -7.01 KCAL/MOL
REMARK 924 INTRA-LIGAND FREE ENERGY PREDICTED BY IDOCK:   -0.76 KCAL/MOL
REMARK 927      BINDING AFFINITY PREDICTED BY RF-SCORE:    0.00 PKD
ROOT
HETATM    1  C   UNL     1     -13.201   9.953  72.066  1.00  0.00    -0.456 C  
HETATM    2  O   UNL     1     -12.379   9.176  71.203  1.00  0.00    -0.299 OA 
ENDROOT
BRANCH   2   3
HETATM    3  C   UNL     1     -11.581   9.860  70.325  1.00  0.00    -0.250 C  
HETATM    4  C   UNL     1     -10.185   9.838  70.438  1.00  0.00    -0.281 C  
HETATM    5  C   UNL     1      -9.925  12.756  67.475  1.00  0.00    -0.210 C  
HETATM    6  C   UNL     1      -9.383  10.750  69.572  1.00  0.00     0.113 C  
HETATM    7  C   UNL     1     -10.010  14.095  67.747  1.00  0.00    -0.235 C  
HETATM    8  H   UNL     1     -10.264  16.906  64.853  1.00  0.00     0.000 HD 
HETATM    9  C   UNL     1     -10.063  11.589  68.598  1.00  0.00    -0.214 C  
HETATM   10  O   UNL     1     -10.816  16.157  64.661  1.00  0.00    -0.650 OA 
HETATM   11  C   UNL     1     -11.201  10.879  68.220  1.00  0.00    -0.347 C  
HETATM   12  C   UNL     1     -10.772   9.653  67.307  1.00  0.00    -0.284 C  
HETATM   13  C   UNL     1     -12.101  10.475  69.208  1.00  0.00    -0.120 C  
HETATM   14  C   UNL     1     -10.755  10.051  65.860  1.00  0.00     0.140 C  
HETATM   15  C   UNL     1      -9.582  11.030  65.641  1.00  0.00    -0.226 C  
HETATM   16  C   UNL     1     -10.227  15.226  66.800  1.00  0.00    -0.273 C  
HETATM   17  C   UNL     1     -10.156  12.363  66.019  1.00  0.00    -0.269 C  
HETATM   18  C   UNL     1     -11.050  12.896  65.151  1.00  0.00    -0.321 C  
HETATM   19  O   UNL     1     -13.050  14.153  65.141  1.00  0.00    -0.757 OA 
HETATM   20  C   UNL     1     -11.009  15.236  65.676  1.00  0.00    -0.344 C  
HETATM   21  C   UNL     1     -11.861  14.080  65.379  1.00  0.00    -0.359 C  
BRANCH   4  22
HETATM   22  O   UNL     1      -9.556   8.943  71.301  1.00  0.00    -0.227 OA 
HETATM   23  C   UNL     1      -9.348   7.580  70.878  1.00  0.00    -0.154 C  
ENDBRANCH   4  22
BRANCH   6  24
HETATM   24  O   UNL     1      -7.996  10.635  69.505  1.00  0.00    -0.145 OA 
HETATM   25  C   UNL     1      -7.473   9.814  68.421  1.00  0.00    -0.083 C  
ENDBRANCH   6  24
BRANCH  15  26
HETATM   26  N   UNL     1      -9.145  10.968  64.258  1.00  0.00    -0.341 N  
HETATM   27  H   UNL     1      -9.643  11.517  63.557  1.00  0.00     0.000 HD 
HETATM   28  C   UNL     1      -8.078  10.189  63.862  1.00  0.00    -0.157 C  
HETATM   29  O   UNL     1      -7.231   9.729  64.611  1.00  0.00    -0.118 OA 
HETATM   30  C   UNL     1      -8.055   9.946  62.375  1.00  0.00    -0.143 C  
ENDBRANCH  15  26
ENDBRANCH   2   3
TORSDOF 4
ENDMDL
MODEL       11
REMARK 921   NORMALIZED FREE ENERGY PREDICTED BY IDOCK:   -5.68 KCAL/MOL
REMARK 922        TOTAL FREE ENERGY PREDICTED BY IDOCK:   -7.75 KCAL/MOL
REMARK 923 INTER-LIGAND FREE ENERGY PREDICTED BY IDOCK:   -8.00 KCAL/MOL
REMARK 924 INTRA-LIGAND FREE ENERGY PREDICTED BY IDOCK:    0.25 KCAL/MOL
REMARK 927      BINDING AFFINITY PREDICTED BY RF-SCORE:    0.00 PKD
ROOT
HETATM    1  C   UNL     1      -7.523  15.892  68.009  1.00  0.00    -0.126 C  
HETATM    2  O   UNL     1      -7.767  14.962  66.960  1.00  0.00    -0.185 OA 
ENDROOT
BRANCH   2   3
HETATM    3  C   UNL     1      -8.729  14.014  67.184  1.00  0.00    -0.221 C  
HETATM    4  C   UNL     1      -9.896  13.962  66.413  1.00  0.00    -0.295 C  
HETATM    5  C   UNL     1     -11.431  11.058  68.976  1.00  0.00    -0.368 C  
HETATM    6  C   UNL     1     -10.985  13.029  66.825  1.00  0.00    -0.276 C  
HETATM    7  C   UNL     1     -12.104  11.369  70.126  1.00  0.00    -0.439 C  
HETATM    8  H   UNL     1     -13.156   8.591  72.869  1.00  0.00     0.000 HD 
HETATM    9  C   UNL     1     -10.783  12.162  67.974  1.00  0.00    -0.242 C  
HETATM   10  O   UNL     1     -12.273   8.448  72.548  1.00  0.00    -0.386 OA 
HETATM   11  C   UNL     1      -9.415  11.903  68.013  1.00  0.00    -0.197 C  
HETATM   12  C   UNL     1      -9.035  10.918  66.827  1.00  0.00    -0.158 C  
HETATM   13  C   UNL     1      -8.528  12.980  68.071  1.00  0.00    -0.181 C  
HETATM   14  C   UNL     1      -9.139   9.488  67.274  1.00  0.00    -0.146 C  
HETATM   15  C   UNL     1     -10.630   9.156  67.491  1.00  0.00    -0.249 C  
HETATM   16  C   UNL     1     -12.450  10.481  71.273  1.00  0.00    -0.524 C  
HETATM   17  C   UNL     1     -10.900   9.631  68.888  1.00  0.00    -0.201 C  
HETATM   18  C   UNL     1     -10.363   8.886  69.886  1.00  0.00    -0.215 C  
HETATM   19  O   UNL     1      -9.363   9.139  72.011  1.00  0.00    -0.337 OA 
HETATM   20  C   UNL     1     -11.702   9.457  71.791  1.00  0.00    -0.374 C  
HETATM   21  C   UNL     1     -10.340   9.235  71.296  1.00  0.00    -0.327 C  
BRANCH   4  22
HETATM   22  O   UNL     1     -10.016  14.724  65.251  1.00  0.00    -0.361 OA 
HETATM   23  C   UNL     1     -10.693  15.995  65.304  1.00  0.00    -0.399 C  
ENDBRANCH   4  22
BRANCH   6  24
HETATM   24  O   UNL     1     -12.080  12.797  65.994  1.00  0.00    -0.436 OA 
HETATM   25  C   UNL     1     -11.790  12.170  64.712  1.00  0.00    -0.318 C  
ENDBRANCH   6  24
BRANCH  15  26
HETATM   26  N   UNL     1     -10.844   7.731  67.321  1.00  0.00    -0.528 N  
HETATM   27  H   UNL     1     -11.680   7.305  67.722  1.00  0.00     0.000 HD 
HETATM   28  C   UNL     1      -9.952   6.935  66.634  1.00  0.00    -0.143 C  
HETATM   29  O   UNL     1      -9.093   7.344  65.869  1.00  0.00    -0.131 OA 
HETATM   30  C   UNL     1     -10.138   5.467  66.923  1.00  0.00    -0.237 C  
ENDBRANCH  15  26
ENDBRANCH   2   3
TORSDOF 4
ENDMDL
MODEL       12
REMARK 921   NORMALIZED FREE ENERGY PREDICTED BY IDOCK:   -5.63 KCAL/MOL
REMARK 922        TOTAL FREE ENERGY PREDICTED BY IDOCK:   -7.69 KCAL/MOL
REMARK 923 INTER-LIGAND FREE ENERGY PREDICTED BY IDOCK:   -7.02 KCAL/MOL
REMARK 924 INTRA-LIGAND FREE ENERGY PREDICTED BY IDOCK:   -0.67 KCAL/MOL
REMARK 927      BINDING AFFINITY PREDICTED BY RF-SCORE:    0.00 PKD
ROOT
HETATM    1  C   UNL     1     -12.264  14.559  64.394  1.00  0.00    -0.458 C  
HETATM    2  O   UNL     1     -12.471  14.287  65.775  1.00  0.00    -0.441 OA 
ENDROOT
BRANCH   2   3
HETATM    3  C   UNL     1     -11.582  13.439  66.380  1.00  0.00    -0.346 C  
HETATM    4  C   UNL     1     -10.432  13.919  67.017  1.00  0.00    -0.278 C  
HETATM    5  C   UNL     1      -9.095  10.003  67.504  1.00  0.00    -0.144 C  
HETATM    6  C   UNL     1      -9.413  12.937  67.491  1.00  0.00    -0.198 C  
HETATM    7  C   UNL     1      -8.386   9.339  66.539  1.00  0.00    -0.126 C  
HETATM    8  H   UNL     1      -7.519   5.398  66.780  1.00  0.00     0.000 HD 
HETATM    9  C   UNL     1      -9.667  11.515  67.333  1.00  0.00    -0.191 C  
HETATM   10  O   UNL     1      -8.414   5.574  67.045  1.00  0.00    -0.111 OA 
HETATM   11  C   UNL     1     -11.051  11.370  67.407  1.00  0.00    -0.349 C  
HETATM   12  C   UNL     1     -11.520  11.591  68.908  1.00  0.00    -0.352 C  
HETATM   13  C   UNL     1     -11.852  12.096  66.523  1.00  0.00    -0.322 C  
HETATM   14  C   UNL     1     -11.522  10.291  69.658  1.00  0.00    -0.297 C  
HETATM   15  C   UNL     1     -10.058   9.841  69.850  1.00  0.00    -0.251 C  
HETATM   16  C   UNL     1      -8.096   7.880  66.434  1.00  0.00    -0.108 C  
HETATM   17  C   UNL     1      -9.736   9.124  68.573  1.00  0.00    -0.166 C  
HETATM   18  C   UNL     1     -10.316   7.911  68.407  1.00  0.00    -0.235 C  
HETATM   19  O   UNL     1     -11.269   6.565  66.715  1.00  0.00    -0.334 OA 
HETATM   20  C   UNL     1      -8.914   6.839  66.784  1.00  0.00    -0.134 C  
HETATM   21  C   UNL     1     -10.295   7.112  67.193  1.00  0.00    -0.289 C  
BRANCH   4  22
HETATM   22  O   UNL     1     -10.268  15.283  67.255  1.00  0.00    -0.243 OA 
HETATM   23  C   UNL     1     -10.928  15.889  68.384  1.00  0.00    -0.331 C  
ENDBRANCH   4  22
BRANCH   6  24
HETATM   24  O   UNL     1      -8.349  13.343  68.295  1.00  0.00    -0.154 OA 
HETATM   25  C   UNL     1      -7.099  13.630  67.606  1.00  0.00    -0.170 C  
ENDBRANCH   6  24
BRANCH  15  26
HETATM   26  N   UNL     1      -9.957   8.992  71.023  1.00  0.00    -0.253 N  
HETATM   27  H   UNL     1     -10.762   8.426  71.294  1.00  0.00     0.000 HD 
HETATM   28  C   UNL     1      -8.808   8.927  71.783  1.00  0.00    -0.101 C  
HETATM   29  O   UNL     1      -7.706   9.304  71.419  1.00  0.00    -0.334 OA 
HETATM   30  C   UNL     1      -9.045   8.332  73.147  1.00  0.00    -0.305 C  
ENDBRANCH  15  26
ENDBRANCH   2   3
TORSDOF 4
ENDMDL
MODEL       13
REMARK 921   NORMALIZED FREE ENERGY PREDICTED BY IDOCK:   -5.61 KCAL/MOL
REMARK 922        TOTAL FREE ENERGY PREDICTED BY IDOCK:   -7.65 KCAL/MOL
REMARK 923 INTER-LIGAND FREE ENERGY PREDICTED BY IDOCK:   -7.04 KCAL/MOL
REMARK 924 INTRA-LIGAND FREE ENERGY PREDICTED BY IDOCK:   -0.61 KCAL/MOL
REMARK 927      BINDING AFFINITY PREDICTED BY RF-SCORE:    0.00 PKD
ROOT
HETATM    1  C   UNL     1     -12.269  13.325  63.333  1.00  0.00    -0.403 C  
HETATM    2  O   UNL     1     -12.409  14.320  64.340  1.00  0.00    -0.570 OA 
ENDROOT
BRANCH   2   3
HETATM    3  C   UNL     1     -11.888  14.032  65.573  1.00  0.00    -0.365 C  
HETATM    4  C   UNL     1     -10.655  14.552  65.985  1.00  0.00    -0.307 C  
HETATM    5  C   UNL     1     -10.790  12.130  69.372  1.00  0.00    -0.032 C  
HETATM    6  C   UNL     1     -10.056  14.054  67.257  1.00  0.00    -0.249 C  
HETATM    7  C   UNL     1     -10.340  10.837  69.374  1.00  0.00    -0.207 C  
HETATM    8  H   UNL     1     -10.920   8.322  72.485  1.00  0.00     0.000 HD 
HETATM    9  C   UNL     1     -10.791  13.091  68.061  1.00  0.00    -0.261 C  
HETATM   10  O   UNL     1     -11.700   8.829  72.298  1.00  0.00    -0.363 OA 
HETATM   11  C   UNL     1     -12.139  13.361  67.832  1.00  0.00    -0.289 C  
HETATM   12  C   UNL     1     -12.530  14.717  68.561  1.00  0.00     0.173 C  
HETATM   13  C   UNL     1     -12.615  13.345  66.520  1.00  0.00    -0.101 C  
HETATM   14  C   UNL     1     -13.004  14.447  69.960  1.00  0.00     0.084 C  
HETATM   15  C   UNL     1     -11.796  13.978  70.798  1.00  0.00    -0.215 C  
HETATM   16  C   UNL     1     -10.580   9.769  70.387  1.00  0.00    -0.365 C  
HETATM   17  C   UNL     1     -11.720  12.506  70.521  1.00  0.00     0.036 C  
HETATM   18  C   UNL     1     -12.687  11.742  71.086  1.00  0.00    -0.405 C  
HETATM   19  O   UNL     1     -14.017   9.848  70.615  1.00  0.00     0.082 OA 
HETATM   20  C   UNL     1     -11.719   9.549  71.115  1.00  0.00    -0.363 C  
HETATM   21  C   UNL     1     -12.924  10.332  70.825  1.00  0.00    -0.330 C  
BRANCH   4  22
HETATM   22  O   UNL     1     -10.027  15.558  65.251  1.00  0.00    -0.320 OA 
HETATM   23  C   UNL     1     -10.373  16.935  65.496  1.00  0.00    -0.177 C  
ENDBRANCH   4  22
BRANCH   6  24
HETATM   24  O   UNL     1      -8.934  14.670  67.809  1.00  0.00    -0.172 OA 
HETATM   25  C   UNL     1      -7.654  14.032  67.536  1.00  0.00    -0.180 C  
ENDBRANCH   6  24
BRANCH  15  26
HETATM   26  N   UNL     1     -12.024  14.285  72.198  1.00  0.00    -0.122 N  
HETATM   27  H   UNL     1     -12.113  13.518  72.864  1.00  0.00     0.000 HD 
HETATM   28  C   UNL     1     -12.123  15.582  72.656  1.00  0.00    -0.437 C  
HETATM   29  O   UNL     1     -11.749  16.571  72.045  1.00  0.00    -0.474 OA 
HETATM   30  C   UNL     1     -12.758  15.671  74.020  1.00  0.00    -0.710 C  
ENDBRANCH  15  26
ENDBRANCH   2   3
TORSDOF 4
ENDMDL
MODEL       14
REMARK 921   NORMALIZED FREE ENERGY PREDICTED BY IDOCK:   -5.60 KCAL/MOL
REMARK 922        TOTAL FREE ENERGY PREDICTED BY IDOCK:   -7.65 KCAL/MOL
REMARK 923 INTER-LIGAND FREE ENERGY PREDICTED BY IDOCK:   -6.97 KCAL/MOL
REMARK 924 INTRA-LIGAND FREE ENERGY PREDICTED BY IDOCK:   -0.68 KCAL/MOL
REMARK 927      BINDING AFFINITY PREDICTED BY RF-SCORE:    0.00 PKD
ROOT
HETATM    1  C   UNL     1     -12.110  15.750  64.081  1.00  0.00     0.080 C  
HETATM    2  O   UNL     1     -10.880  16.112  64.698  1.00  0.00    -0.650 OA 
ENDROOT
BRANCH   2   3
HETATM    3  C   UNL     1     -10.470  15.347  65.757  1.00  0.00    -0.355 C  
HETATM    4  C   UNL     1     -10.238  15.910  67.018  1.00  0.00    -0.283 C  
HETATM    5  C   UNL     1      -8.660  12.280  68.322  1.00  0.00    -0.172 C  
HETATM    6  C   UNL     1      -9.614  15.063  68.077  1.00  0.00    -0.208 C  
HETATM    7  C   UNL     1      -7.347  11.938  68.140  1.00  0.00    -0.092 C  
HETATM    8  H   UNL     1      -5.917   8.242  68.939  1.00  0.00     0.000 HD 
HETATM    9  C   UNL     1      -9.320  13.668  67.791  1.00  0.00    -0.218 C  
HETATM   10  O   UNL     1      -6.756   8.203  68.495  1.00  0.00    -0.060 OA 
HETATM   11  C   UNL     1     -10.281  13.262  66.868  1.00  0.00    -0.250 C  
HETATM   12  C   UNL     1     -11.684  13.126  67.601  1.00  0.00    -0.414 C  
HETATM   13  C   UNL     1     -10.410  13.974  65.674  1.00  0.00    -0.342 C  
HETATM   14  C   UNL     1     -11.867  11.735  68.137  1.00  0.00    -0.324 C  
HETATM   15  C   UNL     1     -10.881  11.535  69.307  1.00  0.00    -0.167 C  
HETATM   16  C   UNL     1      -6.707  10.599  68.276  1.00  0.00    -0.063 C  
HETATM   17  C   UNL     1      -9.606  11.125  68.632  1.00  0.00    -0.200 C  
HETATM   18  C   UNL     1      -9.582   9.874  68.110  1.00  0.00    -0.153 C  
HETATM   19  O   UNL     1      -8.738   8.697  66.244  1.00  0.00    -0.128 OA 
HETATM   20  C   UNL     1      -7.241   9.380  67.951  1.00  0.00    -0.082 C  
HETATM   21  C   UNL     1      -8.536   9.319  67.267  1.00  0.00    -0.125 C  
BRANCH   4  22
HETATM   22  O   UNL     1     -10.634  17.217  67.297  1.00  0.00    -0.325 OA 
HETATM   23  C   UNL     1      -9.652  18.271  67.293  1.00  0.00    -0.281 C  
ENDBRANCH   4  22
BRANCH   6  24
HETATM   24  O   UNL     1      -9.537  15.508  69.395  1.00  0.00    -0.248 OA 
HETATM   25  C   UNL     1     -10.763  15.414  70.175  1.00  0.00    -0.308 C  
ENDBRANCH   6  24
BRANCH  15  26
HETATM   26  N   UNL     1     -11.397  10.525  70.214  1.00  0.00    -0.311 N  
HETATM   27  H   UNL     1     -10.987   9.591  70.198  1.00  0.00     0.000 HD 
HETATM   28  C   UNL     1     -12.425  10.790  71.094  1.00  0.00    -0.414 C  
HETATM   29  O   UNL     1     -12.795  11.905  71.424  1.00  0.00    -0.389 OA 
HETATM   30  C   UNL     1     -13.071   9.537  71.628  1.00  0.00    -0.486 C  
ENDBRANCH  15  26
ENDBRANCH   2   3
TORSDOF 4
ENDMDL
MODEL       15
REMARK 921   NORMALIZED FREE ENERGY PREDICTED BY IDOCK:   -5.60 KCAL/MOL
REMARK 922        TOTAL FREE ENERGY PREDICTED BY IDOCK:   -7.64 KCAL/MOL
REMARK 923 INTER-LIGAND FREE ENERGY PREDICTED BY IDOCK:   -7.08 KCAL/MOL
REMARK 924 INTRA-LIGAND FREE ENERGY PREDICTED BY IDOCK:   -0.57 KCAL/MOL
REMARK 927      BINDING AFFINITY PREDICTED BY RF-SCORE:    0.00 PKD
ROOT
HETATM    1  C   UNL     1     -10.840   6.489  67.687  1.00  0.00    -0.337 C  
HETATM    2  O   UNL     1     -10.626   7.220  68.889  1.00  0.00    -0.208 OA 
ENDROOT
BRANCH   2   3
HETATM    3  C   UNL     1     -10.786   8.578  68.825  1.00  0.00     0.043 C  
HETATM    4  C   UNL     1     -11.237   9.313  69.929  1.00  0.00    -0.126 C  
HETATM    5  C   UNL     1     -11.524  12.703  67.525  1.00  0.00    -0.397 C  
HETATM    6  C   UNL     1     -11.568  10.755  69.742  1.00  0.00    -0.317 C  
HETATM    7  C   UNL     1     -12.635  12.986  66.777  1.00  0.00     0.405 C  
HETATM    8  H   UNL     1     -12.745  15.983  64.066  1.00  0.00     0.000 HD 
HETATM    9  C   UNL     1     -11.360  11.371  68.442  1.00  0.00    -0.346 C  
HETATM   10  O   UNL     1     -11.929  15.499  64.017  1.00  0.00    -0.531 OA 
HETATM   11  C   UNL     1     -10.288  10.688  67.870  1.00  0.00    -0.231 C  
HETATM   12  C   UNL     1      -8.948  11.104  68.613  1.00  0.00    -0.162 C  
HETATM   13  C   UNL     1     -10.371   9.302  67.730  1.00  0.00    -0.292 C  
HETATM   14  C   UNL     1      -8.320  12.292  67.944  1.00  0.00    -0.163 C  
HETATM   15  C   UNL     1      -9.215  13.523  68.201  1.00  0.00    -0.208 C  
HETATM   16  C   UNL     1     -12.785  13.971  65.667  1.00  0.00    -0.515 C  
HETATM   17  C   UNL     1     -10.252  13.440  67.121  1.00  0.00    -0.247 C  
HETATM   18  C   UNL     1      -9.831  13.735  65.866  1.00  0.00    -0.279 C  
HETATM   19  O   UNL     1     -10.162  13.057  63.628  1.00  0.00    -0.302 OA 
HETATM   20  C   UNL     1     -11.857  14.307  64.718  1.00  0.00    -0.429 C  
HETATM   21  C   UNL     1     -10.597  13.560  64.644  1.00  0.00    -0.427 C  
BRANCH   4  22
HETATM   22  O   UNL     1     -11.319   8.723  71.190  1.00  0.00    -0.258 OA 
HETATM   23  C   UNL     1     -10.174   8.760  72.065  1.00  0.00    -0.331 C  
ENDBRANCH   4  22
BRANCH   6  24
HETATM   24  O   UNL     1     -11.835  11.575  70.837  1.00  0.00    -0.224 OA 
HETATM   25  C   UNL     1     -13.132  11.392  71.473  1.00  0.00    -0.335 C  
ENDBRANCH   6  24
BRANCH  15  26
HETATM   26  N   UNL     1      -8.415  14.732  68.135  1.00  0.00    -0.143 N  
HETATM   27  H   UNL     1      -7.663  14.790  67.448  1.00  0.00     0.000 HD 
HETATM   28  C   UNL     1      -8.641  15.805  68.972  1.00  0.00    -0.236 C  
HETATM   29  O   UNL     1      -9.661  15.989  69.615  1.00  0.00    -0.251 OA 
HETATM   30  C   UNL     1      -7.474  16.757  69.024  1.00  0.00    -0.228 C  
ENDBRANCH  15  26
ENDBRANCH   2   3
TORSDOF 4
ENDMDL
MODEL       16
REMARK 921   NORMALIZED FREE ENERGY PREDICTED BY IDOCK:   -5.58 KCAL/MOL
REMARK 922        TOTAL FREE ENERGY PREDICTED BY IDOCK:   -7.62 KCAL/MOL
REMARK 923 INTER-LIGAND FREE ENERGY PREDICTED BY IDOCK:   -7.00 KCAL/MOL
REMARK 924 INTRA-LIGAND FREE ENERGY PREDICTED BY IDOCK:   -0.63 KCAL/MOL
REMARK 927      BINDING AFFINITY PREDICTED BY RF-SCORE:    0.00 PKD
ROOT
HETATM    1  C   UNL     1     -12.231   8.642  72.094  1.00  0.00    -0.386 C  
HETATM    2  O   UNL     1     -11.196   7.995  71.362  1.00  0.00    -0.243 OA 
ENDROOT
BRANCH   2   3
HETATM    3  C   UNL     1     -10.692   8.663  70.278  1.00  0.00    -0.227 C  
HETATM    4  C   UNL     1     -10.564   8.040  69.031  1.00  0.00    -0.154 C  
HETATM    5  C   UNL     1      -8.485  11.360  67.612  1.00  0.00    -0.130 C  
HETATM    6  C   UNL     1      -9.837   8.757  67.943  1.00  0.00    -0.169 C  
HETATM    7  C   UNL     1      -7.134  11.508  67.770  1.00  0.00    -0.079 C  
HETATM    8  H   UNL     1      -5.184  14.930  66.856  1.00  0.00     0.000 HD 
HETATM    9  C   UNL     1      -9.336  10.100  68.187  1.00  0.00    -0.140 C  
HETATM   10  O   UNL     1      -6.002  15.105  67.307  1.00  0.00    -0.325 OA 
HETATM   11  C   UNL     1     -10.213  10.667  69.109  1.00  0.00    -0.238 C  
HETATM   12  C   UNL     1     -11.590  10.991  68.387  1.00  0.00    -0.372 C  
HETATM   13  C   UNL     1     -10.429  10.014  70.323  1.00  0.00    -0.331 C  
HETATM   14  C   UNL     1     -11.573  12.379  67.815  1.00  0.00    -0.413 C  
HETATM   15  C   UNL     1     -10.585  12.402  66.629  1.00  0.00    -0.231 C  
HETATM   16  C   UNL     1      -6.304  12.735  67.591  1.00  0.00    -0.153 C  
HETATM   17  C   UNL     1      -9.254  12.635  67.280  1.00  0.00    -0.195 C  
HETATM   18  C   UNL     1      -9.038  13.881  67.768  1.00  0.00    -0.191 C  
HETATM   19  O   UNL     1      -8.002  14.968  69.591  1.00  0.00    -0.184 OA 
HETATM   20  C   UNL     1      -6.648  14.027  67.888  1.00  0.00    -0.165 C  
HETATM   21  C   UNL     1      -7.910  14.296  68.584  1.00  0.00    -0.140 C  
BRANCH   4  22
HETATM   22  O   UNL     1     -11.154   6.799  68.792  1.00  0.00    -0.227 OA 
HETATM   23  C   UNL     1     -10.383   5.598  68.995  1.00  0.00    -0.243 C  
ENDBRANCH   4  22
BRANCH   6  24
HETATM   24  O   UNL     1      -9.846   8.272  66.637  1.00  0.00    -0.227 OA 
HETATM   25  C   UNL     1      -8.554   7.885  66.089  1.00  0.00    -0.150 C  
ENDBRANCH   6  24
BRANCH  15  26
HETATM   26  N   UNL     1     -10.959  13.453  65.701  1.00  0.00    -0.280 N  
HETATM   27  H   UNL     1     -10.328  14.244  65.570  1.00  0.00     0.000 HD 
HETATM   28  C   UNL     1     -12.141  13.416  64.991  1.00  0.00    -0.401 C  
HETATM   29  O   UNL     1     -12.828  12.420  64.826  1.00  0.00    -0.728 OA 
HETATM   30  C   UNL     1     -12.521  14.759  64.423  1.00  0.00    -0.274 C  
ENDBRANCH  15  26
ENDBRANCH   2   3
TORSDOF 4
ENDMDL
MODEL       17
REMARK 921   NORMALIZED FREE ENERGY PREDICTED BY IDOCK:   -5.56 KCAL/MOL
REMARK 922        TOTAL FREE ENERGY PREDICTED BY IDOCK:   -7.60 KCAL/MOL
REMARK 923 INTER-LIGAND FREE ENERGY PREDICTED BY IDOCK:   -6.89 KCAL/MOL
REMARK 924 INTRA-LIGAND FREE ENERGY PREDICTED BY IDOCK:   -0.72 KCAL/MOL
REMARK 927      BINDING AFFINITY PREDICTED BY RF-SCORE:    0.00 PKD
ROOT
HETATM    1  C   UNL     1     -12.640  13.574  62.721  1.00  0.00     1.246 C  
HETATM    2  O   UNL     1     -12.894  12.436  63.536  1.00  0.00    -0.749 OA 
ENDROOT
BRANCH   2   3
HETATM    3  C   UNL     1     -12.294  12.407  64.766  1.00  0.00    -0.423 C  
HETATM    4  C   UNL     1     -11.263  11.504  65.055  1.00  0.00    -0.157 C  
HETATM    5  C   UNL     1     -11.403  12.661  69.055  1.00  0.00    -0.345 C  
HETATM    6  C   UNL     1     -10.781  11.395  66.462  1.00  0.00    -0.277 C  
HETATM    7  C   UNL     1     -12.264  12.096  69.957  1.00  0.00    -0.270 C  
HETATM    8  H   UNL     1     -12.770  13.538  73.700  1.00  0.00     0.000 HD 
HETATM    9  C   UNL     1     -11.349  12.264  67.479  1.00  0.00    -0.388 C  
HETATM   10  O   UNL     1     -12.730  14.238  73.059  1.00  0.00    -0.385 OA 
HETATM   11  C   UNL     1     -11.702  13.437  66.816  1.00  0.00    -0.429 C  
HETATM   12  C   UNL     1     -10.386  14.242  66.439  1.00  0.00    -0.287 C  
HETATM   13  C   UNL     1     -12.568  13.358  65.723  1.00  0.00    -0.455 C  
HETATM   14  C   UNL     1     -10.011  15.188  67.543  1.00  0.00    -0.225 C  
HETATM   15  C   UNL     1      -9.534  14.356  68.753  1.00  0.00    -0.161 C  
HETATM   16  C   UNL     1     -12.640  12.582  71.316  1.00  0.00    -0.332 C  
HETATM   17  C   UNL     1     -10.806  14.003  69.464  1.00  0.00    -0.076 C  
HETATM   18  C   UNL     1     -11.422  15.014  70.124  1.00  0.00    -0.314 C  
HETATM   19  O   UNL     1     -13.590  15.819  70.609  1.00  0.00    -0.394 OA 
HETATM   20  C   UNL     1     -12.801  13.880  71.724  1.00  0.00    -0.335 C  
HETATM   21  C   UNL     1     -12.740  14.960  70.735  1.00  0.00    -0.363 C  
BRANCH   4  22
HETATM   22  O   UNL     1     -10.660  10.765  64.038  1.00  0.00    -0.332 OA 
HETATM   23  C   UNL     1      -9.664  11.388  63.204  1.00  0.00    -0.393 C  
ENDBRANCH   4  22
BRANCH   6  24
HETATM   24  O   UNL     1      -9.638  10.660  66.771  1.00  0.00    -0.164 OA 
HETATM   25  C   UNL     1      -9.795   9.627  67.785  1.00  0.00    -0.159 C  
ENDBRANCH   6  24
BRANCH  15  26
HETATM   26  N   UNL     1      -8.627  15.147  69.563  1.00  0.00    -0.407 N  
HETATM   27  H   UNL     1      -9.015  15.817  70.228  1.00  0.00     0.000 HD 
HETATM   28  C   UNL     1      -7.257  15.022  69.462  1.00  0.00    -0.199 C  
HETATM   29  O   UNL     1      -6.676  14.082  68.945  1.00  0.00    -0.093 OA 
HETATM   30  C   UNL     1      -6.520  16.191  70.064  1.00  0.00    -0.017 C  
ENDBRANCH  15  26
ENDBRANCH   2   3
TORSDOF 4
ENDMDL
MODEL       18
REMARK 921   NORMALIZED FREE ENERGY PREDICTED BY IDOCK:   -5.55 KCAL/MOL
REMARK 922        TOTAL FREE ENERGY PREDICTED BY IDOCK:   -7.58 KCAL/MOL
REMARK 923 INTER-LIGAND FREE ENERGY PREDICTED BY IDOCK:   -6.88 KCAL/MOL
REMARK 924 INTRA-LIGAND FREE ENERGY PREDICTED BY IDOCK:   -0.71 KCAL/MOL
REMARK 927      BINDING AFFINITY PREDICTED BY RF-SCORE:    0.00 PKD
ROOT
HETATM    1  C   UNL     1      -9.536   9.187  65.904  1.00  0.00    -0.259 C  
HETATM    2  O   UNL     1     -10.269  10.124  65.124  1.00  0.00    -0.306 OA 
ENDROOT
BRANCH   2   3
HETATM    3  C   UNL     1     -10.323  11.411  65.588  1.00  0.00    -0.257 C  
HETATM    4  C   UNL     1     -11.378  12.266  65.247  1.00  0.00    -0.338 C  
HETATM    5  C   UNL     1      -9.359  15.435  67.048  1.00  0.00    -0.238 C  
HETATM    6  C   UNL     1     -11.284  13.705  65.629  1.00  0.00    -0.297 C  
HETATM    7  C   UNL     1      -8.424  16.186  66.387  1.00  0.00    -0.369 C  
HETATM    8  H   UNL     1      -6.102  18.923  68.247  1.00  0.00     0.000 HD 
HETATM    9  C   UNL     1     -10.136  14.167  66.391  1.00  0.00    -0.299 C  
HETATM   10  O   UNL     1      -6.178  18.126  68.758  1.00  0.00    -0.194 OA 
HETATM   11  C   UNL     1      -9.737  13.079  67.166  1.00  0.00    -0.230 C  
HETATM   12  C   UNL     1     -10.794  12.851  68.329  1.00  0.00    -0.263 C  
HETATM   13  C   UNL     1      -9.430  11.876  66.528  1.00  0.00    -0.226 C  
HETATM   14  C   UNL     1     -10.412  13.635  69.551  1.00  0.00     0.305 C  
HETATM   15  C   UNL     1     -10.604  15.135  69.243  1.00  0.00    -0.253 C  
HETATM   16  C   UNL     1      -7.424  17.137  66.953  1.00  0.00    -0.239 C  
HETATM   17  C   UNL     1      -9.323  15.527  68.570  1.00  0.00    -0.197 C  
HETATM   18  C   UNL     1      -8.229  15.606  69.367  1.00  0.00    -0.236 C  
HETATM   19  O   UNL     1      -5.911  15.153  69.329  1.00  0.00    -0.101 OA 
HETATM   20  C   UNL     1      -6.741  17.025  68.134  1.00  0.00    -0.151 C  
HETATM   21  C   UNL     1      -6.859  15.795  68.923  1.00  0.00    -0.130 C  
BRANCH   4  22
HETATM   22  O   UNL     1     -12.518  11.772  64.615  1.00  0.00    -0.201 OA 
HETATM   23  C   UNL     1     -12.641  11.889  63.184  1.00  0.00    -0.195 C  
ENDBRANCH   4  22
BRANCH   6  24
HETATM   24  O   UNL     1     -12.380  14.555  65.487  1.00  0.00    -0.351 OA 
HETATM   25  C   UNL     1     -12.370  15.422  64.317  1.00  0.00    -0.061 C  
ENDBRANCH   6  24
BRANCH  15  26
HETATM   26  N   UNL     1     -10.846  15.860  70.477  1.00  0.00    -0.308 N  
HETATM   27  H   UNL     1     -10.074  16.362  70.915  1.00  0.00     0.000 HD 
HETATM   28  C   UNL     1     -12.089  15.891  71.075  1.00  0.00    -0.395 C  
HETATM   29  O   UNL     1     -13.138  15.598  70.526  1.00  0.00    -0.436 OA 
HETATM   30  C   UNL     1     -12.030  16.331  72.516  1.00  0.00    -0.648 C  
ENDBRANCH  15  26
ENDBRANCH   2   3
TORSDOF 4
ENDMDL
MODEL       19
REMARK 921   NORMALIZED FREE ENERGY PREDICTED BY IDOCK:   -5.53 KCAL/MOL
REMARK 922        TOTAL FREE ENERGY PREDICTED BY IDOCK:   -7.56 KCAL/MOL
REMARK 923 INTER-LIGAND FREE ENERGY PREDICTED BY IDOCK:   -6.93 KCAL/MOL
REMARK 924 INTRA-LIGAND FREE ENERGY PREDICTED BY IDOCK:   -0.63 KCAL/MOL
REMARK 927      BINDING AFFINITY PREDICTED BY RF-SCORE:    0.00 PKD
ROOT
HETATM    1  C   UNL     1     -11.876  15.767  64.279  1.00  0.00    -0.118 C  
HETATM    2  O   UNL     1     -10.548  15.889  64.775  1.00  0.00    -0.562 OA 
ENDROOT
BRANCH   2   3
HETATM    3  C   UNL     1     -10.187  15.049  65.794  1.00  0.00    -0.338 C  
HETATM    4  C   UNL     1      -9.686  15.543  67.005  1.00  0.00    -0.224 C  
HETATM    5  C   UNL     1      -8.785  11.652  68.193  1.00  0.00    -0.159 C  
HETATM    6  C   UNL     1      -9.137  14.577  68.000  1.00  0.00    -0.185 C  
HETATM    7  C   UNL     1      -7.610  11.033  67.864  1.00  0.00    -0.095 C  
HETATM    8  H   UNL     1      -6.928   7.111  68.569  1.00  0.00     0.000 HD 
HETATM    9  C   UNL     1      -9.188  13.153  67.714  1.00  0.00    -0.203 C  
HETATM   10  O   UNL     1      -7.803   7.257  68.231  1.00  0.00    -0.117 OA 
HETATM   11  C   UNL     1     -10.320  12.969  66.922  1.00  0.00    -0.246 C  
HETATM   12  C   UNL     1     -11.619  13.139  67.821  1.00  0.00    -0.379 C  
HETATM   13  C   UNL     1     -10.437  13.696  65.736  1.00  0.00    -0.296 C  
HETATM   14  C   UNL     1     -12.032  11.819  68.406  1.00  0.00    -0.250 C  
HETATM   15  C   UNL     1     -10.978  11.404  69.455  1.00  0.00    -0.205 C  
HETATM   16  C   UNL     1      -7.263   9.586  67.952  1.00  0.00    -0.082 C  
HETATM   17  C   UNL     1      -9.914  10.730  68.641  1.00  0.00    -0.189 C  
HETATM   18  C   UNL     1     -10.225   9.506  68.148  1.00  0.00    -0.231 C  
HETATM   19  O   UNL     1      -9.890   8.179  66.222  1.00  0.00    -0.213 OA 
HETATM   20  C   UNL     1      -8.084   8.514  67.722  1.00  0.00    -0.115 C  
HETATM   21  C   UNL     1      -9.435   8.739  67.199  1.00  0.00    -0.162 C  
BRANCH   4  22
HETATM   22  O   UNL     1      -9.753  16.904  67.300  1.00  0.00    -0.243 OA 
HETATM   23  C   UNL     1     -10.858  17.407  68.076  1.00  0.00    -0.281 C  
ENDBRANCH   4  22
BRANCH   6  24
HETATM   24  O   UNL     1      -8.805  14.990  69.290  1.00  0.00    -0.203 OA 
HETATM   25  C   UNL     1      -7.383  15.099  69.581  1.00  0.00    -0.191 C  
ENDBRANCH   6  24
BRANCH  15  26
HETATM   26  N   UNL     1     -11.586  10.528  70.439  1.00  0.00    -0.319 N  
HETATM   27  H   UNL     1     -11.270   9.560  70.501  1.00  0.00     0.000 HD 
HETATM   28  C   UNL     1     -12.578  10.964  71.293  1.00  0.00    -0.421 C  
HETATM   29  O   UNL     1     -12.835  12.133  71.528  1.00  0.00    -0.374 OA 
HETATM   30  C   UNL     1     -13.341   9.829  71.925  1.00  0.00    -0.530 C  
ENDBRANCH  15  26
ENDBRANCH   2   3
TORSDOF 4
ENDMDL
MODEL       20
REMARK 921   NORMALIZED FREE ENERGY PREDICTED BY IDOCK:   -5.50 KCAL/MOL
REMARK 922        TOTAL FREE ENERGY PREDICTED BY IDOCK:   -7.52 KCAL/MOL
REMARK 923 INTER-LIGAND FREE ENERGY PREDICTED BY IDOCK:   -6.94 KCAL/MOL
REMARK 924 INTRA-LIGAND FREE ENERGY PREDICTED BY IDOCK:   -0.58 KCAL/MOL
REMARK 927      BINDING AFFINITY PREDICTED BY RF-SCORE:    0.00 PKD
ROOT
HETATM    1  C   UNL     1      -9.986   5.272  66.579  1.00  0.00    -0.204 C  
HETATM    2  O   UNL     1     -10.724   5.855  67.646  1.00  0.00    -0.252 OA 
ENDROOT
BRANCH   2   3
HETATM    3  C   UNL     1     -10.645   7.215  67.785  1.00  0.00    -0.225 C  
HETATM    4  C   UNL     1     -10.656   7.822  69.047  1.00  0.00    -0.166 C  
HETATM    5  C   UNL     1     -10.931  11.557  67.221  1.00  0.00    -0.323 C  
HETATM    6  C   UNL     1     -10.757   9.309  69.125  1.00  0.00    -0.183 C  
HETATM    7  C   UNL     1     -12.126  12.112  66.851  1.00  0.00     0.045 C  
HETATM    8  H   UNL     1     -12.382  15.485  64.637  1.00  0.00     0.000 HD 
HETATM    9  C   UNL     1     -10.782  10.086  67.898  1.00  0.00    -0.322 C  
HETATM   10  O   UNL     1     -11.707  14.903  64.308  1.00  0.00    -0.343 OA 
HETATM   11  C   UNL     1     -10.035   9.357  66.975  1.00  0.00    -0.282 C  
HETATM   12  C   UNL     1      -8.496   9.452  67.357  1.00  0.00    -0.125 C  
HETATM   13  C   UNL     1     -10.401   8.036  66.707  1.00  0.00    -0.360 C  
HETATM   14  C   UNL     1      -7.855  10.628  66.678  1.00  0.00    -0.135 C  
HETATM   15  C   UNL     1      -8.417  11.918  67.314  1.00  0.00    -0.172 C  
HETATM   16  C   UNL     1     -12.374  13.271  65.946  1.00  0.00    -0.479 C  
HETATM   17  C   UNL     1      -9.693  12.158  66.564  1.00  0.00    -0.234 C  
HETATM   18  C   UNL     1      -9.561  12.585  65.284  1.00  0.00     0.028 C  
HETATM   19  O   UNL     1     -10.573  12.325  63.165  1.00  0.00    -0.364 OA 
HETATM   20  C   UNL     1     -11.675  13.617  64.820  1.00  0.00    -0.377 C  
HETATM   21  C   UNL     1     -10.634  12.718  64.312  1.00  0.00    -0.400 C  
BRANCH   4  22
HETATM   22  O   UNL     1     -10.518   7.058  70.205  1.00  0.00    -0.204 OA 
HETATM   23  C   UNL     1     -11.696   6.637  70.920  1.00  0.00    -0.375 C  
ENDBRANCH   4  22
BRANCH   6  24
HETATM   24  O   UNL     1     -10.580   9.974  70.337  1.00  0.00    -0.286 OA 
HETATM   25  C   UNL     1     -11.776  10.561  70.926  1.00  0.00    -0.335 C  
ENDBRANCH   6  24
BRANCH  15  26
HETATM   26  N   UNL     1      -7.454  12.995  67.165  1.00  0.00    -0.373 N  
HETATM   27  H   UNL     1      -6.661  12.864  66.537  1.00  0.00     0.000 HD 
HETATM   28  C   UNL     1      -7.581  14.188  67.845  1.00  0.00    -0.158 C  
HETATM   29  O   UNL     1      -8.604  14.585  68.378  1.00  0.00    -0.160 OA 
HETATM   30  C   UNL     1      -6.299  14.980  67.873  1.00  0.00    -0.179 C  
ENDBRANCH  15  26
ENDBRANCH   2   3
TORSDOF 4
ENDMDL
MODEL       21
REMARK 921   NORMALIZED FREE ENERGY PREDICTED BY IDOCK:   -5.49 KCAL/MOL
REMARK 922        TOTAL FREE ENERGY PREDICTED BY IDOCK:   -7.51 KCAL/MOL
REMARK 923 INTER-LIGAND FREE ENERGY PREDICTED BY IDOCK:   -6.80 KCAL/MOL
REMARK 924 INTRA-LIGAND FREE ENERGY PREDICTED BY IDOCK:   -0.71 KCAL/MOL
REMARK 927      BINDING AFFINITY PREDICTED BY RF-SCORE:    0.00 PKD
ROOT
HETATM    1  C   UNL     1      -8.978   9.348  62.448  1.00  0.00    -0.246 C  
HETATM    2  O   UNL     1      -9.765  10.467  62.839  1.00  0.00    -0.316 OA 
ENDROOT
BRANCH   2   3
HETATM    3  C   UNL     1      -9.714  10.830  64.158  1.00  0.00    -0.309 C  
HETATM    4  C   UNL     1     -10.327  12.003  64.616  1.00  0.00    -0.287 C  
HETATM    5  C   UNL     1      -8.547  11.447  68.342  1.00  0.00    -0.156 C  
HETATM    6  C   UNL     1     -10.077  12.439  66.021  1.00  0.00    -0.251 C  
HETATM    7  C   UNL     1      -7.285  11.894  68.632  1.00  0.00    -0.109 C  
HETATM    8  H   UNL     1      -5.354  10.932  72.051  1.00  0.00     0.000 HD 
HETATM    9  C   UNL     1      -9.257  11.610  66.889  1.00  0.00    -0.187 C  
HETATM   10  O   UNL     1      -5.802  10.181  71.681  1.00  0.00    -0.288 OA 
HETATM   11  C   UNL     1      -9.452  10.301  66.453  1.00  0.00    -0.218 C  
HETATM   12  C   UNL     1     -10.907   9.822  66.872  1.00  0.00    -0.120 C  
HETATM   13  C   UNL     1      -9.191   9.991  65.117  1.00  0.00    -0.273 C  
HETATM   14  C   UNL     1     -10.881   9.178  68.228  1.00  0.00    -0.104 C  
HETATM   15  C   UNL     1     -10.597  10.273  69.278  1.00  0.00    -0.230 C  
HETATM   16  C   UNL     1      -6.411  11.530  69.784  1.00  0.00    -0.140 C  
HETATM   17  C   UNL     1      -9.101  10.382  69.282  1.00  0.00    -0.188 C  
HETATM   18  C   UNL     1      -8.429   9.353  69.853  1.00  0.00    -0.186 C  
HETATM   19  O   UNL     1      -6.452   8.091  69.572  1.00  0.00    -0.034 OA 
HETATM   20  C   UNL     1      -6.299  10.309  70.395  1.00  0.00    -0.127 C  
HETATM   21  C   UNL     1      -6.990   9.150  69.824  1.00  0.00    -0.056 C  
BRANCH   4  22
HETATM   22  O   UNL     1     -11.198  12.717  63.796  1.00  0.00    -0.407 OA 
HETATM   23  C   UNL     1     -12.527  12.211  63.564  1.00  0.00    -0.555 C  
ENDBRANCH   4  22
BRANCH   6  24
HETATM   24  O   UNL     1     -10.806  13.484  66.585  1.00  0.00    -0.281 OA 
HETATM   25  C   UNL     1     -12.066  13.117  67.217  1.00  0.00    -0.274 C  
ENDBRANCH   6  24
BRANCH  15  26
HETATM   26  N   UNL     1     -11.144   9.873  70.561  1.00  0.00    -0.307 N  
HETATM   27  H   UNL     1     -10.683   9.128  71.084  1.00  0.00     0.000 HD 
HETATM   28  C   UNL     1     -12.268  10.468  71.095  1.00  0.00    -0.391 C  
HETATM   29  O   UNL     1     -12.731  11.539  70.735  1.00  0.00    -0.301 OA 
HETATM   30  C   UNL     1     -12.893   9.650  72.195  1.00  0.00    -0.460 C  
ENDBRANCH  15  26
ENDBRANCH   2   3
TORSDOF 4
ENDMDL
MODEL       22
REMARK 921   NORMALIZED FREE ENERGY PREDICTED BY IDOCK:   -5.48 KCAL/MOL
REMARK 922        TOTAL FREE ENERGY PREDICTED BY IDOCK:   -7.50 KCAL/MOL
REMARK 923 INTER-LIGAND FREE ENERGY PREDICTED BY IDOCK:   -6.82 KCAL/MOL
REMARK 924 INTRA-LIGAND FREE ENERGY PREDICTED BY IDOCK:   -0.68 KCAL/MOL
REMARK 927      BINDING AFFINITY PREDICTED BY RF-SCORE:    0.00 PKD
ROOT
HETATM    1  C   UNL     1     -12.190  12.459  63.380  1.00  0.00    -0.523 C  
HETATM    2  O   UNL     1     -10.886  12.919  63.715  1.00  0.00    -0.401 OA 
ENDROOT
BRANCH   2   3
HETATM    3  C   UNL     1     -10.474  12.729  65.006  1.00  0.00    -0.314 C  
HETATM    4  C   UNL     1     -10.609  13.734  65.972  1.00  0.00    -0.290 C  
HETATM    5  C   UNL     1      -8.387  11.435  68.643  1.00  0.00    -0.136 C  
HETATM    6  C   UNL     1      -9.973  13.535  67.307  1.00  0.00    -0.236 C  
HETATM    7  C   UNL     1      -7.019  11.464  68.682  1.00  0.00    -0.087 C  
HETATM    8  H   UNL     1      -4.836   8.886  70.903  1.00  0.00     0.000 HD 
HETATM    9  C   UNL     1      -9.285  12.286  67.588  1.00  0.00    -0.183 C  
HETATM   10  O   UNL     1      -5.550   8.445  70.459  1.00  0.00    -0.028 OA 
HETATM   11  C   UNL     1      -9.941  11.317  66.833  1.00  0.00    -0.238 C  
HETATM   12  C   UNL     1     -11.362  11.025  67.479  1.00  0.00    -0.332 C  
HETATM   13  C   UNL     1     -10.049  11.498  65.453  1.00  0.00    -0.304 C  
HETATM   14  C   UNL     1     -11.266   9.919  68.490  1.00  0.00    -0.129 C  
HETATM   15  C   UNL     1     -10.471  10.442  69.705  1.00  0.00    -0.243 C  
HETATM   16  C   UNL     1      -6.086  10.514  69.352  1.00  0.00    -0.045 C  
HETATM   17  C   UNL     1      -9.040  10.230  69.311  1.00  0.00    -0.206 C  
HETATM   18  C   UNL     1      -8.607   8.945  69.303  1.00  0.00    -0.133 C  
HETATM   19  O   UNL     1      -7.188   7.509  68.076  1.00  0.00    -0.085 OA 
HETATM   20  C   UNL     1      -6.225   9.157  69.482  1.00  0.00    -0.040 C  
HETATM   21  C   UNL     1      -7.328   8.476  68.797  1.00  0.00    -0.090 C  
BRANCH   4  22
HETATM   22  O   UNL     1     -11.370  14.873  65.711  1.00  0.00    -0.341 OA 
HETATM   23  C   UNL     1     -10.718  16.069  65.243  1.00  0.00    -0.399 C  
ENDBRANCH   4  22
BRANCH   6  24
HETATM   24  O   UNL     1     -10.234  14.409  68.360  1.00  0.00    -0.229 OA 
HETATM   25  C   UNL     1     -11.393  14.091  69.183  1.00  0.00    -0.281 C  
ENDBRANCH   6  24
BRANCH  15  26
HETATM   26  N   UNL     1     -10.853   9.701  70.894  1.00  0.00    -0.319 N  
HETATM   27  H   UNL     1     -10.189   9.041  71.299  1.00  0.00     0.000 HD 
HETATM   28  C   UNL     1     -12.085   9.863  71.492  1.00  0.00    -0.410 C  
HETATM   29  O   UNL     1     -12.838  10.804  71.301  1.00  0.00    -0.378 OA 
HETATM   30  C   UNL     1     -12.428   8.734  72.430  1.00  0.00    -0.421 C  
ENDBRANCH  15  26
ENDBRANCH   2   3
TORSDOF 4
ENDMDL
MODEL       23
REMARK 921   NORMALIZED FREE ENERGY PREDICTED BY IDOCK:   -5.45 KCAL/MOL
REMARK 922        TOTAL FREE ENERGY PREDICTED BY IDOCK:   -7.46 KCAL/MOL
REMARK 923 INTER-LIGAND FREE ENERGY PREDICTED BY IDOCK:   -6.75 KCAL/MOL
REMARK 924 INTRA-LIGAND FREE ENERGY PREDICTED BY IDOCK:   -0.71 KCAL/MOL
REMARK 927      BINDING AFFINITY PREDICTED BY RF-SCORE:    0.00 PKD
ROOT
HETATM    1  C   UNL     1     -13.655  12.626  72.265  1.00  0.00    -0.409 C  
HETATM    2  O   UNL     1     -13.216  11.392  71.709  1.00  0.00    -0.458 OA 
ENDROOT
BRANCH   2   3
HETATM    3  C   UNL     1     -12.198  11.450  70.796  1.00  0.00    -0.376 C  
HETATM    4  C   UNL     1     -11.365  10.350  70.559  1.00  0.00    -0.341 C  
HETATM    5  C   UNL     1      -8.926  12.741  68.172  1.00  0.00    -0.199 C  
HETATM    6  C   UNL     1     -10.163  10.535  69.695  1.00  0.00    -0.168 C  
HETATM    7  C   UNL     1      -7.912  13.505  68.685  1.00  0.00    -0.073 C  
HETATM    8  H   UNL     1      -5.870  16.202  66.471  1.00  0.00     0.000 HD 
HETATM    9  C   UNL     1      -9.923  11.828  69.076  1.00  0.00     0.035 C  
HETATM   10  O   UNL     1      -6.803  16.239  66.292  1.00  0.00    -0.039 OA 
HETATM   11  C   UNL     1     -11.183  12.386  68.870  1.00  0.00    -0.330 C  
HETATM   12  C   UNL     1     -11.906  11.619  67.683  1.00  0.00    -0.216 C  
HETATM   13  C   UNL     1     -12.040  12.535  69.962  1.00  0.00    -0.337 C  
HETATM   14  C   UNL     1     -11.596  12.272  66.366  1.00  0.00    -0.445 C  
HETATM   15  C   UNL     1     -10.108  12.022  66.040  1.00  0.00    -0.230 C  
HETATM   16  C   UNL     1      -7.158  14.612  68.029  1.00  0.00    -0.146 C  
HETATM   17  C   UNL     1      -9.395  13.120  66.772  1.00  0.00    -0.244 C  
HETATM   18  C   UNL     1      -9.526  14.366  66.254  1.00  0.00    -0.297 C  
HETATM   19  O   UNL     1      -9.747  16.613  66.949  1.00  0.00    -0.239 OA 
HETATM   20  C   UNL     1      -7.640  15.544  67.149  1.00  0.00    -0.218 C  
HETATM   21  C   UNL     1      -9.078  15.602  66.874  1.00  0.00    -0.236 C  
BRANCH   4  22
HETATM   22  O   UNL     1     -11.683   9.094  71.074  1.00  0.00    -0.278 OA 
HETATM   23  C   UNL     1     -11.034   8.637  72.277  1.00  0.00    -0.322 C  
ENDBRANCH   4  22
BRANCH   6  24
HETATM   24  O   UNL     1      -9.411   9.440  69.273  1.00  0.00    -0.154 OA 
HETATM   25  C   UNL     1      -9.812   8.836  68.010  1.00  0.00    -0.169 C  
ENDBRANCH   6  24
BRANCH  15  26
HETATM   26  N   UNL     1      -9.908  12.069  64.603  1.00  0.00    -0.416 N  
HETATM   27  H   UNL     1      -9.937  12.972  64.130  1.00  0.00     0.000 HD 
HETATM   28  C   UNL     1      -9.680  10.931  63.859  1.00  0.00    -0.303 C  
HETATM   29  O   UNL     1      -9.331   9.854  64.316  1.00  0.00    -0.266 OA 
HETATM   30  C   UNL     1      -9.910  11.143  62.385  1.00  0.00     0.126 C  
ENDBRANCH  15  26
ENDBRANCH   2   3
TORSDOF 4
ENDMDL
MODEL       24
REMARK 921   NORMALIZED FREE ENERGY PREDICTED BY IDOCK:   -5.43 KCAL/MOL
REMARK 922        TOTAL FREE ENERGY PREDICTED BY IDOCK:   -7.44 KCAL/MOL
REMARK 923 INTER-LIGAND FREE ENERGY PREDICTED BY IDOCK:   -6.90 KCAL/MOL
REMARK 924 INTRA-LIGAND FREE ENERGY PREDICTED BY IDOCK:   -0.54 KCAL/MOL
REMARK 927      BINDING AFFINITY PREDICTED BY RF-SCORE:    0.00 PKD
ROOT
HETATM    1  C   UNL     1      -7.778  17.513  68.477  1.00  0.00    -0.272 C  
HETATM    2  O   UNL     1      -9.097  17.270  68.949  1.00  0.00    -0.252 OA 
ENDROOT
BRANCH   2   3
HETATM    3  C   UNL     1      -9.656  16.061  68.632  1.00  0.00    -0.222 C  
HETATM    4  C   UNL     1     -10.733  15.964  67.742  1.00  0.00    -0.320 C  
HETATM    5  C   UNL     1     -11.117  11.923  68.681  1.00  0.00    -0.295 C  
HETATM    6  C   UNL     1     -11.415  14.647  67.584  1.00  0.00    -0.346 C  
HETATM    7  C   UNL     1     -11.851  11.479  69.748  1.00  0.00    -0.429 C  
HETATM    8  H   UNL     1     -11.828   7.626  70.970  1.00  0.00     0.000 HD 
HETATM    9  C   UNL     1     -10.911  13.492  68.308  1.00  0.00    -0.277 C  
HETATM   10  O   UNL     1     -10.954   7.927  70.752  1.00  0.00    -0.242 OA 
HETATM   11  C   UNL     1      -9.540  13.702  68.442  1.00  0.00    -0.203 C  
HETATM   12  C   UNL     1      -8.840  13.496  67.032  1.00  0.00    -0.219 C  
HETATM   13  C   UNL     1      -9.095  14.875  69.053  1.00  0.00    -0.175 C  
HETATM   14  C   UNL     1      -8.424  12.064  66.852  1.00  0.00    -0.172 C  
HETATM   15  C   UNL     1      -9.698  11.207  66.697  1.00  0.00    -0.196 C  
HETATM   16  C   UNL     1     -11.851  10.130  70.381  1.00  0.00    -0.373 C  
HETATM   17  C   UNL     1     -10.112  10.927  68.111  1.00  0.00    -0.190 C  
HETATM   18  C   UNL     1      -9.340  10.049  68.797  1.00  0.00    -0.162 C  
HETATM   19  O   UNL     1      -8.484   9.686  70.969  1.00  0.00    -0.234 OA 
HETATM   20  C   UNL     1     -10.784   9.287  70.552  1.00  0.00    -0.257 C  
HETATM   21  C   UNL     1      -9.435   9.753  70.216  1.00  0.00    -0.195 C  
BRANCH   4  22
HETATM   22  O   UNL     1     -11.122  17.062  66.976  1.00  0.00    -0.009 OA 
HETATM   23  C   UNL     1     -10.426  17.352  65.748  1.00  0.00    -0.215 C  
ENDBRANCH   4  22
BRANCH   6  24
HETATM   24  O   UNL     1     -12.359  14.448  66.578  1.00  0.00    -0.411 OA 
HETATM   25  C   UNL     1     -12.195  13.245  65.774  1.00  0.00    -0.456 C  
ENDBRANCH   6  24
BRANCH  15  26
HETATM   26  N   UNL     1      -9.390  10.005  65.944  1.00  0.00    -0.172 N  
HETATM   27  H   UNL     1      -9.062   9.179  66.444  1.00  0.00     0.000 HD 
HETATM   28  C   UNL     1      -9.527   9.946  64.573  1.00  0.00    -0.264 C  
HETATM   29  O   UNL     1     -10.174  10.732  63.899  1.00  0.00    -0.339 OA 
HETATM   30  C   UNL     1      -8.780   8.788  63.962  1.00  0.00    -0.006 C  
ENDBRANCH  15  26
ENDBRANCH   2   3
TORSDOF 4
ENDMDL
MODEL       25
REMARK 921   NORMALIZED FREE ENERGY PREDICTED BY IDOCK:   -5.43 KCAL/MOL
REMARK 922        TOTAL FREE ENERGY PREDICTED BY IDOCK:   -7.44 KCAL/MOL
REMARK 923 INTER-LIGAND FREE ENERGY PREDICTED BY IDOCK:   -6.72 KCAL/MOL
REMARK 924 INTRA-LIGAND FREE ENERGY PREDICTED BY IDOCK:   -0.72 KCAL/MOL
REMARK 927      BINDING AFFINITY PREDICTED BY RF-SCORE:    0.00 PKD
ROOT
HETATM    1  C   UNL     1     -13.663   9.048  72.268  1.00  0.00    -0.492 C  
HETATM    2  O   UNL     1     -12.263   8.822  72.380  1.00  0.00    -0.370 OA 
ENDROOT
BRANCH   2   3
HETATM    3  C   UNL     1     -11.495   9.132  71.289  1.00  0.00    -0.335 C  
HETATM    4  C   UNL     1     -11.082   8.147  70.384  1.00  0.00    -0.239 C  
HETATM    5  C   UNL     1      -8.646  10.946  68.488  1.00  0.00    -0.152 C  
HETATM    6  C   UNL     1     -10.096   8.515  69.326  1.00  0.00    -0.202 C  
HETATM    7  C   UNL     1      -7.371  11.218  68.905  1.00  0.00    -0.115 C  
HETATM    8  H   UNL     1      -5.181  14.269  67.408  1.00  0.00     0.000 HD 
HETATM    9  C   UNL     1      -9.639   9.892  69.227  1.00  0.00    -0.215 C  
HETATM   10  O   UNL     1      -6.080  14.531  67.569  1.00  0.00    -0.328 OA 
HETATM   11  C   UNL     1     -10.702  10.674  69.675  1.00  0.00    -0.290 C  
HETATM   12  C   UNL     1     -11.854  10.664  68.582  1.00  0.00    -0.135 C  
HETATM   13  C   UNL     1     -11.221  10.437  70.949  1.00  0.00    -0.205 C  
HETATM   14  C   UNL     1     -11.667  11.790  67.607  1.00  0.00    -0.320 C  
HETATM   15  C   UNL     1     -10.420  11.486  66.750  1.00  0.00    -0.239 C  
HETATM   16  C   UNL     1      -6.495  12.367  68.535  1.00  0.00    -0.068 C  
HETATM   17  C   UNL     1      -9.283  11.996  67.584  1.00  0.00    -0.182 C  
HETATM   18  C   UNL     1      -9.164  13.344  67.672  1.00  0.00    -0.212 C  
HETATM   19  O   UNL     1      -8.579  15.023  69.227  1.00  0.00    -0.206 OA 
HETATM   20  C   UNL     1      -6.872  13.663  68.301  1.00  0.00    -0.108 C  
HETATM   21  C   UNL     1      -8.259  14.068  68.549  1.00  0.00    -0.136 C  
BRANCH   4  22
HETATM   22  O   UNL     1     -11.623   6.863  70.433  1.00  0.00    -0.325 OA 
HETATM   23  C   UNL     1     -10.903   5.816  71.114  1.00  0.00    -0.248 C  
ENDBRANCH   4  22
BRANCH   6  24
HETATM   24  O   UNL     1      -9.798   7.634  68.289  1.00  0.00    -0.157 OA 
HETATM   25  C   UNL     1     -10.657   7.710  67.116  1.00  0.00    -0.340 C  
ENDBRANCH   6  24
BRANCH  15  26
HETATM   26  N   UNL     1     -10.533  12.156  65.467  1.00  0.00    -0.256 N  
HETATM   27  H   UNL     1     -10.629  13.172  65.447  1.00  0.00     0.000 HD 
HETATM   28  C   UNL     1     -10.516  11.462  64.276  1.00  0.00    -0.342 C  
HETATM   29  O   UNL     1     -10.118  10.317  64.138  1.00  0.00    -0.287 OA 
HETATM   30  C   UNL     1     -11.051  12.272  63.123  1.00  0.00    -0.217 C  
ENDBRANCH  15  26
ENDBRANCH   2   3
TORSDOF 4
ENDMDL
MODEL       26
REMARK 921   NORMALIZED FREE ENERGY PREDICTED BY IDOCK:   -5.41 KCAL/MOL
REMARK 922        TOTAL FREE ENERGY PREDICTED BY IDOCK:   -7.41 KCAL/MOL
REMARK 923 INTER-LIGAND FREE ENERGY PREDICTED BY IDOCK:   -6.60 KCAL/MOL
REMARK 924 INTRA-LIGAND FREE ENERGY PREDICTED BY IDOCK:   -0.81 KCAL/MOL
REMARK 927      BINDING AFFINITY PREDICTED BY RF-SCORE:    0.00 PKD
ROOT
HETATM    1  C   UNL     1     -10.367  20.268  69.920  1.00  0.00     0.529 C  
HETATM    2  O   UNL     1     -10.620  20.179  68.523  1.00  0.00    -0.303 OA 
ENDROOT
BRANCH   2   3
HETATM    3  C   UNL     1     -10.122  19.083  67.870  1.00  0.00    -0.381 C  
HETATM    4  C   UNL     1      -9.008  19.179  67.028  1.00  0.00    -0.298 C  
HETATM    5  C   UNL     1      -9.622  15.243  65.808  1.00  0.00    -0.359 C  
HETATM    6  C   UNL     1      -8.630  17.995  66.203  1.00  0.00    -0.096 C  
HETATM    7  C   UNL     1     -10.470  14.910  64.786  1.00  0.00    -0.296 C  
HETATM    8  H   UNL     1     -11.462  11.088  63.921  1.00  0.00     0.000 HD 
HETATM    9  C   UNL     1      -9.388  16.762  66.338  1.00  0.00    -0.305 C  
HETATM   10  O   UNL     1     -11.464  11.244  64.858  1.00  0.00    -0.055 OA 
HETATM   11  C   UNL     1      -9.840  16.740  67.656  1.00  0.00    -0.261 C  
HETATM   12  C   UNL     1      -8.616  16.443  68.623  1.00  0.00    -0.237 C  
HETATM   13  C   UNL     1     -10.596  17.816  68.126  1.00  0.00    -0.350 C  
HETATM   14  C   UNL     1      -8.460  14.966  68.839  1.00  0.00    -0.174 C  
HETATM   15  C   UNL     1      -7.976  14.332  67.517  1.00  0.00    -0.188 C  
HETATM   16  C   UNL     1     -11.016  13.569  64.428  1.00  0.00    -0.399 C  
HETATM   17  C   UNL     1      -9.243  14.103  66.748  1.00  0.00    -0.282 C  
HETATM   18  C   UNL     1     -10.039  13.100  67.193  1.00  0.00    -0.242 C  
HETATM   19  O   UNL     1     -12.326  12.569  67.454  1.00  0.00    -0.338 OA 
HETATM   20  C   UNL     1     -11.379  12.560  65.280  1.00  0.00    -0.324 C  
HETATM   21  C   UNL     1     -11.382  12.802  66.726  1.00  0.00    -0.313 C  
BRANCH   4  22
HETATM   22  O   UNL     1      -8.232  20.337  67.004  1.00  0.00    -0.315 OA 
HETATM   23  C   UNL     1      -7.132  20.472  67.925  1.00  0.00    -0.275 C  
ENDBRANCH   4  22
BRANCH   6  24
HETATM   24  O   UNL     1      -7.428  17.969  65.499  1.00  0.00    -0.538 OA 
HETATM   25  C   UNL     1      -6.298  17.357  66.183  1.00  0.00    -0.177 C  
ENDBRANCH   6  24
BRANCH  15  26
HETATM   26  N   UNL     1      -7.250  13.107  67.800  1.00  0.00    -0.130 N  
HETATM   27  H   UNL     1      -7.776  12.257  68.005  1.00  0.00     0.000 HD 
HETATM   28  C   UNL     1      -5.872  13.058  67.799  1.00  0.00    -0.141 C  
HETATM   29  O   UNL     1      -5.141  13.894  67.294  1.00  0.00    -0.306 OA 
HETATM   30  C   UNL     1      -5.333  11.839  68.505  1.00  0.00    -0.045 C  
ENDBRANCH  15  26
ENDBRANCH   2   3
TORSDOF 4
ENDMDL
MODEL       27
REMARK 921   NORMALIZED FREE ENERGY PREDICTED BY IDOCK:   -5.30 KCAL/MOL
REMARK 922        TOTAL FREE ENERGY PREDICTED BY IDOCK:   -7.28 KCAL/MOL
REMARK 923 INTER-LIGAND FREE ENERGY PREDICTED BY IDOCK:   -6.79 KCAL/MOL
REMARK 924 INTRA-LIGAND FREE ENERGY PREDICTED BY IDOCK:   -0.49 KCAL/MOL
REMARK 927      BINDING AFFINITY PREDICTED BY RF-SCORE:    0.00 PKD
ROOT
HETATM    1  C   UNL     1     -10.577  16.890  68.682  1.00  0.00    -0.360 C  
HETATM    2  O   UNL     1      -9.782  15.996  67.912  1.00  0.00    -0.219 OA 
ENDROOT
BRANCH   2   3
HETATM    3  C   UNL     1     -10.175  14.685  67.882  1.00  0.00    -0.226 C  
HETATM    4  C   UNL     1     -11.123  14.228  66.959  1.00  0.00    -0.312 C  
HETATM    5  C   UNL     1     -11.209  10.546  68.908  1.00  0.00    -0.323 C  
HETATM    6  C   UNL     1     -11.647  12.837  67.100  1.00  0.00    -0.364 C  
HETATM    7  C   UNL     1     -12.016  10.299  69.986  1.00  0.00    -0.273 C  
HETATM    8  H   UNL     1     -11.752   6.922  72.192  1.00  0.00     0.000 HD 
HETATM    9  C   UNL     1     -11.119  11.980  68.149  1.00  0.00    -0.294 C  
HETATM   10  O   UNL     1     -10.892   7.267  71.980  1.00  0.00    -0.225 OA 
HETATM   11  C   UNL     1      -9.801  12.391  68.342  1.00  0.00    -0.198 C  
HETATM   12  C   UNL     1      -8.922  11.923  67.105  1.00  0.00    -0.178 C  
HETATM   13  C   UNL     1      -9.552  13.729  68.653  1.00  0.00    -0.121 C  
HETATM   14  C   UNL     1      -8.346  10.558  67.352  1.00  0.00    -0.121 C  
HETATM   15  C   UNL     1      -9.500   9.534  67.321  1.00  0.00    -0.136 C  
HETATM   16  C   UNL     1     -11.955   9.168  70.955  1.00  0.00    -0.299 C  
HETATM   17  C   UNL     1     -10.049   9.574  68.716  1.00  0.00    -0.202 C  
HETATM   18  C   UNL     1      -9.279   9.007  69.677  1.00  0.00    -0.160 C  
HETATM   19  O   UNL     1      -8.655   9.324  71.934  1.00  0.00    -0.268 OA 
HETATM   20  C   UNL     1     -10.838   8.541  71.439  1.00  0.00    -0.260 C  
HETATM   21  C   UNL     1      -9.512   9.074  71.110  1.00  0.00    -0.278 C  
BRANCH   4  22
HETATM   22  O   UNL     1     -11.527  15.034  65.896  1.00  0.00    -0.321 OA 
HETATM   23  C   UNL     1     -10.660  15.190  64.756  1.00  0.00    -0.276 C  
ENDBRANCH   4  22
BRANCH   6  24
HETATM   24  O   UNL     1     -12.440  12.269  66.105  1.00  0.00    -0.466 OA 
HETATM   25  C   UNL     1     -11.735  11.744  64.945  1.00  0.00    -0.118 C  
ENDBRANCH   6  24
BRANCH  15  26
HETATM   26  N   UNL     1      -8.986   8.229  66.947  1.00  0.00    -0.141 N  
HETATM   27  H   UNL     1      -7.976   8.086  66.918  1.00  0.00     0.000 HD 
HETATM   28  C   UNL     1      -9.820   7.177  66.631  1.00  0.00    -0.169 C  
HETATM   29  O   UNL     1     -11.007   7.118  66.905  1.00  0.00    -0.363 OA 
HETATM   30  C   UNL     1      -9.109   6.075  65.888  1.00  0.00    -0.117 C  
ENDBRANCH  15  26
ENDBRANCH   2   3
TORSDOF 4
ENDMDL
MODEL       28
REMARK 921   NORMALIZED FREE ENERGY PREDICTED BY IDOCK:   -5.24 KCAL/MOL
REMARK 922        TOTAL FREE ENERGY PREDICTED BY IDOCK:   -7.20 KCAL/MOL
REMARK 923 INTER-LIGAND FREE ENERGY PREDICTED BY IDOCK:   -6.42 KCAL/MOL
REMARK 924 INTRA-LIGAND FREE ENERGY PREDICTED BY IDOCK:   -0.78 KCAL/MOL
REMARK 927      BINDING AFFINITY PREDICTED BY RF-SCORE:    0.00 PKD
ROOT
HETATM    1  C   UNL     1     -11.936   8.290  72.372  1.00  0.00    -0.384 C  
HETATM    2  O   UNL     1     -10.791   7.818  71.673  1.00  0.00    -0.224 OA 
ENDROOT
BRANCH   2   3
HETATM    3  C   UNL     1     -10.317   8.604  70.657  1.00  0.00    -0.202 C  
HETATM    4  C   UNL     1      -9.711   8.045  69.524  1.00  0.00    -0.170 C  
HETATM    5  C   UNL     1      -8.627  11.862  68.253  1.00  0.00    -0.162 C  
HETATM    6  C   UNL     1      -9.050   8.956  68.544  1.00  0.00    -0.137 C  
HETATM    7  C   UNL     1      -7.478  12.480  68.666  1.00  0.00    -0.090 C  
HETATM    8  H   UNL     1      -6.658  16.354  67.852  1.00  0.00     0.000 HD 
HETATM    9  C   UNL     1      -9.103  10.392  68.759  1.00  0.00    -0.165 C  
HETATM   10  O   UNL     1      -7.565  16.237  68.110  1.00  0.00    -0.143 OA 
HETATM   11  C   UNL     1     -10.302  10.629  69.427  1.00  0.00    -0.234 C  
HETATM   12  C   UNL     1     -11.511  10.435  68.415  1.00  0.00    -0.227 C  
HETATM   13  C   UNL     1     -10.546   9.961  70.628  1.00  0.00    -0.341 C  
HETATM   14  C   UNL     1     -11.841  11.731  67.732  1.00  0.00    -0.266 C  
HETATM   15  C   UNL     1     -10.683  12.081  66.774  1.00  0.00    -0.243 C  
HETATM   16  C   UNL     1      -7.097  13.917  68.546  1.00  0.00    -0.104 C  
HETATM   17  C   UNL     1      -9.690  12.779  67.655  1.00  0.00    -0.205 C  
HETATM   18  C   UNL     1     -10.025  14.029  68.059  1.00  0.00    -0.235 C  
HETATM   19  O   UNL     1      -9.853  15.440  69.946  1.00  0.00    -0.270 OA 
HETATM   20  C   UNL     1      -7.917  15.009  68.646  1.00  0.00    -0.153 C  
HETATM   21  C   UNL     1      -9.316  14.828  69.044  1.00  0.00    -0.160 C  
BRANCH   4  22
HETATM   22  O   UNL     1      -9.775   6.673  69.287  1.00  0.00    -0.146 OA 
HETATM   23  C   UNL     1     -10.941   6.118  68.648  1.00  0.00    -0.336 C  
ENDBRANCH   4  22
BRANCH   6  24
HETATM   24  O   UNL     1      -8.604   8.478  67.314  1.00  0.00    -0.121 OA 
HETATM   25  C   UNL     1      -9.544   8.581  66.207  1.00  0.00    -0.236 C  
ENDBRANCH   6  24
BRANCH  15  26
HETATM   26  N   UNL     1     -11.177  12.919  65.696  1.00  0.00    -0.289 N  
HETATM   27  H   UNL     1     -11.311  13.915  65.866  1.00  0.00     0.000 HD 
HETATM   28  C   UNL     1     -11.470  12.408  64.449  1.00  0.00    -0.347 C  
HETATM   29  O   UNL     1     -11.086  11.329  64.026  1.00  0.00    -0.372 OA 
HETATM   30  C   UNL     1     -12.338  13.331  63.631  1.00  0.00    -0.456 C  
ENDBRANCH  15  26
ENDBRANCH   2   3
TORSDOF 4
ENDMDL
MODEL       29
REMARK 921   NORMALIZED FREE ENERGY PREDICTED BY IDOCK:   -5.20 KCAL/MOL
REMARK 922        TOTAL FREE ENERGY PREDICTED BY IDOCK:   -7.15 KCAL/MOL
REMARK 923 INTER-LIGAND FREE ENERGY PREDICTED BY IDOCK:   -6.42 KCAL/MOL
REMARK 924 INTRA-LIGAND FREE ENERGY PREDICTED BY IDOCK:   -0.73 KCAL/MOL
REMARK 927      BINDING AFFINITY PREDICTED BY RF-SCORE:    0.00 PKD
ROOT
HETATM    1  C   UNL     1      -7.349  19.214  66.223  1.00  0.00    -0.260 C  
HETATM    2  O   UNL     1      -7.325  18.621  67.516  1.00  0.00    -0.217 OA 
ENDROOT
BRANCH   2   3
HETATM    3  C   UNL     1      -7.996  17.437  67.668  1.00  0.00    -0.193 C  
HETATM    4  C   UNL     1      -9.180  17.359  68.411  1.00  0.00    -0.277 C  
HETATM    5  C   UNL     1      -9.092  13.207  68.070  1.00  0.00    -0.207 C  
HETATM    6  C   UNL     1      -9.759  16.014  68.696  1.00  0.00    -0.217 C  
HETATM    7  C   UNL     1      -8.395  12.409  68.938  1.00  0.00     0.243 C  
HETATM    8  H   UNL     1      -7.883   8.445  68.336  1.00  0.00     0.000 HD 
HETATM    9  C   UNL     1      -9.116  14.831  68.148  1.00  0.00    -0.180 C  
HETATM   10  O   UNL     1      -7.765   8.937  67.533  1.00  0.00    -0.098 OA 
HETATM   11  C   UNL     1      -8.529  15.242  66.952  1.00  0.00    -0.286 C  
HETATM   12  C   UNL     1      -9.666  15.490  65.871  1.00  0.00    -0.392 C  
HETATM   13  C   UNL     1      -7.625  16.305  66.977  1.00  0.00    -0.250 C  
HETATM   14  C   UNL     1      -9.943  14.234  65.098  1.00  0.00    -0.266 C  
HETATM   15  C   UNL     1     -10.626  13.223  66.044  1.00  0.00    -0.286 C  
HETATM   16  C   UNL     1      -8.026  10.972  68.789  1.00  0.00    -0.144 C  
HETATM   17  C   UNL     1      -9.477  12.560  66.744  1.00  0.00    -0.231 C  
HETATM   18  C   UNL     1      -8.741  11.698  66.000  1.00  0.00    -0.055 C  
HETATM   19  O   UNL     1      -6.503  11.006  65.699  1.00  0.00    -0.036 OA 
HETATM   20  C   UNL     1      -7.674  10.314  67.641  1.00  0.00    -0.090 C  
HETATM   21  C   UNL     1      -7.492  11.074  66.401  1.00  0.00    -0.131 C  
BRANCH   4  22
HETATM   22  O   UNL     1      -9.836  18.516  68.828  1.00  0.00    -0.369 OA 
HETATM   23  C   UNL     1     -10.760  19.168  67.934  1.00  0.00    -0.300 C  
ENDBRANCH   4  22
BRANCH   6  24
HETATM   24  O   UNL     1     -11.027  15.886  69.261  1.00  0.00    -0.250 OA 
HETATM   25  C   UNL     1     -11.069  15.719  70.707  1.00  0.00    -0.341 C  
ENDBRANCH   6  24
BRANCH  15  26
HETATM   26  N   UNL     1     -11.434  12.299  65.270  1.00  0.00    -0.342 N  
HETATM   27  H   UNL     1     -11.109  11.340  65.149  1.00  0.00     0.000 HD 
HETATM   28  C   UNL     1     -12.629  12.677  64.695  1.00  0.00    -0.440 C  
HETATM   29  O   UNL     1     -13.269  13.671  64.998  1.00  0.00    -0.729 OA 
HETATM   30  C   UNL     1     -13.086  11.723  63.621  1.00  0.00    -0.077 C  
ENDBRANCH  15  26
ENDBRANCH   2   3
TORSDOF 4
ENDMDL
MODEL       30
REMARK 921   NORMALIZED FREE ENERGY PREDICTED BY IDOCK:   -5.18 KCAL/MOL
REMARK 922        TOTAL FREE ENERGY PREDICTED BY IDOCK:   -7.12 KCAL/MOL
REMARK 923 INTER-LIGAND FREE ENERGY PREDICTED BY IDOCK:   -6.46 KCAL/MOL
REMARK 924 INTRA-LIGAND FREE ENERGY PREDICTED BY IDOCK:   -0.67 KCAL/MOL
REMARK 927      BINDING AFFINITY PREDICTED BY RF-SCORE:    0.00 PKD
ROOT
HETATM    1  C   UNL     1      -9.097  11.013  62.514  1.00  0.00    -0.323 C  
HETATM    2  O   UNL     1     -10.322  11.046  63.238  1.00  0.00    -0.345 OA 
ENDROOT
BRANCH   2   3
HETATM    3  C   UNL     1     -10.241  10.922  64.599  1.00  0.00    -0.345 C  
HETATM    4  C   UNL     1     -11.123  11.602  65.448  1.00  0.00    -0.239 C  
HETATM    5  C   UNL     1      -8.873  10.374  68.732  1.00  0.00    -0.157 C  
HETATM    6  C   UNL     1     -10.867  11.575  66.917  1.00  0.00    -0.284 C  
HETATM    7  C   UNL     1      -7.778  11.066  69.178  1.00  0.00    -0.102 C  
HETATM    8  H   UNL     1      -5.296   9.635  72.030  1.00  0.00     0.000 HD 
HETATM    9  C   UNL     1      -9.749  10.800  67.431  1.00  0.00    -0.194 C  
HETATM   10  O   UNL     1      -5.536   8.960  71.406  1.00  0.00    -0.037 OA 
HETATM   11  C   UNL     1      -9.591   9.737  66.545  1.00  0.00    -0.249 C  
HETATM   12  C   UNL     1     -10.783   8.707  66.745  1.00  0.00    -0.086 C  
HETATM   13  C   UNL     1      -9.393  10.013  65.191  1.00  0.00    -0.302 C  
HETATM   14  C   UNL     1     -10.422   7.674  67.773  1.00  0.00    -0.282 C  
HETATM   15  C   UNL     1     -10.367   8.363  69.153  1.00  0.00    -0.220 C  
HETATM   16  C   UNL     1      -6.718  10.620  70.126  1.00  0.00    -0.143 C  
HETATM   17  C   UNL     1      -8.981   8.931  69.212  1.00  0.00    -0.144 C  
HETATM   18  C   UNL     1      -7.975   8.037  69.375  1.00  0.00    -0.116 C  
HETATM   19  O   UNL     1      -5.753   7.648  68.673  1.00  0.00    -0.025 OA 
HETATM   20  C   UNL     1      -6.182   9.366  70.251  1.00  0.00    -0.056 C  
HETATM   21  C   UNL     1      -6.553   8.323  69.289  1.00  0.00    -0.039 C  
BRANCH   4  22
HETATM   22  O   UNL     1     -12.251  12.243  64.936  1.00  0.00    -0.410 OA 
HETATM   23  C   UNL     1     -12.224  13.670  64.735  1.00  0.00    -0.403 C  
ENDBRANCH   4  22
BRANCH   6  24
HETATM   24  O   UNL     1     -11.811  12.068  67.817  1.00  0.00    -0.488 OA 
HETATM   25  C   UNL     1     -11.560  13.403  68.340  1.00  0.00    -0.332 C  
ENDBRANCH   6  24
BRANCH  15  26
HETATM   26  N   UNL     1     -10.630   7.388  70.196  1.00  0.00    -0.225 N  
HETATM   27  H   UNL     1     -10.085   6.526  70.216  1.00  0.00     0.000 HD 
HETATM   28  C   UNL     1     -11.594   7.592  71.161  1.00  0.00    -0.282 C  
HETATM   29  O   UNL     1     -12.097   8.670  71.432  1.00  0.00    -0.288 OA 
HETATM   30  C   UNL     1     -11.984   6.321  71.872  1.00  0.00    -0.342 C  
ENDBRANCH  15  26
ENDBRANCH   2   3
TORSDOF 4
ENDMDL
MODEL       31
REMARK 921   NORMALIZED FREE ENERGY PREDICTED BY IDOCK:   -5.16 KCAL/MOL
REMARK 922        TOTAL FREE ENERGY PREDICTED BY IDOCK:   -7.10 KCAL/MOL
REMARK 923 INTER-LIGAND FREE ENERGY PREDICTED BY IDOCK:   -6.38 KCAL/MOL
REMARK 924 INTRA-LIGAND FREE ENERGY PREDICTED BY IDOCK:   -0.72 KCAL/MOL
REMARK 927      BINDING AFFINITY PREDICTED BY RF-SCORE:    0.00 PKD
ROOT
HETATM    1  C   UNL     1      -7.838   7.725  64.150  1.00  0.00    -0.133 C  
HETATM    2  O   UNL     1      -8.791   8.748  64.412  1.00  0.00    -0.095 OA 
ENDROOT
BRANCH   2   3
HETATM    3  C   UNL     1      -8.867   9.209  65.699  1.00  0.00    -0.185 C  
HETATM    4  C   UNL     1      -8.018  10.220  66.164  1.00  0.00    -0.131 C  
HETATM    5  C   UNL     1      -9.450   9.613  70.029  1.00  0.00    -0.277 C  
HETATM    6  C   UNL     1      -8.022  10.546  67.620  1.00  0.00    -0.106 C  
HETATM    7  C   UNL     1      -8.926   8.670  70.872  1.00  0.00    -0.227 C  
HETATM    8  H   UNL     1     -10.614   7.723  74.421  1.00  0.00     0.000 HD 
HETATM    9  C   UNL     1      -8.945   9.851  68.502  1.00  0.00    -0.122 C  
HETATM   10  O   UNL     1     -11.268   7.818  73.738  1.00  0.00     0.049 OA 
HETATM   11  C   UNL     1     -10.057   9.548  67.720  1.00  0.00    -0.244 C  
HETATM   12  C   UNL     1     -10.871  10.880  67.431  1.00  0.00    -0.333 C  
HETATM   13  C   UNL     1      -9.875   8.810  66.549  1.00  0.00    -0.349 C  
HETATM   14  C   UNL     1     -11.904  11.111  68.496  1.00  0.00    -0.330 C  
HETATM   15  C   UNL     1     -11.174  11.468  69.808  1.00  0.00    -0.161 C  
HETATM   16  C   UNL     1      -9.496   8.136  72.142  1.00  0.00    -0.291 C  
HETATM   17  C   UNL     1     -10.835  10.133  70.401  1.00  0.00    -0.365 C  
HETATM   18  C   UNL     1     -11.872   9.426  70.914  1.00  0.00    -0.365 C  
HETATM   19  O   UNL     1     -12.645   7.202  71.100  1.00  0.00    -0.364 OA 
HETATM   20  C   UNL     1     -10.814   7.903  72.433  1.00  0.00    -0.317 C  
HETATM   21  C   UNL     1     -11.823   8.051  71.380  1.00  0.00    -0.295 C  
BRANCH   4  22
HETATM   22  O   UNL     1      -7.226  10.948  65.277  1.00  0.00     0.046 OA 
HETATM   23  C   UNL     1      -5.811  10.684  65.210  1.00  0.00    -0.107 C  
ENDBRANCH   4  22
BRANCH   6  24
HETATM   24  O   UNL     1      -7.345  11.664  68.104  1.00  0.00    -0.081 OA 
HETATM   25  C   UNL     1      -8.117  12.895  68.185  1.00  0.00    -0.158 C  
ENDBRANCH   6  24
BRANCH  15  26
HETATM   26  N   UNL     1     -12.047  12.263  70.652  1.00  0.00    -0.484 N  
HETATM   27  H   UNL     1     -12.585  11.798  71.383  1.00  0.00     0.000 HD 
HETATM   28  C   UNL     1     -12.172  13.627  70.495  1.00  0.00    -0.368 C  
HETATM   29  O   UNL     1     -11.391  14.336  69.882  1.00  0.00    -0.253 OA 
HETATM   30  C   UNL     1     -13.402  14.180  71.169  1.00  0.00    -0.330 C  
ENDBRANCH  15  26
ENDBRANCH   2   3
TORSDOF 4
ENDMDL
MODEL       32
REMARK 921   NORMALIZED FREE ENERGY PREDICTED BY IDOCK:   -5.13 KCAL/MOL
REMARK 922        TOTAL FREE ENERGY PREDICTED BY IDOCK:   -7.06 KCAL/MOL
REMARK 923 INTER-LIGAND FREE ENERGY PREDICTED BY IDOCK:   -6.52 KCAL/MOL
REMARK 924 INTRA-LIGAND FREE ENERGY PREDICTED BY IDOCK:   -0.54 KCAL/MOL
REMARK 927      BINDING AFFINITY PREDICTED BY RF-SCORE:    0.00 PKD
ROOT
HETATM    1  C   UNL     1      -6.130  16.328  69.852  1.00  0.00    -0.180 C  
HETATM    2  O   UNL     1      -7.325  16.822  69.259  1.00  0.00    -0.237 OA 
ENDROOT
BRANCH   2   3
HETATM    3  C   UNL     1      -8.341  15.923  69.071  1.00  0.00    -0.239 C  
HETATM    4  C   UNL     1      -9.680  16.284  69.266  1.00  0.00    -0.238 C  
HETATM    5  C   UNL     1     -10.797  12.298  68.798  1.00  0.00    -0.266 C  
HETATM    6  C   UNL     1     -10.722  15.217  69.229  1.00  0.00    -0.250 C  
HETATM    7  C   UNL     1     -10.799  11.404  69.835  1.00  0.00     0.090 C  
HETATM    8  H   UNL     1     -11.389   7.440  69.310  1.00  0.00     0.000 HD 
HETATM    9  C   UNL     1     -10.329  13.849  68.934  1.00  0.00    -0.163 C  
HETATM   10  O   UNL     1     -10.810   7.796  68.646  1.00  0.00    -0.097 OA 
HETATM   11  C   UNL     1      -9.218  13.948  68.100  1.00  0.00    -0.202 C  
HETATM   12  C   UNL     1      -9.685  14.439  66.664  1.00  0.00    -0.289 C  
HETATM   13  C   UNL     1      -8.110  14.675  68.538  1.00  0.00    -0.146 C  
HETATM   14  C   UNL     1     -10.018  13.266  65.786  1.00  0.00    -0.261 C  
HETATM   15  C   UNL     1     -11.305  12.608  66.327  1.00  0.00    -0.329 C  
HETATM   16  C   UNL     1     -10.883   9.917  69.783  1.00  0.00    -0.300 C  
HETATM   17  C   UNL     1     -10.809  11.686  67.401  1.00  0.00    -0.298 C  
HETATM   18  C   UNL     1     -10.156  10.575  66.980  1.00  0.00    -0.259 C  
HETATM   19  O   UNL     1      -8.333   9.198  67.580  1.00  0.00    -0.115 OA 
HETATM   20  C   UNL     1     -10.334   9.081  68.846  1.00  0.00    -0.215 C  
HETATM   21  C   UNL     1      -9.441   9.632  67.823  1.00  0.00    -0.127 C  
BRANCH   4  22
HETATM   22  O   UNL     1     -10.039  17.621  69.435  1.00  0.00    -0.201 OA 
HETATM   23  C   UNL     1     -10.179  18.468  68.277  1.00  0.00    -0.376 C  
ENDBRANCH   4  22
BRANCH   6  24
HETATM   24  O   UNL     1     -12.077  15.541  69.225  1.00  0.00    -0.332 OA 
HETATM   25  C   UNL     1     -12.749  15.501  70.517  1.00  0.00    -0.388 C  
ENDBRANCH   6  24
BRANCH  15  26
HETATM   26  N   UNL     1     -11.989  11.915  65.250  1.00  0.00    -0.140 N  
HETATM   27  H   UNL     1     -12.144  10.910  65.329  1.00  0.00     0.000 HD 
HETATM   28  C   UNL     1     -12.434  12.574  64.123  1.00  0.00    -0.430 C  
HETATM   29  O   UNL     1     -12.581  13.781  64.030  1.00  0.00    -0.685 OA 
HETATM   30  C   UNL     1     -12.730  11.637  62.980  1.00  0.00     0.151 C  
ENDBRANCH  15  26
ENDBRANCH   2   3
TORSDOF 4
ENDMDL
MODEL       33
REMARK 921   NORMALIZED FREE ENERGY PREDICTED BY IDOCK:   -5.09 KCAL/MOL
REMARK 922        TOTAL FREE ENERGY PREDICTED BY IDOCK:   -7.01 KCAL/MOL
REMARK 923 INTER-LIGAND FREE ENERGY PREDICTED BY IDOCK:   -6.29 KCAL/MOL
REMARK 924 INTRA-LIGAND FREE ENERGY PREDICTED BY IDOCK:   -0.72 KCAL/MOL
REMARK 927      BINDING AFFINITY PREDICTED BY RF-SCORE:    0.00 PKD
ROOT
HETATM    1  C   UNL     1      -9.405   3.190  68.366  1.00  0.00    -0.184 C  
HETATM    2  O   UNL     1     -10.007   3.469  69.624  1.00  0.00     0.007 OA 
ENDROOT
BRANCH   2   3
HETATM    3  C   UNL     1      -9.848   4.735  70.120  1.00  0.00    -0.238 C  
HETATM    4  C   UNL     1      -9.224   4.964  71.353  1.00  0.00    -0.145 C  
HETATM    5  C   UNL     1     -10.305   8.981  71.129  1.00  0.00    -0.362 C  
HETATM    6  C   UNL     1      -9.249   6.342  71.924  1.00  0.00    -0.149 C  
HETATM    7  C   UNL     1     -11.519   9.445  71.562  1.00  0.00    -0.467 C  
HETATM    8  H   UNL     1     -12.781  13.227  70.897  1.00  0.00     0.000 HD 
HETATM    9  C   UNL     1      -9.865   7.417  71.163  1.00  0.00    -0.177 C  
HETATM   10  O   UNL     1     -12.367  12.858  70.126  1.00  0.00    -0.270 OA 
HETATM   11  C   UNL     1      -9.683   7.080  69.823  1.00  0.00    -0.168 C  
HETATM   12  C   UNL     1      -8.156   7.280  69.437  1.00  0.00    -0.130 C  
HETATM   13  C   UNL     1     -10.155   5.847  69.369  1.00  0.00    -0.260 C  
HETATM   14  C   UNL     1      -7.916   8.675  68.936  1.00  0.00    -0.113 C  
HETATM   15  C   UNL     1      -8.069   9.649  70.124  1.00  0.00    -0.189 C  
HETATM   16  C   UNL     1     -12.163  10.762  71.291  1.00  0.00    -0.426 C  
HETATM   17  C   UNL     1      -9.545   9.906  70.184  1.00  0.00    -0.237 C  
HETATM   18  C   UNL     1     -10.057  10.683  69.198  1.00  0.00    -0.234 C  
HETATM   19  O   UNL     1     -11.987  10.878  67.851  1.00  0.00    -0.585 OA 
HETATM   20  C   UNL     1     -12.107  11.498  70.137  1.00  0.00    -0.351 C  
HETATM   21  C   UNL     1     -11.467  10.928  68.947  1.00  0.00    -0.300 C  
BRANCH   4  22
HETATM   22  O   UNL     1      -8.544   3.938  72.007  1.00  0.00    -0.096 OA 
HETATM   23  C   UNL     1      -7.162   3.686  71.684  1.00  0.00    -0.039 C  
ENDBRANCH   4  22
BRANCH   6  24
HETATM   24  O   UNL     1      -8.486   6.666  73.044  1.00  0.00    -0.117 OA 
HETATM   25  C   UNL     1      -9.197   7.311  74.139  1.00  0.00    -0.229 C  
ENDBRANCH   6  24
BRANCH  15  26
HETATM   26  N   UNL     1      -7.289  10.848  69.876  1.00  0.00    -0.355 N  
HETATM   27  H   UNL     1      -7.619  11.516  69.179  1.00  0.00     0.000 HD 
HETATM   28  C   UNL     1      -6.117  11.111  70.554  1.00  0.00    -0.084 C  
HETATM   29  O   UNL     1      -5.772  10.571  71.592  1.00  0.00    -0.315 OA 
HETATM   30  C   UNL     1      -5.274  12.159  69.873  1.00  0.00    -0.082 C  
ENDBRANCH  15  26
ENDBRANCH   2   3
TORSDOF 4
ENDMDL
MODEL       34
REMARK 921   NORMALIZED FREE ENERGY PREDICTED BY IDOCK:   -5.02 KCAL/MOL
REMARK 922        TOTAL FREE ENERGY PREDICTED BY IDOCK:   -6.93 KCAL/MOL
REMARK 923 INTER-LIGAND FREE ENERGY PREDICTED BY IDOCK:   -7.05 KCAL/MOL
REMARK 924 INTRA-LIGAND FREE ENERGY PREDICTED BY IDOCK:    0.12 KCAL/MOL
REMARK 927      BINDING AFFINITY PREDICTED BY RF-SCORE:    0.00 PKD
ROOT
HETATM    1  C   UNL     1     -10.949  11.751  64.381  1.00  0.00    -0.339 C  
HETATM    2  O   UNL     1     -11.721  12.939  64.508  1.00  0.00    -0.330 OA 
ENDROOT
BRANCH   2   3
HETATM    3  C   UNL     1     -11.222  13.919  65.325  1.00  0.00    -0.313 C  
HETATM    4  C   UNL     1     -11.756  14.149  66.599  1.00  0.00    -0.403 C  
HETATM    5  C   UNL     1      -9.396  17.565  66.943  1.00  0.00    -0.275 C  
HETATM    6  C   UNL     1     -11.297  15.346  67.362  1.00  0.00    -0.243 C  
HETATM    7  C   UNL     1      -9.789  18.786  66.466  1.00  0.00    -0.398 C  
HETATM    8  H   UNL     1      -7.323  21.987  66.337  1.00  0.00     0.000 HD 
HETATM    9  C   UNL     1     -10.271  16.204  66.791  1.00  0.00    -0.281 C  
HETATM   10  O   UNL     1      -6.880  21.194  66.057  1.00  0.00    -0.076 OA 
HETATM   11  C   UNL     1      -9.477  15.370  66.007  1.00  0.00    -0.381 C  
HETATM   12  C   UNL     1      -8.599  14.444  66.952  1.00  0.00    -0.191 C  
HETATM   13  C   UNL     1     -10.082  14.619  64.997  1.00  0.00    -0.318 C  
HETATM   14  C   UNL     1      -7.287  15.103  67.266  1.00  0.00    -0.216 C  
HETATM   15  C   UNL     1      -7.561  16.316  68.181  1.00  0.00    -0.149 C  
HETATM   16  C   UNL     1      -8.966  20.010  66.248  1.00  0.00    -0.383 C  
HETATM   17  C   UNL     1      -7.903  17.415  67.220  1.00  0.00    -0.218 C  
HETATM   18  C   UNL     1      -6.874  17.918  66.495  1.00  0.00    -0.259 C  
HETATM   19  O   UNL     1      -6.401  18.738  64.331  1.00  0.00    -0.402 OA 
HETATM   20  C   UNL     1      -7.666  20.078  65.823  1.00  0.00    -0.235 C  
HETATM   21  C   UNL     1      -6.983  18.855  65.391  1.00  0.00    -0.102 C  
BRANCH   4  22
HETATM   22  O   UNL     1     -12.655  13.247  67.167  1.00  0.00    -0.115 OA 
HETATM   23  C   UNL     1     -12.152  12.121  67.913  1.00  0.00     0.043 C  
ENDBRANCH   4  22
BRANCH   6  24
HETATM   24  O   UNL     1     -11.647  15.519  68.699  1.00  0.00    -0.339 OA 
HETATM   25  C   UNL     1     -10.669  15.070  69.680  1.00  0.00    -0.257 C  
ENDBRANCH   6  24
BRANCH  15  26
HETATM   26  N   UNL     1      -6.383  16.601  68.980  1.00  0.00    -0.171 N  
HETATM   27  H   UNL     1      -5.638  15.906  69.027  1.00  0.00     0.000 HD 
HETATM   28  C   UNL     1      -6.240  17.783  69.676  1.00  0.00    -0.214 C  
HETATM   29  O   UNL     1      -6.891  18.796  69.477  1.00  0.00    -0.224 OA 
HETATM   30  C   UNL     1      -5.176  17.706  70.741  1.00  0.00    -0.264 C  
ENDBRANCH  15  26
ENDBRANCH   2   3
TORSDOF 4
ENDMDL
MODEL       35
REMARK 921   NORMALIZED FREE ENERGY PREDICTED BY IDOCK:   -5.01 KCAL/MOL
REMARK 922        TOTAL FREE ENERGY PREDICTED BY IDOCK:   -6.92 KCAL/MOL
REMARK 923 INTER-LIGAND FREE ENERGY PREDICTED BY IDOCK:   -6.23 KCAL/MOL
REMARK 924 INTRA-LIGAND FREE ENERGY PREDICTED BY IDOCK:   -0.70 KCAL/MOL
REMARK 927      BINDING AFFINITY PREDICTED BY RF-SCORE:    0.00 PKD
ROOT
HETATM    1  C   UNL     1      -9.900   4.614  65.220  1.00  0.00    -0.123 C  
HETATM    2  O   UNL     1     -10.814   4.629  66.310  1.00  0.00    -0.138 OA 
ENDROOT
BRANCH   2   3
HETATM    3  C   UNL     1     -10.569   5.528  67.314  1.00  0.00    -0.219 C  
HETATM    4  C   UNL     1      -9.962   5.135  68.513  1.00  0.00    -0.154 C  
HETATM    5  C   UNL     1     -10.716   8.913  70.101  1.00  0.00    -0.245 C  
HETATM    6  C   UNL     1      -9.893   6.117  69.635  1.00  0.00    -0.161 C  
HETATM    7  C   UNL     1     -11.900   9.236  70.708  1.00  0.00    -0.303 C  
HETATM    8  H   UNL     1     -12.841  13.013  71.800  1.00  0.00     0.000 HD 
HETATM    9  C   UNL     1     -10.402   7.464  69.435  1.00  0.00    -0.211 C  
HETATM   10  O   UNL     1     -12.437  12.989  70.941  1.00  0.00    -0.367 OA 
HETATM   11  C   UNL     1     -10.212   7.740  68.082  1.00  0.00    -0.244 C  
HETATM   12  C   UNL     1      -8.664   7.963  67.807  1.00  0.00    -0.127 C  
HETATM   13  C   UNL     1     -10.767   6.878  67.135  1.00  0.00    -0.436 C  
HETATM   14  C   UNL     1      -8.301   9.411  67.972  1.00  0.00    -0.119 C  
HETATM   15  C   UNL     1      -8.407   9.768  69.470  1.00  0.00    -0.161 C  
HETATM   16  C   UNL     1     -12.430  10.586  71.055  1.00  0.00    -0.501 C  
HETATM   17  C   UNL     1      -9.860  10.093  69.655  1.00  0.00    -0.254 C  
HETATM   18  C   UNL     1     -10.282  11.265  69.120  1.00  0.00    -0.123 C  
HETATM   19  O   UNL     1     -12.155  12.194  68.021  1.00  0.00    -0.478 OA 
HETATM   20  C   UNL     1     -12.286  11.748  70.346  1.00  0.00    -0.330 C  
HETATM   21  C   UNL     1     -11.661  11.712  69.020  1.00  0.00    -0.324 C  
BRANCH   4  22
HETATM   22  O   UNL     1      -9.382   3.874  68.638  1.00  0.00    -0.144 OA 
HETATM   23  C   UNL     1      -8.041   3.660  68.154  1.00  0.00    -0.082 C  
ENDBRANCH   4  22
BRANCH   6  24
HETATM   24  O   UNL     1      -9.137   5.848  70.774  1.00  0.00    -0.150 OA 
HETATM   25  C   UNL     1      -9.865   5.310  71.914  1.00  0.00    -0.178 C  
ENDBRANCH   6  24
BRANCH  15  26
HETATM   26  N   UNL     1      -7.529  10.885  69.770  1.00  0.00    -0.357 N  
HETATM   27  H   UNL     1      -7.849  11.833  69.570  1.00  0.00     0.000 HD 
HETATM   28  C   UNL     1      -6.276  10.703  70.316  1.00  0.00    -0.139 C  
HETATM   29  O   UNL     1      -5.893   9.684  70.868  1.00  0.00    -0.058 OA 
HETATM   30  C   UNL     1      -5.393  11.915  70.162  1.00  0.00    -0.102 C  
ENDBRANCH  15  26
ENDBRANCH   2   3
TORSDOF 4
ENDMDL
MODEL       36
REMARK 921   NORMALIZED FREE ENERGY PREDICTED BY IDOCK:   -4.95 KCAL/MOL
REMARK 922        TOTAL FREE ENERGY PREDICTED BY IDOCK:   -6.85 KCAL/MOL
REMARK 923 INTER-LIGAND FREE ENERGY PREDICTED BY IDOCK:   -6.14 KCAL/MOL
REMARK 924 INTRA-LIGAND FREE ENERGY PREDICTED BY IDOCK:   -0.70 KCAL/MOL
REMARK 927      BINDING AFFINITY PREDICTED BY RF-SCORE:    0.00 PKD
ROOT
HETATM    1  C   UNL     1     -10.035   4.858  66.651  1.00  0.00    -0.229 C  
HETATM    2  O   UNL     1     -10.858   5.482  67.628  1.00  0.00    -0.179 OA 
ENDROOT
BRANCH   2   3
HETATM    3  C   UNL     1     -10.629   6.809  67.876  1.00  0.00    -0.242 C  
HETATM    4  C   UNL     1     -10.269   7.263  69.151  1.00  0.00    -0.197 C  
HETATM    5  C   UNL     1     -10.672  11.197  67.838  1.00  0.00    -0.261 C  
HETATM    6  C   UNL     1     -10.218   8.733  69.399  1.00  0.00    -0.210 C  
HETATM    7  C   UNL     1     -11.869  11.860  67.849  1.00  0.00    -0.308 C  
HETATM    8  H   UNL     1     -12.383  15.480  66.123  1.00  0.00     0.000 HD 
HETATM    9  C   UNL     1     -10.484   9.651  68.303  1.00  0.00    -0.259 C  
HETATM   10  O   UNL     1     -11.866  14.902  65.573  1.00  0.00    -0.279 OA 
HETATM   11  C   UNL     1     -10.060   8.992  67.151  1.00  0.00    -0.309 C  
HETATM   12  C   UNL     1      -8.473   8.953  67.126  1.00  0.00    -0.106 C  
HETATM   13  C   UNL     1     -10.595   7.736  66.858  1.00  0.00    -0.347 C  
HETATM   14  C   UNL     1      -7.925  10.162  66.424  1.00  0.00    -0.120 C  
HETATM   15  C   UNL     1      -8.194  11.398  67.308  1.00  0.00    -0.150 C  
HETATM   16  C   UNL     1     -12.236  13.130  67.159  1.00  0.00    -0.250 C  
HETATM   17  C   UNL     1      -9.592  11.798  66.944  1.00  0.00    -0.204 C  
HETATM   18  C   UNL     1      -9.752  12.365  65.723  1.00  0.00    -0.210 C  
HETATM   19  O   UNL     1     -11.285  12.415  63.925  1.00  0.00    -0.353 OA 
HETATM   20  C   UNL     1     -11.817  13.565  65.930  1.00  0.00    -0.372 C  
HETATM   21  C   UNL     1     -11.020  12.674  65.082  1.00  0.00    -0.291 C  
BRANCH   4  22
HETATM   22  O   UNL     1      -9.909   6.361  70.151  1.00  0.00    -0.165 OA 
HETATM   23  C   UNL     1      -8.591   5.780  70.140  1.00  0.00    -0.128 C  
ENDBRANCH   4  22
BRANCH   6  24
HETATM   24  O   UNL     1      -9.684   9.240  70.583  1.00  0.00    -0.232 OA 
HETATM   25  C   UNL     1      -8.233   9.349  70.636  1.00  0.00    -0.168 C  
ENDBRANCH   6  24
BRANCH  15  26
HETATM   26  N   UNL     1      -7.211  12.427  67.021  1.00  0.00    -0.357 N  
HETATM   27  H   UNL     1      -6.761  12.438  66.106  1.00  0.00     0.000 HD 
HETATM   28  C   UNL     1      -6.868  13.389  67.947  1.00  0.00    -0.144 C  
HETATM   29  O   UNL     1      -7.521  13.671  68.939  1.00  0.00    -0.100 OA 
HETATM   30  C   UNL     1      -5.571  14.081  67.614  1.00  0.00     0.026 C  
ENDBRANCH  15  26
ENDBRANCH   2   3
TORSDOF 4
ENDMDL
MODEL       37
REMARK 921   NORMALIZED FREE ENERGY PREDICTED BY IDOCK:   -4.92 KCAL/MOL
REMARK 922        TOTAL FREE ENERGY PREDICTED BY IDOCK:   -6.81 KCAL/MOL
REMARK 923 INTER-LIGAND FREE ENERGY PREDICTED BY IDOCK:   -6.19 KCAL/MOL
REMARK 924 INTRA-LIGAND FREE ENERGY PREDICTED BY IDOCK:   -0.62 KCAL/MOL
REMARK 927      BINDING AFFINITY PREDICTED BY RF-SCORE:    0.00 PKD
ROOT
HETATM    1  C   UNL     1      -6.475  20.462  65.392  1.00  0.00    -0.264 C  
HETATM    2  O   UNL     1      -7.349  19.396  65.043  1.00  0.00    -0.276 OA 
ENDROOT
BRANCH   2   3
HETATM    3  C   UNL     1      -7.698  18.528  66.043  1.00  0.00    -0.171 C  
HETATM    4  C   UNL     1      -8.682  18.854  66.983  1.00  0.00    -0.294 C  
HETATM    5  C   UNL     1      -7.722  15.423  69.143  1.00  0.00    -0.207 C  
HETATM    6  C   UNL     1      -8.883  17.950  68.153  1.00  0.00    -0.265 C  
HETATM    7  C   UNL     1      -6.721  15.394  70.077  1.00  0.00    -0.076 C  
HETATM    8  H   UNL     1      -5.444  11.973  71.812  1.00  0.00     0.000 HD 
HETATM    9  C   UNL     1      -8.098  16.730  68.253  1.00  0.00    -0.202 C  
HETATM   10  O   UNL     1      -5.584  11.859  70.879  1.00  0.00    -0.253 OA 
HETATM   11  C   UNL     1      -7.841  16.340  66.941  1.00  0.00    -0.278 C  
HETATM   12  C   UNL     1      -9.177  15.779  66.292  1.00  0.00    -0.368 C  
HETATM   13  C   UNL     1      -7.209  17.241  66.082  1.00  0.00    -0.304 C  
HETATM   14  C   UNL     1      -9.297  14.300  66.521  1.00  0.00    -0.292 C  
HETATM   15  C   UNL     1      -9.555  14.063  68.025  1.00  0.00    -0.217 C  
HETATM   16  C   UNL     1      -6.070  14.210  70.707  1.00  0.00    -0.165 C  
HETATM   17  C   UNL     1      -8.181  14.064  68.626  1.00  0.00    -0.103 C  
HETATM   18  C   UNL     1      -7.414  12.977  68.363  1.00  0.00    -0.128 C  
HETATM   19  O   UNL     1      -5.167  12.400  67.917  1.00  0.00    -0.065 OA 
HETATM   20  C   UNL     1      -5.788  13.003  70.125  1.00  0.00    -0.153 C  
HETATM   21  C   UNL     1      -6.005  12.827  68.686  1.00  0.00    -0.065 C  
BRANCH   4  22
HETATM   22  O   UNL     1      -9.497  19.970  66.801  1.00  0.00    -0.359 OA 
HETATM   23  C   UNL     1     -10.764  19.820  66.130  1.00  0.00    -0.386 C  
ENDBRANCH   4  22
BRANCH   6  24
HETATM   24  O   UNL     1      -9.968  18.120  69.010  1.00  0.00    -0.358 OA 
HETATM   25  C   UNL     1     -10.984  17.077  68.974  1.00  0.00    -0.103 C  
ENDBRANCH   6  24
BRANCH  15  26
HETATM   26  N   UNL     1     -10.259  12.807  68.208  1.00  0.00    -0.240 N  
HETATM   27  H   UNL     1      -9.801  11.939  67.928  1.00  0.00     0.000 HD 
HETATM   28  C   UNL     1     -11.526  12.751  68.748  1.00  0.00    -0.304 C  
HETATM   29  O   UNL     1     -12.057  13.647  69.384  1.00  0.00    -0.326 OA 
HETATM   30  C   UNL     1     -12.219  11.441  68.471  1.00  0.00     0.028 C  
ENDBRANCH  15  26
ENDBRANCH   2   3
TORSDOF 4
ENDMDL
MODEL       38
REMARK 921   NORMALIZED FREE ENERGY PREDICTED BY IDOCK:   -4.92 KCAL/MOL
REMARK 922        TOTAL FREE ENERGY PREDICTED BY IDOCK:   -6.81 KCAL/MOL
REMARK 923 INTER-LIGAND FREE ENERGY PREDICTED BY IDOCK:   -6.05 KCAL/MOL
REMARK 924 INTRA-LIGAND FREE ENERGY PREDICTED BY IDOCK:   -0.75 KCAL/MOL
REMARK 927      BINDING AFFINITY PREDICTED BY RF-SCORE:    0.00 PKD
ROOT
HETATM    1  C   UNL     1     -10.634  15.279  69.225  1.00  0.00    -0.256 C  
HETATM    2  O   UNL     1     -11.627  14.597  68.470  1.00  0.00    -0.287 OA 
ENDROOT
BRANCH   2   3
HETATM    3  C   UNL     1     -11.231  13.472  67.797  1.00  0.00    -0.282 C  
HETATM    4  C   UNL     1     -11.570  13.267  66.454  1.00  0.00    -0.347 C  
HETATM    5  C   UNL     1     -10.036   9.400  66.683  1.00  0.00    -0.332 C  
HETATM    6  C   UNL     1     -11.272  11.943  65.834  1.00  0.00    -0.322 C  
HETATM    7  C   UNL     1     -10.778   8.335  67.120  1.00  0.00    -0.240 C  
HETATM    8  H   UNL     1      -9.176   4.691  67.825  1.00  0.00     0.000 HD 
HETATM    9  C   UNL     1     -10.588  10.927  66.619  1.00  0.00    -0.305 C  
HETATM   10  O   UNL     1      -8.619   5.386  68.156  1.00  0.00    -0.098 OA 
HETATM   11  C   UNL     1      -9.775  11.625  67.510  1.00  0.00    -0.185 C  
HETATM   12  C   UNL     1      -8.554  12.259  66.716  1.00  0.00    -0.149 C  
HETATM   13  C   UNL     1     -10.359  12.566  68.359  1.00  0.00    -0.237 C  
HETATM   14  C   UNL     1      -7.395  11.306  66.680  1.00  0.00    -0.131 C  
HETATM   15  C   UNL     1      -7.774  10.117  65.773  1.00  0.00    -0.136 C  
HETATM   16  C   UNL     1     -10.310   6.981  67.532  1.00  0.00    -0.288 C  
HETATM   17  C   UNL     1      -8.525   9.197  66.688  1.00  0.00    -0.126 C  
HETATM   18  C   UNL     1      -7.783   8.538  67.612  1.00  0.00    -0.102 C  
HETATM   19  O   UNL     1      -7.901   7.803  69.854  1.00  0.00    -0.100 OA 
HETATM   20  C   UNL     1      -9.157   6.662  68.197  1.00  0.00    -0.119 C  
HETATM   21  C   UNL     1      -8.298   7.735  68.708  1.00  0.00    -0.128 C  
BRANCH   4  22
HETATM   22  O   UNL     1     -12.123  14.297  65.695  1.00  0.00    -0.380 OA 
HETATM   23  C   UNL     1     -11.252  15.193  64.976  1.00  0.00    -0.409 C  
ENDBRANCH   4  22
BRANCH   6  24
HETATM   24  O   UNL     1     -11.410  11.749  64.461  1.00  0.00    -0.322 OA 
HETATM   25  C   UNL     1     -10.209  11.948  63.662  1.00  0.00    -0.438 C  
ENDBRANCH   6  24
BRANCH  15  26
HETATM   26  N   UNL     1      -6.571   9.519  65.222  1.00  0.00    -0.078 N  
HETATM   27  H   UNL     1      -5.710   9.550  65.767  1.00  0.00     0.000 HD 
HETATM   28  C   UNL     1      -6.558   8.911  63.984  1.00  0.00    -0.083 C  
HETATM   29  O   UNL     1      -7.549   8.545  63.372  1.00  0.00    -0.110 OA 
HETATM   30  C   UNL     1      -5.164   8.735  63.437  1.00  0.00    -0.063 C  
ENDBRANCH  15  26
ENDBRANCH   2   3
TORSDOF 4
ENDMDL
MODEL       39
REMARK 921   NORMALIZED FREE ENERGY PREDICTED BY IDOCK:   -4.91 KCAL/MOL
REMARK 922        TOTAL FREE ENERGY PREDICTED BY IDOCK:   -6.80 KCAL/MOL
REMARK 923 INTER-LIGAND FREE ENERGY PREDICTED BY IDOCK:   -6.15 KCAL/MOL
REMARK 924 INTRA-LIGAND FREE ENERGY PREDICTED BY IDOCK:   -0.64 KCAL/MOL
REMARK 927      BINDING AFFINITY PREDICTED BY RF-SCORE:    0.00 PKD
ROOT
HETATM    1  C   UNL     1      -5.267  14.460  72.715  1.00  0.00    -0.217 C  
HETATM    2  O   UNL     1      -5.860  13.484  71.867  1.00  0.00    -0.387 OA 
ENDROOT
BRANCH   2   3
HETATM    3  C   UNL     1      -6.125  13.861  70.578  1.00  0.00    -0.142 C  
HETATM    4  C   UNL     1      -5.802  13.036  69.494  1.00  0.00    -0.103 C  
HETATM    5  C   UNL     1      -6.809  16.118  66.877  1.00  0.00    -0.148 C  
HETATM    6  C   UNL     1      -5.943  13.581  68.112  1.00  0.00    -0.115 C  
HETATM    7  C   UNL     1      -5.922  17.093  66.508  1.00  0.00    -0.225 C  
HETATM    8  H   UNL     1      -7.011  20.355  64.383  1.00  0.00     0.000 HD 
HETATM    9  C   UNL     1      -6.465  14.925  67.926  1.00  0.00    -0.177 C  
HETATM   10  O   UNL     1      -7.644  20.155  65.063  1.00  0.00    -0.193 OA 
HETATM   11  C   UNL     1      -7.335  15.141  68.992  1.00  0.00    -0.155 C  
HETATM   12  C   UNL     1      -8.651  14.279  68.775  1.00  0.00    -0.101 C  
HETATM   13  C   UNL     1      -6.854  14.995  70.295  1.00  0.00     0.025 C  
HETATM   14  C   UNL     1      -9.677  15.064  68.009  1.00  0.00    -0.213 C  
HETATM   15  C   UNL     1      -9.171  15.236  66.561  1.00  0.00    -0.290 C  
HETATM   16  C   UNL     1      -6.196  18.395  65.835  1.00  0.00    -0.264 C  
HETATM   17  C   UNL     1      -8.280  16.439  66.635  1.00  0.00    -0.314 C  
HETATM   18  C   UNL     1      -8.902  17.634  66.793  1.00  0.00    -0.275 C  
HETATM   19  O   UNL     1      -8.622  19.699  67.905  1.00  0.00    -0.306 OA 
HETATM   20  C   UNL     1      -7.277  19.216  66.012  1.00  0.00    -0.274 C  
HETATM   21  C   UNL     1      -8.254  18.907  67.062  1.00  0.00    -0.270 C  
BRANCH   4  22
HETATM   22  O   UNL     1      -5.412  11.713  69.699  1.00  0.00    -0.061 OA 
HETATM   23  C   UNL     1      -6.412  10.716  69.987  1.00  0.00    -0.138 C  
ENDBRANCH   4  22
BRANCH   6  24
HETATM   24  O   UNL     1      -5.821  12.749  67.000  1.00  0.00    -0.324 OA 
HETATM   25  C   UNL     1      -6.979  11.923  66.688  1.00  0.00     0.087 C  
ENDBRANCH   6  24
BRANCH  15  26
HETATM   26  N   UNL     1     -10.301  15.416  65.667  1.00  0.00    -0.342 N  
HETATM   27  H   UNL     1     -10.718  16.343  65.579  1.00  0.00     0.000 HD 
HETATM   28  C   UNL     1     -10.828  14.373  64.935  1.00  0.00    -0.416 C  
HETATM   29  O   UNL     1     -10.262  13.313  64.718  1.00  0.00    -0.342 OA 
HETATM   30  C   UNL     1     -12.210  14.669  64.412  1.00  0.00    -0.473 C  
ENDBRANCH  15  26
ENDBRANCH   2   3
TORSDOF 4
ENDMDL
MODEL       40
REMARK 921   NORMALIZED FREE ENERGY PREDICTED BY IDOCK:   -4.90 KCAL/MOL
REMARK 922        TOTAL FREE ENERGY PREDICTED BY IDOCK:   -6.79 KCAL/MOL
REMARK 923 INTER-LIGAND FREE ENERGY PREDICTED BY IDOCK:   -6.64 KCAL/MOL
REMARK 924 INTRA-LIGAND FREE ENERGY PREDICTED BY IDOCK:   -0.14 KCAL/MOL
REMARK 927      BINDING AFFINITY PREDICTED BY RF-SCORE:    0.00 PKD
ROOT
HETATM    1  C   UNL     1     -13.755  15.651  72.491  1.00  0.00    -0.563 C  
HETATM    2  O   UNL     1     -14.064  14.909  71.317  1.00  0.00    -0.428 OA 
ENDROOT
BRANCH   2   3
HETATM    3  C   UNL     1     -13.008  14.451  70.576  1.00  0.00    -0.227 C  
HETATM    4  C   UNL     1     -12.604  13.112  70.630  1.00  0.00    -0.211 C  
HETATM    5  C   UNL     1      -9.250  14.057  68.346  1.00  0.00    -0.196 C  
HETATM    6  C   UNL     1     -11.336  12.718  69.948  1.00  0.00     0.040 C  
HETATM    7  C   UNL     1      -8.085  14.518  68.899  1.00  0.00    -0.124 C  
HETATM    8  H   UNL     1      -5.008  15.911  66.679  1.00  0.00     0.000 HD 
HETATM    9  C   UNL     1     -10.590  13.717  69.201  1.00  0.00    -0.099 C  
HETATM   10  O   UNL     1      -5.843  16.225  66.353  1.00  0.00    -0.083 OA 
HETATM   11  C   UNL     1     -11.541  14.617  68.723  1.00  0.00    -0.346 C  
HETATM   12  C   UNL     1     -12.370  13.930  67.555  1.00  0.00    -0.113 C  
HETATM   13  C   UNL     1     -12.391  15.245  69.635  1.00  0.00    -0.245 C  
HETATM   14  C   UNL     1     -11.720  14.183  66.226  1.00  0.00    -0.402 C  
HETATM   15  C   UNL     1     -10.395  13.393  66.177  1.00  0.00    -0.295 C  
HETATM   16  C   UNL     1      -6.925  15.165  68.222  1.00  0.00    -0.117 C  
HETATM   17  C   UNL     1      -9.412  14.304  66.850  1.00  0.00    -0.272 C  
HETATM   18  C   UNL     1      -9.038  15.402  66.149  1.00  0.00    -0.339 C  
HETATM   19  O   UNL     1      -8.508  17.680  66.479  1.00  0.00    -0.247 OA 
HETATM   20  C   UNL     1      -6.953  16.024  67.156  1.00  0.00    -0.207 C  
HETATM   21  C   UNL     1      -8.241  16.508  66.652  1.00  0.00    -0.271 C  
BRANCH   4  22
HETATM   22  O   UNL     1     -13.398  12.154  71.259  1.00  0.00    -0.100 OA 
HETATM   23  C   UNL     1     -12.771  11.052  71.944  1.00  0.00    -0.204 C  
ENDBRANCH   4  22
BRANCH   6  24
HETATM   24  O   UNL     1     -10.988  11.376  69.807  1.00  0.00    -0.181 OA 
HETATM   25  C   UNL     1     -11.313  10.761  68.528  1.00  0.00    -0.295 C  
ENDBRANCH   6  24
BRANCH  15  26
HETATM   26  N   UNL     1     -10.051  13.102  64.797  1.00  0.00    -0.555 N  
HETATM   27  H   UNL     1     -10.006  13.869  64.126  1.00  0.00     0.000 HD 
HETATM   28  C   UNL     1      -9.782  11.820  64.365  1.00  0.00    -0.143 C  
HETATM   29  O   UNL     1      -9.512  10.878  65.093  1.00  0.00    -0.204 OA 
HETATM   30  C   UNL     1      -9.858  11.683  62.866  1.00  0.00    -0.219 C  
ENDBRANCH  15  26
ENDBRANCH   2   3
TORSDOF 4
ENDMDL
MODEL       41
REMARK 921   NORMALIZED FREE ENERGY PREDICTED BY IDOCK:   -4.90 KCAL/MOL
REMARK 922        TOTAL FREE ENERGY PREDICTED BY IDOCK:   -6.78 KCAL/MOL
REMARK 923 INTER-LIGAND FREE ENERGY PREDICTED BY IDOCK:   -6.00 KCAL/MOL
REMARK 924 INTRA-LIGAND FREE ENERGY PREDICTED BY IDOCK:   -0.78 KCAL/MOL
REMARK 927      BINDING AFFINITY PREDICTED BY RF-SCORE:    0.00 PKD
ROOT
HETATM    1  C   UNL     1     -11.408   7.225  71.149  1.00  0.00    -0.267 C  
HETATM    2  O   UNL     1     -10.043   7.536  70.896  1.00  0.00    -0.192 OA 
ENDROOT
BRANCH   2   3
HETATM    3  C   UNL     1      -9.792   8.569  70.033  1.00  0.00    -0.179 C  
HETATM    4  C   UNL     1      -9.244   8.344  68.764  1.00  0.00    -0.143 C  
HETATM    5  C   UNL     1      -8.822  12.457  68.243  1.00  0.00    -0.174 C  
HETATM    6  C   UNL     1      -8.821   9.519  67.949  1.00  0.00    -0.119 C  
HETATM    7  C   UNL     1      -7.727  13.148  68.685  1.00  0.00    -0.073 C  
HETATM    8  H   UNL     1      -7.523  17.186  68.643  1.00  0.00     0.000 HD 
HETATM    9  C   UNL     1      -9.040  10.861  68.465  1.00  0.00    -0.173 C  
HETATM   10  O   UNL     1      -8.373  16.883  68.942  1.00  0.00    -0.249 OA 
HETATM   11  C   UNL     1     -10.180  10.775  69.261  1.00  0.00    -0.217 C  
HETATM   12  C   UNL     1     -11.455  10.603  68.330  1.00  0.00    -0.330 C  
HETATM   13  C   UNL     1     -10.201   9.854  70.310  1.00  0.00    -0.322 C  
HETATM   14  C   UNL     1     -12.027  11.942  67.963  1.00  0.00    -0.204 C  
HETATM   15  C   UNL     1     -11.037  12.646  67.012  1.00  0.00    -0.281 C  
HETATM   16  C   UNL     1      -7.556  14.622  68.840  1.00  0.00    -0.139 C  
HETATM   17  C   UNL     1     -10.056  13.299  67.939  1.00  0.00    -0.235 C  
HETATM   18  C   UNL     1     -10.508  14.380  68.622  1.00  0.00    -0.247 C  
HETATM   19  O   UNL     1     -10.321  15.401  70.744  1.00  0.00    -0.125 OA 
HETATM   20  C   UNL     1      -8.498  15.535  69.233  1.00  0.00    -0.265 C  
HETATM   21  C   UNL     1      -9.809  15.068  69.694  1.00  0.00    -0.081 C  
BRANCH   4  22
HETATM   22  O   UNL     1      -9.150   7.052  68.249  1.00  0.00    -0.128 OA 
HETATM   23  C   UNL     1     -10.260   6.500  67.514  1.00  0.00    -0.176 C  
ENDBRANCH   4  22
BRANCH   6  24
HETATM   24  O   UNL     1      -8.451   9.367  66.614  1.00  0.00    -0.124 OA 
HETATM   25  C   UNL     1      -9.463   9.713  65.625  1.00  0.00    -0.255 C  
ENDBRANCH   6  24
BRANCH  15  26
HETATM   26  N   UNL     1     -11.753  13.594  66.177  1.00  0.00    -0.347 N  
HETATM   27  H   UNL     1     -12.595  14.038  66.543  1.00  0.00     0.000 HD 
HETATM   28  C   UNL     1     -11.329  13.912  64.904  1.00  0.00    -0.347 C  
HETATM   29  O   UNL     1     -10.212  13.696  64.462  1.00  0.00    -0.402 OA 
HETATM   30  C   UNL     1     -12.406  14.571  64.080  1.00  0.00    -0.207 C  
ENDBRANCH  15  26
ENDBRANCH   2   3
TORSDOF 4
ENDMDL
MODEL       42
REMARK 921   NORMALIZED FREE ENERGY PREDICTED BY IDOCK:   -4.88 KCAL/MOL
REMARK 922        TOTAL FREE ENERGY PREDICTED BY IDOCK:   -6.75 KCAL/MOL
REMARK 923 INTER-LIGAND FREE ENERGY PREDICTED BY IDOCK:   -6.40 KCAL/MOL
REMARK 924 INTRA-LIGAND FREE ENERGY PREDICTED BY IDOCK:   -0.36 KCAL/MOL
REMARK 927      BINDING AFFINITY PREDICTED BY RF-SCORE:    0.00 PKD
ROOT
HETATM    1  C   UNL     1     -12.254  15.584  64.125  1.00  0.00    -0.004 C  
HETATM    2  O   UNL     1     -11.001  16.038  64.623  1.00  0.00    -0.590 OA 
ENDROOT
BRANCH   2   3
HETATM    3  C   UNL     1     -10.358  15.226  65.518  1.00  0.00    -0.383 C  
HETATM    4  C   UNL     1      -9.752  15.744  66.669  1.00  0.00    -0.249 C  
HETATM    5  C   UNL     1      -8.091  12.003  67.449  1.00  0.00    -0.168 C  
HETATM    6  C   UNL     1      -8.910  14.839  67.504  1.00  0.00    -0.190 C  
HETATM    7  C   UNL     1      -6.902  11.595  66.905  1.00  0.00    -0.129 C  
HETATM    8  H   UNL     1      -5.527   7.808  67.240  1.00  0.00     0.000 HD 
HETATM    9  C   UNL     1      -8.789  13.438  67.135  1.00  0.00    -0.225 C  
HETATM   10  O   UNL     1      -6.457   7.825  67.048  1.00  0.00    -0.052 OA 
HETATM   11  C   UNL     1      -9.992  13.107  66.514  1.00  0.00    -0.268 C  
HETATM   12  C   UNL     1     -11.140  13.029  67.607  1.00  0.00    -0.296 C  
HETATM   13  C   UNL     1     -10.405  13.854  65.409  1.00  0.00    -0.364 C  
HETATM   14  C   UNL     1     -11.249  11.637  68.161  1.00  0.00    -0.325 C  
HETATM   15  C   UNL     1      -9.990  11.354  69.008  1.00  0.00    -0.067 C  
HETATM   16  C   UNL     1      -6.330  10.220  66.845  1.00  0.00    -0.069 C  
HETATM   17  C   UNL     1      -8.980  10.893  68.000  1.00  0.00    -0.145 C  
HETATM   18  C   UNL     1      -9.175   9.657  67.481  1.00  0.00    -0.149 C  
HETATM   19  O   UNL     1      -8.954   8.482  65.443  1.00  0.00    -0.178 OA 
HETATM   20  C   UNL     1      -7.004   9.041  66.672  1.00  0.00    -0.081 C  
HETATM   21  C   UNL     1      -8.440   9.067  66.375  1.00  0.00    -0.120 C  
BRANCH   4  22
HETATM   22  O   UNL     1      -9.978  17.063  67.059  1.00  0.00    -0.270 OA 
HETATM   23  C   UNL     1      -9.123  18.107  66.553  1.00  0.00    -0.276 C  
ENDBRANCH   4  22
BRANCH   6  24
HETATM   24  O   UNL     1      -8.444  15.246  68.753  1.00  0.00    -0.157 OA 
HETATM   25  C   UNL     1      -7.010  15.481  68.856  1.00  0.00    -0.130 C  
ENDBRANCH   6  24
BRANCH  15  26
HETATM   26  N   UNL     1     -10.293  10.352  70.013  1.00  0.00    -0.429 N  
HETATM   27  H   UNL     1      -9.648   9.571  70.143  1.00  0.00     0.000 HD 
HETATM   28  C   UNL     1     -11.424  10.422  70.799  1.00  0.00    -0.332 C  
HETATM   29  O   UNL     1     -12.105  11.422  70.958  1.00  0.00    -0.318 OA 
HETATM   30  C   UNL     1     -11.755   9.109  71.461  1.00  0.00    -0.433 C  
ENDBRANCH  15  26
ENDBRANCH   2   3
TORSDOF 4
ENDMDL
MODEL       43
REMARK 921   NORMALIZED FREE ENERGY PREDICTED BY IDOCK:   -4.85 KCAL/MOL
REMARK 922        TOTAL FREE ENERGY PREDICTED BY IDOCK:   -6.72 KCAL/MOL
REMARK 923 INTER-LIGAND FREE ENERGY PREDICTED BY IDOCK:   -6.81 KCAL/MOL
REMARK 924 INTRA-LIGAND FREE ENERGY PREDICTED BY IDOCK:    0.09 KCAL/MOL
REMARK 927      BINDING AFFINITY PREDICTED BY RF-SCORE:    0.00 PKD
ROOT
HETATM    1  C   UNL     1      -9.559  19.505  65.892  1.00  0.00    -0.155 C  
HETATM    2  O   UNL     1     -10.572  18.579  66.263  1.00  0.00    -0.407 OA 
ENDROOT
BRANCH   2   3
HETATM    3  C   UNL     1     -10.161  17.411  66.848  1.00  0.00    -0.314 C  
HETATM    4  C   UNL     1      -9.392  17.412  68.018  1.00  0.00    -0.276 C  
HETATM    5  C   UNL     1      -8.857  13.297  67.643  1.00  0.00    -0.200 C  
HETATM    6  C   UNL     1      -8.819  16.122  68.500  1.00  0.00    -0.200 C  
HETATM    7  C   UNL     1      -7.857  12.749  66.886  1.00  0.00     0.073 C  
HETATM    8  H   UNL     1      -7.624   8.789  66.103  1.00  0.00     0.000 HD 
HETATM    9  C   UNL     1      -9.121  14.896  67.780  1.00  0.00    -0.185 C  
HETATM   10  O   UNL     1      -8.516   9.108  66.025  1.00  0.00    -0.122 OA 
HETATM   11  C   UNL     1     -10.388  15.084  67.232  1.00  0.00    -0.249 C  
HETATM   12  C   UNL     1     -11.473  15.023  68.391  1.00  0.00    -0.340 C  
HETATM   13  C   UNL     1     -10.606  16.186  66.404  1.00  0.00    -0.269 C  
HETATM   14  C   UNL     1     -11.960  13.616  68.585  1.00  0.00    -0.395 C  
HETATM   15  C   UNL     1     -10.808  12.784  69.189  1.00  0.00    -0.075 C  
HETATM   16  C   UNL     1      -7.709  11.340  66.419  1.00  0.00    -0.089 C  
HETATM   17  C   UNL     1     -10.009  12.361  67.992  1.00  0.00    -0.207 C  
HETATM   18  C   UNL     1     -10.572  11.413  67.203  1.00  0.00    -0.279 C  
HETATM   19  O   UNL     1     -10.770  10.824  64.924  1.00  0.00    -0.250 OA 
HETATM   20  C   UNL     1      -8.701  10.480  66.030  1.00  0.00    -0.164 C  
HETATM   21  C   UNL     1     -10.077  10.972  65.910  1.00  0.00    -0.249 C  
BRANCH   4  22
HETATM   22  O   UNL     1      -9.213  18.585  68.750  1.00  0.00    -0.319 OA 
HETATM   23  C   UNL     1      -7.924  19.231  68.750  1.00  0.00    -0.357 C  
ENDBRANCH   4  22
BRANCH   6  24
HETATM   24  O   UNL     1      -8.213  16.032  69.751  1.00  0.00     0.001 OA 
HETATM   25  C   UNL     1      -6.802  15.671  69.755  1.00  0.00    -0.134 C  
ENDBRANCH   6  24
BRANCH  15  26
HETATM   26  N   UNL     1     -11.353  11.666  69.937  1.00  0.00    -0.476 N  
HETATM   27  H   UNL     1     -11.002  10.727  69.746  1.00  0.00     0.000 HD 
HETATM   28  C   UNL     1     -12.329  11.833  70.895  1.00  0.00    -0.320 C  
HETATM   29  O   UNL     1     -12.618  12.895  71.423  1.00  0.00    -0.322 OA 
HETATM   30  C   UNL     1     -13.032  10.546  71.242  1.00  0.00    -0.532 C  
ENDBRANCH  15  26
ENDBRANCH   2   3
TORSDOF 4
ENDMDL
MODEL       44
REMARK 921   NORMALIZED FREE ENERGY PREDICTED BY IDOCK:   -4.81 KCAL/MOL
REMARK 922        TOTAL FREE ENERGY PREDICTED BY IDOCK:   -6.67 KCAL/MOL
REMARK 923 INTER-LIGAND FREE ENERGY PREDICTED BY IDOCK:   -5.95 KCAL/MOL
REMARK 924 INTRA-LIGAND FREE ENERGY PREDICTED BY IDOCK:   -0.72 KCAL/MOL
REMARK 927      BINDING AFFINITY PREDICTED BY RF-SCORE:    0.00 PKD
ROOT
HETATM    1  C   UNL     1     -13.687   9.037  72.413  1.00  0.00    -0.479 C  
HETATM    2  O   UNL     1     -12.513   8.417  72.924  1.00  0.00    -0.248 OA 
ENDROOT
BRANCH   2   3
HETATM    3  C   UNL     1     -11.518   8.136  72.025  1.00  0.00    -0.320 C  
HETATM    4  C   UNL     1     -10.424   7.334  72.374  1.00  0.00    -0.229 C  
HETATM    5  C   UNL     1      -8.614   8.267  68.739  1.00  0.00    -0.133 C  
HETATM    6  C   UNL     1      -9.287   7.220  71.416  1.00  0.00    -0.149 C  
HETATM    7  C   UNL     1      -7.845   9.386  68.562  1.00  0.00    -0.089 C  
HETATM    8  H   UNL     1      -6.502  10.570  64.937  1.00  0.00     0.000 HD 
HETATM    9  C   UNL     1      -9.369   7.892  70.129  1.00  0.00    -0.156 C  
HETATM   10  O   UNL     1      -7.407  10.285  64.897  1.00  0.00    -0.143 OA 
HETATM   11  C   UNL     1     -10.723   7.917  69.804  1.00  0.00    -0.233 C  
HETATM   12  C   UNL     1     -11.192   6.454  69.405  1.00  0.00    -0.459 C  
HETATM   13  C   UNL     1     -11.620   8.500  70.701  1.00  0.00    -0.214 C  
HETATM   14  C   UNL     1     -11.023   6.228  67.930  1.00  0.00    -0.421 C  
HETATM   15  C   UNL     1      -9.513   6.170  67.619  1.00  0.00    -0.111 C  
HETATM   16  C   UNL     1      -7.382  10.005  67.287  1.00  0.00    -0.090 C  
HETATM   17  C   UNL     1      -9.126   7.610  67.461  1.00  0.00    -0.131 C  
HETATM   18  C   UNL     1      -9.557   8.224  66.332  1.00  0.00    -0.300 C  
HETATM   19  O   UNL     1     -10.366  10.317  65.593  1.00  0.00    -0.243 OA 
HETATM   20  C   UNL     1      -8.062  10.083  66.101  1.00  0.00    -0.122 C  
HETATM   21  C   UNL     1      -9.459   9.644  66.039  1.00  0.00    -0.225 C  
BRANCH   4  22
HETATM   22  O   UNL     1     -10.424   6.612  73.566  1.00  0.00    -0.260 OA 
HETATM   23  C   UNL     1     -10.890   5.248  73.568  1.00  0.00    -0.304 C  
ENDBRANCH   4  22
BRANCH   6  24
HETATM   24  O   UNL     1      -8.268   6.293  71.623  1.00  0.00    -0.116 OA 
HETATM   25  C   UNL     1      -8.395   5.031  70.908  1.00  0.00    -0.112 C  
ENDBRANCH   6  24
BRANCH  15  26
HETATM   26  N   UNL     1      -9.291   5.384  66.419  1.00  0.00    -0.145 N  
HETATM   27  H   UNL     1      -9.086   5.866  65.544  1.00  0.00     0.000 HD 
HETATM   28  C   UNL     1      -9.350   4.006  66.426  1.00  0.00    -0.177 C  
HETATM   29  O   UNL     1      -9.289   3.307  67.425  1.00  0.00    -0.190 OA 
HETATM   30  C   UNL     1      -9.503   3.423  65.044  1.00  0.00    -0.154 C  
ENDBRANCH  15  26
ENDBRANCH   2   3
TORSDOF 4
ENDMDL
MODEL       45
REMARK 921   NORMALIZED FREE ENERGY PREDICTED BY IDOCK:   -4.80 KCAL/MOL
REMARK 922        TOTAL FREE ENERGY PREDICTED BY IDOCK:   -6.65 KCAL/MOL
REMARK 923 INTER-LIGAND FREE ENERGY PREDICTED BY IDOCK:   -5.97 KCAL/MOL
REMARK 924 INTRA-LIGAND FREE ENERGY PREDICTED BY IDOCK:   -0.68 KCAL/MOL
REMARK 927      BINDING AFFINITY PREDICTED BY RF-SCORE:    0.00 PKD
ROOT
HETATM    1  C   UNL     1      -9.214   7.884  72.559  1.00  0.00    -0.190 C  
HETATM    2  O   UNL     1      -9.624   7.588  71.229  1.00  0.00    -0.157 OA 
ENDROOT
BRANCH   2   3
HETATM    3  C   UNL     1      -9.365   8.536  70.275  1.00  0.00    -0.162 C  
HETATM    4  C   UNL     1      -8.626   8.233  69.125  1.00  0.00    -0.138 C  
HETATM    5  C   UNL     1      -8.572  12.276  68.122  1.00  0.00    -0.181 C  
HETATM    6  C   UNL     1      -8.219   9.347  68.221  1.00  0.00    -0.118 C  
HETATM    7  C   UNL     1      -7.627  13.144  68.602  1.00  0.00    -0.089 C  
HETATM    8  H   UNL     1      -7.846  17.143  68.051  1.00  0.00     0.000 HD 
HETATM    9  C   UNL     1      -8.648  10.703  68.523  1.00  0.00    -0.137 C  
HETATM   10  O   UNL     1      -8.692  16.776  68.279  1.00  0.00    -0.212 OA 
HETATM   11  C   UNL     1      -9.873  10.573  69.175  1.00  0.00    -0.233 C  
HETATM   12  C   UNL     1     -10.981  10.138  68.124  1.00  0.00    -0.313 C  
HETATM   13  C   UNL     1      -9.942   9.785  70.326  1.00  0.00    -0.309 C  
HETATM   14  C   UNL     1     -11.634  11.345  67.515  1.00  0.00    -0.298 C  
HETATM   15  C   UNL     1     -10.601  12.049  66.609  1.00  0.00    -0.232 C  
HETATM   16  C   UNL     1      -7.636  14.634  68.580  1.00  0.00    -0.129 C  
HETATM   17  C   UNL     1      -9.833  12.921  67.557  1.00  0.00    -0.208 C  
HETATM   18  C   UNL     1     -10.487  14.010  68.029  1.00  0.00    -0.241 C  
HETATM   19  O   UNL     1     -10.705  15.288  70.004  1.00  0.00    -0.266 OA 
HETATM   20  C   UNL     1      -8.714  15.466  68.728  1.00  0.00    -0.195 C  
HETATM   21  C   UNL     1     -10.020  14.899  69.080  1.00  0.00    -0.235 C  
BRANCH   4  22
HETATM   22  O   UNL     1      -8.325   6.910  68.802  1.00  0.00    -0.120 OA 
HETATM   23  C   UNL     1      -7.069   6.346  69.225  1.00  0.00    -0.080 C  
ENDBRANCH   4  22
BRANCH   6  24
HETATM   24  O   UNL     1      -7.654   9.086  66.974  1.00  0.00    -0.090 OA 
HETATM   25  C   UNL     1      -6.359   9.700  66.717  1.00  0.00    -0.066 C  
ENDBRANCH   6  24
BRANCH  15  26
HETATM   26  N   UNL     1     -11.289  12.798  65.574  1.00  0.00    -0.301 N  
HETATM   27  H   UNL     1     -11.997  13.481  65.845  1.00  0.00     0.000 HD 
HETATM   28  C   UNL     1     -11.017  12.614  64.234  1.00  0.00    -0.366 C  
HETATM   29  O   UNL     1     -10.019  12.069  63.791  1.00  0.00    -0.349 OA 
HETATM   30  C   UNL     1     -12.099  13.163  63.340  1.00  0.00    -0.558 C  
ENDBRANCH  15  26
ENDBRANCH   2   3
TORSDOF 4
ENDMDL
MODEL       46
REMARK 921   NORMALIZED FREE ENERGY PREDICTED BY IDOCK:   -4.75 KCAL/MOL
REMARK 922        TOTAL FREE ENERGY PREDICTED BY IDOCK:   -6.60 KCAL/MOL
REMARK 923 INTER-LIGAND FREE ENERGY PREDICTED BY IDOCK:   -5.93 KCAL/MOL
REMARK 924 INTRA-LIGAND FREE ENERGY PREDICTED BY IDOCK:   -0.67 KCAL/MOL
REMARK 927      BINDING AFFINITY PREDICTED BY RF-SCORE:    0.00 PKD
ROOT
HETATM    1  C   UNL     1     -12.324  12.977  63.380  1.00  0.00    -0.394 C  
HETATM    2  O   UNL     1     -11.688  13.771  64.374  1.00  0.00    -0.382 OA 
ENDROOT
BRANCH   2   3
HETATM    3  C   UNL     1     -10.895  13.115  65.278  1.00  0.00    -0.297 C  
HETATM    4  C   UNL     1     -10.244  13.801  66.311  1.00  0.00    -0.297 C  
HETATM    5  C   UNL     1      -8.172  10.320  67.284  1.00  0.00    -0.121 C  
HETATM    6  C   UNL     1      -9.250  13.064  67.144  1.00  0.00    -0.226 C  
HETATM    7  C   UNL     1      -7.002   9.961  66.671  1.00  0.00    -0.086 C  
HETATM    8  H   UNL     1      -5.249   6.362  67.236  1.00  0.00     0.000 HD 
HETATM    9  C   UNL     1      -9.029  11.648  66.903  1.00  0.00    -0.191 C  
HETATM   10  O   UNL     1      -6.189   6.279  67.133  1.00  0.00    -0.030 OA 
HETATM   11  C   UNL     1     -10.244  11.152  66.434  1.00  0.00    -0.279 C  
HETATM   12  C   UNL     1     -11.281  11.090  67.635  1.00  0.00    -0.373 C  
HETATM   13  C   UNL     1     -10.821  11.741  65.307  1.00  0.00    -0.343 C  
HETATM   14  C   UNL     1     -11.207   9.760  68.328  1.00  0.00    -0.074 C  
HETATM   15  C   UNL     1      -9.859   9.677  69.074  1.00  0.00    -0.182 C  
HETATM   16  C   UNL     1      -6.308   8.641  66.689  1.00  0.00    -0.059 C  
HETATM   17  C   UNL     1      -8.900   9.201  68.023  1.00  0.00    -0.129 C  
HETATM   18  C   UNL     1      -9.022   7.905  67.646  1.00  0.00    -0.133 C  
HETATM   19  O   UNL     1      -8.867   6.546  65.720  1.00  0.00    -0.148 OA 
HETATM   20  C   UNL     1      -6.880   7.397  66.696  1.00  0.00    -0.062 C  
HETATM   21  C   UNL     1      -8.332   7.268  66.537  1.00  0.00    -0.121 C  
BRANCH   4  22
HETATM   22  O   UNL     1     -10.560  15.130  66.591  1.00  0.00    -0.292 OA 
HETATM   23  C   UNL     1      -9.712  16.181  66.087  1.00  0.00    -0.323 C  
ENDBRANCH   4  22
BRANCH   6  24
HETATM   24  O   UNL     1      -8.718  13.639  68.297  1.00  0.00    -0.167 OA 
HETATM   25  C   UNL     1      -7.354  14.137  68.194  1.00  0.00    -0.130 C  
ENDBRANCH   6  24
BRANCH  15  26
HETATM   26  N   UNL     1      -9.976   8.763  70.195  1.00  0.00    -0.180 N  
HETATM   27  H   UNL     1     -10.700   8.044  70.174  1.00  0.00     0.000 HD 
HETATM   28  C   UNL     1      -9.139   8.836  71.289  1.00  0.00    -0.234 C  
HETATM   29  O   UNL     1      -8.073   9.429  71.317  1.00  0.00    -0.319 OA 
HETATM   30  C   UNL     1      -9.680   8.096  72.486  1.00  0.00    -0.357 C  
ENDBRANCH  15  26
ENDBRANCH   2   3
TORSDOF 4
ENDMDL
MODEL       47
REMARK 921   NORMALIZED FREE ENERGY PREDICTED BY IDOCK:   -4.71 KCAL/MOL
REMARK 922        TOTAL FREE ENERGY PREDICTED BY IDOCK:   -6.54 KCAL/MOL
REMARK 923 INTER-LIGAND FREE ENERGY PREDICTED BY IDOCK:   -6.40 KCAL/MOL
REMARK 924 INTRA-LIGAND FREE ENERGY PREDICTED BY IDOCK:   -0.14 KCAL/MOL
REMARK 927      BINDING AFFINITY PREDICTED BY RF-SCORE:    0.00 PKD
ROOT
HETATM    1  C   UNL     1     -13.567   9.341  71.783  1.00  0.00    -0.398 C  
HETATM    2  O   UNL     1     -12.151   9.367  71.916  1.00  0.00    -0.367 OA 
ENDROOT
BRANCH   2   3
HETATM    3  C   UNL     1     -11.431   9.753  70.817  1.00  0.00    -0.342 C  
HETATM    4  C   UNL     1     -10.896   8.814  69.927  1.00  0.00    -0.206 C  
HETATM    5  C   UNL     1      -8.845  11.869  67.973  1.00  0.00    -0.177 C  
HETATM    6  C   UNL     1      -9.968   9.287  68.859  1.00  0.00    -0.181 C  
HETATM    7  C   UNL     1      -7.614  12.310  68.379  1.00  0.00    -0.128 C  
HETATM    8  H   UNL     1      -5.839  15.590  66.820  1.00  0.00     0.000 HD 
HETATM    9  C   UNL     1      -9.692  10.709  68.734  1.00  0.00    -0.193 C  
HETATM   10  O   UNL     1      -6.764  15.738  66.980  1.00  0.00    -0.265 OA 
HETATM   11  C   UNL     1     -10.846  11.356  69.172  1.00  0.00    -0.260 C  
HETATM   12  C   UNL     1     -11.989  11.178  68.085  1.00  0.00    -0.131 C  
HETATM   13  C   UNL     1     -11.328  11.077  70.452  1.00  0.00    -0.222 C  
HETATM   14  C   UNL     1     -11.951  12.302  67.089  1.00  0.00    -0.207 C  
HETATM   15  C   UNL     1     -10.677  12.146  66.233  1.00  0.00    -0.261 C  
HETATM   16  C   UNL     1      -6.895  13.556  67.986  1.00  0.00    -0.136 C  
HETATM   17  C   UNL     1      -9.613  12.812  67.053  1.00  0.00    -0.229 C  
HETATM   18  C   UNL     1      -9.668  14.166  67.116  1.00  0.00    -0.248 C  
HETATM   19  O   UNL     1      -9.302  15.933  68.640  1.00  0.00    -0.195 OA 
HETATM   20  C   UNL     1      -7.436  14.788  67.730  1.00  0.00    -0.163 C  
HETATM   21  C   UNL     1      -8.863  15.015  67.977  1.00  0.00    -0.165 C  
BRANCH   4  22
HETATM   22  O   UNL     1     -11.267   7.472  70.001  1.00  0.00    -0.243 OA 
HETATM   23  C   UNL     1     -10.410   6.537  70.684  1.00  0.00    -0.201 C  
ENDBRANCH   4  22
BRANCH   6  24
HETATM   24  O   UNL     1      -9.560   8.433  67.836  1.00  0.00    -0.150 OA 
HETATM   25  C   UNL     1      -8.207   7.906  67.943  1.00  0.00    -0.129 C  
ENDBRANCH   6  24
BRANCH  15  26
HETATM   26  N   UNL     1     -10.878  12.772  64.939  1.00  0.00    -0.287 N  
HETATM   27  H   UNL     1     -10.085  13.219  64.478  1.00  0.00     0.000 HD 
HETATM   28  C   UNL     1     -12.107  12.782  64.314  1.00  0.00    -0.425 C  
HETATM   29  O   UNL     1     -13.043  12.051  64.597  1.00  0.00    -0.533 OA 
HETATM   30  C   UNL     1     -12.194  13.812  63.218  1.00  0.00     0.039 C  
ENDBRANCH  15  26
ENDBRANCH   2   3
TORSDOF 4
ENDMDL
MODEL       48
REMARK 921   NORMALIZED FREE ENERGY PREDICTED BY IDOCK:   -4.64 KCAL/MOL
REMARK 922        TOTAL FREE ENERGY PREDICTED BY IDOCK:   -6.46 KCAL/MOL
REMARK 923 INTER-LIGAND FREE ENERGY PREDICTED BY IDOCK:   -6.99 KCAL/MOL
REMARK 924 INTRA-LIGAND FREE ENERGY PREDICTED BY IDOCK:    0.53 KCAL/MOL
REMARK 927      BINDING AFFINITY PREDICTED BY RF-SCORE:    0.00 PKD
ROOT
HETATM    1  C   UNL     1     -13.490  13.239  72.225  1.00  0.00    -0.582 C  
HETATM    2  O   UNL     1     -13.505  11.840  71.968  1.00  0.00    -0.422 OA 
ENDROOT
BRANCH   2   3
HETATM    3  C   UNL     1     -12.539  11.353  71.129  1.00  0.00    -0.386 C  
HETATM    4  C   UNL     1     -12.343   9.976  70.963  1.00  0.00    -0.360 C  
HETATM    5  C   UNL     1      -8.910  10.758  68.736  1.00  0.00    -0.163 C  
HETATM    6  C   UNL     1     -11.158   9.510  70.185  1.00  0.00    -0.255 C  
HETATM    7  C   UNL     1      -7.683  10.949  69.312  1.00  0.00    -0.100 C  
HETATM    8  H   UNL     1      -4.454  12.200  67.226  1.00  0.00     0.000 HD 
HETATM    9  C   UNL     1     -10.277  10.492  69.574  1.00  0.00    -0.230 C  
HETATM   10  O   UNL     1      -5.235  12.682  66.981  1.00  0.00    -0.334 OA 
HETATM   11  C   UNL     1     -11.085  11.586  69.273  1.00  0.00    -0.305 C  
HETATM   12  C   UNL     1     -12.022  11.222  68.044  1.00  0.00    -0.132 C  
HETATM   13  C   UNL     1     -11.820  12.183  70.300  1.00  0.00    -0.339 C  
HETATM   14  C   UNL     1     -11.356  11.581  66.747  1.00  0.00    -0.309 C  
HETATM   15  C   UNL     1     -10.167  10.621  66.531  1.00  0.00    -0.233 C  
HETATM   16  C   UNL     1      -6.445  11.514  68.702  1.00  0.00    -0.057 C  
HETATM   17  C   UNL     1      -9.050  11.259  67.302  1.00  0.00    -0.156 C  
HETATM   18  C   UNL     1      -8.520  12.385  66.764  1.00  0.00    -0.095 C  
HETATM   19  O   UNL     1      -7.646  14.479  67.421  1.00  0.00    -0.183 OA 
HETATM   20  C   UNL     1      -6.354  12.524  67.782  1.00  0.00    -0.121 C  
HETATM   21  C   UNL     1      -7.559  13.268  67.404  1.00  0.00    -0.129 C  
BRANCH   4  22
HETATM   22  O   UNL     1     -13.267   9.061  71.465  1.00  0.00    -0.334 OA 
HETATM   23  C   UNL     1     -12.914   8.251  72.604  1.00  0.00    -0.030 C  
ENDBRANCH   4  22
BRANCH   6  24
HETATM   24  O   UNL     1     -11.019   8.171  69.828  1.00  0.00    -0.225 OA 
HETATM   25  C   UNL     1      -9.925   7.449  70.461  1.00  0.00    -0.184 C  
ENDBRANCH   6  24
BRANCH  15  26
HETATM   26  N   UNL     1      -9.887  10.502  65.112  1.00  0.00    -0.273 N  
HETATM   27  H   UNL     1      -9.230   9.788  64.796  1.00  0.00     0.000 HD 
HETATM   28  C   UNL     1     -10.481  11.323  64.177  1.00  0.00    -0.369 C  
HETATM   29  O   UNL     1     -11.479  11.998  64.372  1.00  0.00    -0.334 OA 
HETATM   30  C   UNL     1      -9.761  11.315  62.853  1.00  0.00    -0.351 C  
ENDBRANCH  15  26
ENDBRANCH   2   3
TORSDOF 4
ENDMDL
MODEL       49
REMARK 921   NORMALIZED FREE ENERGY PREDICTED BY IDOCK:   -4.61 KCAL/MOL
REMARK 922        TOTAL FREE ENERGY PREDICTED BY IDOCK:   -6.43 KCAL/MOL
REMARK 923 INTER-LIGAND FREE ENERGY PREDICTED BY IDOCK:   -5.76 KCAL/MOL
REMARK 924 INTRA-LIGAND FREE ENERGY PREDICTED BY IDOCK:   -0.67 KCAL/MOL
REMARK 927      BINDING AFFINITY PREDICTED BY RF-SCORE:    0.00 PKD
ROOT
HETATM    1  C   UNL     1      -9.371  10.558  62.342  1.00  0.00    -0.249 C  
HETATM    2  O   UNL     1     -10.481  11.011  63.107  1.00  0.00    -0.299 OA 
ENDROOT
BRANCH   2   3
HETATM    3  C   UNL     1     -10.239  11.346  64.413  1.00  0.00    -0.308 C  
HETATM    4  C   UNL     1     -10.140  12.683  64.817  1.00  0.00    -0.217 C  
HETATM    5  C   UNL     1      -8.902  11.424  68.591  1.00  0.00    -0.126 C  
HETATM    6  C   UNL     1      -9.691  12.978  66.209  1.00  0.00    -0.263 C  
HETATM    7  C   UNL     1      -7.593  11.150  68.885  1.00  0.00    -0.133 C  
HETATM    8  H   UNL     1      -6.442   9.454  72.370  1.00  0.00     0.000 HD 
HETATM    9  C   UNL     1      -9.427  11.877  67.121  1.00  0.00    -0.180 C  
HETATM   10  O   UNL     1      -7.220   9.037  72.021  1.00  0.00    -0.315 OA 
HETATM   11  C   UNL     1     -10.285  10.851  66.729  1.00  0.00    -0.277 C  
HETATM   12  C   UNL     1     -11.771  11.227  67.141  1.00  0.00     0.035 C  
HETATM   13  C   UNL     1     -10.233  10.397  65.410  1.00  0.00    -0.329 C  
HETATM   14  C   UNL     1     -12.082  10.722  68.520  1.00  0.00     0.097 C  
HETATM   15  C   UNL     1     -11.259  11.544  69.534  1.00  0.00    -0.236 C  
HETATM   16  C   UNL     1      -7.036  10.427  70.064  1.00  0.00    -0.159 C  
HETATM   17  C   UNL     1      -9.930  10.849  69.559  1.00  0.00    -0.010 C  
HETATM   18  C   UNL     1      -9.898   9.644  70.179  1.00  0.00    -0.310 C  
HETATM   19  O   UNL     1      -8.884   7.520  69.979  1.00  0.00    -0.142 OA 
HETATM   20  C   UNL     1      -7.581   9.356  70.722  1.00  0.00    -0.114 C  
HETATM   21  C   UNL     1      -8.783   8.713  70.183  1.00  0.00    -0.143 C  
BRANCH   4  22
HETATM   22  O   UNL     1     -10.508  13.715  63.956  1.00  0.00    -0.230 OA 
HETATM   23  C   UNL     1     -11.860  14.213  63.984  1.00  0.00    -0.271 C  
ENDBRANCH   4  22
BRANCH   6  24
HETATM   24  O   UNL     1      -9.758  14.272  66.722  1.00  0.00    -0.256 OA 
HETATM   25  C   UNL     1      -8.562  15.087  66.562  1.00  0.00    -0.144 C  
ENDBRANCH   6  24
BRANCH  15  26
HETATM   26  N   UNL     1     -11.928  11.544  70.822  1.00  0.00    -0.419 N  
HETATM   27  H   UNL     1     -11.914  10.695  71.386  1.00  0.00     0.000 HD 
HETATM   28  C   UNL     1     -12.584  12.657  71.305  1.00  0.00    -0.240 C  
HETATM   29  O   UNL     1     -12.432  13.795  70.890  1.00  0.00    -0.343 OA 
HETATM   30  C   UNL     1     -13.536  12.331  72.427  1.00  0.00    -0.174 C  
ENDBRANCH  15  26
ENDBRANCH   2   3
TORSDOF 4
ENDMDL
MODEL       50
REMARK 921   NORMALIZED FREE ENERGY PREDICTED BY IDOCK:   -4.60 KCAL/MOL
REMARK 922        TOTAL FREE ENERGY PREDICTED BY IDOCK:   -6.41 KCAL/MOL
REMARK 923 INTER-LIGAND FREE ENERGY PREDICTED BY IDOCK:   -6.20 KCAL/MOL
REMARK 924 INTRA-LIGAND FREE ENERGY PREDICTED BY IDOCK:   -0.21 KCAL/MOL
REMARK 927      BINDING AFFINITY PREDICTED BY RF-SCORE:    0.00 PKD
ROOT
HETATM    1  C   UNL     1      -9.129   7.645  73.881  1.00  0.00    -0.261 C  
HETATM    2  O   UNL     1     -10.317   7.835  73.122  1.00  0.00    -0.316 OA 
ENDROOT
BRANCH   2   3
HETATM    3  C   UNL     1     -10.165   8.072  71.782  1.00  0.00    -0.202 C  
HETATM    4  C   UNL     1     -10.848   7.312  70.825  1.00  0.00    -0.241 C  
HETATM    5  C   UNL     1      -8.634   9.158  67.816  1.00  0.00    -0.121 C  
HETATM    6  C   UNL     1     -10.499   7.493  69.385  1.00  0.00    -0.222 C  
HETATM    7  C   UNL     1      -7.405   8.705  67.421  1.00  0.00    -0.089 C  
HETATM    8  H   UNL     1      -5.030  10.760  64.874  1.00  0.00     0.000 HD 
HETATM    9  C   UNL     1      -9.508   8.489  69.013  1.00  0.00    -0.150 C  
HETATM   10  O   UNL     1      -5.432  11.334  65.515  1.00  0.00    -0.210 OA 
HETATM   11  C   UNL     1      -9.607   9.495  69.972  1.00  0.00    -0.272 C  
HETATM   12  C   UNL     1     -10.949  10.310  69.737  1.00  0.00    -0.338 C  
HETATM   13  C   UNL     1      -9.457   9.158  71.318  1.00  0.00    -0.313 C  
HETATM   14  C   UNL     1     -10.711  11.464  68.807  1.00  0.00    -0.240 C  
HETATM   15  C   UNL     1     -10.436  10.900  67.397  1.00  0.00    -0.224 C  
HETATM   16  C   UNL     1      -6.379   9.401  66.591  1.00  0.00    -0.066 C  
HETATM   17  C   UNL     1      -8.969  10.591  67.417  1.00  0.00    -0.139 C  
HETATM   18  C   UNL     1      -8.134  11.659  67.392  1.00  0.00    -0.153 C  
HETATM   19  O   UNL     1      -6.074  12.380  68.295  1.00  0.00    -0.050 OA 
HETATM   20  C   UNL     1      -6.073  10.736  66.587  1.00  0.00    -0.090 C  
HETATM   21  C   UNL     1      -6.693  11.622  67.577  1.00  0.00    -0.096 C  
BRANCH   4  22
HETATM   22  O   UNL     1     -11.873   6.446  71.203  1.00  0.00    -0.335 OA 
HETATM   23  C   UNL     1     -13.197   6.971  71.427  1.00  0.00    -0.283 C  
ENDBRANCH   4  22
BRANCH   6  24
HETATM   24  O   UNL     1     -11.273   6.910  68.384  1.00  0.00    -0.113 OA 
HETATM   25  C   UNL     1     -10.758   7.027  67.027  1.00  0.00    -0.353 C  
ENDBRANCH   6  24
BRANCH  15  26
HETATM   26  N   UNL     1     -10.799  11.888  66.397  1.00  0.00    -0.267 N  
HETATM   27  H   UNL     1     -11.003  12.842  66.696  1.00  0.00     0.000 HD 
HETATM   28  C   UNL     1     -10.876  11.577  65.056  1.00  0.00    -0.274 C  
HETATM   29  O   UNL     1     -10.383  10.588  64.537  1.00  0.00    -0.348 OA 
HETATM   30  C   UNL     1     -11.650  12.600  64.264  1.00  0.00    -0.435 C  
ENDBRANCH  15  26
ENDBRANCH   2   3
TORSDOF 4
ENDMDL
MODEL       51
REMARK 921   NORMALIZED FREE ENERGY PREDICTED BY IDOCK:   -4.59 KCAL/MOL
REMARK 922        TOTAL FREE ENERGY PREDICTED BY IDOCK:   -6.40 KCAL/MOL
REMARK 923 INTER-LIGAND FREE ENERGY PREDICTED BY IDOCK:   -5.67 KCAL/MOL
REMARK 924 INTRA-LIGAND FREE ENERGY PREDICTED BY IDOCK:   -0.73 KCAL/MOL
REMARK 927      BINDING AFFINITY PREDICTED BY RF-SCORE:    0.00 PKD
ROOT
HETATM    1  C   UNL     1     -14.112   8.675  71.782  1.00  0.00    -0.429 C  
HETATM    2  O   UNL     1     -12.978   9.289  72.381  1.00  0.00    -0.403 OA 
ENDROOT
BRANCH   2   3
HETATM    3  C   UNL     1     -11.777   9.128  71.744  1.00  0.00    -0.386 C  
HETATM    4  C   UNL     1     -10.863   8.144  72.143  1.00  0.00    -0.303 C  
HETATM    5  C   UNL     1      -8.039   9.738  69.528  1.00  0.00    -0.141 C  
HETATM    6  C   UNL     1      -9.501   8.142  71.535  1.00  0.00    -0.171 C  
HETATM    7  C   UNL     1      -7.208  10.769  69.876  1.00  0.00    -0.059 C  
HETATM    8  H   UNL     1      -4.823  12.656  67.213  1.00  0.00     0.000 HD 
HETATM    9  C   UNL     1      -9.179   9.118  70.507  1.00  0.00    -0.286 C  
HETATM   10  O   UNL     1      -5.688  12.496  66.854  1.00  0.00    -0.319 OA 
HETATM   11  C   UNL     1     -10.378   9.379  69.847  1.00  0.00    -0.252 C  
HETATM   12  C   UNL     1     -10.767   8.125  68.954  1.00  0.00    -0.090 C  
HETATM   13  C   UNL     1     -11.474   9.819  70.592  1.00  0.00    -0.397 C  
HETATM   14  C   UNL     1     -10.186   8.256  67.576  1.00  0.00    -0.309 C  
HETATM   15  C   UNL     1      -8.653   8.103  67.681  1.00  0.00    -0.130 C  
HETATM   16  C   UNL     1      -6.371  11.630  68.992  1.00  0.00    -0.072 C  
HETATM   17  C   UNL     1      -8.182   9.483  68.031  1.00  0.00    -0.114 C  
HETATM   18  C   UNL     1      -8.241  10.404  67.038  1.00  0.00    -0.123 C  
HETATM   19  O   UNL     1      -8.718  12.694  66.705  1.00  0.00    -0.179 OA 
HETATM   20  C   UNL     1      -6.672  12.078  67.734  1.00  0.00    -0.096 C  
HETATM   21  C   UNL     1      -8.007  11.831  67.180  1.00  0.00    -0.166 C  
BRANCH   4  22
HETATM   22  O   UNL     1     -11.238   7.152  73.048  1.00  0.00    -0.294 OA 
HETATM   23  C   UNL     1     -11.694   5.878  72.554  1.00  0.00    -0.236 C  
ENDBRANCH   4  22
BRANCH   6  24
HETATM   24  O   UNL     1      -8.624   7.081  71.750  1.00  0.00    -0.115 OA 
HETATM   25  C   UNL     1      -8.421   6.179  70.625  1.00  0.00    -0.134 C  
ENDBRANCH   6  24
BRANCH  15  26
HETATM   26  N   UNL     1      -8.123   7.621  66.419  1.00  0.00    -0.109 N  
HETATM   27  H   UNL     1      -7.669   8.282  65.789  1.00  0.00     0.000 HD 
HETATM   28  C   UNL     1      -8.213   6.296  66.047  1.00  0.00    -0.125 C  
HETATM   29  O   UNL     1      -8.451   5.370  66.805  1.00  0.00    -0.108 OA 
HETATM   30  C   UNL     1      -7.986   6.090  64.571  1.00  0.00    -0.127 C  
ENDBRANCH  15  26
ENDBRANCH   2   3
TORSDOF 4
ENDMDL
MODEL       52
REMARK 921   NORMALIZED FREE ENERGY PREDICTED BY IDOCK:   -4.55 KCAL/MOL
REMARK 922        TOTAL FREE ENERGY PREDICTED BY IDOCK:   -6.35 KCAL/MOL
REMARK 923 INTER-LIGAND FREE ENERGY PREDICTED BY IDOCK:   -5.66 KCAL/MOL
REMARK 924 INTRA-LIGAND FREE ENERGY PREDICTED BY IDOCK:   -0.69 KCAL/MOL
REMARK 927      BINDING AFFINITY PREDICTED BY RF-SCORE:    0.00 PKD
ROOT
HETATM    1  C   UNL     1     -12.329  12.525  64.464  1.00  0.00    -0.467 C  
HETATM    2  O   UNL     1     -10.942  12.558  64.778  1.00  0.00    -0.284 OA 
ENDROOT
BRANCH   2   3
HETATM    3  C   UNL     1     -10.441  11.498  65.485  1.00  0.00    -0.275 C  
HETATM    4  C   UNL     1      -9.444  10.671  64.954  1.00  0.00    -0.243 C  
HETATM    5  C   UNL     1      -9.892   8.089  68.193  1.00  0.00    -0.195 C  
HETATM    6  C   UNL     1      -9.076   9.428  65.692  1.00  0.00    -0.207 C  
HETATM    7  C   UNL     1     -10.826   7.088  68.216  1.00  0.00    -0.198 C  
HETATM    8  H   UNL     1     -11.615   4.906  71.526  1.00  0.00     0.000 HD 
HETATM    9  C   UNL     1      -9.716   9.140  66.965  1.00  0.00    -0.245 C  
HETATM   10  O   UNL     1     -11.520   5.828  71.732  1.00  0.00    -0.236 OA 
HETATM   11  C   UNL     1     -10.006  10.381  67.529  1.00  0.00    -0.215 C  
HETATM   12  C   UNL     1      -8.658  11.060  68.022  1.00  0.00    -0.134 C  
HETATM   13  C   UNL     1     -10.783  11.285  66.802  1.00  0.00    -0.323 C  
HETATM   14  C   UNL     1      -8.364  10.680  69.444  1.00  0.00    -0.073 C  
HETATM   15  C   UNL     1      -7.992   9.183  69.478  1.00  0.00    -0.098 C  
HETATM   16  C   UNL     1     -11.305   6.288  69.380  1.00  0.00    -0.448 C  
HETATM   17  C   UNL     1      -9.319   8.488  69.549  1.00  0.00    -0.161 C  
HETATM   18  C   UNL     1      -9.977   8.576  70.731  1.00  0.00    -0.230 C  
HETATM   19  O   UNL     1     -12.170   8.794  71.581  1.00  0.00    -0.302 OA 
HETATM   20  C   UNL     1     -11.487   6.715  70.668  1.00  0.00    -0.364 C  
HETATM   21  C   UNL     1     -11.339   8.138  70.986  1.00  0.00    -0.269 C  
BRANCH   4  22
HETATM   22  O   UNL     1      -8.768  11.031  63.789  1.00  0.00    -0.072 OA 
HETATM   23  C   UNL     1      -9.116  10.396  62.543  1.00  0.00    -0.292 C  
ENDBRANCH   4  22
BRANCH   6  24
HETATM   24  O   UNL     1      -7.966   8.675  65.314  1.00  0.00    -0.101 OA 
HETATM   25  C   UNL     1      -6.721   8.976  66.005  1.00  0.00    -0.076 C  
ENDBRANCH   6  24
BRANCH  15  26
HETATM   26  N   UNL     1      -7.145   8.916  70.627  1.00  0.00    -0.062 N  
HETATM   27  H   UNL     1      -7.300   9.441  71.488  1.00  0.00     0.000 HD 
HETATM   28  C   UNL     1      -6.138   7.974  70.590  1.00  0.00    -0.033 C  
HETATM   29  O   UNL     1      -6.036   7.089  69.756  1.00  0.00    -0.026 OA 
HETATM   30  C   UNL     1      -5.141   8.144  71.708  1.00  0.00    -0.034 C  
ENDBRANCH  15  26
ENDBRANCH   2   3
TORSDOF 4
ENDMDL
MODEL       53
REMARK 921   NORMALIZED FREE ENERGY PREDICTED BY IDOCK:   -4.53 KCAL/MOL
REMARK 922        TOTAL FREE ENERGY PREDICTED BY IDOCK:   -6.33 KCAL/MOL
REMARK 923 INTER-LIGAND FREE ENERGY PREDICTED BY IDOCK:   -5.56 KCAL/MOL
REMARK 924 INTRA-LIGAND FREE ENERGY PREDICTED BY IDOCK:   -0.77 KCAL/MOL
REMARK 927      BINDING AFFINITY PREDICTED BY RF-SCORE:    0.00 PKD
ROOT
HETATM    1  C   UNL     1     -13.330   9.857  71.444  1.00  0.00    -0.365 C  
HETATM    2  O   UNL     1     -12.023  10.407  71.549  1.00  0.00    -0.333 OA 
ENDROOT
BRANCH   2   3
HETATM    3  C   UNL     1     -11.050   9.849  70.764  1.00  0.00    -0.347 C  
HETATM    4  C   UNL     1     -10.086   8.984  71.299  1.00  0.00    -0.314 C  
HETATM    5  C   UNL     1      -8.059   9.032  67.659  1.00  0.00    -0.109 C  
HETATM    6  C   UNL     1      -8.947   8.560  70.434  1.00  0.00    -0.152 C  
HETATM    7  C   UNL     1      -7.140   9.994  67.338  1.00  0.00    -0.084 C  
HETATM    8  H   UNL     1      -5.541  10.349  63.642  1.00  0.00     0.000 HD 
HETATM    9  C   UNL     1      -8.899   9.004  69.051  1.00  0.00    -0.136 C  
HETATM   10  O   UNL     1      -6.475  10.182  63.602  1.00  0.00    -0.131 OA 
HETATM   11  C   UNL     1     -10.227   9.148  68.655  1.00  0.00    -0.225 C  
HETATM   12  C   UNL     1     -10.879   7.710  68.483  1.00  0.00    -0.007 C  
HETATM   13  C   UNL     1     -11.062   9.988  69.394  1.00  0.00    -0.265 C  
HETATM   14  C   UNL     1     -10.699   7.214  67.077  1.00  0.00    -0.420 C  
HETATM   15  C   UNL     1      -9.202   6.907  66.860  1.00  0.00    -0.145 C  
HETATM   16  C   UNL     1      -6.559  10.319  66.004  1.00  0.00    -0.109 C  
HETATM   17  C   UNL     1      -8.618   8.236  66.484  1.00  0.00    -0.141 C  
HETATM   18  C   UNL     1      -8.928   8.696  65.247  1.00  0.00    -0.150 C  
HETATM   19  O   UNL     1      -9.421  10.716  64.127  1.00  0.00    -0.232 OA 
HETATM   20  C   UNL     1      -7.186  10.278  64.787  1.00  0.00    -0.092 C  
HETATM   21  C   UNL     1      -8.628  10.019  64.726  1.00  0.00    -0.177 C  
BRANCH   4  22
HETATM   22  O   UNL     1     -10.219   8.485  72.593  1.00  0.00    -0.284 OA 
HETATM   23  C   UNL     1     -11.050   7.330  72.825  1.00  0.00    -0.319 C  
ENDBRANCH   4  22
BRANCH   6  24
HETATM   24  O   UNL     1      -8.071   7.558  70.847  1.00  0.00    -0.101 OA 
HETATM   25  C   UNL     1      -8.406   6.203  70.433  1.00  0.00    -0.125 C  
ENDBRANCH   6  24
BRANCH  15  26
HETATM   26  N   UNL     1      -9.055   5.903  65.822  1.00  0.00    -0.282 N  
HETATM   27  H   UNL     1      -8.690   6.184  64.912  1.00  0.00     0.000 HD 
HETATM   28  C   UNL     1      -9.392   4.582  66.029  1.00  0.00    -0.157 C  
HETATM   29  O   UNL     1      -9.550   4.062  67.122  1.00  0.00    -0.189 OA 
HETATM   30  C   UNL     1      -9.555   3.815  64.742  1.00  0.00    -0.174 C  
ENDBRANCH  15  26
ENDBRANCH   2   3
TORSDOF 4
ENDMDL
MODEL       54
REMARK 921   NORMALIZED FREE ENERGY PREDICTED BY IDOCK:   -4.52 KCAL/MOL
REMARK 922        TOTAL FREE ENERGY PREDICTED BY IDOCK:   -6.32 KCAL/MOL
REMARK 923 INTER-LIGAND FREE ENERGY PREDICTED BY IDOCK:   -5.56 KCAL/MOL
REMARK 924 INTRA-LIGAND FREE ENERGY PREDICTED BY IDOCK:   -0.76 KCAL/MOL
REMARK 927      BINDING AFFINITY PREDICTED BY RF-SCORE:    0.00 PKD
ROOT
HETATM    1  C   UNL     1      -8.509   5.424  64.332  1.00  0.00    -0.106 C  
HETATM    2  O   UNL     1      -8.108   6.788  64.312  1.00  0.00    -0.113 OA 
ENDROOT
BRANCH   2   3
HETATM    3  C   UNL     1      -8.179   7.473  65.496  1.00  0.00    -0.135 C  
HETATM    4  C   UNL     1      -7.215   8.427  65.846  1.00  0.00    -0.072 C  
HETATM    5  C   UNL     1      -8.904   8.701  69.645  1.00  0.00    -0.137 C  
HETATM    6  C   UNL     1      -7.242   8.999  67.224  1.00  0.00    -0.083 C  
HETATM    7  C   UNL     1      -8.562   7.858  70.668  1.00  0.00    -0.130 C  
HETATM    8  H   UNL     1     -10.538   7.780  74.194  1.00  0.00     0.000 HD 
HETATM    9  C   UNL     1      -8.297   8.598  68.141  1.00  0.00    -0.127 C  
HETATM   10  O   UNL     1     -11.138   7.842  73.460  1.00  0.00    -0.279 OA 
HETATM   11  C   UNL     1      -9.403   8.316  67.341  1.00  0.00    -0.171 C  
HETATM   12  C   UNL     1     -10.000   9.674  66.777  1.00  0.00    -0.289 C  
HETATM   13  C   UNL     1      -9.273   7.368  66.325  1.00  0.00    -0.182 C  
HETATM   14  C   UNL     1     -11.039  10.223  67.712  1.00  0.00    -0.335 C  
HETATM   15  C   UNL     1     -10.329  10.703  68.996  1.00  0.00    -0.218 C  
HETATM   16  C   UNL     1      -9.264   7.635  71.965  1.00  0.00    -0.176 C  
HETATM   17  C   UNL     1     -10.215   9.459  69.825  1.00  0.00    -0.238 C  
HETATM   18  C   UNL     1     -11.367   8.998  70.372  1.00  0.00    -0.242 C  
HETATM   19  O   UNL     1     -12.461   6.964  70.868  1.00  0.00    -0.378 OA 
HETATM   20  C   UNL     1     -10.614   7.636  72.195  1.00  0.00    -0.232 C  
HETATM   21  C   UNL     1     -11.540   7.731  71.062  1.00  0.00    -0.283 C  
BRANCH   4  22
HETATM   22  O   UNL     1      -6.285   8.875  64.910  1.00  0.00    -0.064 OA 
HETATM   23  C   UNL     1      -6.627   9.974  64.042  1.00  0.00    -0.130 C  
ENDBRANCH   4  22
BRANCH   6  24
HETATM   24  O   UNL     1      -6.435  10.083  67.563  1.00  0.00    -0.066 OA 
HETATM   25  C   UNL     1      -7.073  11.391  67.535  1.00  0.00    -0.106 C  
ENDBRANCH   6  24
BRANCH  15  26
HETATM   26  N   UNL     1     -11.118  11.743  69.631  1.00  0.00    -0.463 N  
HETATM   27  H   UNL     1     -11.700  11.501  70.432  1.00  0.00     0.000 HD 
HETATM   28  C   UNL     1     -11.103  13.048  69.184  1.00  0.00    -0.192 C  
HETATM   29  O   UNL     1     -10.254  13.528  68.451  1.00  0.00    -0.237 OA 
HETATM   30  C   UNL     1     -12.271  13.851  69.696  1.00  0.00    -0.374 C  
ENDBRANCH  15  26
ENDBRANCH   2   3
TORSDOF 4
ENDMDL
MODEL       55
REMARK 921   NORMALIZED FREE ENERGY PREDICTED BY IDOCK:   -4.48 KCAL/MOL
REMARK 922        TOTAL FREE ENERGY PREDICTED BY IDOCK:   -6.27 KCAL/MOL
REMARK 923 INTER-LIGAND FREE ENERGY PREDICTED BY IDOCK:   -5.61 KCAL/MOL
REMARK 924 INTRA-LIGAND FREE ENERGY PREDICTED BY IDOCK:   -0.66 KCAL/MOL
REMARK 927      BINDING AFFINITY PREDICTED BY RF-SCORE:    0.00 PKD
ROOT
HETATM    1  C   UNL     1      -9.214  11.040  62.574  1.00  0.00    -0.299 C  
HETATM    2  O   UNL     1     -10.294  10.729  63.446  1.00  0.00    -0.299 OA 
ENDROOT
BRANCH   2   3
HETATM    3  C   UNL     1     -10.132  11.037  64.770  1.00  0.00    -0.308 C  
HETATM    4  C   UNL     1      -9.657  10.092  65.687  1.00  0.00    -0.252 C  
HETATM    5  C   UNL     1     -10.486  12.733  68.802  1.00  0.00    -0.179 C  
HETATM    6  C   UNL     1      -9.681  10.430  67.140  1.00  0.00    -0.172 C  
HETATM    7  C   UNL     1     -11.718  12.813  69.394  1.00  0.00    -0.380 C  
HETATM    8  H   UNL     1     -12.683  15.698  72.057  1.00  0.00     0.000 HD 
HETATM    9  C   UNL     1     -10.137  11.745  67.558  1.00  0.00    -0.207 C  
HETATM   10  O   UNL     1     -12.195  16.051  71.322  1.00  0.00    -0.423 OA 
HETATM   11  C   UNL     1      -9.806  12.607  66.515  1.00  0.00    -0.258 C  
HETATM   12  C   UNL     1      -8.234  12.829  66.500  1.00  0.00     0.308 C  
HETATM   13  C   UNL     1     -10.282  12.325  65.233  1.00  0.00    -0.305 C  
HETATM   14  C   UNL     1      -7.859  14.005  67.355  1.00  0.00    -0.188 C  
HETATM   15  C   UNL     1      -8.108  13.629  68.831  1.00  0.00     0.093 C  
HETATM   16  C   UNL     1     -12.251  13.877  70.292  1.00  0.00    -0.428 C  
HETATM   17  C   UNL     1      -9.564  13.926  69.032  1.00  0.00     0.128 C  
HETATM   18  C   UNL     1      -9.905  15.237  69.081  1.00  0.00    -0.239 C  
HETATM   19  O   UNL     1     -11.638  16.693  68.404  1.00  0.00    -0.170 OA 
HETATM   20  C   UNL     1     -12.011  15.224  70.227  1.00  0.00    -0.330 C  
HETATM   21  C   UNL     1     -11.258  15.769  69.094  1.00  0.00    -0.322 C  
BRANCH   4  22
HETATM   22  O   UNL     1      -9.120   8.883  65.248  1.00  0.00    -0.203 OA 
HETATM   23  C   UNL     1      -7.707   8.791  64.980  1.00  0.00    -0.105 C  
ENDBRANCH   4  22
BRANCH   6  24
HETATM   24  O   UNL     1      -9.049   9.611  68.075  1.00  0.00    -0.126 OA 
HETATM   25  C   UNL     1      -9.862   8.549  68.650  1.00  0.00    -0.170 C  
ENDBRANCH   6  24
BRANCH  15  26
HETATM   26  N   UNL     1      -7.240  14.416  69.689  1.00  0.00    -0.345 N  
HETATM   27  H   UNL     1      -7.398  15.421  69.763  1.00  0.00     0.000 HD 
HETATM   28  C   UNL     1      -6.210  13.846  70.407  1.00  0.00    -0.105 C  
HETATM   29  O   UNL     1      -6.096  12.654  70.643  1.00  0.00    -0.195 OA 
HETATM   30  C   UNL     1      -5.204  14.861  70.886  1.00  0.00    -0.133 C  
ENDBRANCH  15  26
ENDBRANCH   2   3
TORSDOF 4
ENDMDL
MODEL       56
REMARK 921   NORMALIZED FREE ENERGY PREDICTED BY IDOCK:   -4.48 KCAL/MOL
REMARK 922        TOTAL FREE ENERGY PREDICTED BY IDOCK:   -6.26 KCAL/MOL
REMARK 923 INTER-LIGAND FREE ENERGY PREDICTED BY IDOCK:   -5.96 KCAL/MOL
REMARK 924 INTRA-LIGAND FREE ENERGY PREDICTED BY IDOCK:   -0.30 KCAL/MOL
REMARK 927      BINDING AFFINITY PREDICTED BY RF-SCORE:    0.00 PKD
ROOT
HETATM    1  C   UNL     1     -10.972   6.254  70.515  1.00  0.00    -0.312 C  
HETATM    2  O   UNL     1     -11.018   7.546  71.109  1.00  0.00    -0.241 OA 
ENDROOT
BRANCH   2   3
HETATM    3  C   UNL     1     -10.859   8.619  70.273  1.00  0.00    -0.235 C  
HETATM    4  C   UNL     1     -11.428   9.864  70.567  1.00  0.00    -0.318 C  
HETATM    5  C   UNL     1     -10.307  11.239  66.797  1.00  0.00    -0.278 C  
HETATM    6  C   UNL     1     -11.377  10.937  69.531  1.00  0.00    -0.283 C  
HETATM    7  C   UNL     1     -11.081  11.054  65.683  1.00  0.00    -0.008 C  
HETATM    8  H   UNL     1      -9.793  11.927  61.952  1.00  0.00     0.000 HD 
HETATM    9  C   UNL     1     -10.692  10.682  68.275  1.00  0.00    -0.260 C  
HETATM   10  O   UNL     1      -9.119  11.491  62.460  1.00  0.00    -0.320 OA 
HETATM   11  C   UNL     1      -9.676   9.777  68.578  1.00  0.00    -0.164 C  
HETATM   12  C   UNL     1      -8.536  10.525  69.392  1.00  0.00    -0.100 C  
HETATM   13  C   UNL     1     -10.013   8.567  69.188  1.00  0.00    -0.194 C  
HETATM   14  C   UNL     1      -7.508  11.095  68.458  1.00  0.00    -0.112 C  
HETATM   15  C   UNL     1      -8.154  12.261  67.680  1.00  0.00    -0.165 C  
HETATM   16  C   UNL     1     -10.704  11.216  64.250  1.00  0.00    -0.403 C  
HETATM   17  C   UNL     1      -8.845  11.584  66.534  1.00  0.00    -0.190 C  
HETATM   18  C   UNL     1      -8.042  11.091  65.560  1.00  0.00     0.053 C  
HETATM   19  O   UNL     1      -7.881   9.247  64.093  1.00  0.00    -0.114 OA 
HETATM   20  C   UNL     1      -9.500  10.924  63.664  1.00  0.00    -0.285 C  
HETATM   21  C   UNL     1      -8.460  10.253  64.449  1.00  0.00    -0.179 C  
BRANCH   4  22
HETATM   22  O   UNL     1     -11.978  10.116  71.823  1.00  0.00    -0.319 OA 
HETATM   23  C   UNL     1     -13.406  10.028  72.001  1.00  0.00    -0.409 C  
ENDBRANCH   4  22
BRANCH   6  24
HETATM   24  O   UNL     1     -11.753  12.244  69.837  1.00  0.00    -0.309 OA 
HETATM   25  C   UNL     1     -11.430  13.253  68.838  1.00  0.00    -0.298 C  
ENDBRANCH   6  24
BRANCH  15  26
HETATM   26  N   UNL     1      -7.126  13.195  67.257  1.00  0.00    -0.339 N  
HETATM   27  H   UNL     1      -6.525  12.946  66.472  1.00  0.00     0.000 HD 
HETATM   28  C   UNL     1      -6.938  14.409  67.885  1.00  0.00    -0.163 C  
HETATM   29  O   UNL     1      -7.749  14.951  68.618  1.00  0.00    -0.113 OA 
HETATM   30  C   UNL     1      -5.596  15.022  67.575  1.00  0.00     0.093 C  
ENDBRANCH  15  26
ENDBRANCH   2   3
TORSDOF 4
ENDMDL
MODEL       57
REMARK 921   NORMALIZED FREE ENERGY PREDICTED BY IDOCK:   -4.47 KCAL/MOL
REMARK 922        TOTAL FREE ENERGY PREDICTED BY IDOCK:   -6.25 KCAL/MOL
REMARK 923 INTER-LIGAND FREE ENERGY PREDICTED BY IDOCK:   -5.61 KCAL/MOL
REMARK 924 INTRA-LIGAND FREE ENERGY PREDICTED BY IDOCK:   -0.65 KCAL/MOL
REMARK 927      BINDING AFFINITY PREDICTED BY RF-SCORE:    0.00 PKD
ROOT
HETATM    1  C   UNL     1      -9.747   4.256  69.013  1.00  0.00    -0.139 C  
HETATM    2  O   UNL     1     -10.595   5.040  69.843  1.00  0.00    -0.237 OA 
ENDROOT
BRANCH   2   3
HETATM    3  C   UNL     1     -10.288   6.369  69.964  1.00  0.00    -0.198 C  
HETATM    4  C   UNL     1      -9.530   6.849  71.039  1.00  0.00    -0.163 C  
HETATM    5  C   UNL     1     -10.308  10.755  69.813  1.00  0.00    -0.073 C  
HETATM    6  C   UNL     1      -9.390   8.324  71.214  1.00  0.00    -0.173 C  
HETATM    7  C   UNL     1     -11.432  11.438  70.193  1.00  0.00    -0.302 C  
HETATM    8  H   UNL     1     -12.451  15.021  68.622  1.00  0.00     0.000 HD 
HETATM    9  C   UNL     1      -9.991   9.218  70.238  1.00  0.00    -0.262 C  
HETATM   10  O   UNL     1     -12.145  14.421  67.952  1.00  0.00    -0.334 OA 
HETATM   11  C   UNL     1      -9.969   8.524  69.030  1.00  0.00    -0.197 C  
HETATM   12  C   UNL     1      -8.477   8.457  68.492  1.00  0.00    -0.132 C  
HETATM   13  C   UNL     1     -10.580   7.270  68.963  1.00  0.00    -0.214 C  
HETATM   14  C   UNL     1      -8.178   9.638  67.615  1.00  0.00    -0.114 C  
HETATM   15  C   UNL     1      -8.135  10.901  68.502  1.00  0.00    -0.137 C  
HETATM   16  C   UNL     1     -11.993  12.696  69.623  1.00  0.00    -0.352 C  
HETATM   17  C   UNL     1      -9.573  11.315  68.600  1.00  0.00    -0.195 C  
HETATM   18  C   UNL     1     -10.117  11.853  67.481  1.00  0.00    -0.206 C  
HETATM   19  O   UNL     1     -12.150  11.884  66.278  1.00  0.00    -0.535 OA 
HETATM   20  C   UNL     1     -11.993  13.093  68.312  1.00  0.00    -0.291 C  
HETATM   21  C   UNL     1     -11.521  12.167  67.278  1.00  0.00    -0.345 C  
BRANCH   4  22
HETATM   22  O   UNL     1      -8.871   5.967  71.894  1.00  0.00    -0.137 OA 
HETATM   23  C   UNL     1      -9.439   5.677  73.186  1.00  0.00    -0.146 C  
ENDBRANCH   4  22
BRANCH   6  24
HETATM   24  O   UNL     1      -8.497   8.851  72.145  1.00  0.00    -0.382 OA 
HETATM   25  C   UNL     1      -7.086   8.784  71.789  1.00  0.00    -0.054 C  
ENDBRANCH   6  24
BRANCH  15  26
HETATM   26  N   UNL     1      -7.292  11.906  67.881  1.00  0.00    -0.096 N  
HETATM   27  H   UNL     1      -7.232  11.941  66.864  1.00  0.00     0.000 HD 
HETATM   28  C   UNL     1      -6.568  12.814  68.625  1.00  0.00    -0.084 C  
HETATM   29  O   UNL     1      -6.769  13.076  69.800  1.00  0.00     0.001 OA 
HETATM   30  C   UNL     1      -5.470  13.474  67.831  1.00  0.00    -0.107 C  
ENDBRANCH  15  26
ENDBRANCH   2   3
TORSDOF 4
ENDMDL
MODEL       58
REMARK 921   NORMALIZED FREE ENERGY PREDICTED BY IDOCK:   -4.46 KCAL/MOL
REMARK 922        TOTAL FREE ENERGY PREDICTED BY IDOCK:   -6.25 KCAL/MOL
REMARK 923 INTER-LIGAND FREE ENERGY PREDICTED BY IDOCK:   -5.62 KCAL/MOL
REMARK 924 INTRA-LIGAND FREE ENERGY PREDICTED BY IDOCK:   -0.63 KCAL/MOL
REMARK 927      BINDING AFFINITY PREDICTED BY RF-SCORE:    0.00 PKD
ROOT
HETATM    1  C   UNL     1      -9.446  16.079  67.736  1.00  0.00    -0.217 C  
HETATM    2  O   UNL     1     -10.279  15.131  67.080  1.00  0.00    -0.242 OA 
ENDROOT
BRANCH   2   3
HETATM    3  C   UNL     1     -10.176  13.828  67.488  1.00  0.00    -0.241 C  
HETATM    4  C   UNL     1     -11.169  13.227  68.271  1.00  0.00    -0.277 C  
HETATM    5  C   UNL     1      -8.726   9.889  68.767  1.00  0.00    -0.132 C  
HETATM    6  C   UNL     1     -10.912  11.871  68.838  1.00  0.00    -0.238 C  
HETATM    7  C   UNL     1      -7.781   9.805  69.754  1.00  0.00    -0.145 C  
HETATM    8  H   UNL     1      -5.072   6.810  69.944  1.00  0.00     0.000 HD 
HETATM    9  C   UNL     1      -9.668  11.190  68.518  1.00  0.00    -0.196 C  
HETATM   10  O   UNL     1      -5.182   7.124  69.054  1.00  0.00    -0.014 OA 
HETATM   11  C   UNL     1      -9.313  11.634  67.246  1.00  0.00    -0.170 C  
HETATM   12  C   UNL     1     -10.291  10.988  66.175  1.00  0.00    -0.306 C  
HETATM   13  C   UNL     1      -9.171  13.006  67.028  1.00  0.00    -0.232 C  
HETATM   14  C   UNL     1      -9.741   9.682  65.678  1.00  0.00    -0.363 C  
HETATM   15  C   UNL     1      -9.816   8.657  66.829  1.00  0.00    -0.253 C  
HETATM   16  C   UNL     1      -6.655   8.837  69.885  1.00  0.00    -0.041 C  
HETATM   17  C   UNL     1      -8.561   8.907  67.611  1.00  0.00    -0.124 C  
HETATM   18  C   UNL     1      -7.405   8.500  67.031  1.00  0.00    -0.084 C  
HETATM   19  O   UNL     1      -5.150   9.166  66.802  1.00  0.00    -0.033 OA 
HETATM   20  C   UNL     1      -5.893   8.300  68.881  1.00  0.00    -0.043 C  
HETATM   21  C   UNL     1      -6.062   8.785  67.508  1.00  0.00    -0.051 C  
BRANCH   4  22
HETATM   22  O   UNL     1     -12.397  13.857  68.468  1.00  0.00    -0.272 OA 
HETATM   23  C   UNL     1     -12.647  14.548  69.707  1.00  0.00    -0.120 C  
ENDBRANCH   4  22
BRANCH   6  24
HETATM   24  O   UNL     1     -11.930  11.151  69.458  1.00  0.00    -0.311 OA 
HETATM   25  C   UNL     1     -11.572  10.470  70.695  1.00  0.00    -0.352 C  
ENDBRANCH   6  24
BRANCH  15  26
HETATM   26  N   UNL     1      -9.891   7.313  66.284  1.00  0.00    -0.437 N  
HETATM   27  H   UNL     1      -9.383   7.100  65.425  1.00  0.00     0.000 HD 
HETATM   28  C   UNL     1     -10.627   6.318  66.890  1.00  0.00    -0.305 C  
HETATM   29  O   UNL     1     -11.027   6.345  68.043  1.00  0.00    -0.293 OA 
HETATM   30  C   UNL     1     -10.905   5.157  65.970  1.00  0.00    -0.127 C  
ENDBRANCH  15  26
ENDBRANCH   2   3
TORSDOF 4
ENDMDL
MODEL       59
REMARK 921   NORMALIZED FREE ENERGY PREDICTED BY IDOCK:   -4.46 KCAL/MOL
REMARK 922        TOTAL FREE ENERGY PREDICTED BY IDOCK:   -6.24 KCAL/MOL
REMARK 923 INTER-LIGAND FREE ENERGY PREDICTED BY IDOCK:   -5.55 KCAL/MOL
REMARK 924 INTRA-LIGAND FREE ENERGY PREDICTED BY IDOCK:   -0.69 KCAL/MOL
REMARK 927      BINDING AFFINITY PREDICTED BY RF-SCORE:    0.00 PKD
ROOT
HETATM    1  C   UNL     1      -5.706   8.793  72.556  1.00  0.00    -0.075 C  
HETATM    2  O   UNL     1      -7.121   8.769  72.695  1.00  0.00    -0.310 OA 
ENDROOT
BRANCH   2   3
HETATM    3  C   UNL     1      -7.855   8.625  71.548  1.00  0.00    -0.125 C  
HETATM    4  C   UNL     1      -9.230   8.366  71.589  1.00  0.00    -0.206 C  
HETATM    5  C   UNL     1      -9.214   7.765  67.466  1.00  0.00    -0.147 C  
HETATM    6  C   UNL     1      -9.934   8.034  70.316  1.00  0.00    -0.189 C  
HETATM    7  C   UNL     1      -8.918   6.555  66.897  1.00  0.00    -0.128 C  
HETATM    8  H   UNL     1      -8.405   6.076  62.915  1.00  0.00     0.000 HD 
HETATM    9  C   UNL     1      -9.190   8.047  69.066  1.00  0.00    -0.148 C  
HETATM   10  O   UNL     1      -7.980   6.866  63.228  1.00  0.00    -0.117 OA 
HETATM   11  C   UNL     1      -8.192   9.004  69.233  1.00  0.00    -0.117 C  
HETATM   12  C   UNL     1      -8.845  10.451  69.205  1.00  0.00    -0.180 C  
HETATM   13  C   UNL     1      -7.310   8.876  70.308  1.00  0.00    -0.067 C  
HETATM   14  C   UNL     1      -8.879  10.988  67.803  1.00  0.00    -0.133 C  
HETATM   15  C   UNL     1      -9.905  10.165  66.995  1.00  0.00    -0.191 C  
HETATM   16  C   UNL     1      -8.587   6.252  65.475  1.00  0.00    -0.124 C  
HETATM   17  C   UNL     1      -9.121   8.971  66.537  1.00  0.00    -0.202 C  
HETATM   18  C   UNL     1      -8.205   9.195  65.563  1.00  0.00    -0.124 C  
HETATM   19  O   UNL     1      -6.045   8.506  64.902  1.00  0.00    -0.058 OA 
HETATM   20  C   UNL     1      -7.872   7.025  64.600  1.00  0.00    -0.123 C  
HETATM   21  C   UNL     1      -7.217   8.245  65.083  1.00  0.00    -0.079 C  
BRANCH   4  22
HETATM   22  O   UNL     1      -9.939   8.472  72.784  1.00  0.00    -0.258 OA 
HETATM   23  C   UNL     1     -10.243   7.280  73.536  1.00  0.00    -0.358 C  
ENDBRANCH   4  22
BRANCH   6  24
HETATM   24  O   UNL     1     -11.325   7.957  70.267  1.00  0.00    -0.247 OA 
HETATM   25  C   UNL     1     -11.891   6.616  70.248  1.00  0.00    -0.316 C  
ENDBRANCH   6  24
BRANCH  15  26
HETATM   26  N   UNL     1     -10.418  10.966  65.898  1.00  0.00    -0.245 N  
HETATM   27  H   UNL     1     -10.061  10.802  64.957  1.00  0.00     0.000 HD 
HETATM   28  C   UNL     1     -11.374  11.942  66.091  1.00  0.00    -0.324 C  
HETATM   29  O   UNL     1     -12.086  12.040  67.077  1.00  0.00    -0.603 OA 
HETATM   30  C   UNL     1     -11.459  12.908  64.937  1.00  0.00    -0.351 C  
ENDBRANCH  15  26
ENDBRANCH   2   3
TORSDOF 4
ENDMDL
MODEL       60
REMARK 921   NORMALIZED FREE ENERGY PREDICTED BY IDOCK:   -4.46 KCAL/MOL
REMARK 922        TOTAL FREE ENERGY PREDICTED BY IDOCK:   -6.24 KCAL/MOL
REMARK 923 INTER-LIGAND FREE ENERGY PREDICTED BY IDOCK:   -5.68 KCAL/MOL
REMARK 924 INTRA-LIGAND FREE ENERGY PREDICTED BY IDOCK:   -0.56 KCAL/MOL
REMARK 927      BINDING AFFINITY PREDICTED BY RF-SCORE:    0.00 PKD
ROOT
HETATM    1  C   UNL     1     -13.909  12.483  72.317  1.00  0.00    -0.129 C  
HETATM    2  O   UNL     1     -13.447  13.805  72.065  1.00  0.00    -0.392 OA 
ENDROOT
BRANCH   2   3
HETATM    3  C   UNL     1     -12.694  13.994  70.937  1.00  0.00    -0.350 C  
HETATM    4  C   UNL     1     -11.582  14.845  70.936  1.00  0.00    -0.297 C  
HETATM    5  C   UNL     1     -11.278  14.403  66.804  1.00  0.00    -0.340 C  
HETATM    6  C   UNL     1     -10.917  15.153  69.636  1.00  0.00    -0.281 C  
HETATM    7  C   UNL     1     -11.981  15.182  65.924  1.00  0.00     0.181 C  
HETATM    8  H   UNL     1     -12.090  14.446  61.951  1.00  0.00     0.000 HD 
HETATM    9  C   UNL     1     -11.402  14.519  68.421  1.00  0.00    -0.311 C  
HETATM   10  O   UNL     1     -12.175  13.646  62.456  1.00  0.00     0.257 OA 
HETATM   11  C   UNL     1     -11.908  13.283  68.817  1.00  0.00    -0.371 C  
HETATM   12  C   UNL     1     -10.702  12.321  69.193  1.00  0.00    -0.089 C  
HETATM   13  C   UNL     1     -12.900  13.246  69.799  1.00  0.00     0.491 C  
HETATM   14  C   UNL     1     -10.246  11.549  67.989  1.00  0.00    -0.205 C  
HETATM   15  C   UNL     1      -9.570  12.534  67.011  1.00  0.00    -0.216 C  
HETATM   16  C   UNL     1     -12.209  14.967  64.467  1.00  0.00    -0.344 C  
HETATM   17  C   UNL     1     -10.716  13.106  66.232  1.00  0.00    -0.295 C  
HETATM   18  C   UNL     1     -11.302  12.276  65.335  1.00  0.00    -0.389 C  
HETATM   19  O   UNL     1     -13.435  11.747  64.467  1.00  0.00    -0.083 OA 
HETATM   20  C   UNL     1     -12.394  13.776  63.817  1.00  0.00    -0.256 C  
HETATM   21  C   UNL     1     -12.525  12.541  64.596  1.00  0.00    -0.463 C  
BRANCH   4  22
HETATM   22  O   UNL     1     -11.070  15.348  72.131  1.00  0.00    -0.344 OA 
HETATM   23  C   UNL     1     -11.699  16.491  72.745  1.00  0.00    -0.215 C  
ENDBRANCH   4  22
BRANCH   6  24
HETATM   24  O   UNL     1      -9.702  15.833  69.598  1.00  0.00    -0.271 OA 
HETATM   25  C   UNL     1      -9.712  17.126  68.928  1.00  0.00    -0.256 C  
ENDBRANCH   6  24
BRANCH  15  26
HETATM   26  N   UNL     1      -8.615  11.820  66.182  1.00  0.00    -0.375 N  
HETATM   27  H   UNL     1      -8.814  11.705  65.188  1.00  0.00     0.000 HD 
HETATM   28  C   UNL     1      -7.449  11.293  66.697  1.00  0.00    -0.133 C  
HETATM   29  O   UNL     1      -6.953  11.604  67.767  1.00  0.00    -0.075 OA 
HETATM   30  C   UNL     1      -6.825  10.264  65.789  1.00  0.00    -0.128 C  
ENDBRANCH  15  26
ENDBRANCH   2   3
TORSDOF 4
ENDMDL
MODEL       61
REMARK 921   NORMALIZED FREE ENERGY PREDICTED BY IDOCK:   -4.43 KCAL/MOL
REMARK 922        TOTAL FREE ENERGY PREDICTED BY IDOCK:   -6.21 KCAL/MOL
REMARK 923 INTER-LIGAND FREE ENERGY PREDICTED BY IDOCK:   -5.47 KCAL/MOL
REMARK 924 INTRA-LIGAND FREE ENERGY PREDICTED BY IDOCK:   -0.74 KCAL/MOL
REMARK 927      BINDING AFFINITY PREDICTED BY RF-SCORE:    0.00 PKD
ROOT
HETATM    1  C   UNL     1      -6.428   7.592  63.836  1.00  0.00    -0.053 C  
HETATM    2  O   UNL     1      -7.791   7.913  64.089  1.00  0.00    -0.126 OA 
ENDROOT
BRANCH   2   3
HETATM    3  C   UNL     1      -8.165   8.041  65.400  1.00  0.00    -0.151 C  
HETATM    4  C   UNL     1      -8.536   9.280  65.936  1.00  0.00    -0.148 C  
HETATM    5  C   UNL     1      -8.635   7.579  69.738  1.00  0.00    -0.140 C  
HETATM    6  C   UNL     1      -8.751   9.388  67.409  1.00  0.00    -0.125 C  
HETATM    7  C   UNL     1      -7.523   7.475  70.530  1.00  0.00    -0.080 C  
HETATM    8  H   UNL     1      -7.487   5.389  73.993  1.00  0.00     0.000 HD 
HETATM    9  C   UNL     1      -8.626   8.198  68.235  1.00  0.00    -0.130 C  
HETATM   10  O   UNL     1      -7.950   4.920  73.308  1.00  0.00    -0.098 OA 
HETATM   11  C   UNL     1      -9.006   7.134  67.421  1.00  0.00    -0.122 C  
HETATM   12  C   UNL     1     -10.578   7.179  67.200  1.00  0.00    -0.417 C  
HETATM   13  C   UNL     1      -8.338   6.941  66.210  1.00  0.00    -0.126 C  
HETATM   14  C   UNL     1     -11.284   6.387  68.263  1.00  0.00    -0.276 C  
HETATM   15  C   UNL     1     -11.134   7.136  69.604  1.00  0.00    -0.179 C  
HETATM   16  C   UNL     1      -7.327   6.652  71.758  1.00  0.00    -0.086 C  
HETATM   17  C   UNL     1      -9.803   6.677  70.121  1.00  0.00    -0.180 C  
HETATM   18  C   UNL     1      -9.748   5.401  70.576  1.00  0.00    -0.246 C  
HETATM   19  O   UNL     1      -8.287   3.545  70.619  1.00  0.00    -0.065 OA 
HETATM   20  C   UNL     1      -7.831   5.405  72.017  1.00  0.00    -0.106 C  
HETATM   21  C   UNL     1      -8.545   4.681  70.960  1.00  0.00    -0.110 C  
BRANCH   4  22
HETATM   22  O   UNL     1      -8.758  10.377  65.105  1.00  0.00    -0.167 OA 
HETATM   23  C   UNL     1     -10.070  10.589  64.546  1.00  0.00    -0.332 C  
ENDBRANCH   4  22
BRANCH   6  24
HETATM   24  O   UNL     1      -9.303  10.538  67.968  1.00  0.00    -0.142 OA 
HETATM   25  C   UNL     1     -10.742  10.513  68.194  1.00  0.00    -0.233 C  
ENDBRANCH   6  24
BRANCH  15  26
HETATM   26  N   UNL     1     -12.238   6.792  70.482  1.00  0.00    -0.566 N  
HETATM   27  H   UNL     1     -12.565   5.827  70.509  1.00  0.00     0.000 HD 
HETATM   28  C   UNL     1     -12.857   7.731  71.280  1.00  0.00    -0.233 C  
HETATM   29  O   UNL     1     -12.393   8.823  71.566  1.00  0.00    -0.305 OA 
HETATM   30  C   UNL     1     -14.203   7.273  71.780  1.00  0.00    -0.526 C  
ENDBRANCH  15  26
ENDBRANCH   2   3
TORSDOF 4
ENDMDL
MODEL       62
REMARK 921   NORMALIZED FREE ENERGY PREDICTED BY IDOCK:   -4.41 KCAL/MOL
REMARK 922        TOTAL FREE ENERGY PREDICTED BY IDOCK:   -6.18 KCAL/MOL
REMARK 923 INTER-LIGAND FREE ENERGY PREDICTED BY IDOCK:   -5.49 KCAL/MOL
REMARK 924 INTRA-LIGAND FREE ENERGY PREDICTED BY IDOCK:   -0.69 KCAL/MOL
REMARK 927      BINDING AFFINITY PREDICTED BY RF-SCORE:    0.00 PKD
ROOT
HETATM    1  C   UNL     1     -12.308  12.139  63.364  1.00  0.00    -0.538 C  
HETATM    2  O   UNL     1     -11.069  12.709  63.769  1.00  0.00    -0.402 OA 
ENDROOT
BRANCH   2   3
HETATM    3  C   UNL     1     -10.307  11.979  64.642  1.00  0.00    -0.287 C  
HETATM    4  C   UNL     1      -9.830  12.535  65.836  1.00  0.00    -0.247 C  
HETATM    5  C   UNL     1      -7.530   9.121  66.479  1.00  0.00    -0.093 C  
HETATM    6  C   UNL     1      -8.854  11.753  66.650  1.00  0.00    -0.189 C  
HETATM    7  C   UNL     1      -6.276   8.965  65.953  1.00  0.00    -0.056 C  
HETATM    8  H   UNL     1      -4.240   5.478  66.141  1.00  0.00     0.000 HD 
HETATM    9  C   UNL     1      -8.472  10.420  66.216  1.00  0.00    -0.145 C  
HETATM   10  O   UNL     1      -5.153   5.336  65.921  1.00  0.00    -0.005 OA 
HETATM   11  C   UNL     1      -9.581   9.911  65.543  1.00  0.00    -0.341 C  
HETATM   12  C   UNL     1     -10.718   9.566  66.595  1.00  0.00    -0.086 C  
HETATM   13  C   UNL     1     -10.101  10.629  64.464  1.00  0.00    -0.421 C  
HETATM   14  C   UNL     1     -10.583   8.150  67.076  1.00  0.00    -0.346 C  
HETATM   15  C   UNL     1      -9.311   8.055  67.946  1.00  0.00    -0.138 C  
HETATM   16  C   UNL     1      -5.461   7.722  65.842  1.00  0.00    -0.029 C  
HETATM   17  C   UNL     1      -8.213   7.840  66.947  1.00  0.00    -0.116 C  
HETATM   18  C   UNL     1      -8.168   6.618  66.361  1.00  0.00    -0.117 C  
HETATM   19  O   UNL     1      -7.693   5.616  64.276  1.00  0.00    -0.084 OA 
HETATM   20  C   UNL     1      -5.905   6.451  65.589  1.00  0.00    -0.025 C  
HETATM   21  C   UNL     1      -7.314   6.233  65.251  1.00  0.00    -0.077 C  
BRANCH   4  22
HETATM   22  O   UNL     1     -10.301  13.768  66.284  1.00  0.00    -0.281 OA 
HETATM   23  C   UNL     1      -9.551  14.963  65.988  1.00  0.00    -0.313 C  
ENDBRANCH   4  22
BRANCH   6  24
HETATM   24  O   UNL     1      -8.497  12.170  67.931  1.00  0.00    -0.145 OA 
HETATM   25  C   UNL     1      -7.256  12.924  68.036  1.00  0.00    -0.115 C  
ENDBRANCH   6  24
BRANCH  15  26
HETATM   26  N   UNL     1      -9.447   6.961  68.890  1.00  0.00    -0.137 N  
HETATM   27  H   UNL     1      -8.929   6.097  68.724  1.00  0.00     0.000 HD 
HETATM   28  C   UNL     1     -10.253   7.053  70.005  1.00  0.00    -0.194 C  
HETATM   29  O   UNL     1     -10.680   8.094  70.477  1.00  0.00    -0.217 OA 
HETATM   30  C   UNL     1     -10.571   5.708  70.606  1.00  0.00    -0.347 C  
ENDBRANCH  15  26
ENDBRANCH   2   3
TORSDOF 4
ENDMDL
MODEL       63
REMARK 921   NORMALIZED FREE ENERGY PREDICTED BY IDOCK:   -4.39 KCAL/MOL
REMARK 922        TOTAL FREE ENERGY PREDICTED BY IDOCK:   -6.15 KCAL/MOL
REMARK 923 INTER-LIGAND FREE ENERGY PREDICTED BY IDOCK:   -5.42 KCAL/MOL
REMARK 924 INTRA-LIGAND FREE ENERGY PREDICTED BY IDOCK:   -0.73 KCAL/MOL
REMARK 927      BINDING AFFINITY PREDICTED BY RF-SCORE:    0.00 PKD
ROOT
HETATM    1  C   UNL     1      -6.918   7.330  63.257  1.00  0.00    -0.059 C  
HETATM    2  O   UNL     1      -8.141   7.049  63.928  1.00  0.00    -0.093 OA 
ENDROOT
BRANCH   2   3
HETATM    3  C   UNL     1      -8.474   7.864  64.977  1.00  0.00    -0.055 C  
HETATM    4  C   UNL     1      -8.640   7.357  66.272  1.00  0.00    -0.142 C  
HETATM    5  C   UNL     1     -10.075  11.067  67.514  1.00  0.00    -0.208 C  
HETATM    6  C   UNL     1      -9.185   8.258  67.329  1.00  0.00    -0.138 C  
HETATM    7  C   UNL     1     -11.391  11.426  67.396  1.00  0.00    -0.359 C  
HETATM    8  H   UNL     1     -12.708  15.179  68.122  1.00  0.00     0.000 HD 
HETATM    9  C   UNL     1      -9.472   9.646  67.003  1.00  0.00    -0.195 C  
HETATM   10  O   UNL     1     -11.896  15.184  67.629  1.00  0.00    -0.294 OA 
HETATM   11  C   UNL     1      -8.561   9.995  66.009  1.00  0.00    -0.148 C  
HETATM   12  C   UNL     1      -7.115  10.134  66.651  1.00  0.00    -0.101 C  
HETATM   13  C   UNL     1      -8.515   9.234  64.840  1.00  0.00    -0.182 C  
HETATM   14  C   UNL     1      -6.877  11.541  67.117  1.00  0.00    -0.139 C  
HETATM   15  C   UNL     1      -7.787  11.809  68.334  1.00  0.00    -0.141 C  
HETATM   16  C   UNL     1     -11.999  12.783  67.513  1.00  0.00    -0.342 C  
HETATM   17  C   UNL     1      -9.093  12.215  67.719  1.00  0.00    -0.189 C  
HETATM   18  C   UNL     1      -9.127  13.444  67.147  1.00  0.00    -0.235 C  
HETATM   19  O   UNL     1     -10.061  14.561  65.287  1.00  0.00    -0.369 OA 
HETATM   20  C   UNL     1     -11.464  13.976  67.107  1.00  0.00    -0.352 C  
HETATM   21  C   UNL     1     -10.212  13.984  66.345  1.00  0.00    -0.291 C  
BRANCH   4  22
HETATM   22  O   UNL     1      -8.250   6.055  66.581  1.00  0.00    -0.105 OA 
HETATM   23  C   UNL     1      -9.232   5.000  66.571  1.00  0.00    -0.135 C  
ENDBRANCH   4  22
BRANCH   6  24
HETATM   24  O   UNL     1      -9.190   7.869  68.667  1.00  0.00    -0.143 OA 
HETATM   25  C   UNL     1     -10.496   7.586  69.246  1.00  0.00    -0.214 C  
ENDBRANCH   6  24
BRANCH  15  26
HETATM   26  N   UNL     1      -7.201  12.844  69.166  1.00  0.00    -0.297 N  
HETATM   27  H   UNL     1      -7.477  13.814  69.014  1.00  0.00     0.000 HD 
HETATM   28  C   UNL     1      -6.282  12.556  70.153  1.00  0.00    -0.032 C  
HETATM   29  O   UNL     1      -6.092  11.449  70.632  1.00  0.00    -0.316 OA 
HETATM   30  C   UNL     1      -5.508  13.770  70.600  1.00  0.00    -0.146 C  
ENDBRANCH  15  26
ENDBRANCH   2   3
TORSDOF 4
ENDMDL
MODEL       64
REMARK 921   NORMALIZED FREE ENERGY PREDICTED BY IDOCK:   -4.38 KCAL/MOL
REMARK 922        TOTAL FREE ENERGY PREDICTED BY IDOCK:   -6.14 KCAL/MOL
REMARK 923 INTER-LIGAND FREE ENERGY PREDICTED BY IDOCK:   -5.69 KCAL/MOL
REMARK 924 INTRA-LIGAND FREE ENERGY PREDICTED BY IDOCK:   -0.45 KCAL/MOL
REMARK 927      BINDING AFFINITY PREDICTED BY RF-SCORE:    0.00 PKD
ROOT
HETATM    1  C   UNL     1      -7.444  19.915  66.274  1.00  0.00    -0.300 C  
HETATM    2  O   UNL     1      -8.567  19.092  65.980  1.00  0.00    -0.446 OA 
ENDROOT
BRANCH   2   3
HETATM    3  C   UNL     1      -8.682  17.924  66.686  1.00  0.00    -0.262 C  
HETATM    4  C   UNL     1      -9.579  17.801  67.754  1.00  0.00    -0.272 C  
HETATM    5  C   UNL     1      -7.946  14.079  68.666  1.00  0.00    -0.122 C  
HETATM    6  C   UNL     1      -9.524  16.572  68.597  1.00  0.00    -0.243 C  
HETATM    7  C   UNL     1      -6.844  13.931  69.466  1.00  0.00    -0.024 C  
HETATM    8  H   UNL     1      -4.950  10.393  69.954  1.00  0.00     0.000 HD 
HETATM    9  C   UNL     1      -8.586  15.515  68.256  1.00  0.00    -0.161 C  
HETATM   10  O   UNL     1      -5.186  10.539  69.045  1.00  0.00    -0.042 OA 
HETATM   11  C   UNL     1      -8.442  15.574  66.871  1.00  0.00    -0.289 C  
HETATM   12  C   UNL     1      -9.766  15.029  66.184  1.00  0.00    -0.334 C  
HETATM   13  C   UNL     1      -8.036  16.775  66.287  1.00  0.00    -0.352 C  
HETATM   14  C   UNL     1      -9.671  13.549  65.954  1.00  0.00    -0.199 C  
HETATM   15  C   UNL     1      -9.715  12.842  67.325  1.00  0.00    -0.206 C  
HETATM   16  C   UNL     1      -5.979  12.730  69.647  1.00  0.00    -0.121 C  
HETATM   17  C   UNL     1      -8.290  12.878  67.791  1.00  0.00    -0.178 C  
HETATM   18  C   UNL     1      -7.431  12.051  67.147  1.00  0.00    -0.138 C  
HETATM   19  O   UNL     1      -5.199  11.988  66.374  1.00  0.00    -0.334 OA 
HETATM   20  C   UNL     1      -5.621  11.808  68.700  1.00  0.00    -0.045 C  
HETATM   21  C   UNL     1      -5.985  12.033  67.298  1.00  0.00    -0.146 C  
BRANCH   4  22
HETATM   22  O   UNL     1     -10.543  18.780  67.988  1.00  0.00    -0.367 OA 
HETATM   23  C   UNL     1     -10.260  19.845  68.917  1.00  0.00    -0.292 C  
ENDBRANCH   4  22
BRANCH   6  24
HETATM   24  O   UNL     1     -10.511  16.311  69.546  1.00  0.00    -0.265 OA 
HETATM   25  C   UNL     1     -11.809  15.909  69.025  1.00  0.00    -0.318 C  
ENDBRANCH   6  24
BRANCH  15  26
HETATM   26  N   UNL     1     -10.230  11.494  67.164  1.00  0.00    -0.200 N  
HETATM   27  H   UNL     1     -10.386  11.134  66.222  1.00  0.00     0.000 HD 
HETATM   28  C   UNL     1     -10.513  10.685  68.245  1.00  0.00    -0.187 C  
HETATM   29  O   UNL     1     -10.106  10.866  69.381  1.00  0.00    -0.189 OA 
HETATM   30  C   UNL     1     -11.402   9.523  67.884  1.00  0.00     0.339 C  
ENDBRANCH  15  26
ENDBRANCH   2   3
TORSDOF 4
ENDMDL
MODEL       65
REMARK 921   NORMALIZED FREE ENERGY PREDICTED BY IDOCK:   -4.35 KCAL/MOL
REMARK 922        TOTAL FREE ENERGY PREDICTED BY IDOCK:   -6.10 KCAL/MOL
REMARK 923 INTER-LIGAND FREE ENERGY PREDICTED BY IDOCK:   -5.44 KCAL/MOL
REMARK 924 INTRA-LIGAND FREE ENERGY PREDICTED BY IDOCK:   -0.66 KCAL/MOL
REMARK 927      BINDING AFFINITY PREDICTED BY RF-SCORE:    0.00 PKD
ROOT
HETATM    1  C   UNL     1      -7.082   5.601  64.737  1.00  0.00    -0.060 C  
HETATM    2  O   UNL     1      -7.938   6.734  64.659  1.00  0.00    -0.122 OA 
ENDROOT
BRANCH   2   3
HETATM    3  C   UNL     1      -8.324   7.303  65.843  1.00  0.00    -0.144 C  
HETATM    4  C   UNL     1      -8.744   8.637  65.909  1.00  0.00    -0.172 C  
HETATM    5  C   UNL     1      -8.803   8.386  70.068  1.00  0.00    -0.137 C  
HETATM    6  C   UNL     1      -8.971   9.250  67.250  1.00  0.00    -0.123 C  
HETATM    7  C   UNL     1      -7.692   8.610  70.837  1.00  0.00    -0.104 C  
HETATM    8  H   UNL     1      -7.601   7.884  74.813  1.00  0.00     0.000 HD 
HETATM    9  C   UNL     1      -8.808   8.435  68.443  1.00  0.00    -0.140 C  
HETATM   10  O   UNL     1      -8.042   7.187  74.342  1.00  0.00    -0.138 OA 
HETATM   11  C   UNL     1      -9.143   7.138  68.060  1.00  0.00    -0.132 C  
HETATM   12  C   UNL     1     -10.714   7.045  67.849  1.00  0.00    -0.274 C  
HETATM   13  C   UNL     1      -8.461   6.555  66.991  1.00  0.00    -0.113 C  
HETATM   14  C   UNL     1     -11.397   6.655  69.128  1.00  0.00    -0.262 C  
HETATM   15  C   UNL     1     -11.283   7.834  70.117  1.00  0.00    -0.159 C  
HETATM   16  C   UNL     1      -7.474   8.281  72.275  1.00  0.00    -0.149 C  
HETATM   17  C   UNL     1      -9.940   7.636  70.753  1.00  0.00    -0.181 C  
HETATM   18  C   UNL     1      -9.840   6.606  71.629  1.00  0.00    -0.177 C  
HETATM   19  O   UNL     1      -8.312   4.939  72.314  1.00  0.00    -0.116 OA 
HETATM   20  C   UNL     1      -7.933   7.189  72.961  1.00  0.00    -0.101 C  
HETATM   21  C   UNL     1      -8.614   6.113  72.234  1.00  0.00    -0.119 C  
BRANCH   4  22
HETATM   22  O   UNL     1      -9.001   9.361  64.746  1.00  0.00    -0.201 OA 
HETATM   23  C   UNL     1      -7.941  10.127  64.139  1.00  0.00    -0.154 C  
ENDBRANCH   4  22
BRANCH   6  24
HETATM   24  O   UNL     1      -9.569  10.503  67.372  1.00  0.00    -0.156 OA 
HETATM   25  C   UNL     1     -11.015  10.509  67.545  1.00  0.00    -0.303 C  
ENDBRANCH   6  24
BRANCH  15  26
HETATM   26  N   UNL     1     -12.379   7.783  71.068  1.00  0.00    -0.480 N  
HETATM   27  H   UNL     1     -12.782   6.877  71.308  1.00  0.00     0.000 HD 
HETATM   28  C   UNL     1     -12.891   8.920  71.655  1.00  0.00    -0.349 C  
HETATM   29  O   UNL     1     -12.331  10.003  71.691  1.00  0.00    -0.378 OA 
HETATM   30  C   UNL     1     -14.251   8.697  72.266  1.00  0.00    -0.497 C  
ENDBRANCH  15  26
ENDBRANCH   2   3
TORSDOF 4
ENDMDL
MODEL       66
REMARK 921   NORMALIZED FREE ENERGY PREDICTED BY IDOCK:   -4.34 KCAL/MOL
REMARK 922        TOTAL FREE ENERGY PREDICTED BY IDOCK:   -6.09 KCAL/MOL
REMARK 923 INTER-LIGAND FREE ENERGY PREDICTED BY IDOCK:   -5.53 KCAL/MOL
REMARK 924 INTRA-LIGAND FREE ENERGY PREDICTED BY IDOCK:   -0.56 KCAL/MOL
REMARK 927      BINDING AFFINITY PREDICTED BY RF-SCORE:    0.00 PKD
ROOT
HETATM    1  C   UNL     1      -7.333   6.974  63.311  1.00  0.00    -0.081 C  
HETATM    2  O   UNL     1      -8.215   8.090  63.357  1.00  0.00    -0.132 OA 
ENDROOT
BRANCH   2   3
HETATM    3  C   UNL     1      -8.512   8.596  64.594  1.00  0.00    -0.132 C  
HETATM    4  C   UNL     1      -9.246   9.779  64.742  1.00  0.00    -0.261 C  
HETATM    5  C   UNL     1      -8.471   9.718  68.835  1.00  0.00    -0.129 C  
HETATM    6  C   UNL     1      -9.374  10.376  66.103  1.00  0.00    -0.172 C  
HETATM    7  C   UNL     1      -7.336  10.256  69.380  1.00  0.00    -0.115 C  
HETATM    8  H   UNL     1      -6.328   9.767  73.265  1.00  0.00     0.000 HD 
HETATM    9  C   UNL     1      -8.788   9.687  67.241  1.00  0.00    -0.139 C  
HETATM   10  O   UNL     1      -6.650   8.959  72.884  1.00  0.00    -0.296 OA 
HETATM   11  C   UNL     1      -8.837   8.331  66.926  1.00  0.00    -0.155 C  
HETATM   12  C   UNL     1     -10.340   7.828  67.017  1.00  0.00    -0.405 C  
HETATM   13  C   UNL     1      -8.235   7.892  65.745  1.00  0.00    -0.130 C  
HETATM   14  C   UNL     1     -10.650   7.336  68.401  1.00  0.00    -0.209 C  
HETATM   15  C   UNL     1     -10.668   8.550  69.353  1.00  0.00    -0.156 C  
HETATM   16  C   UNL     1      -6.779  10.063  70.750  1.00  0.00    -0.016 C  
HETATM   17  C   UNL     1      -9.226   8.734  69.722  1.00  0.00    -0.155 C  
HETATM   18  C   UNL     1      -8.702   7.807  70.561  1.00  0.00    -0.140 C  
HETATM   19  O   UNL     1      -6.693   6.623  70.939  1.00  0.00    -0.052 OA 
HETATM   20  C   UNL     1      -6.802   8.923  71.508  1.00  0.00    -0.075 C  
HETATM   21  C   UNL     1      -7.300   7.675  70.921  1.00  0.00    -0.066 C  
BRANCH   4  22
HETATM   22  O   UNL     1      -9.892  10.356  63.650  1.00  0.00    -0.310 OA 
HETATM   23  C   UNL     1      -9.343  11.545  63.049  1.00  0.00    -0.266 C  
ENDBRANCH   4  22
BRANCH   6  24
HETATM   24  O   UNL     1     -10.246  11.437  66.339  1.00  0.00    -0.217 OA 
HETATM   25  C   UNL     1      -9.746  12.496  67.204  1.00  0.00    -0.205 C  
ENDBRANCH   6  24
BRANCH  15  26
HETATM   26  N   UNL     1     -11.518   8.264  70.495  1.00  0.00    -0.401 N  
HETATM   27  H   UNL     1     -11.631   7.296  70.796  1.00  0.00     0.000 HD 
HETATM   28  C   UNL     1     -12.177   9.260  71.184  1.00  0.00    -0.301 C  
HETATM   29  O   UNL     1     -11.906  10.449  71.127  1.00  0.00    -0.356 OA 
HETATM   30  C   UNL     1     -13.299   8.731  72.040  1.00  0.00    -0.455 C  
ENDBRANCH  15  26
ENDBRANCH   2   3
TORSDOF 4
ENDMDL
MODEL       67
REMARK 921   NORMALIZED FREE ENERGY PREDICTED BY IDOCK:   -4.27 KCAL/MOL
REMARK 922        TOTAL FREE ENERGY PREDICTED BY IDOCK:   -6.01 KCAL/MOL
REMARK 923 INTER-LIGAND FREE ENERGY PREDICTED BY IDOCK:   -5.38 KCAL/MOL
REMARK 924 INTRA-LIGAND FREE ENERGY PREDICTED BY IDOCK:   -0.63 KCAL/MOL
REMARK 927      BINDING AFFINITY PREDICTED BY RF-SCORE:    0.00 PKD
ROOT
HETATM    1  C   UNL     1     -12.774   8.607  72.081  1.00  0.00    -0.392 C  
HETATM    2  O   UNL     1     -11.700   7.754  72.457  1.00  0.00    -0.344 OA 
ENDROOT
BRANCH   2   3
HETATM    3  C   UNL     1     -10.871   7.323  71.456  1.00  0.00    -0.224 C  
HETATM    4  C   UNL     1     -10.210   6.091  71.535  1.00  0.00    -0.204 C  
HETATM    5  C   UNL     1      -8.039   7.064  68.115  1.00  0.00    -0.119 C  
HETATM    6  C   UNL     1      -9.180   5.764  70.507  1.00  0.00    -0.147 C  
HETATM    7  C   UNL     1      -6.876   7.785  68.158  1.00  0.00    -0.068 C  
HETATM    8  H   UNL     1      -5.030   9.166  64.837  1.00  0.00     0.000 HD 
HETATM    9  C   UNL     1      -8.933   6.701  69.423  1.00  0.00    -0.133 C  
HETATM   10  O   UNL     1      -5.971   9.288  64.789  1.00  0.00    -0.063 OA 
HETATM   11  C   UNL     1     -10.148   7.345  69.200  1.00  0.00    -0.189 C  
HETATM   12  C   UNL     1     -11.153   6.337  68.497  1.00  0.00    -0.397 C  
HETATM   13  C   UNL     1     -10.766   8.004  70.264  1.00  0.00    -0.239 C  
HETATM   14  C   UNL     1     -11.034   6.426  67.003  1.00  0.00    -0.463 C  
HETATM   15  C   UNL     1      -9.666   5.842  66.592  1.00  0.00    -0.157 C  
HETATM   16  C   UNL     1      -6.153   8.454  67.039  1.00  0.00    -0.055 C  
HETATM   17  C   UNL     1      -8.723   6.997  66.754  1.00  0.00    -0.124 C  
HETATM   18  C   UNL     1      -8.825   7.985  65.831  1.00  0.00    -0.189 C  
HETATM   19  O   UNL     1      -8.687  10.337  65.659  1.00  0.00    -0.150 OA 
HETATM   20  C   UNL     1      -6.697   9.082  65.950  1.00  0.00    -0.072 C  
HETATM   21  C   UNL     1      -8.149   9.270  65.876  1.00  0.00    -0.111 C  
BRANCH   4  22
HETATM   22  O   UNL     1     -10.548   5.164  72.520  1.00  0.00    -0.206 OA 
HETATM   23  C   UNL     1      -9.989   5.300  73.842  1.00  0.00    -0.187 C  
ENDBRANCH   4  22
BRANCH   6  24
HETATM   24  O   UNL     1      -8.633   4.485  70.425  1.00  0.00    -0.076 OA 
HETATM   25  C   UNL     1      -9.370   3.523  69.617  1.00  0.00    -0.174 C  
ENDBRANCH   6  24
BRANCH  15  26
HETATM   26  N   UNL     1      -9.735   5.348  65.228  1.00  0.00    -0.353 N  
HETATM   27  H   UNL     1      -9.759   6.019  64.460  1.00  0.00     0.000 HD 
HETATM   28  C   UNL     1      -9.770   4.000  64.940  1.00  0.00    -0.193 C  
HETATM   29  O   UNL     1      -9.456   3.110  65.714  1.00  0.00    -0.138 OA 
HETATM   30  C   UNL     1     -10.251   3.717  63.540  1.00  0.00    -0.210 C  
ENDBRANCH  15  26
ENDBRANCH   2   3
TORSDOF 4
ENDMDL
MODEL       68
REMARK 921   NORMALIZED FREE ENERGY PREDICTED BY IDOCK:   -4.24 KCAL/MOL
REMARK 922        TOTAL FREE ENERGY PREDICTED BY IDOCK:   -5.97 KCAL/MOL
REMARK 923 INTER-LIGAND FREE ENERGY PREDICTED BY IDOCK:   -5.28 KCAL/MOL
REMARK 924 INTRA-LIGAND FREE ENERGY PREDICTED BY IDOCK:   -0.69 KCAL/MOL
REMARK 927      BINDING AFFINITY PREDICTED BY RF-SCORE:    0.00 PKD
ROOT
HETATM    1  C   UNL     1      -9.105   8.116  73.115  1.00  0.00    -0.265 C  
HETATM    2  O   UNL     1      -9.830   9.100  72.389  1.00  0.00    -0.072 OA 
ENDROOT
BRANCH   2   3
HETATM    3  C   UNL     1      -9.952   8.911  71.038  1.00  0.00    -0.256 C  
HETATM    4  C   UNL     1     -10.781   9.726  70.258  1.00  0.00    -0.302 C  
HETATM    5  C   UNL     1     -10.141   7.214  66.996  1.00  0.00    -0.308 C  
HETATM    6  C   UNL     1     -11.016   9.353  68.833  1.00  0.00    -0.050 C  
HETATM    7  C   UNL     1     -10.891   6.091  66.770  1.00  0.00    -0.356 C  
HETATM    8  H   UNL     1      -9.971   3.382  63.914  1.00  0.00     0.000 HD 
HETATM    9  C   UNL     1     -10.335   8.194  68.278  1.00  0.00    -0.241 C  
HETATM   10  O   UNL     1      -9.197   3.668  64.385  1.00  0.00    -0.122 OA 
HETATM   11  C   UNL     1      -9.128   8.101  68.969  1.00  0.00    -0.148 C  
HETATM   12  C   UNL     1      -8.163   9.269  68.493  1.00  0.00    -0.114 C  
HETATM   13  C   UNL     1      -9.155   8.014  70.362  1.00  0.00    -0.150 C  
HETATM   14  C   UNL     1      -7.327   8.822  67.329  1.00  0.00    -0.081 C  
HETATM   15  C   UNL     1      -8.252   8.660  66.103  1.00  0.00    -0.121 C  
HETATM   16  C   UNL     1     -10.612   4.956  65.845  1.00  0.00    -0.280 C  
HETATM   17  C   UNL     1      -8.808   7.276  66.258  1.00  0.00    -0.179 C  
HETATM   18  C   UNL     1      -7.948   6.257  66.017  1.00  0.00    -0.114 C  
HETATM   19  O   UNL     1      -7.418   4.096  66.812  1.00  0.00    -0.078 OA 
HETATM   20  C   UNL     1      -9.395   4.406  65.540  1.00  0.00    -0.162 C  
HETATM   21  C   UNL     1      -8.201   4.847  66.266  1.00  0.00    -0.108 C  
BRANCH   4  22
HETATM   22  O   UNL     1     -11.331  10.893  70.785  1.00  0.00    -0.191 OA 
HETATM   23  C   UNL     1     -12.658  10.861  71.347  1.00  0.00    -0.403 C  
ENDBRANCH   4  22
BRANCH   6  24
HETATM   24  O   UNL     1     -11.671  10.224  67.964  1.00  0.00    -0.293 OA 
HETATM   25  C   UNL     1     -10.821  11.121  67.195  1.00  0.00    -0.273 C  
ENDBRANCH   6  24
BRANCH  15  26
HETATM   26  N   UNL     1      -7.483   8.834  64.884  1.00  0.00    -0.093 N  
HETATM   27  H   UNL     1      -6.535   8.459  64.841  1.00  0.00     0.000 HD 
HETATM   28  C   UNL     1      -7.994   9.491  63.785  1.00  0.00    -0.142 C  
HETATM   29  O   UNL     1      -9.177   9.719  63.592  1.00  0.00    -0.259 OA 
HETATM   30  C   UNL     1      -6.924   9.917  62.812  1.00  0.00    -0.119 C  
ENDBRANCH  15  26
ENDBRANCH   2   3
TORSDOF 4
ENDMDL
MODEL       69
REMARK 921   NORMALIZED FREE ENERGY PREDICTED BY IDOCK:   -4.21 KCAL/MOL
REMARK 922        TOTAL FREE ENERGY PREDICTED BY IDOCK:   -5.94 KCAL/MOL
REMARK 923 INTER-LIGAND FREE ENERGY PREDICTED BY IDOCK:   -6.58 KCAL/MOL
REMARK 924 INTRA-LIGAND FREE ENERGY PREDICTED BY IDOCK:    0.65 KCAL/MOL
REMARK 927      BINDING AFFINITY PREDICTED BY RF-SCORE:    0.00 PKD
ROOT
HETATM    1  C   UNL     1     -11.679  16.066  72.034  1.00  0.00    -0.493 C  
HETATM    2  O   UNL     1     -11.928  15.857  70.649  1.00  0.00    -0.364 OA 
ENDROOT
BRANCH   2   3
HETATM    3  C   UNL     1     -11.572  14.640  70.132  1.00  0.00    -0.282 C  
HETATM    4  C   UNL     1     -12.365  13.503  70.328  1.00  0.00    -0.300 C  
HETATM    5  C   UNL     1      -9.375  11.153  68.625  1.00  0.00    -0.186 C  
HETATM    6  C   UNL     1     -11.831  12.176  69.903  1.00  0.00    -0.319 C  
HETATM    7  C   UNL     1      -8.328  10.651  69.350  1.00  0.00    -0.073 C  
HETATM    8  H   UNL     1      -5.166   8.804  67.637  1.00  0.00     0.000 HD 
HETATM    9  C   UNL     1     -10.536  12.106  69.246  1.00  0.00     0.041 C  
HETATM   10  O   UNL     1      -5.420   9.580  67.152  1.00  0.00    -0.039 OA 
HETATM   11  C   UNL     1     -10.397  13.311  68.561  1.00  0.00    -0.244 C  
HETATM   12  C   UNL     1     -11.368  13.312  67.304  1.00  0.00    -0.347 C  
HETATM   13  C   UNL     1     -10.504  14.507  69.273  1.00  0.00    -0.185 C  
HETATM   14  C   UNL     1     -10.671  12.749  66.098  1.00  0.00    -0.297 C  
HETATM   15  C   UNL     1     -10.455  11.238  66.326  1.00  0.00    -0.258 C  
HETATM   16  C   UNL     1      -7.052  10.059  68.855  1.00  0.00    -0.068 C  
HETATM   17  C   UNL     1      -9.179  11.177  67.113  1.00  0.00    -0.165 C  
HETATM   18  C   UNL     1      -8.042  11.460  66.431  1.00  0.00    -0.106 C  
HETATM   19  O   UNL     1      -5.963  12.540  66.727  1.00  0.00    -0.213 OA 
HETATM   20  C   UNL     1      -6.327  10.435  67.756  1.00  0.00    -0.060 C  
HETATM   21  C   UNL     1      -6.720  11.633  67.007  1.00  0.00    -0.145 C  
BRANCH   4  22
HETATM   22  O   UNL     1     -13.650  13.615  70.857  1.00  0.00     0.003 OA 
HETATM   23  C   UNL     1     -13.888  13.233  72.226  1.00  0.00    -0.539 C  
ENDBRANCH   4  22
BRANCH   6  24
HETATM   24  O   UNL     1     -12.647  11.046  69.898  1.00  0.00    -0.261 OA 
HETATM   25  C   UNL     1     -12.429  10.094  70.977  1.00  0.00    -0.375 C  
ENDBRANCH   6  24
BRANCH  15  26
HETATM   26  N   UNL     1     -10.370  10.558  65.046  1.00  0.00    -0.295 N  
HETATM   27  H   UNL     1     -10.544   9.554  65.008  1.00  0.00     0.000 HD 
HETATM   28  C   UNL     1     -10.061  11.228  63.881  1.00  0.00    -0.340 C  
HETATM   29  O   UNL     1     -10.123  12.438  63.731  1.00  0.00    -0.394 OA 
HETATM   30  C   UNL     1      -9.625  10.301  62.775  1.00  0.00    -0.277 C  
ENDBRANCH  15  26
ENDBRANCH   2   3
TORSDOF 4
ENDMDL
MODEL       70
REMARK 921   NORMALIZED FREE ENERGY PREDICTED BY IDOCK:   -4.21 KCAL/MOL
REMARK 922        TOTAL FREE ENERGY PREDICTED BY IDOCK:   -5.93 KCAL/MOL
REMARK 923 INTER-LIGAND FREE ENERGY PREDICTED BY IDOCK:   -5.21 KCAL/MOL
REMARK 924 INTRA-LIGAND FREE ENERGY PREDICTED BY IDOCK:   -0.72 KCAL/MOL
REMARK 927      BINDING AFFINITY PREDICTED BY RF-SCORE:    0.00 PKD
ROOT
HETATM    1  C   UNL     1     -10.440   3.653  64.068  1.00  0.00    -0.265 C  
HETATM    2  O   UNL     1      -9.145   3.742  64.651  1.00  0.00    -0.125 OA 
ENDROOT
BRANCH   2   3
HETATM    3  C   UNL     1      -9.015   4.545  65.753  1.00  0.00    -0.131 C  
HETATM    4  C   UNL     1      -8.431   5.815  65.667  1.00  0.00    -0.149 C  
HETATM    5  C   UNL     1      -8.517   6.109  69.822  1.00  0.00    -0.128 C  
HETATM    6  C   UNL     1      -8.148   6.559  66.928  1.00  0.00    -0.113 C  
HETATM    7  C   UNL     1      -7.520   5.612  70.618  1.00  0.00    -0.085 C  
HETATM    8  H   UNL     1      -7.818   5.437  74.646  1.00  0.00     0.000 HD 
HETATM    9  C   UNL     1      -8.537   5.976  68.202  1.00  0.00    -0.114 C  
HETATM   10  O   UNL     1      -8.626   5.169  74.225  1.00  0.00    -0.113 OA 
HETATM   11  C   UNL     1      -9.666   5.205  67.933  1.00  0.00    -0.184 C  
HETATM   12  C   UNL     1     -10.901   6.165  67.656  1.00  0.00    -0.421 C  
HETATM   13  C   UNL     1      -9.583   4.207  66.961  1.00  0.00    -0.228 C  
HETATM   14  C   UNL     1     -11.630   6.469  68.933  1.00  0.00     0.032 C  
HETATM   15  C   UNL     1     -10.726   7.366  69.805  1.00  0.00    -0.241 C  
HETATM   16  C   UNL     1      -7.535   5.376  72.091  1.00  0.00    -0.095 C  
HETATM   17  C   UNL     1      -9.842   6.389  70.522  1.00  0.00    -0.207 C  
HETATM   18  C   UNL     1     -10.431   5.657  71.499  1.00  0.00    -0.298 C  
HETATM   19  O   UNL     1     -10.393   3.481  72.418  1.00  0.00    -0.159 OA 
HETATM   20  C   UNL     1      -8.586   4.952  72.858  1.00  0.00    -0.118 C  
HETATM   21  C   UNL     1      -9.834   4.538  72.208  1.00  0.00    -0.170 C  
BRANCH   4  22
HETATM   22  O   UNL     1      -8.172   6.396  64.426  1.00  0.00    -0.106 OA 
HETATM   23  C   UNL     1      -6.845   6.318  63.871  1.00  0.00    -0.038 C  
ENDBRANCH   4  22
BRANCH   6  24
HETATM   24  O   UNL     1      -7.749   7.894  66.896  1.00  0.00    -0.096 OA 
HETATM   25  C   UNL     1      -8.819   8.882  66.868  1.00  0.00    -0.127 C  
ENDBRANCH   6  24
BRANCH  15  26
HETATM   26  N   UNL     1     -11.545   8.161  70.702  1.00  0.00    -0.413 N  
HETATM   27  H   UNL     1     -12.208   7.687  71.315  1.00  0.00     0.000 HD 
HETATM   28  C   UNL     1     -11.453   9.536  70.750  1.00  0.00    -0.310 C  
HETATM   29  O   UNL     1     -10.523  10.192  70.308  1.00  0.00    -0.281 OA 
HETATM   30  C   UNL     1     -12.643  10.175  71.418  1.00  0.00    -0.526 C  
ENDBRANCH  15  26
ENDBRANCH   2   3
TORSDOF 4
ENDMDL
MODEL       71
REMARK 921   NORMALIZED FREE ENERGY PREDICTED BY IDOCK:   -4.16 KCAL/MOL
REMARK 922        TOTAL FREE ENERGY PREDICTED BY IDOCK:   -5.87 KCAL/MOL
REMARK 923 INTER-LIGAND FREE ENERGY PREDICTED BY IDOCK:   -5.16 KCAL/MOL
REMARK 924 INTRA-LIGAND FREE ENERGY PREDICTED BY IDOCK:   -0.70 KCAL/MOL
REMARK 927      BINDING AFFINITY PREDICTED BY RF-SCORE:    0.00 PKD
ROOT
HETATM    1  C   UNL     1      -7.774   2.149  67.318  1.00  0.00    -0.065 C  
HETATM    2  O   UNL     1      -8.685   3.099  66.778  1.00  0.00    -0.112 OA 
ENDROOT
BRANCH   2   3
HETATM    3  C   UNL     1      -8.774   4.306  67.419  1.00  0.00    -0.106 C  
HETATM    4  C   UNL     1      -8.959   5.498  66.707  1.00  0.00    -0.114 C  
HETATM    5  C   UNL     1      -8.367   7.659  70.221  1.00  0.00    -0.132 C  
HETATM    6  C   UNL     1      -8.860   6.793  67.442  1.00  0.00    -0.117 C  
HETATM    7  C   UNL     1      -7.123   8.019  70.665  1.00  0.00    -0.045 C  
HETATM    8  H   UNL     1      -6.491   9.665  74.303  1.00  0.00     0.000 HD 
HETATM    9  C   UNL     1      -8.634   6.782  68.878  1.00  0.00    -0.130 C  
HETATM   10  O   UNL     1      -7.109   8.945  74.349  1.00  0.00    -0.381 OA 
HETATM   11  C   UNL     1      -9.230   5.611  69.343  1.00  0.00    -0.145 C  
HETATM   12  C   UNL     1     -10.809   5.774  69.292  1.00  0.00    -0.374 C  
HETATM   13  C   UNL     1      -8.837   4.391  68.792  1.00  0.00    -0.133 C  
HETATM   14  C   UNL     1     -11.324   6.340  70.584  1.00  0.00    -0.409 C  
HETATM   15  C   UNL     1     -10.861   7.808  70.688  1.00  0.00    -0.237 C  
HETATM   16  C   UNL     1      -6.725   8.520  72.012  1.00  0.00    -0.087 C  
HETATM   17  C   UNL     1      -9.480   7.706  71.263  1.00  0.00    -0.166 C  
HETATM   18  C   UNL     1      -9.401   7.360  72.571  1.00  0.00    -0.185 C  
HETATM   19  O   UNL     1      -8.067   6.078  74.039  1.00  0.00    -0.104 OA 
HETATM   20  C   UNL     1      -7.232   8.143  73.227  1.00  0.00    -0.127 C  
HETATM   21  C   UNL     1      -8.187   7.033  73.298  1.00  0.00    -0.108 C  
BRANCH   4  22
HETATM   22  O   UNL     1      -9.287   5.474  65.353  1.00  0.00    -0.078 OA 
HETATM   23  C   UNL     1      -8.250   5.662  64.370  1.00  0.00    -0.120 C  
ENDBRANCH   4  22
BRANCH   6  24
HETATM   24  O   UNL     1      -9.222   7.991  66.830  1.00  0.00    -0.147 OA 
HETATM   25  C   UNL     1      -8.127   8.864  66.433  1.00  0.00    -0.110 C  
ENDBRANCH   6  24
BRANCH  15  26
HETATM   26  N   UNL     1     -11.778   8.552  71.533  1.00  0.00    -0.281 N  
HETATM   27  H   UNL     1     -12.236   8.071  72.307  1.00  0.00     0.000 HD 
HETATM   28  C   UNL     1     -12.049   9.887  71.320  1.00  0.00    -0.394 C  
HETATM   29  O   UNL     1     -11.369  10.641  70.643  1.00  0.00    -0.316 OA 
HETATM   30  C   UNL     1     -13.302  10.345  72.022  1.00  0.00    -0.440 C  
ENDBRANCH  15  26
ENDBRANCH   2   3
TORSDOF 4
ENDMDL
MODEL       72
REMARK 921   NORMALIZED FREE ENERGY PREDICTED BY IDOCK:   -4.15 KCAL/MOL
REMARK 922        TOTAL FREE ENERGY PREDICTED BY IDOCK:   -5.86 KCAL/MOL
REMARK 923 INTER-LIGAND FREE ENERGY PREDICTED BY IDOCK:   -5.22 KCAL/MOL
REMARK 924 INTRA-LIGAND FREE ENERGY PREDICTED BY IDOCK:   -0.64 KCAL/MOL
REMARK 927      BINDING AFFINITY PREDICTED BY RF-SCORE:    0.00 PKD
ROOT
HETATM    1  C   UNL     1     -10.357   3.981  64.775  1.00  0.00    -0.197 C  
HETATM    2  O   UNL     1      -9.196   4.801  64.738  1.00  0.00    -0.154 OA 
ENDROOT
BRANCH   2   3
HETATM    3  C   UNL     1      -9.002   5.650  65.794  1.00  0.00    -0.147 C  
HETATM    4  C   UNL     1      -7.808   6.366  65.947  1.00  0.00    -0.102 C  
HETATM    5  C   UNL     1      -9.074   7.631  69.709  1.00  0.00    -0.147 C  
HETATM    6  C   UNL     1      -7.585   7.126  67.211  1.00  0.00    -0.104 C  
HETATM    7  C   UNL     1      -8.873   6.891  70.844  1.00  0.00    -0.149 C  
HETATM    8  H   UNL     1     -10.526   7.852  74.406  1.00  0.00     0.000 HD 
HETATM    9  C   UNL     1      -8.631   7.151  68.220  1.00  0.00    -0.122 C  
HETATM   10  O   UNL     1     -11.147   7.956  73.694  1.00  0.00    -0.101 OA 
HETATM   11  C   UNL     1      -9.831   7.046  67.521  1.00  0.00    -0.186 C  
HETATM   12  C   UNL     1     -10.116   8.412  66.763  1.00  0.00    -0.373 C  
HETATM   13  C   UNL     1     -10.020   5.955  66.670  1.00  0.00    -0.214 C  
HETATM   14  C   UNL     1     -10.910   9.343  67.633  1.00  0.00    -0.222 C  
HETATM   15  C   UNL     1     -10.005   9.811  68.793  1.00  0.00    -0.169 C  
HETATM   16  C   UNL     1      -9.505   7.053  72.184  1.00  0.00    -0.150 C  
HETATM   17  C   UNL     1     -10.139   8.718  69.811  1.00  0.00    -0.198 C  
HETATM   18  C   UNL     1     -11.323   8.656  70.469  1.00  0.00    -0.241 C  
HETATM   19  O   UNL     1     -12.844   7.070  71.334  1.00  0.00    -0.377 OA 
HETATM   20  C   UNL     1     -10.791   7.435  72.462  1.00  0.00    -0.283 C  
HETATM   21  C   UNL     1     -11.749   7.594  71.364  1.00  0.00    -0.283 C  
BRANCH   4  22
HETATM   22  O   UNL     1      -6.872   6.415  64.915  1.00  0.00    -0.048 OA 
HETATM   23  C   UNL     1      -7.172   7.163  63.721  1.00  0.00    -0.074 C  
ENDBRANCH   4  22
BRANCH   6  24
HETATM   24  O   UNL     1      -6.510   8.004  67.337  1.00  0.00    -0.054 OA 
HETATM   25  C   UNL     1      -6.798   9.409  67.089  1.00  0.00    -0.084 C  
ENDBRANCH   6  24
BRANCH  15  26
HETATM   26  N   UNL     1     -10.460  11.102  69.277  1.00  0.00    -0.369 N  
HETATM   27  H   UNL     1     -10.965  11.147  70.162  1.00  0.00     0.000 HD 
HETATM   28  C   UNL     1     -10.230  12.268  68.577  1.00  0.00    -0.206 C  
HETATM   29  O   UNL     1      -9.406  12.399  67.686  1.00  0.00    -0.177 OA 
HETATM   30  C   UNL     1     -11.118  13.400  69.025  1.00  0.00    -0.293 C  
ENDBRANCH  15  26
ENDBRANCH   2   3
TORSDOF 4
ENDMDL
MODEL       73
REMARK 921   NORMALIZED FREE ENERGY PREDICTED BY IDOCK:   -4.14 KCAL/MOL
REMARK 922        TOTAL FREE ENERGY PREDICTED BY IDOCK:   -5.84 KCAL/MOL
REMARK 923 INTER-LIGAND FREE ENERGY PREDICTED BY IDOCK:   -5.16 KCAL/MOL
REMARK 924 INTRA-LIGAND FREE ENERGY PREDICTED BY IDOCK:   -0.68 KCAL/MOL
REMARK 927      BINDING AFFINITY PREDICTED BY RF-SCORE:    0.00 PKD
ROOT
HETATM    1  C   UNL     1      -6.487  14.574  69.701  1.00  0.00    -0.148 C  
HETATM    2  O   UNL     1      -6.470  13.644  68.624  1.00  0.00    -0.081 OA 
ENDROOT
BRANCH   2   3
HETATM    3  C   UNL     1      -7.392  12.632  68.665  1.00  0.00    -0.101 C  
HETATM    4  C   UNL     1      -8.563  12.680  67.899  1.00  0.00    -0.181 C  
HETATM    5  C   UNL     1      -9.960   9.283  69.868  1.00  0.00    -0.226 C  
HETATM    6  C   UNL     1      -9.611  11.642  68.128  1.00  0.00    -0.190 C  
HETATM    7  C   UNL     1     -10.635   9.345  71.057  1.00  0.00    -0.400 C  
HETATM    8  H   UNL     1     -11.553   6.058  73.225  1.00  0.00     0.000 HD 
HETATM    9  C   UNL     1      -9.365  10.582  69.092  1.00  0.00    -0.200 C  
HETATM   10  O   UNL     1     -10.668   6.014  72.883  1.00  0.00    -0.221 OA 
HETATM   11  C   UNL     1      -7.987  10.377  69.081  1.00  0.00    -0.141 C  
HETATM   12  C   UNL     1      -7.578   9.650  67.730  1.00  0.00    -0.087 C  
HETATM   13  C   UNL     1      -7.143  11.458  69.340  1.00  0.00    -0.065 C  
HETATM   14  C   UNL     1      -7.621   8.158  67.898  1.00  0.00    -0.102 C  
HETATM   15  C   UNL     1      -9.097   7.731  68.050  1.00  0.00    -0.128 C  
HETATM   16  C   UNL     1     -10.935   8.242  72.015  1.00  0.00    -0.374 C  
HETATM   17  C   UNL     1      -9.373   7.921  69.511  1.00  0.00    -0.156 C  
HETATM   18  C   UNL     1      -8.799   7.024  70.350  1.00  0.00    -0.155 C  
HETATM   19  O   UNL     1      -7.792   6.912  72.483  1.00  0.00    -0.095 OA 
HETATM   20  C   UNL     1     -10.144   7.170  72.329  1.00  0.00    -0.181 C  
HETATM   21  C   UNL     1      -8.778   7.101  71.801  1.00  0.00    -0.117 C  
BRANCH   4  22
HETATM   22  O   UNL     1      -8.722  13.641  66.903  1.00  0.00    -0.214 OA 
HETATM   23  C   UNL     1      -9.543  14.798  67.159  1.00  0.00    -0.227 C  
ENDBRANCH   4  22
BRANCH   6  24
HETATM   24  O   UNL     1     -10.702  11.527  67.269  1.00  0.00    -0.220 OA 
HETATM   25  C   UNL     1     -10.440  10.902  65.981  1.00  0.00    -0.225 C  
ENDBRANCH   6  24
BRANCH  15  26
HETATM   26  N   UNL     1      -9.255   6.356  67.613  1.00  0.00    -0.117 N  
HETATM   27  H   UNL     1      -8.543   5.671  67.868  1.00  0.00     0.000 HD 
HETATM   28  C   UNL     1     -10.337   5.947  66.863  1.00  0.00    -0.247 C  
HETATM   29  O   UNL     1     -11.381   6.567  66.743  1.00  0.00    -0.272 OA 
HETATM   30  C   UNL     1     -10.105   4.623  66.181  1.00  0.00    -0.291 C  
ENDBRANCH  15  26
ENDBRANCH   2   3
TORSDOF 4
ENDMDL
MODEL       74
REMARK 921   NORMALIZED FREE ENERGY PREDICTED BY IDOCK:   -4.14 KCAL/MOL
REMARK 922        TOTAL FREE ENERGY PREDICTED BY IDOCK:   -5.84 KCAL/MOL
REMARK 923 INTER-LIGAND FREE ENERGY PREDICTED BY IDOCK:   -5.59 KCAL/MOL
REMARK 924 INTRA-LIGAND FREE ENERGY PREDICTED BY IDOCK:   -0.26 KCAL/MOL
REMARK 927      BINDING AFFINITY PREDICTED BY RF-SCORE:    0.00 PKD
ROOT
HETATM    1  C   UNL     1      -8.725   9.897  63.698  1.00  0.00    -0.213 C  
HETATM    2  O   UNL     1     -10.021  10.242  64.172  1.00  0.00    -0.315 OA 
ENDROOT
BRANCH   2   3
HETATM    3  C   UNL     1     -10.083  11.066  65.264  1.00  0.00    -0.275 C  
HETATM    4  C   UNL     1     -10.611  10.624  66.483  1.00  0.00    -0.193 C  
HETATM    5  C   UNL     1     -10.393  14.514  67.959  1.00  0.00    -0.229 C  
HETATM    6  C   UNL     1     -10.823  11.619  67.574  1.00  0.00    -0.237 C  
HETATM    7  C   UNL     1     -11.388  15.434  67.766  1.00  0.00    -0.308 C  
HETATM    8  H   UNL     1     -10.984  19.335  68.746  1.00  0.00     0.000 HD 
HETATM    9  C   UNL     1     -10.425  13.002  67.364  1.00  0.00    -0.235 C  
HETATM   10  O   UNL     1     -10.201  18.999  68.326  1.00  0.00    -0.371 OA 
HETATM   11  C   UNL     1      -9.340  12.952  66.491  1.00  0.00    -0.224 C  
HETATM   12  C   UNL     1      -8.072  12.391  67.264  1.00  0.00    -0.182 C  
HETATM   13  C   UNL     1      -9.496  12.311  65.260  1.00  0.00     0.057 C  
HETATM   14  C   UNL     1      -7.293  13.514  67.886  1.00  0.00    -0.149 C  
HETATM   15  C   UNL     1      -8.131  14.102  69.042  1.00  0.00     0.043 C  
HETATM   16  C   UNL     1     -11.342  16.911  67.965  1.00  0.00     0.073 C  
HETATM   17  C   UNL     1      -9.037  15.084  68.360  1.00  0.00    -0.184 C  
HETATM   18  C   UNL     1      -8.454  16.223  67.912  1.00  0.00    -0.166 C  
HETATM   19  O   UNL     1      -8.565  17.733  66.099  1.00  0.00    -0.446 OA 
HETATM   20  C   UNL     1     -10.290  17.754  67.726  1.00  0.00    -0.380 C  
HETATM   21  C   UNL     1      -9.081  17.234  67.078  1.00  0.00    -0.236 C  
BRANCH   4  22
HETATM   22  O   UNL     1     -10.878   9.272  66.694  1.00  0.00    -0.072 OA 
HETATM   23  C   UNL     1      -9.838   8.416  67.207  1.00  0.00    -0.203 C  
ENDBRANCH   4  22
BRANCH   6  24
HETATM   24  O   UNL     1     -11.162  11.207  68.861  1.00  0.00    -0.211 OA 
HETATM   25  C   UNL     1     -12.188  11.991  69.536  1.00  0.00    -0.117 C  
ENDBRANCH   6  24
BRANCH  15  26
HETATM   26  N   UNL     1      -7.251  14.719  70.018  1.00  0.00    -0.360 N  
HETATM   27  H   UNL     1      -7.521  15.611  70.433  1.00  0.00     0.000 HD 
HETATM   28  C   UNL     1      -6.063  14.135  70.403  1.00  0.00    -0.169 C  
HETATM   29  O   UNL     1      -5.766  12.965  70.223  1.00  0.00    -0.136 OA 
HETATM   30  C   UNL     1      -5.132  15.105  71.085  1.00  0.00    -0.149 C  
ENDBRANCH  15  26
ENDBRANCH   2   3
TORSDOF 4
ENDMDL
MODEL       75
REMARK 921   NORMALIZED FREE ENERGY PREDICTED BY IDOCK:   -4.04 KCAL/MOL
REMARK 922        TOTAL FREE ENERGY PREDICTED BY IDOCK:   -5.72 KCAL/MOL
REMARK 923 INTER-LIGAND FREE ENERGY PREDICTED BY IDOCK:   -4.93 KCAL/MOL
REMARK 924 INTRA-LIGAND FREE ENERGY PREDICTED BY IDOCK:   -0.79 KCAL/MOL
REMARK 927      BINDING AFFINITY PREDICTED BY RF-SCORE:    0.00 PKD
ROOT
HETATM    1  C   UNL     1     -11.362  12.263  65.411  1.00  0.00    -0.343 C  
HETATM    2  O   UNL     1      -9.951  12.094  65.358  1.00  0.00    -0.253 OA 
ENDROOT
BRANCH   2   3
HETATM    3  C   UNL     1      -9.448  10.913  65.833  1.00  0.00    -0.207 C  
HETATM    4  C   UNL     1      -8.272  10.873  66.592  1.00  0.00    -0.145 C  
HETATM    5  C   UNL     1      -8.328   6.710  66.412  1.00  0.00    -0.121 C  
HETATM    6  C   UNL     1      -7.677   9.544  66.920  1.00  0.00    -0.098 C  
HETATM    7  C   UNL     1      -7.781   6.008  65.372  1.00  0.00    -0.091 C  
HETATM    8  H   UNL     1      -8.263   2.019  64.928  1.00  0.00     0.000 HD 
HETATM    9  C   UNL     1      -8.361   8.333  66.497  1.00  0.00    -0.112 C  
HETATM   10  O   UNL     1      -9.074   2.441  65.186  1.00  0.00    -0.128 OA 
HETATM   11  C   UNL     1      -9.717   8.652  66.488  1.00  0.00    -0.325 C  
HETATM   12  C   UNL     1     -10.234   8.777  67.984  1.00  0.00    -0.264 C  
HETATM   13  C   UNL     1     -10.150   9.734  65.719  1.00  0.00    -0.308 C  
HETATM   14  C   UNL     1     -10.729   7.451  68.486  1.00  0.00    -0.138 C  
HETATM   15  C   UNL     1      -9.516   6.512  68.651  1.00  0.00    -0.123 C  
HETATM   16  C   UNL     1      -7.970   4.573  65.016  1.00  0.00    -0.098 C  
HETATM   17  C   UNL     1      -9.319   5.940  67.279  1.00  0.00    -0.113 C  
HETATM   18  C   UNL     1     -10.242   5.034  66.872  1.00  0.00    -0.270 C  
HETATM   19  O   UNL     1     -11.409   4.371  64.928  1.00  0.00    -0.266 OA 
HETATM   20  C   UNL     1      -9.111   3.825  65.138  1.00  0.00    -0.142 C  
HETATM   21  C   UNL     1     -10.362   4.477  65.535  1.00  0.00    -0.229 C  
BRANCH   4  22
HETATM   22  O   UNL     1      -7.700  12.046  67.080  1.00  0.00    -0.159 OA 
HETATM   23  C   UNL     1      -8.182  12.609  68.315  1.00  0.00    -0.164 C  
ENDBRANCH   4  22
BRANCH   6  24
HETATM   24  O   UNL     1      -6.623   9.437  67.825  1.00  0.00    -0.062 OA 
HETATM   25  C   UNL     1      -6.993   9.178  69.210  1.00  0.00    -0.053 C  
ENDBRANCH   6  24
BRANCH  15  26
HETATM   26  N   UNL     1      -9.810   5.505  69.653  1.00  0.00    -0.176 N  
HETATM   27  H   UNL     1     -10.403   4.714  69.400  1.00  0.00     0.000 HD 
HETATM   28  C   UNL     1      -9.313   5.584  70.937  1.00  0.00    -0.156 C  
HETATM   29  O   UNL     1      -8.379   6.288  71.285  1.00  0.00    -0.121 OA 
HETATM   30  C   UNL     1     -10.054   4.695  71.904  1.00  0.00    -0.266 C  
ENDBRANCH  15  26
ENDBRANCH   2   3
TORSDOF 4
ENDMDL
MODEL       76
REMARK 921   NORMALIZED FREE ENERGY PREDICTED BY IDOCK:   -3.93 KCAL/MOL
REMARK 922        TOTAL FREE ENERGY PREDICTED BY IDOCK:   -5.59 KCAL/MOL
REMARK 923 INTER-LIGAND FREE ENERGY PREDICTED BY IDOCK:   -5.43 KCAL/MOL
REMARK 924 INTRA-LIGAND FREE ENERGY PREDICTED BY IDOCK:   -0.15 KCAL/MOL
REMARK 927      BINDING AFFINITY PREDICTED BY RF-SCORE:    0.00 PKD
ROOT
HETATM    1  C   UNL     1      -5.502   9.360  65.049  1.00  0.00    -0.046 C  
HETATM    2  O   UNL     1      -5.568   9.955  66.340  1.00  0.00    -0.046 OA 
ENDROOT
BRANCH   2   3
HETATM    3  C   UNL     1      -6.687  10.691  66.626  1.00  0.00    -0.106 C  
HETATM    4  C   UNL     1      -7.855  10.086  67.108  1.00  0.00    -0.099 C  
HETATM    5  C   UNL     1      -9.868  13.712  66.706  1.00  0.00    -0.271 C  
HETATM    6  C   UNL     1      -9.093  10.911  67.222  1.00  0.00    -0.141 C  
HETATM    7  C   UNL     1     -10.455  14.105  65.533  1.00  0.00    -0.352 C  
HETATM    8  H   UNL     1     -11.967  17.813  64.976  1.00  0.00     0.000 HD 
HETATM    9  C   UNL     1      -9.040  12.325  66.889  1.00  0.00    -0.208 C  
HETATM   10  O   UNL     1     -11.132  17.842  65.428  1.00  0.00    -0.277 OA 
HETATM   11  C   UNL     1      -7.744  12.735  67.193  1.00  0.00    -0.072 C  
HETATM   12  C   UNL     1      -7.572  12.795  68.770  1.00  0.00    -0.025 C  
HETATM   13  C   UNL     1      -6.670  12.067  66.600  1.00  0.00     0.160 C  
HETATM   14  C   UNL     1      -7.934  14.156  69.290  1.00  0.00     0.187 C  
HETATM   15  C   UNL     1      -9.458  14.343  69.134  1.00  0.00     0.048 C  
HETATM   16  C   UNL     1     -10.944  15.459  65.145  1.00  0.00    -0.430 C  
HETATM   17  C   UNL     1      -9.615  14.822  67.721  1.00  0.00    -0.209 C  
HETATM   18  C   UNL     1      -9.212  16.092  67.473  1.00  0.00    -0.210 C  
HETATM   19  O   UNL     1      -8.151  17.371  65.794  1.00  0.00    -0.543 OA 
HETATM   20  C   UNL     1     -10.393  16.671  65.468  1.00  0.00    -0.247 C  
HETATM   21  C   UNL     1      -9.104  16.715  66.165  1.00  0.00    -0.283 C  
BRANCH   4  22
HETATM   22  O   UNL     1      -7.847   8.757  67.526  1.00  0.00    -0.100 OA 
HETATM   23  C   UNL     1      -7.826   8.458  68.936  1.00  0.00    -0.113 C  
ENDBRANCH   4  22
BRANCH   6  24
HETATM   24  O   UNL     1     -10.224  10.417  67.870  1.00  0.00    -0.165 OA 
HETATM   25  C   UNL     1     -11.455  11.169  67.672  1.00  0.00    -0.250 C  
ENDBRANCH   6  24
BRANCH  15  26
HETATM   26  N   UNL     1      -9.937  15.298  70.117  1.00  0.00    -0.494 N  
HETATM   27  H   UNL     1      -9.257  15.857  70.634  1.00  0.00     0.000 HD 
HETATM   28  C   UNL     1     -11.280  15.473  70.373  1.00  0.00    -0.337 C  
HETATM   29  O   UNL     1     -12.186  15.105  69.643  1.00  0.00    -0.302 OA 
HETATM   30  C   UNL     1     -11.536  16.181  71.679  1.00  0.00    -0.503 C  
ENDBRANCH  15  26
ENDBRANCH   2   3
TORSDOF 4
ENDMDL
MODEL       77
REMARK 921   NORMALIZED FREE ENERGY PREDICTED BY IDOCK:   -3.93 KCAL/MOL
REMARK 922        TOTAL FREE ENERGY PREDICTED BY IDOCK:   -5.58 KCAL/MOL
REMARK 923 INTER-LIGAND FREE ENERGY PREDICTED BY IDOCK:   -5.15 KCAL/MOL
REMARK 924 INTRA-LIGAND FREE ENERGY PREDICTED BY IDOCK:   -0.44 KCAL/MOL
REMARK 927      BINDING AFFINITY PREDICTED BY RF-SCORE:    0.00 PKD
ROOT
HETATM    1  C   UNL     1     -11.974   4.473  73.183  1.00  0.00     0.156 C  
HETATM    2  O   UNL     1     -11.406   5.772  73.302  1.00  0.00    -0.213 OA 
ENDROOT
BRANCH   2   3
HETATM    3  C   UNL     1     -10.635   6.209  72.258  1.00  0.00    -0.216 C  
HETATM    4  C   UNL     1      -9.318   5.766  72.087  1.00  0.00    -0.146 C  
HETATM    5  C   UNL     1      -8.801   8.555  69.035  1.00  0.00    -0.145 C  
HETATM    6  C   UNL     1      -8.472   6.419  71.045  1.00  0.00    -0.127 C  
HETATM    7  C   UNL     1      -8.423   9.849  69.273  1.00  0.00    -0.158 C  
HETATM    8  H   UNL     1      -8.404  12.690  66.397  1.00  0.00     0.000 HD 
HETATM    9  C   UNL     1      -9.052   7.451  70.202  1.00  0.00    -0.148 C  
HETATM   10  O   UNL     1      -9.183  12.148  66.347  1.00  0.00    -0.219 OA 
HETATM   11  C   UNL     1     -10.402   7.128  70.086  1.00  0.00    -0.218 C  
HETATM   12  C   UNL     1     -10.557   5.857  69.148  1.00  0.00    -0.369 C  
HETATM   13  C   UNL     1     -11.162   6.984  71.249  1.00  0.00    -0.296 C  
HETATM   14  C   UNL     1     -10.716   6.274  67.714  1.00  0.00    -0.383 C  
HETATM   15  C   UNL     1      -9.373   6.861  67.229  1.00  0.00    -0.135 C  
HETATM   16  C   UNL     1      -8.478  11.020  68.352  1.00  0.00    -0.144 C  
HETATM   17  C   UNL     1      -9.430   8.293  67.671  1.00  0.00    -0.176 C  
HETATM   18  C   UNL     1     -10.280   9.096  66.985  1.00  0.00    -0.333 C  
HETATM   19  O   UNL     1     -11.769  10.896  67.337  1.00  0.00    -0.510 OA 
HETATM   20  C   UNL     1      -9.433  11.298  67.411  1.00  0.00    -0.165 C  
HETATM   21  C   UNL     1     -10.634  10.461  67.332  1.00  0.00    -0.269 C  
BRANCH   4  22
HETATM   22  O   UNL     1      -8.825   4.697  72.833  1.00  0.00    -0.115 OA 
HETATM   23  C   UNL     1      -7.759   4.924  73.777  1.00  0.00    -0.095 C  
ENDBRANCH   4  22
BRANCH   6  24
HETATM   24  O   UNL     1      -7.228   5.893  70.702  1.00  0.00    -0.077 OA 
HETATM   25  C   UNL     1      -6.107   6.822  70.743  1.00  0.00    -0.028 C  
ENDBRANCH   6  24
BRANCH  15  26
HETATM   26  N   UNL     1      -9.266   6.710  65.789  1.00  0.00    -0.374 N  
HETATM   27  H   UNL     1     -10.104   6.822  65.218  1.00  0.00     0.000 HD 
HETATM   28  C   UNL     1      -8.067   6.423  65.171  1.00  0.00    -0.136 C  
HETATM   29  O   UNL     1      -6.967   6.556  65.681  1.00  0.00    -0.054 OA 
HETATM   30  C   UNL     1      -8.246   5.909  63.765  1.00  0.00    -0.051 C  
ENDBRANCH  15  26
ENDBRANCH   2   3
TORSDOF 4
ENDMDL
MODEL       78
REMARK 921   NORMALIZED FREE ENERGY PREDICTED BY IDOCK:   -3.86 KCAL/MOL
REMARK 922        TOTAL FREE ENERGY PREDICTED BY IDOCK:   -5.50 KCAL/MOL
REMARK 923 INTER-LIGAND FREE ENERGY PREDICTED BY IDOCK:   -4.83 KCAL/MOL
REMARK 924 INTRA-LIGAND FREE ENERGY PREDICTED BY IDOCK:   -0.68 KCAL/MOL
REMARK 927      BINDING AFFINITY PREDICTED BY RF-SCORE:    0.00 PKD
ROOT
HETATM    1  C   UNL     1     -12.040  12.829  65.424  1.00  0.00    -0.462 C  
HETATM    2  O   UNL     1     -11.651  12.948  66.786  1.00  0.00    -0.322 OA 
ENDROOT
BRANCH   2   3
HETATM    3  C   UNL     1     -10.771  12.014  67.264  1.00  0.00    -0.232 C  
HETATM    4  C   UNL     1      -9.605  12.390  67.944  1.00  0.00    -0.205 C  
HETATM    5  C   UNL     1      -8.329   8.423  67.896  1.00  0.00    -0.131 C  
HETATM    6  C   UNL     1      -8.598  11.339  68.272  1.00  0.00    -0.153 C  
HETATM    7  C   UNL     1      -7.641   7.882  66.844  1.00  0.00    -0.099 C  
HETATM    8  H   UNL     1      -6.838   3.930  66.555  1.00  0.00     0.000 HD 
HETATM    9  C   UNL     1      -8.878   9.953  67.932  1.00  0.00    -0.129 C  
HETATM   10  O   UNL     1      -7.727   4.084  66.852  1.00  0.00    -0.086 OA 
HETATM   11  C   UNL     1     -10.263   9.821  68.004  1.00  0.00    -0.229 C  
HETATM   12  C   UNL     1     -10.713   9.850  69.526  1.00  0.00    -0.265 C  
HETATM   13  C   UNL     1     -11.061  10.668  67.233  1.00  0.00    -0.313 C  
HETATM   14  C   UNL     1     -10.728   8.463  70.100  1.00  0.00    -0.238 C  
HETATM   15  C   UNL     1      -9.270   7.970  70.213  1.00  0.00    -0.155 C  
HETATM   16  C   UNL     1      -7.377   6.445  66.545  1.00  0.00    -0.078 C  
HETATM   17  C   UNL     1      -8.973   7.422  68.849  1.00  0.00    -0.130 C  
HETATM   18  C   UNL     1      -9.575   6.250  68.532  1.00  0.00    -0.128 C  
HETATM   19  O   UNL     1     -10.568   5.152  66.691  1.00  0.00    -0.279 OA 
HETATM   20  C   UNL     1      -8.209   5.379  66.765  1.00  0.00    -0.108 C  
HETATM   21  C   UNL     1      -9.581   5.617  67.224  1.00  0.00    -0.119 C  
BRANCH   4  22
HETATM   22  O   UNL     1      -9.416  13.707  68.357  1.00  0.00    -0.208 OA 
HETATM   23  C   UNL     1      -8.750  14.636  67.479  1.00  0.00    -0.186 C  
ENDBRANCH   4  22
BRANCH   6  24
HETATM   24  O   UNL     1      -7.520  11.619  69.109  1.00  0.00    -0.089 OA 
HETATM   25  C   UNL     1      -6.268  11.961  68.448  1.00  0.00    -0.050 C  
ENDBRANCH   6  24
BRANCH  15  26
HETATM   26  N   UNL     1      -9.171   6.973  71.263  1.00  0.00    -0.152 N  
HETATM   27  H   UNL     1      -9.870   6.230  71.307  1.00  0.00     0.000 HD 
HETATM   28  C   UNL     1      -8.163   6.998  72.204  1.00  0.00    -0.100 C  
HETATM   29  O   UNL     1      -7.123   7.629  72.099  1.00  0.00    -0.062 OA 
HETATM   30  C   UNL     1      -8.473   6.152  73.412  1.00  0.00    -0.119 C  
ENDBRANCH  15  26
ENDBRANCH   2   3
TORSDOF 4
ENDMDL
MODEL       79
REMARK 921   NORMALIZED FREE ENERGY PREDICTED BY IDOCK:   -3.86 KCAL/MOL
REMARK 922        TOTAL FREE ENERGY PREDICTED BY IDOCK:   -5.49 KCAL/MOL
REMARK 923 INTER-LIGAND FREE ENERGY PREDICTED BY IDOCK:   -4.90 KCAL/MOL
REMARK 924 INTRA-LIGAND FREE ENERGY PREDICTED BY IDOCK:   -0.59 KCAL/MOL
REMARK 927      BINDING AFFINITY PREDICTED BY RF-SCORE:    0.00 PKD
ROOT
HETATM    1  C   UNL     1     -11.831  15.645  69.787  1.00  0.00    -0.363 C  
HETATM    2  O   UNL     1     -11.836  15.248  68.421  1.00  0.00    -0.339 OA 
ENDROOT
BRANCH   2   3
HETATM    3  C   UNL     1     -11.411  13.976  68.143  1.00  0.00    -0.292 C  
HETATM    4  C   UNL     1     -11.542  13.426  66.862  1.00  0.00    -0.365 C  
HETATM    5  C   UNL     1     -10.321   9.731  68.350  1.00  0.00    -0.230 C  
HETATM    6  C   UNL     1     -11.235  11.979  66.670  1.00  0.00    -0.327 C  
HETATM    7  C   UNL     1     -11.192   8.837  68.914  1.00  0.00     0.341 C  
HETATM    8  H   UNL     1      -9.966   5.483  70.809  1.00  0.00     0.000 HD 
HETATM    9  C   UNL     1     -10.754  11.197  67.797  1.00  0.00    -0.267 C  
HETATM   10  O   UNL     1      -9.426   6.230  71.039  1.00  0.00    -0.172 OA 
HETATM   11  C   UNL     1     -10.051  12.091  68.602  1.00  0.00    -0.170 C  
HETATM   12  C   UNL     1      -8.680  12.465  67.894  1.00  0.00    -0.175 C  
HETATM   13  C   UNL     1     -10.702  13.236  69.063  1.00  0.00    -0.156 C  
HETATM   14  C   UNL     1      -7.594  11.514  68.308  1.00  0.00    -0.115 C  
HETATM   15  C   UNL     1      -7.900  10.132  67.690  1.00  0.00    -0.098 C  
HETATM   16  C   UNL     1     -10.886   7.634  69.739  1.00  0.00    -0.222 C  
HETATM   17  C   UNL     1      -8.847   9.506  68.670  1.00  0.00    -0.132 C  
HETATM   18  C   UNL     1      -8.308   9.104  69.847  1.00  0.00    -0.146 C  
HETATM   19  O   UNL     1      -8.834   8.998  72.148  1.00  0.00    -0.376 OA 
HETATM   20  C   UNL     1      -9.878   7.481  70.654  1.00  0.00    -0.179 C  
HETATM   21  C   UNL     1      -9.045   8.634  71.008  1.00  0.00    -0.199 C  
BRANCH   4  22
HETATM   22  O   UNL     1     -11.896  14.227  65.777  1.00  0.00    -0.355 OA 
HETATM   23  C   UNL     1     -13.251  14.197  65.288  1.00  0.00     0.112 C  
ENDBRANCH   4  22
BRANCH   6  24
HETATM   24  O   UNL     1     -11.162  11.427  65.392  1.00  0.00    -0.197 OA 
HETATM   25  C   UNL     1      -9.860  11.484  64.743  1.00  0.00    -0.249 C  
ENDBRANCH   6  24
BRANCH  15  26
HETATM   26  N   UNL     1      -6.666   9.385  67.530  1.00  0.00    -0.067 N  
HETATM   27  H   UNL     1      -5.829   9.703  68.018  1.00  0.00     0.000 HD 
HETATM   28  C   UNL     1      -6.591   8.258  66.738  1.00  0.00    -0.057 C  
HETATM   29  O   UNL     1      -7.549   7.611  66.349  1.00  0.00    -0.085 OA 
HETATM   30  C   UNL     1      -5.173   7.889  66.384  1.00  0.00    -0.025 C  
ENDBRANCH  15  26
ENDBRANCH   2   3
TORSDOF 4
ENDMDL
MODEL       80
REMARK 921   NORMALIZED FREE ENERGY PREDICTED BY IDOCK:   -3.85 KCAL/MOL
REMARK 922        TOTAL FREE ENERGY PREDICTED BY IDOCK:   -5.49 KCAL/MOL
REMARK 923 INTER-LIGAND FREE ENERGY PREDICTED BY IDOCK:   -4.75 KCAL/MOL
REMARK 924 INTRA-LIGAND FREE ENERGY PREDICTED BY IDOCK:   -0.74 KCAL/MOL
REMARK 927      BINDING AFFINITY PREDICTED BY RF-SCORE:    0.00 PKD
ROOT
HETATM    1  C   UNL     1      -9.124   4.648  64.775  1.00  0.00    -0.149 C  
HETATM    2  O   UNL     1      -8.095   5.629  64.799  1.00  0.00    -0.116 OA 
ENDROOT
BRANCH   2   3
HETATM    3  C   UNL     1      -8.060   6.466  65.882  1.00  0.00    -0.124 C  
HETATM    4  C   UNL     1      -7.165   6.256  66.938  1.00  0.00    -0.074 C  
HETATM    5  C   UNL     1      -9.061   9.265  69.110  1.00  0.00    -0.145 C  
HETATM    6  C   UNL     1      -7.304   7.087  68.170  1.00  0.00    -0.097 C  
HETATM    7  C   UNL     1     -10.163   9.032  69.887  1.00  0.00    -0.214 C  
HETATM    8  H   UNL     1     -12.309  12.004  71.591  1.00  0.00     0.000 HD 
HETATM    9  C   UNL     1      -8.320   8.126  68.217  1.00  0.00    -0.126 C  
HETATM   10  O   UNL     1     -12.070  12.216  70.696  1.00  0.00    -0.365 OA 
HETATM   11  C   UNL     1      -8.472   8.564  66.904  1.00  0.00    -0.113 C  
HETATM   12  C   UNL     1      -7.198   9.414  66.486  1.00  0.00    -0.089 C  
HETATM   13  C   UNL     1      -8.793   7.631  65.916  1.00  0.00    -0.163 C  
HETATM   14  C   UNL     1      -7.403  10.867  66.807  1.00  0.00    -0.134 C  
HETATM   15  C   UNL     1      -7.399  11.028  68.342  1.00  0.00    -0.096 C  
HETATM   16  C   UNL     1     -11.113  10.019  70.476  1.00  0.00    -0.400 C  
HETATM   17  C   UNL     1      -8.814  10.723  68.736  1.00  0.00    -0.163 C  
HETATM   18  C   UNL     1      -9.738  11.663  68.420  1.00  0.00    -0.199 C  
HETATM   19  O   UNL     1     -11.974  11.842  67.682  1.00  0.00    -0.599 OA 
HETATM   20  C   UNL     1     -11.547  11.194  69.922  1.00  0.00    -0.337 C  
HETATM   21  C   UNL     1     -11.179  11.520  68.541  1.00  0.00    -0.258 C  
BRANCH   4  22
HETATM   22  O   UNL     1      -6.129   5.331  66.820  1.00  0.00    -0.028 OA 
HETATM   23  C   UNL     1      -6.285   4.016  67.388  1.00  0.00    -0.036 C  
ENDBRANCH   4  22
BRANCH   6  24
HETATM   24  O   UNL     1      -6.330   7.056  69.166  1.00  0.00    -0.033 OA 
HETATM   25  C   UNL     1      -6.753   6.534  70.458  1.00  0.00    -0.057 C  
ENDBRANCH   6  24
BRANCH  15  26
HETATM   26  N   UNL     1      -6.987  12.376  68.691  1.00  0.00    -0.086 N  
HETATM   27  H   UNL     1      -7.300  13.154  68.109  1.00  0.00     0.000 HD 
HETATM   28  C   UNL     1      -6.187  12.637  69.783  1.00  0.00    -0.111 C  
HETATM   29  O   UNL     1      -5.993  11.866  70.709  1.00  0.00    -0.330 OA 
HETATM   30  C   UNL     1      -5.552  14.002  69.726  1.00  0.00    -0.102 C  
ENDBRANCH  15  26
ENDBRANCH   2   3
TORSDOF 4
ENDMDL
MODEL       81
REMARK 921   NORMALIZED FREE ENERGY PREDICTED BY IDOCK:   -3.83 KCAL/MOL
REMARK 922        TOTAL FREE ENERGY PREDICTED BY IDOCK:   -5.47 KCAL/MOL
REMARK 923 INTER-LIGAND FREE ENERGY PREDICTED BY IDOCK:   -4.80 KCAL/MOL
REMARK 924 INTRA-LIGAND FREE ENERGY PREDICTED BY IDOCK:   -0.67 KCAL/MOL
REMARK 927      BINDING AFFINITY PREDICTED BY RF-SCORE:    0.00 PKD
ROOT
HETATM    1  C   UNL     1      -9.723  11.593  63.260  1.00  0.00    -0.368 C  
HETATM    2  O   UNL     1     -10.416  11.632  64.501  1.00  0.00    -0.270 OA 
ENDROOT
BRANCH   2   3
HETATM    3  C   UNL     1      -9.800  11.046  65.574  1.00  0.00    -0.243 C  
HETATM    4  C   UNL     1      -9.091  11.805  66.513  1.00  0.00    -0.203 C  
HETATM    5  C   UNL     1      -7.726   8.290  68.287  1.00  0.00    -0.106 C  
HETATM    6  C   UNL     1      -8.288  11.092  67.550  1.00  0.00    -0.122 C  
HETATM    7  C   UNL     1      -6.609   7.629  67.852  1.00  0.00    -0.059 C  
HETATM    8  H   UNL     1      -5.557   3.973  69.220  1.00  0.00     0.000 HD 
HETATM    9  C   UNL     1      -8.311   9.639  67.594  1.00  0.00    -0.121 C  
HETATM   10  O   UNL     1      -6.491   4.027  69.055  1.00  0.00    -0.035 OA 
HETATM   11  C   UNL     1      -9.569   9.269  67.125  1.00  0.00    -0.208 C  
HETATM   12  C   UNL     1     -10.661   9.617  68.224  1.00  0.00    -0.268 C  
HETATM   13  C   UNL     1      -9.974   9.711  65.864  1.00  0.00    -0.351 C  
HETATM   14  C   UNL     1     -10.862   8.456  69.155  1.00  0.00    -0.042 C  
HETATM   15  C   UNL     1      -9.590   8.299  70.015  1.00  0.00    -0.168 C  
HETATM   16  C   UNL     1      -6.164   6.242  68.173  1.00  0.00    -0.032 C  
HETATM   17  C   UNL     1      -8.679   7.475  69.155  1.00  0.00    -0.136 C  
HETATM   18  C   UNL     1      -9.010   6.168  69.016  1.00  0.00    -0.125 C  
HETATM   19  O   UNL     1      -9.002   4.450  67.395  1.00  0.00    -0.108 OA 
HETATM   20  C   UNL     1      -6.948   5.135  68.361  1.00  0.00    -0.057 C  
HETATM   21  C   UNL     1      -8.389   5.220  68.106  1.00  0.00    -0.097 C  
BRANCH   4  22
HETATM   22  O   UNL     1      -9.178  13.196  66.516  1.00  0.00    -0.241 OA 
HETATM   23  C   UNL     1     -10.342  13.831  67.079  1.00  0.00    -0.260 C  
ENDBRANCH   4  22
BRANCH   6  24
HETATM   24  O   UNL     1      -7.723  11.787  68.618  1.00  0.00    -0.131 OA 
HETATM   25  C   UNL     1      -6.283  11.642  68.785  1.00  0.00    -0.052 C  
ENDBRANCH   6  24
BRANCH  15  26
HETATM   26  N   UNL     1      -9.926   7.657  71.272  1.00  0.00    -0.179 N  
HETATM   27  H   UNL     1     -10.683   6.974  71.291  1.00  0.00     0.000 HD 
HETATM   28  C   UNL     1      -9.253   7.941  72.442  1.00  0.00    -0.181 C  
HETATM   29  O   UNL     1      -8.166   8.492  72.508  1.00  0.00    -0.293 OA 
HETATM   30  C   UNL     1     -10.006   7.497  73.669  1.00  0.00    -0.347 C  
ENDBRANCH  15  26
ENDBRANCH   2   3
TORSDOF 4
ENDMDL
MODEL       82
REMARK 921   NORMALIZED FREE ENERGY PREDICTED BY IDOCK:   -3.83 KCAL/MOL
REMARK 922        TOTAL FREE ENERGY PREDICTED BY IDOCK:   -5.47 KCAL/MOL
REMARK 923 INTER-LIGAND FREE ENERGY PREDICTED BY IDOCK:   -4.94 KCAL/MOL
REMARK 924 INTRA-LIGAND FREE ENERGY PREDICTED BY IDOCK:   -0.53 KCAL/MOL
REMARK 927      BINDING AFFINITY PREDICTED BY RF-SCORE:    0.00 PKD
ROOT
HETATM    1  C   UNL     1      -7.789   5.554  72.070  1.00  0.00    -0.106 C  
HETATM    2  O   UNL     1      -9.018   5.533  71.355  1.00  0.00    -0.137 OA 
ENDROOT
BRANCH   2   3
HETATM    3  C   UNL     1      -9.323   6.643  70.614  1.00  0.00    -0.162 C  
HETATM    4  C   UNL     1     -10.472   7.401  70.873  1.00  0.00    -0.217 C  
HETATM    5  C   UNL     1      -9.761   9.617  67.417  1.00  0.00    -0.198 C  
HETATM    6  C   UNL     1     -10.847   8.483  69.917  1.00  0.00    -0.205 C  
HETATM    7  C   UNL     1     -10.200   9.221  66.182  1.00  0.00    -0.229 C  
HETATM    8  H   UNL     1      -9.099  11.080  62.766  1.00  0.00     0.000 HD 
HETATM    9  C   UNL     1      -9.984   8.759  68.780  1.00  0.00    -0.197 C  
HETATM   10  O   UNL     1      -8.362  10.970  63.356  1.00  0.00     0.016 OA 
HETATM   11  C   UNL     1      -8.695   8.438  69.199  1.00  0.00    -0.142 C  
HETATM   12  C   UNL     1      -8.191   9.537  70.228  1.00  0.00    -0.209 C  
HETATM   13  C   UNL     1      -8.445   7.152  69.682  1.00  0.00    -0.134 C  
HETATM   14  C   UNL     1      -7.488  10.652  69.509  1.00  0.00    -0.132 C  
HETATM   15  C   UNL     1      -8.537  11.440  68.696  1.00  0.00    -0.126 C  
HETATM   16  C   UNL     1      -9.790   9.728  64.841  1.00  0.00    -0.183 C  
HETATM   17  C   UNL     1      -8.653  10.665  67.418  1.00  0.00    -0.122 C  
HETATM   18  C   UNL     1      -7.603  10.757  66.566  1.00  0.00    -0.139 C  
HETATM   19  O   UNL     1      -6.364   9.432  65.052  1.00  0.00    -0.071 OA 
HETATM   20  C   UNL     1      -8.545  10.141  64.449  1.00  0.00    -0.191 C  
HETATM   21  C   UNL     1      -7.408   9.971  65.359  1.00  0.00    -0.139 C  
BRANCH   4  22
HETATM   22  O   UNL     1     -11.217   7.188  72.032  1.00  0.00    -0.239 OA 
HETATM   23  C   UNL     1     -10.664   7.563  73.309  1.00  0.00    -0.382 C  
ENDBRANCH   4  22
BRANCH   6  24
HETATM   24  O   UNL     1     -11.862   9.388  70.223  1.00  0.00    -0.166 OA 
HETATM   25  C   UNL     1     -11.471  10.788  70.299  1.00  0.00    -0.319 C  
ENDBRANCH   6  24
BRANCH  15  26
HETATM   26  N   UNL     1      -8.078  12.803  68.498  1.00  0.00    -0.275 N  
HETATM   27  H   UNL     1      -7.092  12.968  68.296  1.00  0.00     0.000 HD 
HETATM   28  C   UNL     1      -8.934  13.881  68.575  1.00  0.00    -0.141 C  
HETATM   29  O   UNL     1     -10.151  13.816  68.513  1.00  0.00    -0.230 OA 
HETATM   30  C   UNL     1      -8.207  15.190  68.751  1.00  0.00    -0.169 C  
ENDBRANCH  15  26
ENDBRANCH   2   3
TORSDOF 4
ENDMDL
MODEL       83
REMARK 921   NORMALIZED FREE ENERGY PREDICTED BY IDOCK:   -3.78 KCAL/MOL
REMARK 922        TOTAL FREE ENERGY PREDICTED BY IDOCK:   -5.41 KCAL/MOL
REMARK 923 INTER-LIGAND FREE ENERGY PREDICTED BY IDOCK:   -4.93 KCAL/MOL
REMARK 924 INTRA-LIGAND FREE ENERGY PREDICTED BY IDOCK:   -0.47 KCAL/MOL
REMARK 927      BINDING AFFINITY PREDICTED BY RF-SCORE:    0.00 PKD
ROOT
HETATM    1  C   UNL     1     -10.823   6.324  70.018  1.00  0.00    -0.324 C  
HETATM    2  O   UNL     1      -9.476   6.249  69.568  1.00  0.00    -0.140 OA 
ENDROOT
BRANCH   2   3
HETATM    3  C   UNL     1      -9.070   7.197  68.666  1.00  0.00    -0.133 C  
HETATM    4  C   UNL     1      -8.773   6.862  67.339  1.00  0.00    -0.119 C  
HETATM    5  C   UNL     1      -7.332  10.721  66.714  1.00  0.00    -0.129 C  
HETATM    6  C   UNL     1      -8.158   7.899  66.460  1.00  0.00    -0.107 C  
HETATM    7  C   UNL     1      -6.043  11.084  67.000  1.00  0.00    -0.082 C  
HETATM    8  H   UNL     1      -4.768  14.918  66.878  1.00  0.00     0.000 HD 
HETATM    9  C   UNL     1      -7.940   9.238  66.983  1.00  0.00    -0.102 C  
HETATM   10  O   UNL     1      -5.621  14.848  67.290  1.00  0.00    -0.306 OA 
HETATM   11  C   UNL     1      -8.948   9.443  67.923  1.00  0.00    -0.126 C  
HETATM   12  C   UNL     1     -10.332   9.641  67.170  1.00  0.00    -0.319 C  
HETATM   13  C   UNL     1      -9.079   8.538  68.977  1.00  0.00    -0.146 C  
HETATM   14  C   UNL     1     -10.565  11.092  66.864  1.00  0.00    -0.307 C  
HETATM   15  C   UNL     1      -9.554  11.527  65.781  1.00  0.00    -0.235 C  
HETATM   16  C   UNL     1      -5.463  12.453  67.112  1.00  0.00    -0.031 C  
HETATM   17  C   UNL     1      -8.322  11.871  66.563  1.00  0.00    -0.062 C  
HETATM   18  C   UNL     1      -8.374  13.017  67.286  1.00  0.00    -0.186 C  
HETATM   19  O   UNL     1      -7.645  13.902  69.351  1.00  0.00     0.063 OA 
HETATM   20  C   UNL     1      -6.066  13.576  67.612  1.00  0.00    -0.111 C  
HETATM   21  C   UNL     1      -7.382  13.468  68.248  1.00  0.00    -0.116 C  
BRANCH   4  22
HETATM   22  O   UNL     1      -9.097   5.604  66.833  1.00  0.00    -0.115 OA 
HETATM   23  C   UNL     1     -10.461   5.320  66.462  1.00  0.00    -0.298 C  
ENDBRANCH   4  22
BRANCH   6  24
HETATM   24  O   UNL     1      -8.020   7.684  65.090  1.00  0.00    -0.117 OA 
HETATM   25  C   UNL     1      -8.748   8.598  64.221  1.00  0.00     0.056 C  
ENDBRANCH   6  24
BRANCH  15  26
HETATM   26  N   UNL     1     -10.091  12.651  65.035  1.00  0.00    -0.413 N  
HETATM   27  H   UNL     1      -9.590  13.539  65.053  1.00  0.00     0.000 HD 
HETATM   28  C   UNL     1     -11.256  12.554  64.304  1.00  0.00    -0.355 C  
HETATM   29  O   UNL     1     -11.782  11.508  63.959  1.00  0.00    -0.298 OA 
HETATM   30  C   UNL     1     -11.841  13.900  63.962  1.00  0.00    -0.372 C  
ENDBRANCH  15  26
ENDBRANCH   2   3
TORSDOF 4
ENDMDL
MODEL       84
REMARK 921   NORMALIZED FREE ENERGY PREDICTED BY IDOCK:   -3.73 KCAL/MOL
REMARK 922        TOTAL FREE ENERGY PREDICTED BY IDOCK:   -5.34 KCAL/MOL
REMARK 923 INTER-LIGAND FREE ENERGY PREDICTED BY IDOCK:   -4.65 KCAL/MOL
REMARK 924 INTRA-LIGAND FREE ENERGY PREDICTED BY IDOCK:   -0.69 KCAL/MOL
REMARK 927      BINDING AFFINITY PREDICTED BY RF-SCORE:    0.00 PKD
ROOT
HETATM    1  C   UNL     1      -8.715   7.410  74.227  1.00  0.00    -0.222 C  
HETATM    2  O   UNL     1      -7.950   8.385  73.528  1.00  0.00    -0.305 OA 
ENDROOT
BRANCH   2   3
HETATM    3  C   UNL     1      -7.905   8.277  72.164  1.00  0.00    -0.128 C  
HETATM    4  C   UNL     1      -6.896   7.548  71.522  1.00  0.00    -0.050 C  
HETATM    5  C   UNL     1      -8.247   8.966  67.844  1.00  0.00    -0.110 C  
HETATM    6  C   UNL     1      -6.794   7.624  70.035  1.00  0.00    -0.050 C  
HETATM    7  C   UNL     1      -7.836  10.160  67.316  1.00  0.00    -0.103 C  
HETATM    8  H   UNL     1      -9.503  11.784  64.011  1.00  0.00     0.000 HD 
HETATM    9  C   UNL     1      -7.774   8.400  69.292  1.00  0.00    -0.098 C  
HETATM   10  O   UNL     1     -10.163  11.424  64.592  1.00  0.00    -0.256 OA 
HETATM   11  C   UNL     1      -8.949   8.333  70.037  1.00  0.00    -0.142 C  
HETATM   12  C   UNL     1      -9.566   6.875  69.909  1.00  0.00    -0.156 C  
HETATM   13  C   UNL     1      -8.926   8.749  71.370  1.00  0.00    -0.307 C  
HETATM   14  C   UNL     1     -10.509   6.801  68.744  1.00  0.00    -0.231 C  
HETATM   15  C   UNL     1      -9.682   6.907  67.445  1.00  0.00    -0.139 C  
HETATM   16  C   UNL     1      -8.428  10.932  66.187  1.00  0.00    -0.171 C  
HETATM   17  C   UNL     1      -9.523   8.384  67.244  1.00  0.00    -0.196 C  
HETATM   18  C   UNL     1     -10.633   9.057  66.851  1.00  0.00    -0.243 C  
HETATM   19  O   UNL     1     -11.720  11.127  67.185  1.00  0.00    -0.501 OA 
HETATM   20  C   UNL     1      -9.753  11.056  65.863  1.00  0.00    -0.224 C  
HETATM   21  C   UNL     1     -10.770  10.500  66.761  1.00  0.00    -0.188 C  
BRANCH   4  22
HETATM   22  O   UNL     1      -6.041   6.723  72.251  1.00  0.00    -0.041 OA 
HETATM   23  C   UNL     1      -6.354   5.323  72.387  1.00  0.00    -0.039 C  
ENDBRANCH   4  22
BRANCH   6  24
HETATM   24  O   UNL     1      -5.939   6.777  69.333  1.00  0.00    -0.021 OA 
HETATM   25  C   UNL     1      -6.555   5.608  68.723  1.00  0.00    -0.048 C  
ENDBRANCH   6  24
BRANCH  15  26
HETATM   26  N   UNL     1     -10.393   6.256  66.359  1.00  0.00    -0.436 N  
HETATM   27  H   UNL     1     -11.325   6.587  66.110  1.00  0.00     0.000 HD 
HETATM   28  C   UNL     1      -9.846   5.203  65.655  1.00  0.00    -0.033 C  
HETATM   29  O   UNL     1      -8.662   4.908  65.643  1.00  0.00    -0.126 OA 
HETATM   30  C   UNL     1     -10.878   4.425  64.878  1.00  0.00    -0.085 C  
ENDBRANCH  15  26
ENDBRANCH   2   3
TORSDOF 4
ENDMDL
MODEL       85
REMARK 921   NORMALIZED FREE ENERGY PREDICTED BY IDOCK:   -3.70 KCAL/MOL
REMARK 922        TOTAL FREE ENERGY PREDICTED BY IDOCK:   -5.30 KCAL/MOL
REMARK 923 INTER-LIGAND FREE ENERGY PREDICTED BY IDOCK:   -4.58 KCAL/MOL
REMARK 924 INTRA-LIGAND FREE ENERGY PREDICTED BY IDOCK:   -0.73 KCAL/MOL
REMARK 927      BINDING AFFINITY PREDICTED BY RF-SCORE:    0.00 PKD
ROOT
HETATM    1  C   UNL     1      -5.666   7.098  63.150  1.00  0.00    -0.041 C  
HETATM    2  O   UNL     1      -5.989   6.255  64.249  1.00  0.00    -0.022 OA 
ENDROOT
BRANCH   2   3
HETATM    3  C   UNL     1      -7.012   6.661  65.063  1.00  0.00    -0.058 C  
HETATM    4  C   UNL     1      -8.152   5.870  65.254  1.00  0.00    -0.133 C  
HETATM    5  C   UNL     1      -9.948   9.001  67.335  1.00  0.00    -0.266 C  
HETATM    6  C   UNL     1      -9.309   6.448  65.998  1.00  0.00    -0.017 C  
HETATM    7  C   UNL     1     -10.643  10.001  66.710  1.00  0.00    -0.229 C  
HETATM    8  H   UNL     1     -11.956  13.298  68.647  1.00  0.00     0.000 HD 
HETATM    9  C   UNL     1      -9.200   7.787  66.554  1.00  0.00    -0.229 C  
HETATM   10  O   UNL     1     -11.072  13.068  68.909  1.00  0.00    -0.252 OA 
HETATM   11  C   UNL     1      -7.852   7.959  66.859  1.00  0.00    -0.104 C  
HETATM   12  C   UNL     1      -7.487   7.080  68.130  1.00  0.00    -0.099 C  
HETATM   13  C   UNL     1      -6.905   7.788  65.847  1.00  0.00    -0.057 C  
HETATM   14  C   UNL     1      -7.691   7.866  69.393  1.00  0.00    -0.105 C  
HETATM   15  C   UNL     1      -9.206   8.085  69.587  1.00  0.00    -0.152 C  
HETATM   16  C   UNL     1     -11.082  11.315  67.261  1.00  0.00    -0.367 C  
HETATM   17  C   UNL     1      -9.499   9.302  68.761  1.00  0.00    -0.150 C  
HETATM   18  C   UNL     1      -9.043  10.481  69.253  1.00  0.00    -0.161 C  
HETATM   19  O   UNL     1      -8.108  12.521  68.516  1.00  0.00    -0.147 OA 
HETATM   20  C   UNL     1     -10.416  12.111  68.154  1.00  0.00    -0.211 C  
HETATM   21  C   UNL     1      -9.051  11.757  68.558  1.00  0.00    -0.144 C  
BRANCH   4  22
HETATM   22  O   UNL     1      -8.184   4.550  64.807  1.00  0.00    -0.101 OA 
HETATM   23  C   UNL     1      -7.677   3.502  65.657  1.00  0.00    -0.082 C  
ENDBRANCH   4  22
BRANCH   6  24
HETATM   24  O   UNL     1     -10.384   5.649  66.381  1.00  0.00    -0.211 OA 
HETATM   25  C   UNL     1     -10.405   5.229  67.775  1.00  0.00    -0.133 C  
ENDBRANCH   6  24
BRANCH  15  26
HETATM   26  N   UNL     1      -9.497   8.268  70.997  1.00  0.00    -0.155 N  
HETATM   27  H   UNL     1      -8.810   8.740  71.586  1.00  0.00     0.000 HD 
HETATM   28  C   UNL     1     -10.672   7.825  71.566  1.00  0.00    -0.222 C  
HETATM   29  O   UNL     1     -11.680   7.523  70.946  1.00  0.00    -0.289 OA 
HETATM   30  C   UNL     1     -10.596   7.740  73.069  1.00  0.00    -0.441 C  
ENDBRANCH  15  26
ENDBRANCH   2   3
TORSDOF 4
ENDMDL
MODEL       86
REMARK 921   NORMALIZED FREE ENERGY PREDICTED BY IDOCK:   -3.67 KCAL/MOL
REMARK 922        TOTAL FREE ENERGY PREDICTED BY IDOCK:   -5.27 KCAL/MOL
REMARK 923 INTER-LIGAND FREE ENERGY PREDICTED BY IDOCK:   -5.87 KCAL/MOL
REMARK 924 INTRA-LIGAND FREE ENERGY PREDICTED BY IDOCK:    0.60 KCAL/MOL
REMARK 927      BINDING AFFINITY PREDICTED BY RF-SCORE:    0.00 PKD
ROOT
HETATM    1  C   UNL     1     -12.734  13.042  62.886  1.00  0.00     0.720 C  
HETATM    2  O   UNL     1     -12.621  12.099  63.946  1.00  0.00    -0.550 OA 
ENDROOT
BRANCH   2   3
HETATM    3  C   UNL     1     -12.012  12.527  65.095  1.00  0.00    -0.434 C  
HETATM    4  C   UNL     1     -10.676  12.213  65.374  1.00  0.00    -0.284 C  
HETATM    5  C   UNL     1     -11.122  13.816  69.194  1.00  0.00    -0.282 C  
HETATM    6  C   UNL     1     -10.129  12.547  66.721  1.00  0.00    -0.223 C  
HETATM    7  C   UNL     1     -11.601  13.087  70.249  1.00  0.00    -0.060 C  
HETATM    8  H   UNL     1     -12.514  14.747  73.821  1.00  0.00     0.000 HD 
HETATM    9  C   UNL     1     -10.973  13.237  67.682  1.00  0.00    -0.281 C  
HETATM   10  O   UNL     1     -12.818  15.284  73.099  1.00  0.00    -0.406 OA 
HETATM   11  C   UNL     1     -11.840  14.023  66.925  1.00  0.00    -0.458 C  
HETATM   12  C   UNL     1     -11.034  15.243  66.307  1.00  0.00    -0.300 C  
HETATM   13  C   UNL     1     -12.632  13.407  65.954  1.00  0.00    -0.412 C  
HETATM   14  C   UNL     1     -11.063  16.421  67.238  1.00  0.00    -0.019 C  
HETATM   15  C   UNL     1     -10.211  16.079  68.479  1.00  0.00    -0.236 C  
HETATM   16  C   UNL     1     -12.089  13.574  71.572  1.00  0.00     0.165 C  
HETATM   17  C   UNL     1     -11.161  15.331  69.366  1.00  0.00    -0.291 C  
HETATM   18  C   UNL     1     -12.128  16.070  69.963  1.00  0.00    -0.140 C  
HETATM   19  O   UNL     1     -14.402  15.930  70.587  1.00  0.00     0.230 OA 
HETATM   20  C   UNL     1     -12.786  14.723  71.834  1.00  0.00    -0.324 C  
HETATM   21  C   UNL     1     -13.256  15.553  70.720  1.00  0.00    -0.337 C  
BRANCH   4  22
HETATM   22  O   UNL     1      -9.858  11.654  64.394  1.00  0.00    -0.244 OA 
HETATM   23  C   UNL     1      -9.307  10.338  64.598  1.00  0.00    -0.266 C  
ENDBRANCH   4  22
BRANCH   6  24
HETATM   24  O   UNL     1      -8.765  12.434  66.986  1.00  0.00    -0.196 OA 
HETATM   25  C   UNL     1      -8.408  11.783  68.239  1.00  0.00    -0.159 C  
ENDBRANCH   6  24
BRANCH  15  26
HETATM   26  N   UNL     1      -9.710  17.301  69.079  1.00  0.00    -0.239 N  
HETATM   27  H   UNL     1      -9.096  17.236  69.892  1.00  0.00     0.000 HD 
HETATM   28  C   UNL     1     -10.037  18.546  68.586  1.00  0.00    -0.369 C  
HETATM   29  O   UNL     1     -10.501  18.761  67.478  1.00  0.00    -0.391 OA 
HETATM   30  C   UNL     1      -9.765  19.653  69.573  1.00  0.00    -0.082 C  
ENDBRANCH  15  26
ENDBRANCH   2   3
TORSDOF 4
ENDMDL
MODEL       87
REMARK 921   NORMALIZED FREE ENERGY PREDICTED BY IDOCK:   -3.66 KCAL/MOL
REMARK 922        TOTAL FREE ENERGY PREDICTED BY IDOCK:   -5.26 KCAL/MOL
REMARK 923 INTER-LIGAND FREE ENERGY PREDICTED BY IDOCK:   -4.60 KCAL/MOL
REMARK 924 INTRA-LIGAND FREE ENERGY PREDICTED BY IDOCK:   -0.65 KCAL/MOL
REMARK 927      BINDING AFFINITY PREDICTED BY RF-SCORE:    0.00 PKD
ROOT
HETATM    1  C   UNL     1      -6.528   4.025  74.063  1.00  0.00    -0.042 C  
HETATM    2  O   UNL     1      -7.731   3.771  73.348  1.00  0.00    -0.074 OA 
ENDROOT
BRANCH   2   3
HETATM    3  C   UNL     1      -8.062   4.656  72.358  1.00  0.00    -0.106 C  
HETATM    4  C   UNL     1      -9.059   4.362  71.419  1.00  0.00    -0.127 C  
HETATM    5  C   UNL     1      -8.023   7.784  69.281  1.00  0.00    -0.125 C  
HETATM    6  C   UNL     1      -9.243   5.280  70.258  1.00  0.00    -0.143 C  
HETATM    7  C   UNL     1      -7.027   7.795  68.343  1.00  0.00    -0.072 C  
HETATM    8  H   UNL     1      -5.672  11.197  66.628  1.00  0.00     0.000 HD 
HETATM    9  C   UNL     1      -8.428   6.480  70.163  1.00  0.00    -0.135 C  
HETATM   10  O   UNL     1      -5.805  11.307  67.562  1.00  0.00    -0.048 OA 
HETATM   11  C   UNL     1      -8.155   6.854  71.477  1.00  0.00    -0.109 C  
HETATM   12  C   UNL     1      -9.473   7.443  72.137  1.00  0.00    -0.169 C  
HETATM   13  C   UNL     1      -7.542   5.930  72.326  1.00  0.00    -0.101 C  
HETATM   14  C   UNL     1      -9.556   8.926  71.920  1.00  0.00    -0.326 C  
HETATM   15  C   UNL     1      -9.816   9.181  70.420  1.00  0.00    -0.218 C  
HETATM   16  C   UNL     1      -6.349   8.968  67.718  1.00  0.00    -0.056 C  
HETATM   17  C   UNL     1      -8.446   9.150  69.811  1.00  0.00    -0.140 C  
HETATM   18  C   UNL     1      -7.650  10.215  70.079  1.00  0.00    -0.164 C  
HETATM   19  O   UNL     1      -5.387  10.732  70.518  1.00  0.00    -0.068 OA 
HETATM   20  C   UNL     1      -6.034  10.163  68.308  1.00  0.00    -0.041 C  
HETATM   21  C   UNL     1      -6.239  10.332  69.750  1.00  0.00    -0.060 C  
BRANCH   4  22
HETATM   22  O   UNL     1      -9.901   3.265  71.597  1.00  0.00    -0.167 OA 
HETATM   23  C   UNL     1      -9.572   2.010  70.970  1.00  0.00    -0.126 C  
ENDBRANCH   4  22
BRANCH   6  24
HETATM   24  O   UNL     1     -10.336   5.143  69.405  1.00  0.00    -0.234 OA 
HETATM   25  C   UNL     1     -11.397   6.128  69.560  1.00  0.00    -0.356 C  
ENDBRANCH   6  24
BRANCH  15  26
HETATM   26  N   UNL     1     -10.489  10.456  70.250  1.00  0.00    -0.442 N  
HETATM   27  H   UNL     1      -9.950  11.260  69.928  1.00  0.00     0.000 HD 
HETATM   28  C   UNL     1     -11.834  10.614  70.511  1.00  0.00    -0.357 C  
HETATM   29  O   UNL     1     -12.640   9.703  70.609  1.00  0.00    -0.190 OA 
HETATM   30  C   UNL     1     -12.229  12.059  70.671  1.00  0.00    -0.409 C  
ENDBRANCH  15  26
ENDBRANCH   2   3
TORSDOF 4
ENDMDL
MODEL       88
REMARK 921   NORMALIZED FREE ENERGY PREDICTED BY IDOCK:   -3.65 KCAL/MOL
REMARK 922        TOTAL FREE ENERGY PREDICTED BY IDOCK:   -5.24 KCAL/MOL
REMARK 923 INTER-LIGAND FREE ENERGY PREDICTED BY IDOCK:   -4.78 KCAL/MOL
REMARK 924 INTRA-LIGAND FREE ENERGY PREDICTED BY IDOCK:   -0.46 KCAL/MOL
REMARK 927      BINDING AFFINITY PREDICTED BY RF-SCORE:    0.00 PKD
ROOT
HETATM    1  C   UNL     1      -5.234  13.324  70.383  1.00  0.00    -0.115 C  
HETATM    2  O   UNL     1      -5.253  11.927  70.115  1.00  0.00    -0.074 OA 
ENDROOT
BRANCH   2   3
HETATM    3  C   UNL     1      -6.441  11.391  69.695  1.00  0.00    -0.133 C  
HETATM    4  C   UNL     1      -6.954  11.660  68.420  1.00  0.00    -0.079 C  
HETATM    5  C   UNL     1     -10.499   9.737  69.466  1.00  0.00    -0.250 C  
HETATM    6  C   UNL     1      -8.336  11.203  68.093  1.00  0.00    -0.136 C  
HETATM    7  C   UNL     1     -11.526  10.378  70.105  1.00  0.00    -0.396 C  
HETATM    8  H   UNL     1     -14.749   8.428  71.572  1.00  0.00     0.000 HD 
HETATM    9  C   UNL     1      -9.087  10.444  69.079  1.00  0.00    -0.193 C  
HETATM   10  O   UNL     1     -13.944   7.959  71.758  1.00  0.00    -0.376 OA 
HETATM   11  C   UNL     1      -8.136   9.740  69.816  1.00  0.00    -0.174 C  
HETATM   12  C   UNL     1      -7.548   8.566  68.923  1.00  0.00    -0.096 C  
HETATM   13  C   UNL     1      -7.111  10.449  70.444  1.00  0.00     0.049 C  
HETATM   14  C   UNL     1      -8.355   7.312  69.100  1.00  0.00    -0.132 C  
HETATM   15  C   UNL     1      -9.739   7.533  68.455  1.00  0.00    -0.156 C  
HETATM   16  C   UNL     1     -12.707   9.785  70.796  1.00  0.00    -0.251 C  
HETATM   17  C   UNL     1     -10.529   8.214  69.532  1.00  0.00    -0.227 C  
HETATM   18  C   UNL     1     -10.899   7.440  70.582  1.00  0.00    -0.258 C  
HETATM   19  O   UNL     1     -11.167   7.558  72.926  1.00  0.00    -0.344 OA 
HETATM   20  C   UNL     1     -12.754   8.628  71.527  1.00  0.00    -0.316 C  
HETATM   21  C   UNL     1     -11.511   7.905  71.815  1.00  0.00    -0.269 C  
BRANCH   4  22
HETATM   22  O   UNL     1      -6.168  12.291  67.457  1.00  0.00    -0.107 OA 
HETATM   23  C   UNL     1      -5.521  11.499  66.441  1.00  0.00    -0.078 C  
ENDBRANCH   4  22
BRANCH   6  24
HETATM   24  O   UNL     1      -8.821  11.272  66.788  1.00  0.00    -0.159 OA 
HETATM   25  C   UNL     1     -10.153  11.840  66.630  1.00  0.00    -0.204 C  
ENDBRANCH   6  24
BRANCH  15  26
HETATM   26  N   UNL     1     -10.302   6.255  68.055  1.00  0.00    -0.169 N  
HETATM   27  H   UNL     1     -11.076   5.866  68.593  1.00  0.00     0.000 HD 
HETATM   28  C   UNL     1      -9.821   5.552  66.970  1.00  0.00    -0.158 C  
HETATM   29  O   UNL     1      -9.124   6.021  66.085  1.00  0.00    -0.150 OA 
HETATM   30  C   UNL     1     -10.246   4.106  66.979  1.00  0.00     0.172 C  
ENDBRANCH  15  26
ENDBRANCH   2   3
TORSDOF 4
ENDMDL
MODEL       89
REMARK 921   NORMALIZED FREE ENERGY PREDICTED BY IDOCK:   -3.62 KCAL/MOL
REMARK 922        TOTAL FREE ENERGY PREDICTED BY IDOCK:   -5.20 KCAL/MOL
REMARK 923 INTER-LIGAND FREE ENERGY PREDICTED BY IDOCK:   -4.53 KCAL/MOL
REMARK 924 INTRA-LIGAND FREE ENERGY PREDICTED BY IDOCK:   -0.67 KCAL/MOL
REMARK 927      BINDING AFFINITY PREDICTED BY RF-SCORE:    0.00 PKD
ROOT
HETATM    1  C   UNL     1     -10.913   2.367  63.678  1.00  0.00    -0.036 C  
HETATM    2  O   UNL     1     -10.586   3.748  63.780  1.00  0.00    -0.250 OA 
ENDROOT
BRANCH   2   3
HETATM    3  C   UNL     1     -10.019   4.166  64.954  1.00  0.00    -0.199 C  
HETATM    4  C   UNL     1      -8.648   4.015  65.198  1.00  0.00    -0.114 C  
HETATM    5  C   UNL     1      -9.236   5.249  69.134  1.00  0.00    -0.153 C  
HETATM    6  C   UNL     1      -8.126   4.316  66.563  1.00  0.00    -0.102 C  
HETATM    7  C   UNL     1      -9.594   4.385  70.133  1.00  0.00    -0.263 C  
HETATM    8  H   UNL     1     -10.655   5.631  73.830  1.00  0.00     0.000 HD 
HETATM    9  C   UNL     1      -9.038   4.811  67.581  1.00  0.00    -0.128 C  
HETATM   10  O   UNL     1     -11.041   6.176  73.154  1.00  0.00    -0.248 OA 
HETATM   11  C   UNL     1     -10.015   5.528  66.893  1.00  0.00    -0.204 C  
HETATM   12  C   UNL     1      -9.390   6.889  66.366  1.00  0.00    -0.183 C  
HETATM   13  C   UNL     1     -10.735   4.886  65.884  1.00  0.00    -0.233 C  
HETATM   14  C   UNL     1      -9.560   7.979  67.385  1.00  0.00    -0.196 C  
HETATM   15  C   UNL     1      -8.648   7.661  68.589  1.00  0.00    -0.129 C  
HETATM   16  C   UNL     1     -10.118   4.700  71.493  1.00  0.00    -0.255 C  
HETATM   17  C   UNL     1      -9.473   6.727  69.424  1.00  0.00    -0.147 C  
HETATM   18  C   UNL     1     -10.519   7.283  70.083  1.00  0.00    -0.229 C  
HETATM   19  O   UNL     1     -12.743   6.791  70.712  1.00  0.00    -0.261 OA 
HETATM   20  C   UNL     1     -10.958   5.721  71.849  1.00  0.00    -0.259 C  
HETATM   21  C   UNL     1     -11.554   6.563  70.806  1.00  0.00    -0.377 C  
BRANCH   4  22
HETATM   22  O   UNL     1      -7.780   3.646  64.171  1.00  0.00    -0.077 OA 
HETATM   23  C   UNL     1      -7.217   2.320  64.162  1.00  0.00    -0.056 C  
ENDBRANCH   4  22
BRANCH   6  24
HETATM   24  O   UNL     1      -6.755   4.368  66.808  1.00  0.00    -0.049 OA 
HETATM   25  C   UNL     1      -6.220   3.329  67.677  1.00  0.00    -0.032 C  
ENDBRANCH   6  24
BRANCH  15  26
HETATM   26  N   UNL     1      -8.303   8.891  69.279  1.00  0.00    -0.117 N  
HETATM   27  H   UNL     1      -8.986   9.648  69.311  1.00  0.00     0.000 HD 
HETATM   28  C   UNL     1      -7.081   9.067  69.892  1.00  0.00    -0.053 C  
HETATM   29  O   UNL     1      -6.307   8.169  70.184  1.00  0.00    -0.032 OA 
HETATM   30  C   UNL     1      -6.775  10.516  70.175  1.00  0.00    -0.149 C  
ENDBRANCH  15  26
ENDBRANCH   2   3
TORSDOF 4
ENDMDL
MODEL       90
REMARK 921   NORMALIZED FREE ENERGY PREDICTED BY IDOCK:   -3.55 KCAL/MOL
REMARK 922        TOTAL FREE ENERGY PREDICTED BY IDOCK:   -5.12 KCAL/MOL
REMARK 923 INTER-LIGAND FREE ENERGY PREDICTED BY IDOCK:   -5.72 KCAL/MOL
REMARK 924 INTRA-LIGAND FREE ENERGY PREDICTED BY IDOCK:    0.61 KCAL/MOL
REMARK 927      BINDING AFFINITY PREDICTED BY RF-SCORE:    0.00 PKD
ROOT
HETATM    1  C   UNL     1     -13.499  12.553  72.106  1.00  0.00    -0.422 C  
HETATM    2  O   UNL     1     -13.681  13.777  71.405  1.00  0.00    -0.256 OA 
ENDROOT
BRANCH   2   3
HETATM    3  C   UNL     1     -12.839  14.021  70.353  1.00  0.00    -0.170 C  
HETATM    4  C   UNL     1     -12.352  15.307  70.090  1.00  0.00    -0.353 C  
HETATM    5  C   UNL     1     -10.716  13.931  66.514  1.00  0.00    -0.277 C  
HETATM    6  C   UNL     1     -11.595  15.541  68.826  1.00  0.00    -0.378 C  
HETATM    7  C   UNL     1     -11.432  13.873  65.348  1.00  0.00    -0.316 C  
HETATM    8  H   UNL     1     -10.031  12.082  62.006  1.00  0.00     0.000 HD 
HETATM    9  C   UNL     1     -11.332  14.423  67.935  1.00  0.00    -0.322 C  
HETATM   10  O   UNL     1      -9.844  11.566  62.781  1.00  0.00    -0.307 OA 
HETATM   11  C   UNL     1     -11.242  13.301  68.757  1.00  0.00    -0.317 C  
HETATM   12  C   UNL     1      -9.880  13.358  69.571  1.00  0.00     0.959 C  
HETATM   13  C   UNL     1     -12.314  12.996  69.598  1.00  0.00    -0.104 C  
HETATM   14  C   UNL     1      -8.782  12.671  68.813  1.00  0.00     0.169 C  
HETATM   15  C   UNL     1      -8.442  13.526  67.574  1.00  0.00    -0.192 C  
HETATM   16  C   UNL     1     -11.099  13.151  64.086  1.00  0.00    -0.426 C  
HETATM   17  C   UNL     1      -9.447  13.086  66.551  1.00  0.00    -0.246 C  
HETATM   18  C   UNL     1      -9.260  11.852  66.022  1.00  0.00    -0.176 C  
HETATM   19  O   UNL     1     -10.497   9.979  65.289  1.00  0.00    -0.139 OA 
HETATM   20  C   UNL     1     -10.473  11.940  63.957  1.00  0.00    -0.373 C  
HETATM   21  C   UNL     1     -10.185  11.144  65.154  1.00  0.00    -0.289 C  
BRANCH   4  22
HETATM   22  O   UNL     1     -12.522  16.335  71.016  1.00  0.00    -0.116 OA 
HETATM   23  C   UNL     1     -11.794  16.295  72.260  1.00  0.00    -0.511 C  
ENDBRANCH   4  22
BRANCH   6  24
HETATM   24  O   UNL     1     -10.927  16.745  68.606  1.00  0.00    -0.338 OA 
HETATM   25  C   UNL     1      -9.484  16.721  68.797  1.00  0.00    -0.259 C  
ENDBRANCH   6  24
BRANCH  15  26
HETATM   26  N   UNL     1      -7.070  13.278  67.170  1.00  0.00    -0.340 N  
HETATM   27  H   UNL     1      -6.603  13.954  66.565  1.00  0.00     0.000 HD 
HETATM   28  C   UNL     1      -6.379  12.157  67.578  1.00  0.00    -0.129 C  
HETATM   29  O   UNL     1      -6.697  11.440  68.513  1.00  0.00    -0.062 OA 
HETATM   30  C   UNL     1      -5.157  11.888  66.737  1.00  0.00    -0.034 C  
ENDBRANCH  15  26
ENDBRANCH   2   3
TORSDOF 4
ENDMDL
MODEL       91
REMARK 921   NORMALIZED FREE ENERGY PREDICTED BY IDOCK:   -3.50 KCAL/MOL
REMARK 922        TOTAL FREE ENERGY PREDICTED BY IDOCK:   -5.06 KCAL/MOL
REMARK 923 INTER-LIGAND FREE ENERGY PREDICTED BY IDOCK:   -4.38 KCAL/MOL
REMARK 924 INTRA-LIGAND FREE ENERGY PREDICTED BY IDOCK:   -0.67 KCAL/MOL
REMARK 927      BINDING AFFINITY PREDICTED BY RF-SCORE:    0.00 PKD
ROOT
HETATM    1  C   UNL     1      -5.589  13.109  70.752  1.00  0.00    -0.187 C  
HETATM    2  O   UNL     1      -5.416  11.920  69.990  1.00  0.00    -0.083 OA 
ENDROOT
BRANCH   2   3
HETATM    3  C   UNL     1      -6.465  11.041  69.966  1.00  0.00    -0.144 C  
HETATM    4  C   UNL     1      -7.521  11.188  69.057  1.00  0.00    -0.124 C  
HETATM    5  C   UNL     1      -9.590   8.140  71.004  1.00  0.00    -0.189 C  
HETATM    6  C   UNL     1      -8.720  10.313  69.205  1.00  0.00    -0.172 C  
HETATM    7  C   UNL     1     -10.386   8.368  72.094  1.00  0.00    -0.397 C  
HETATM    8  H   UNL     1     -11.993   5.380  74.293  1.00  0.00     0.000 HD 
HETATM    9  C   UNL     1      -8.736   9.297  70.245  1.00  0.00    -0.246 C  
HETATM   10  O   UNL     1     -11.088   5.199  74.068  1.00  0.00    -0.250 OA 
HETATM   11  C   UNL     1      -7.408   8.914  70.417  1.00  0.00    -0.070 C  
HETATM   12  C   UNL     1      -6.946   8.052  69.166  1.00  0.00    -0.057 C  
HETATM   13  C   UNL     1      -6.460   9.892  70.725  1.00  0.00    -0.081 C  
HETATM   14  C   UNL     1      -7.212   6.593  69.403  1.00  0.00    -0.090 C  
HETATM   15  C   UNL     1      -8.739   6.371  69.390  1.00  0.00    -0.129 C  
HETATM   16  C   UNL     1     -10.945   7.380  73.061  1.00  0.00    -0.422 C  
HETATM   17  C   UNL     1      -9.158   6.693  70.793  1.00  0.00    -0.151 C  
HETATM   18  C   UNL     1      -8.814   5.787  71.742  1.00  0.00    -0.136 C  
HETATM   19  O   UNL     1      -8.090   5.689  73.988  1.00  0.00    -0.109 OA 
HETATM   20  C   UNL     1     -10.350   6.238  73.527  1.00  0.00    -0.255 C  
HETATM   21  C   UNL     1      -8.954   5.958  73.178  1.00  0.00    -0.131 C  
BRANCH   4  22
HETATM   22  O   UNL     1      -7.429  12.094  68.001  1.00  0.00    -0.098 OA 
HETATM   23  C   UNL     1      -6.763  11.699  66.786  1.00  0.00    -0.087 C  
ENDBRANCH   4  22
BRANCH   6  24
HETATM   24  O   UNL     1      -9.708  10.283  68.223  1.00  0.00    -0.139 OA 
HETATM   25  C   UNL     1     -10.926  11.025  68.517  1.00  0.00    -0.228 C  
ENDBRANCH   6  24
BRANCH  15  26
HETATM   26  N   UNL     1      -9.031   5.002  69.006  1.00  0.00    -0.095 N  
HETATM   27  H   UNL     1      -8.589   4.240  69.520  1.00  0.00     0.000 HD 
HETATM   28  C   UNL     1      -9.888   4.700  67.969  1.00  0.00    -0.113 C  
HETATM   29  O   UNL     1     -10.694   5.474  67.478  1.00  0.00    -0.219 OA 
HETATM   30  C   UNL     1      -9.732   3.283  67.479  1.00  0.00     0.019 C  
ENDBRANCH  15  26
ENDBRANCH   2   3
TORSDOF 4
ENDMDL
MODEL       92
REMARK 921   NORMALIZED FREE ENERGY PREDICTED BY IDOCK:   -3.32 KCAL/MOL
REMARK 922        TOTAL FREE ENERGY PREDICTED BY IDOCK:   -4.84 KCAL/MOL
REMARK 923 INTER-LIGAND FREE ENERGY PREDICTED BY IDOCK:   -4.15 KCAL/MOL
REMARK 924 INTRA-LIGAND FREE ENERGY PREDICTED BY IDOCK:   -0.68 KCAL/MOL
REMARK 927      BINDING AFFINITY PREDICTED BY RF-SCORE:    0.00 PKD
ROOT
HETATM    1  C   UNL     1      -8.258   4.326  72.560  1.00  0.00    -0.100 C  
HETATM    2  O   UNL     1      -7.964   5.637  72.093  1.00  0.00    -0.105 OA 
ENDROOT
BRANCH   2   3
HETATM    3  C   UNL     1      -8.453   5.981  70.861  1.00  0.00    -0.127 C  
HETATM    4  C   UNL     1      -9.433   6.972  70.716  1.00  0.00    -0.161 C  
HETATM    5  C   UNL     1      -9.793   5.988  66.683  1.00  0.00    -0.202 C  
HETATM    6  C   UNL     1     -10.058   7.168  69.376  1.00  0.00    -0.176 C  
HETATM    7  C   UNL     1     -10.617   4.990  66.237  1.00  0.00    -0.332 C  
HETATM    8  H   UNL     1     -10.605   3.688  62.410  1.00  0.00     0.000 HD 
HETATM    9  C   UNL     1      -9.596   6.372  68.250  1.00  0.00    -0.123 C  
HETATM   10  O   UNL     1      -9.723   3.824  62.734  1.00  0.00    -0.120 OA 
HETATM   11  C   UNL     1      -8.252   6.108  68.504  1.00  0.00    -0.111 C  
HETATM   12  C   UNL     1      -7.409   7.437  68.294  1.00  0.00    -0.100 C  
HETATM   13  C   UNL     1      -7.903   5.482  69.702  1.00  0.00    -0.090 C  
HETATM   14  C   UNL     1      -6.937   7.544  66.872  1.00  0.00    -0.079 C  
HETATM   15  C   UNL     1      -8.164   7.805  65.973  1.00  0.00    -0.123 C  
HETATM   16  C   UNL     1     -10.641   4.330  64.900  1.00  0.00    -0.160 C  
HETATM   17  C   UNL     1      -8.708   6.434  65.708  1.00  0.00    -0.135 C  
HETATM   18  C   UNL     1      -7.984   5.656  64.866  1.00  0.00    -0.117 C  
HETATM   19  O   UNL     1      -7.339   3.403  64.571  1.00  0.00    -0.067 OA 
HETATM   20  C   UNL     1      -9.573   4.036  64.094  1.00  0.00    -0.163 C  
HETATM   21  C   UNL     1      -8.211   4.247  64.594  1.00  0.00    -0.104 C  
BRANCH   4  22
HETATM   22  O   UNL     1      -9.775   7.796  71.786  1.00  0.00    -0.158 OA 
HETATM   23  C   UNL     1     -10.815   7.383  72.694  1.00  0.00    -0.303 C  
ENDBRANCH   4  22
BRANCH   6  24
HETATM   24  O   UNL     1     -10.891   8.258  69.129  1.00  0.00    -0.151 OA 
HETATM   25  C   UNL     1     -10.227   9.510  68.798  1.00  0.00    -0.198 C  
ENDBRANCH   6  24
BRANCH  15  26
HETATM   26  N   UNL     1      -7.748   8.499  64.768  1.00  0.00    -0.101 N  
HETATM   27  H   UNL     1      -6.884   8.213  64.307  1.00  0.00     0.000 HD 
HETATM   28  C   UNL     1      -8.485   9.531  64.226  1.00  0.00    -0.184 C  
HETATM   29  O   UNL     1      -9.652   9.772  64.489  1.00  0.00    -0.273 OA 
HETATM   30  C   UNL     1      -7.692  10.363  63.251  1.00  0.00    -0.090 C  
ENDBRANCH  15  26
ENDBRANCH   2   3
TORSDOF 4
ENDMDL
MODEL       93
REMARK 921   NORMALIZED FREE ENERGY PREDICTED BY IDOCK:   -3.25 KCAL/MOL
REMARK 922        TOTAL FREE ENERGY PREDICTED BY IDOCK:   -4.75 KCAL/MOL
REMARK 923 INTER-LIGAND FREE ENERGY PREDICTED BY IDOCK:   -4.14 KCAL/MOL
REMARK 924 INTRA-LIGAND FREE ENERGY PREDICTED BY IDOCK:   -0.62 KCAL/MOL
REMARK 927      BINDING AFFINITY PREDICTED BY RF-SCORE:    0.00 PKD
ROOT
HETATM    1  C   UNL     1      -5.456  12.049  71.921  1.00  0.00     0.466 C  
HETATM    2  O   UNL     1      -6.005  11.172  70.945  1.00  0.00    -0.339 OA 
ENDROOT
BRANCH   2   3
HETATM    3  C   UNL     1      -6.459  11.741  69.785  1.00  0.00    -0.094 C  
HETATM    4  C   UNL     1      -5.959  11.350  68.536  1.00  0.00    -0.045 C  
HETATM    5  C   UNL     1      -8.059  14.472  66.746  1.00  0.00     0.128 C  
HETATM    6  C   UNL     1      -6.353  12.135  67.330  1.00  0.00    -0.144 C  
HETATM    7  C   UNL     1      -7.553  15.740  66.646  1.00  0.00    -0.083 C  
HETATM    8  H   UNL     1      -9.758  18.882  65.376  1.00  0.00     0.000 HD 
HETATM    9  C   UNL     1      -7.286  13.240  67.474  1.00  0.00    -0.159 C  
HETATM   10  O   UNL     1     -10.249  18.331  65.973  1.00  0.00    -0.485 OA 
HETATM   11  C   UNL     1      -8.111  12.900  68.544  1.00  0.00    -0.080 C  
HETATM   12  C   UNL     1      -9.095  11.737  68.095  1.00  0.00    -0.185 C  
HETATM   13  C   UNL     1      -7.527  12.610  69.778  1.00  0.00     1.026 C  
HETATM   14  C   UNL     1     -10.363  12.306  67.529  1.00  0.00    -0.214 C  
HETATM   15  C   UNL     1     -10.032  12.975  66.178  1.00  0.00    -0.278 C  
HETATM   16  C   UNL     1      -8.270  17.005  66.312  1.00  0.00    -0.322 C  
HETATM   17  C   UNL     1      -9.568  14.347  66.565  1.00  0.00    -0.310 C  
HETATM   18  C   UNL     1     -10.526  15.201  67.001  1.00  0.00    -0.282 C  
HETATM   19  O   UNL     1     -10.849  16.914  68.595  1.00  0.00    -0.342 OA 
HETATM   20  C   UNL     1      -9.543  17.362  66.667  1.00  0.00    -0.274 C  
HETATM   21  C   UNL     1     -10.302  16.511  67.589  1.00  0.00    -0.291 C  
BRANCH   4  22
HETATM   22  O   UNL     1      -5.156  10.218  68.415  1.00  0.00    -0.036 OA 
HETATM   23  C   UNL     1      -5.744   8.912  68.574  1.00  0.00    -0.041 C  
ENDBRANCH   4  22
BRANCH   6  24
HETATM   24  O   UNL     1      -6.044  11.681  66.050  1.00  0.00    -0.034 OA 
HETATM   25  C   UNL     1      -6.896  10.626  65.521  1.00  0.00    -0.052 C  
ENDBRANCH   6  24
BRANCH  15  26
HETATM   26  N   UNL     1     -11.215  12.988  65.336  1.00  0.00    -0.286 N  
HETATM   27  H   UNL     1     -12.101  13.298  65.734  1.00  0.00     0.000 HD 
HETATM   28  C   UNL     1     -11.177  12.593  64.015  1.00  0.00    -0.406 C  
HETATM   29  O   UNL     1     -10.163  12.488  63.344  1.00  0.00    -0.385 OA 
HETATM   30  C   UNL     1     -12.545  12.291  63.458  1.00  0.00    -0.589 C  
ENDBRANCH  15  26
ENDBRANCH   2   3
TORSDOF 4
ENDMDL
MODEL       94
REMARK 921   NORMALIZED FREE ENERGY PREDICTED BY IDOCK:   -3.13 KCAL/MOL
REMARK 922        TOTAL FREE ENERGY PREDICTED BY IDOCK:   -4.60 KCAL/MOL
REMARK 923 INTER-LIGAND FREE ENERGY PREDICTED BY IDOCK:   -5.56 KCAL/MOL
REMARK 924 INTRA-LIGAND FREE ENERGY PREDICTED BY IDOCK:    0.96 KCAL/MOL
REMARK 927      BINDING AFFINITY PREDICTED BY RF-SCORE:    0.00 PKD
ROOT
HETATM    1  C   UNL     1     -12.865  15.485  71.198  1.00  0.00    -0.489 C  
HETATM    2  O   UNL     1     -12.312  16.458  70.320  1.00  0.00     0.117 OA 
ENDROOT
BRANCH   2   3
HETATM    3  C   UNL     1     -11.505  15.998  69.314  1.00  0.00    -0.350 C  
HETATM    4  C   UNL     1     -10.663  16.860  68.601  1.00  0.00    -0.345 C  
HETATM    5  C   UNL     1      -9.764  13.762  65.964  1.00  0.00    -0.255 C  
HETATM    6  C   UNL     1      -9.952  16.335  67.399  1.00  0.00    -0.249 C  
HETATM    7  C   UNL     1     -10.535  13.475  64.870  1.00  0.00    -0.417 C  
HETATM    8  H   UNL     1      -9.972  10.182  62.594  1.00  0.00     0.000 HD 
HETATM    9  C   UNL     1     -10.105  14.935  67.036  1.00  0.00    -0.244 C  
HETATM   10  O   UNL     1      -9.904   9.981  63.520  1.00  0.00    -0.117 OA 
HETATM   11  C   UNL     1     -10.313  14.257  68.235  1.00  0.00    -0.242 C  
HETATM   12  C   UNL     1      -8.951  14.205  69.049  1.00  0.00     0.113 C  
HETATM   13  C   UNL     1     -11.371  14.652  69.057  1.00  0.00    -0.299 C  
HETATM   14  C   UNL     1      -8.169  12.974  68.693  1.00  0.00     0.011 C  
HETATM   15  C   UNL     1      -7.662  13.125  67.243  1.00  0.00    -0.098 C  
HETATM   16  C   UNL     1     -10.523  12.253  64.016  1.00  0.00    -0.427 C  
HETATM   17  C   UNL     1      -8.817  12.653  66.412  1.00  0.00     0.008 C  
HETATM   18  C   UNL     1      -9.054  11.318  66.422  1.00  0.00    -0.201 C  
HETATM   19  O   UNL     1     -10.854   9.788  66.401  1.00  0.00    -0.003 OA 
HETATM   20  C   UNL     1     -10.311  10.959  64.412  1.00  0.00    -0.361 C  
HETATM   21  C   UNL     1     -10.206  10.650  65.841  1.00  0.00    -0.251 C  
BRANCH   4  22
HETATM   22  O   UNL     1     -10.448  18.166  69.038  1.00  0.00    -0.249 OA 
HETATM   23  C   UNL     1     -10.530  19.252  68.094  1.00  0.00    -0.349 C  
ENDBRANCH   4  22
BRANCH   6  24
HETATM   24  O   UNL     1      -8.962  17.086  66.769  1.00  0.00    -0.223 OA 
HETATM   25  C   UNL     1      -7.608  16.914  67.276  1.00  0.00    -0.171 C  
ENDBRANCH   6  24
BRANCH  15  26
HETATM   26  N   UNL     1      -6.462  12.329  67.060  1.00  0.00    -0.320 N  
HETATM   27  H   UNL     1      -5.767  12.634  66.378  1.00  0.00     0.000 HD 
HETATM   28  C   UNL     1      -6.234  11.174  67.778  1.00  0.00    -0.051 C  
HETATM   29  O   UNL     1      -6.814  10.862  68.805  1.00  0.00    -0.061 OA 
HETATM   30  C   UNL     1      -5.171  10.304  67.158  1.00  0.00    -0.041 C  
ENDBRANCH  15  26
ENDBRANCH   2   3
TORSDOF 4
ENDMDL
MODEL       95
REMARK 921   NORMALIZED FREE ENERGY PREDICTED BY IDOCK:   -3.11 KCAL/MOL
REMARK 922        TOTAL FREE ENERGY PREDICTED BY IDOCK:   -4.58 KCAL/MOL
REMARK 923 INTER-LIGAND FREE ENERGY PREDICTED BY IDOCK:   -3.90 KCAL/MOL
REMARK 924 INTRA-LIGAND FREE ENERGY PREDICTED BY IDOCK:   -0.67 KCAL/MOL
REMARK 927      BINDING AFFINITY PREDICTED BY RF-SCORE:    0.00 PKD
ROOT
HETATM    1  C   UNL     1      -9.222  11.911  67.187  1.00  0.00    -0.183 C  
HETATM    2  O   UNL     1      -8.509  11.702  68.400  1.00  0.00    -0.151 OA 
ENDROOT
BRANCH   2   3
HETATM    3  C   UNL     1      -8.229  10.405  68.739  1.00  0.00    -0.128 C  
HETATM    4  C   UNL     1      -7.292  10.095  69.732  1.00  0.00    -0.158 C  
HETATM    5  C   UNL     1      -7.593   6.063  68.726  1.00  0.00    -0.091 C  
HETATM    6  C   UNL     1      -6.896   8.670  69.923  1.00  0.00    -0.042 C  
HETATM    7  C   UNL     1      -6.849   5.493  67.729  1.00  0.00    -0.064 C  
HETATM    8  H   UNL     1      -7.481   1.726  66.404  1.00  0.00     0.000 HD 
HETATM    9  C   UNL     1      -7.532   7.640  69.119  1.00  0.00    -0.095 C  
HETATM   10  O   UNL     1      -8.299   2.190  66.539  1.00  0.00    -0.084 OA 
HETATM   11  C   UNL     1      -8.816   8.112  68.850  1.00  0.00    -0.141 C  
HETATM   12  C   UNL     1      -9.688   8.035  70.175  1.00  0.00    -0.176 C  
HETATM   13  C   UNL     1      -8.960   9.354  68.230  1.00  0.00    -0.128 C  
HETATM   14  C   UNL     1     -10.387   6.710  70.272  1.00  0.00    -0.235 C  
HETATM   15  C   UNL     1      -9.325   5.621  70.533  1.00  0.00    -0.161 C  
HETATM   16  C   UNL     1      -7.041   4.174  67.061  1.00  0.00    -0.067 C  
HETATM   17  C   UNL     1      -8.825   5.276  69.161  1.00  0.00    -0.113 C  
HETATM   18  C   UNL     1      -9.674   4.569  68.376  1.00  0.00    -0.188 C  
HETATM   19  O   UNL     1     -10.348   4.396  66.118  1.00  0.00    -0.242 OA 
HETATM   20  C   UNL     1      -8.224   3.555  66.758  1.00  0.00    -0.095 C  
HETATM   21  C   UNL     1      -9.487   4.271  66.966  1.00  0.00    -0.184 C  
BRANCH   4  22
HETATM   22  O   UNL     1      -6.783  11.091  70.564  1.00  0.00    -0.256 OA 
HETATM   23  C   UNL     1      -5.424  11.537  70.385  1.00  0.00    -0.131 C  
ENDBRANCH   4  22
BRANCH   6  24
HETATM   24  O   UNL     1      -6.120   8.284  71.014  1.00  0.00    -0.033 OA 
HETATM   25  C   UNL     1      -6.847   7.931  72.225  1.00  0.00    -0.067 C  
ENDBRANCH   6  24
BRANCH  15  26
HETATM   26  N   UNL     1      -9.937   4.496  71.217  1.00  0.00    -0.195 N  
HETATM   27  H   UNL     1     -10.675   3.973  70.746  1.00  0.00     0.000 HD 
HETATM   28  C   UNL     1      -9.550   4.113  72.484  1.00  0.00    -0.139 C  
HETATM   29  O   UNL     1      -8.511   4.445  73.030  1.00  0.00    -0.097 OA 
HETATM   30  C   UNL     1     -10.563   3.221  73.156  1.00  0.00    -0.260 C  
ENDBRANCH  15  26
ENDBRANCH   2   3
TORSDOF 4
ENDMDL
MODEL       96
REMARK 921   NORMALIZED FREE ENERGY PREDICTED BY IDOCK:   -3.04 KCAL/MOL
REMARK 922        TOTAL FREE ENERGY PREDICTED BY IDOCK:   -4.49 KCAL/MOL
REMARK 923 INTER-LIGAND FREE ENERGY PREDICTED BY IDOCK:   -4.85 KCAL/MOL
REMARK 924 INTRA-LIGAND FREE ENERGY PREDICTED BY IDOCK:    0.36 KCAL/MOL
REMARK 927      BINDING AFFINITY PREDICTED BY RF-SCORE:    0.00 PKD
ROOT
HETATM    1  C   UNL     1     -12.179  13.481  69.924  1.00  0.00    -0.292 C  
HETATM    2  O   UNL     1     -12.175  13.127  68.546  1.00  0.00    -0.248 OA 
ENDROOT
BRANCH   2   3
HETATM    3  C   UNL     1     -11.378  12.077  68.177  1.00  0.00    -0.291 C  
HETATM    4  C   UNL     1     -10.465  12.188  67.121  1.00  0.00    -0.219 C  
HETATM    5  C   UNL     1      -9.711   8.098  67.373  1.00  0.00    -0.221 C  
HETATM    6  C   UNL     1      -9.764  10.959  66.648  1.00  0.00    -0.189 C  
HETATM    7  C   UNL     1     -10.475   7.165  66.725  1.00  0.00    -0.300 C  
HETATM    8  H   UNL     1     -10.077   3.191  67.353  1.00  0.00     0.000 HD 
HETATM    9  C   UNL     1     -10.000   9.698  67.331  1.00  0.00    -0.237 C  
HETATM   10  O   UNL     1     -10.043   3.678  68.168  1.00  0.00     0.146 OA 
HETATM   11  C   UNL     1     -10.278  10.033  68.654  1.00  0.00    -0.198 C  
HETATM   12  C   UNL     1      -8.941  10.509  69.365  1.00  0.00    -0.111 C  
HETATM   13  C   UNL     1     -11.326  10.917  68.918  1.00  0.00    -0.354 C  
HETATM   14  C   UNL     1      -8.233   9.345  69.995  1.00  0.00    -0.171 C  
HETATM   15  C   UNL     1      -7.684   8.445  68.867  1.00  0.00    -0.105 C  
HETATM   16  C   UNL     1     -10.523   5.690  66.939  1.00  0.00    -0.349 C  
HETATM   17  C   UNL     1      -8.849   7.568  68.514  1.00  0.00    -0.126 C  
HETATM   18  C   UNL     1      -9.172   6.612  69.418  1.00  0.00    -0.142 C  
HETATM   19  O   UNL     1     -11.067   5.543  70.339  1.00  0.00    -0.217 OA 
HETATM   20  C   UNL     1     -10.405   5.014  68.124  1.00  0.00    -0.021 C  
HETATM   21  C   UNL     1     -10.352   5.764  69.382  1.00  0.00    -0.262 C  
BRANCH   4  22
HETATM   22  O   UNL     1     -10.176  13.431  66.560  1.00  0.00    -0.270 OA 
HETATM   23  C   UNL     1      -9.140  14.247  67.142  1.00  0.00    -0.228 C  
ENDBRANCH   4  22
BRANCH   6  24
HETATM   24  O   UNL     1      -8.713  11.042  65.737  1.00  0.00    -0.186 OA 
HETATM   25  C   UNL     1      -7.371  10.961  66.297  1.00  0.00    -0.127 C  
ENDBRANCH   6  24
BRANCH  15  26
HETATM   26  N   UNL     1      -6.535   7.701  69.350  1.00  0.00    -0.035 N  
HETATM   27  H   UNL     1      -6.039   7.085  68.706  1.00  0.00     0.000 HD 
HETATM   28  C   UNL     1      -6.094   7.802  70.653  1.00  0.00    -0.034 C  
HETATM   29  O   UNL     1      -6.394   8.696  71.427  1.00  0.00    -0.048 OA 
HETATM   30  C   UNL     1      -5.181   6.669  71.047  1.00  0.00    -0.023 C  
ENDBRANCH  15  26
ENDBRANCH   2   3
TORSDOF 4
ENDMDL
MODEL       97
REMARK 921   NORMALIZED FREE ENERGY PREDICTED BY IDOCK:   -3.00 KCAL/MOL
REMARK 922        TOTAL FREE ENERGY PREDICTED BY IDOCK:   -4.44 KCAL/MOL
REMARK 923 INTER-LIGAND FREE ENERGY PREDICTED BY IDOCK:   -4.41 KCAL/MOL
REMARK 924 INTRA-LIGAND FREE ENERGY PREDICTED BY IDOCK:   -0.03 KCAL/MOL
REMARK 927      BINDING AFFINITY PREDICTED BY RF-SCORE:    0.00 PKD
ROOT
HETATM    1  C   UNL     1     -11.644  16.053  71.889  1.00  0.00    -0.431 C  
HETATM    2  O   UNL     1     -11.865  16.427  70.534  1.00  0.00    -0.149 OA 
ENDROOT
BRANCH   2   3
HETATM    3  C   UNL     1     -11.398  15.573  69.571  1.00  0.00    -0.313 C  
HETATM    4  C   UNL     1     -11.266  15.979  68.237  1.00  0.00    -0.350 C  
HETATM    5  C   UNL     1     -10.395  12.051  67.154  1.00  0.00    -0.235 C  
HETATM    6  C   UNL     1     -10.933  14.953  67.207  1.00  0.00    -0.323 C  
HETATM    7  C   UNL     1     -11.368  11.131  66.866  1.00  0.00    -0.168 C  
HETATM    8  H   UNL     1     -10.575   7.207  66.308  1.00  0.00     0.000 HD 
HETATM    9  C   UNL     1     -10.698  13.579  67.620  1.00  0.00    -0.257 C  
HETATM   10  O   UNL     1     -10.090   7.559  67.045  1.00  0.00    -0.210 OA 
HETATM   11  C   UNL     1     -10.171  13.658  68.907  1.00  0.00    -0.088 C  
HETATM   12  C   UNL     1      -8.682  14.203  68.830  1.00  0.00    -0.065 C  
HETATM   13  C   UNL     1     -10.898  14.331  69.891  1.00  0.00     0.027 C  
HETATM   14  C   UNL     1      -7.710  13.067  68.693  1.00  0.00    -0.069 C  
HETATM   15  C   UNL     1      -7.888  12.444  67.292  1.00  0.00    -0.166 C  
HETATM   16  C   UNL     1     -11.245   9.650  66.753  1.00  0.00     0.598 C  
HETATM   17  C   UNL     1      -9.020  11.477  67.475  1.00  0.00    -0.159 C  
HETATM   18  C   UNL     1      -8.737  10.353  68.179  1.00  0.00    -0.125 C  
HETATM   19  O   UNL     1      -9.725   8.893  69.751  1.00  0.00    -0.168 OA 
HETATM   20  C   UNL     1     -10.447   8.819  67.494  1.00  0.00    -0.271 C  
HETATM   21  C   UNL     1      -9.698   9.362  68.632  1.00  0.00    -0.152 C  
BRANCH   4  22
HETATM   22  O   UNL     1     -11.385  17.323  67.888  1.00  0.00    -0.047 OA 
HETATM   23  C   UNL     1     -10.272  18.213  68.104  1.00  0.00    -0.388 C  
ENDBRANCH   4  22
BRANCH   6  24
HETATM   24  O   UNL     1     -10.602  15.328  65.906  1.00  0.00    -0.304 OA 
HETATM   25  C   UNL     1      -9.271  15.889  65.720  1.00  0.00    -0.206 C  
ENDBRANCH   6  24
BRANCH  15  26
HETATM   26  N   UNL     1      -6.651  11.805  66.880  1.00  0.00    -0.260 N  
HETATM   27  H   UNL     1      -5.825  11.902  67.470  1.00  0.00     0.000 HD 
HETATM   28  C   UNL     1      -6.560  11.073  65.715  1.00  0.00     0.073 C  
HETATM   29  O   UNL     1      -7.509  10.635  65.086  1.00  0.00    -0.083 OA 
HETATM   30  C   UNL     1      -5.134  10.856  65.275  1.00  0.00    -0.119 C  
ENDBRANCH  15  26
ENDBRANCH   2   3
TORSDOF 4
ENDMDL
MODEL       98
REMARK 921   NORMALIZED FREE ENERGY PREDICTED BY IDOCK:   -2.99 KCAL/MOL
REMARK 922        TOTAL FREE ENERGY PREDICTED BY IDOCK:   -4.43 KCAL/MOL
REMARK 923 INTER-LIGAND FREE ENERGY PREDICTED BY IDOCK:   -4.60 KCAL/MOL
REMARK 924 INTRA-LIGAND FREE ENERGY PREDICTED BY IDOCK:    0.18 KCAL/MOL
REMARK 927      BINDING AFFINITY PREDICTED BY RF-SCORE:    0.00 PKD
ROOT
HETATM    1  C   UNL     1      -7.850   7.100  62.602  1.00  0.00    -0.135 C  
HETATM    2  O   UNL     1      -7.758   8.496  62.858  1.00  0.00    -0.111 OA 
ENDROOT
BRANCH   2   3
HETATM    3  C   UNL     1      -8.093   8.920  64.116  1.00  0.00    -0.160 C  
HETATM    4  C   UNL     1      -9.102   9.869  64.323  1.00  0.00    -0.253 C  
HETATM    5  C   UNL     1      -8.060  10.061  68.353  1.00  0.00    -0.101 C  
HETATM    6  C   UNL     1      -9.290  10.426  65.695  1.00  0.00    -0.198 C  
HETATM    7  C   UNL     1      -7.073  10.885  68.822  1.00  0.00    -0.083 C  
HETATM    8  H   UNL     1      -5.708  10.723  72.624  1.00  0.00     0.000 HD 
HETATM    9  C   UNL     1      -8.466   9.929  66.784  1.00  0.00    -0.125 C  
HETATM   10  O   UNL     1      -5.831   9.854  72.261  1.00  0.00    -0.295 OA 
HETATM   11  C   UNL     1      -8.176   8.605  66.463  1.00  0.00    -0.107 C  
HETATM   12  C   UNL     1      -9.484   7.723  66.654  1.00  0.00    -0.263 C  
HETATM   13  C   UNL     1      -7.563   8.327  65.241  1.00  0.00    -0.094 C  
HETATM   14  C   UNL     1      -9.557   7.183  68.053  1.00  0.00    -0.140 C  
HETATM   15  C   UNL     1      -9.830   8.360  69.013  1.00  0.00    -0.183 C  
HETATM   16  C   UNL     1      -6.392  10.861  70.149  1.00  0.00    -0.149 C  
HETATM   17  C   UNL     1      -8.466   8.922  69.283  1.00  0.00    -0.121 C  
HETATM   18  C   UNL     1      -7.659   8.176  70.077  1.00  0.00    -0.077 C  
HETATM   19  O   UNL     1      -5.388   7.569  70.307  1.00  0.00    -0.023 OA 
HETATM   20  C   UNL     1      -6.062   9.764  70.899  1.00  0.00    -0.089 C  
HETATM   21  C   UNL     1      -6.251   8.422  70.338  1.00  0.00    -0.035 C  
BRANCH   4  22
HETATM   22  O   UNL     1      -9.950  10.242  63.283  1.00  0.00    -0.186 OA 
HETATM   23  C   UNL     1      -9.776  11.527  62.653  1.00  0.00     0.019 C  
ENDBRANCH   4  22
BRANCH   6  24
HETATM   24  O   UNL     1     -10.393  11.222  65.997  1.00  0.00    -0.238 OA 
HETATM   25  C   UNL     1     -10.137  12.371  66.854  1.00  0.00    -0.219 C  
ENDBRANCH   6  24
BRANCH  15  26
HETATM   26  N   UNL     1     -10.494   7.873  70.208  1.00  0.00    -0.220 N  
HETATM   27  H   UNL     1     -10.426   8.417  71.068  1.00  0.00     0.000 HD 
HETATM   28  C   UNL     1     -11.214   6.696  70.216  1.00  0.00    -0.353 C  
HETATM   29  O   UNL     1     -11.618   6.115  69.222  1.00  0.00    -0.329 OA 
HETATM   30  C   UNL     1     -11.460   6.175  71.609  1.00  0.00    -0.331 C  
ENDBRANCH  15  26
ENDBRANCH   2   3
TORSDOF 4
ENDMDL
MODEL       99
REMARK 921   NORMALIZED FREE ENERGY PREDICTED BY IDOCK:   -2.97 KCAL/MOL
REMARK 922        TOTAL FREE ENERGY PREDICTED BY IDOCK:   -4.41 KCAL/MOL
REMARK 923 INTER-LIGAND FREE ENERGY PREDICTED BY IDOCK:   -3.71 KCAL/MOL
REMARK 924 INTRA-LIGAND FREE ENERGY PREDICTED BY IDOCK:   -0.70 KCAL/MOL
REMARK 927      BINDING AFFINITY PREDICTED BY RF-SCORE:    0.00 PKD
ROOT
HETATM    1  C   UNL     1      -8.636   3.508  74.083  1.00  0.00    -0.088 C  
HETATM    2  O   UNL     1      -7.844   4.574  73.574  1.00  0.00    -0.088 OA 
ENDROOT
BRANCH   2   3
HETATM    3  C   UNL     1      -8.283   5.183  72.429  1.00  0.00    -0.117 C  
HETATM    4  C   UNL     1      -9.192   6.247  72.470  1.00  0.00    -0.140 C  
HETATM    5  C   UNL     1      -9.529   6.089  68.320  1.00  0.00    -0.117 C  
HETATM    6  C   UNL     1      -9.774   6.742  71.189  1.00  0.00    -0.174 C  
HETATM    7  C   UNL     1     -10.407   5.254  67.682  1.00  0.00    -0.208 C  
HETATM    8  H   UNL     1     -10.399   4.718  63.675  1.00  0.00     0.000 HD 
HETATM    9  C   UNL     1      -9.341   6.148  69.934  1.00  0.00    -0.161 C  
HETATM   10  O   UNL     1      -9.516   4.729  64.027  1.00  0.00    -0.023 OA 
HETATM   11  C   UNL     1      -8.023   5.748  70.143  1.00  0.00    -0.100 C  
HETATM   12  C   UNL     1      -7.090   7.032  70.202  1.00  0.00    -0.067 C  
HETATM   13  C   UNL     1      -7.742   4.880  71.200  1.00  0.00    -0.083 C  
HETATM   14  C   UNL     1      -6.581   7.379  68.832  1.00  0.00    -0.048 C  
HETATM   15  C   UNL     1      -7.769   7.892  67.991  1.00  0.00    -0.125 C  
HETATM   16  C   UNL     1     -10.445   4.869  66.242  1.00  0.00    -0.349 C  
HETATM   17  C   UNL     1      -8.397   6.639  67.459  1.00  0.00    -0.121 C  
HETATM   18  C   UNL     1      -7.707   5.990  66.489  1.00  0.00    -0.103 C  
HETATM   19  O   UNL     1      -7.205   3.798  65.767  1.00  0.00    -0.068 OA 
HETATM   20  C   UNL     1      -9.383   4.663  65.404  1.00  0.00    -0.158 C  
HETATM   21  C   UNL     1      -8.021   4.679  65.947  1.00  0.00    -0.099 C  
BRANCH   4  22
HETATM   22  O   UNL     1      -9.502   6.871  73.678  1.00  0.00    -0.155 OA 
HETATM   23  C   UNL     1      -8.638   7.909  74.182  1.00  0.00    -0.239 C  
ENDBRANCH   4  22
BRANCH   6  24
HETATM   24  O   UNL     1     -10.528   7.913  71.151  1.00  0.00    -0.204 OA 
HETATM   25  C   UNL     1     -11.974   7.746  71.210  1.00  0.00    -0.302 C  
ENDBRANCH   6  24
BRANCH  15  26
HETATM   26  N   UNL     1      -7.283   8.775  66.946  1.00  0.00    -0.078 N  
HETATM   27  H   UNL     1      -7.148   8.402  66.007  1.00  0.00     0.000 HD 
HETATM   28  C   UNL     1      -6.997  10.103  67.185  1.00  0.00    -0.087 C  
HETATM   29  O   UNL     1      -7.382  10.739  68.153  1.00  0.00    -0.085 OA 
HETATM   30  C   UNL     1      -6.135  10.715  66.111  1.00  0.00    -0.121 C  
ENDBRANCH  15  26
ENDBRANCH   2   3
TORSDOF 4
ENDMDL
MODEL      100
REMARK 921   NORMALIZED FREE ENERGY PREDICTED BY IDOCK:   -2.88 KCAL/MOL
REMARK 922        TOTAL FREE ENERGY PREDICTED BY IDOCK:   -4.29 KCAL/MOL
REMARK 923 INTER-LIGAND FREE ENERGY PREDICTED BY IDOCK:   -4.30 KCAL/MOL
REMARK 924 INTRA-LIGAND FREE ENERGY PREDICTED BY IDOCK:    0.02 KCAL/MOL
REMARK 927      BINDING AFFINITY PREDICTED BY RF-SCORE:    0.00 PKD
ROOT
HETATM    1  C   UNL     1      -7.542   5.347  63.243  1.00  0.00    -0.070 C  
HETATM    2  O   UNL     1      -6.528   6.061  63.939  1.00  0.00    -0.029 OA 
ENDROOT
BRANCH   2   3
HETATM    3  C   UNL     1      -6.896   6.687  65.100  1.00  0.00    -0.050 C  
HETATM    4  C   UNL     1      -6.551   8.021  65.352  1.00  0.00    -0.048 C  
HETATM    5  C   UNL     1      -7.988   7.633  69.244  1.00  0.00    -0.126 C  
HETATM    6  C   UNL     1      -6.816   8.585  66.707  1.00  0.00    -0.069 C  
HETATM    7  C   UNL     1      -7.219   7.153  70.270  1.00  0.00    -0.071 C  
HETATM    8  H   UNL     1      -8.730   6.297  73.921  1.00  0.00     0.000 HD 
HETATM    9  C   UNL     1      -7.475   7.759  67.706  1.00  0.00    -0.104 C  
HETATM   10  O   UNL     1      -9.303   5.994  73.227  1.00  0.00    -0.136 OA 
HETATM   11  C   UNL     1      -8.305   6.898  66.993  1.00  0.00    -0.121 C  
HETATM   12  C   UNL     1      -9.541   7.716  66.423  1.00  0.00    -0.223 C  
HETATM   13  C   UNL     1      -7.745   6.088  66.004  1.00  0.00    -0.095 C  
HETATM   14  C   UNL     1     -10.676   7.712  67.405  1.00  0.00    -0.318 C  
HETATM   15  C   UNL     1     -10.266   8.570  68.621  1.00  0.00    -0.197 C  
HETATM   16  C   UNL     1      -7.653   6.685  71.618  1.00  0.00    -0.093 C  
HETATM   17  C   UNL     1      -9.493   7.618  69.484  1.00  0.00    -0.152 C  
HETATM   18  C   UNL     1     -10.219   6.667  70.123  1.00  0.00    -0.215 C  
HETATM   19  O   UNL     1     -10.083   4.397  70.762  1.00  0.00    -0.204 OA 
HETATM   20  C   UNL     1      -8.799   6.006  71.938  1.00  0.00    -0.138 C  
HETATM   21  C   UNL     1      -9.684   5.539  70.867  1.00  0.00    -0.176 C  
BRANCH   4  22
HETATM   22  O   UNL     1      -6.024   8.822  64.340  1.00  0.00    -0.064 OA 
HETATM   23  C   UNL     1      -6.919   9.522  63.453  1.00  0.00    -0.101 C  
ENDBRANCH   4  22
BRANCH   6  24
HETATM   24  O   UNL     1      -6.672   9.949  66.954  1.00  0.00    -0.076 OA 
HETATM   25  C   UNL     1      -5.654  10.320  67.926  1.00  0.00    -0.041 C  
ENDBRANCH   6  24
BRANCH  15  26
HETATM   26  N   UNL     1     -11.453   9.095  69.271  1.00  0.00    -0.315 N  
HETATM   27  H   UNL     1     -12.355   9.002  68.803  1.00  0.00     0.000 HD 
HETATM   28  C   UNL     1     -11.400   9.715  70.502  1.00  0.00    -0.296 C  
HETATM   29  O   UNL     1     -10.470   9.633  71.288  1.00  0.00    -0.301 OA 
HETATM   30  C   UNL     1     -12.631  10.533  70.795  1.00  0.00    -0.474 C  
ENDBRANCH  15  26
ENDBRANCH   2   3
TORSDOF 4
ENDMDL
MODEL      101
REMARK 921   NORMALIZED FREE ENERGY PREDICTED BY IDOCK:   -2.78 KCAL/MOL
REMARK 922        TOTAL FREE ENERGY PREDICTED BY IDOCK:   -4.17 KCAL/MOL
REMARK 923 INTER-LIGAND FREE ENERGY PREDICTED BY IDOCK:   -3.80 KCAL/MOL
REMARK 924 INTRA-LIGAND FREE ENERGY PREDICTED BY IDOCK:   -0.37 KCAL/MOL
REMARK 927      BINDING AFFINITY PREDICTED BY RF-SCORE:    0.00 PKD
ROOT
HETATM    1  C   UNL     1      -7.364   5.255  74.089  1.00  0.00    -0.086 C  
HETATM    2  O   UNL     1      -8.093   6.283  73.429  1.00  0.00    -0.111 OA 
ENDROOT
BRANCH   2   3
HETATM    3  C   UNL     1      -8.499   6.030  72.146  1.00  0.00    -0.124 C  
HETATM    4  C   UNL     1      -9.775   6.394  71.699  1.00  0.00    -0.160 C  
HETATM    5  C   UNL     1      -9.093   4.326  68.146  1.00  0.00    -0.168 C  
HETATM    6  C   UNL     1     -10.224   5.925  70.356  1.00  0.00    -0.213 C  
HETATM    7  C   UNL     1      -9.337   2.986  68.014  1.00  0.00    -0.255 C  
HETATM    8  H   UNL     1      -8.218   0.868  64.757  1.00  0.00     0.000 HD 
HETATM    9  C   UNL     1      -9.308   5.157  69.527  1.00  0.00    -0.181 C  
HETATM   10  O   UNL     1      -7.535   1.468  65.034  1.00  0.00    -0.055 OA 
HETATM   11  C   UNL     1      -8.032   5.605  69.862  1.00  0.00    -0.095 C  
HETATM   12  C   UNL     1      -7.818   7.063  69.270  1.00  0.00    -0.114 C  
HETATM   13  C   UNL     1      -7.627   5.546  71.197  1.00  0.00    -0.102 C  
HETATM   14  C   UNL     1      -7.237   6.991  67.887  1.00  0.00    -0.091 C  
HETATM   15  C   UNL     1      -8.314   6.422  66.939  1.00  0.00    -0.110 C  
HETATM   16  C   UNL     1      -8.884   2.059  66.937  1.00  0.00    -0.143 C  
HETATM   17  C   UNL     1      -8.175   4.937  67.093  1.00  0.00    -0.106 C  
HETATM   18  C   UNL     1      -7.074   4.378  66.533  1.00  0.00    -0.071 C  
HETATM   19  O   UNL     1      -5.493   2.671  66.937  1.00  0.00    -0.016 OA 
HETATM   20  C   UNL     1      -7.689   2.076  66.268  1.00  0.00    -0.074 C  
HETATM   21  C   UNL     1      -6.636   3.003  66.695  1.00  0.00    -0.037 C  
BRANCH   4  22
HETATM   22  O   UNL     1     -10.588   7.225  72.468  1.00  0.00    -0.218 OA 
HETATM   23  C   UNL     1     -10.407   8.654  72.399  1.00  0.00    -0.247 C  
ENDBRANCH   4  22
BRANCH   6  24
HETATM   24  O   UNL     1     -11.397   6.412  69.784  1.00  0.00    -0.384 OA 
HETATM   25  C   UNL     1     -11.394   6.551  68.334  1.00  0.00    -0.053 C  
ENDBRANCH   6  24
BRANCH  15  26
HETATM   26  N   UNL     1      -8.065   6.882  65.584  1.00  0.00    -0.123 N  
HETATM   27  H   UNL     1      -7.604   6.253  64.926  1.00  0.00     0.000 HD 
HETATM   28  C   UNL     1      -8.431   8.142  65.161  1.00  0.00    -0.116 C  
HETATM   29  O   UNL     1      -9.232   8.867  65.729  1.00  0.00    -0.209 OA 
HETATM   30  C   UNL     1      -7.729   8.556  63.893  1.00  0.00    -0.141 C  
ENDBRANCH  15  26
ENDBRANCH   2   3
TORSDOF 4
ENDMDL
MODEL      102
REMARK 921   NORMALIZED FREE ENERGY PREDICTED BY IDOCK:   -2.76 KCAL/MOL
REMARK 922        TOTAL FREE ENERGY PREDICTED BY IDOCK:   -4.15 KCAL/MOL
REMARK 923 INTER-LIGAND FREE ENERGY PREDICTED BY IDOCK:   -5.08 KCAL/MOL
REMARK 924 INTRA-LIGAND FREE ENERGY PREDICTED BY IDOCK:    0.93 KCAL/MOL
REMARK 927      BINDING AFFINITY PREDICTED BY RF-SCORE:    0.00 PKD
ROOT
HETATM    1  C   UNL     1     -13.336  10.882  71.947  1.00  0.00    -0.324 C  
HETATM    2  O   UNL     1     -12.916  10.680  70.603  1.00  0.00    -0.345 OA 
ENDROOT
BRANCH   2   3
HETATM    3  C   UNL     1     -11.888   9.798  70.401  1.00  0.00    -0.193 C  
HETATM    4  C   UNL     1     -10.897  10.039  69.442  1.00  0.00    -0.239 C  
HETATM    5  C   UNL     1      -9.386   6.208  70.075  1.00  0.00    -0.166 C  
HETATM    6  C   UNL     1      -9.915   8.957  69.139  1.00  0.00    -0.190 C  
HETATM    7  C   UNL     1      -9.868   5.107  69.421  1.00  0.00    -0.269 C  
HETATM    8  H   UNL     1      -8.771   1.336  70.380  1.00  0.00     0.000 HD 
HETATM    9  C   UNL     1      -9.977   7.710  69.884  1.00  0.00    -0.190 C  
HETATM   10  O   UNL     1      -8.931   1.860  71.156  1.00  0.00    -0.061 OA 
HETATM   11  C   UNL     1     -10.472   8.049  71.142  1.00  0.00    -0.230 C  
HETATM   12  C   UNL     1      -9.350   8.824  71.954  1.00  0.00    -0.343 C  
HETATM   13  C   UNL     1     -11.697   8.713  71.227  1.00  0.00    -0.341 C  
HETATM   14  C   UNL     1      -8.506   7.863  72.740  1.00  0.00    -0.212 C  
HETATM   15  C   UNL     1      -7.660   7.037  71.746  1.00  0.00    -0.088 C  
HETATM   16  C   UNL     1      -9.650   3.666  69.737  1.00  0.00    -0.228 C  
HETATM   17  C   UNL     1      -8.578   5.925  71.337  1.00  0.00    -0.129 C  
HETATM   18  C   UNL     1      -8.812   4.970  72.270  1.00  0.00    -0.135 C  
HETATM   19  O   UNL     1     -10.555   3.584  73.061  1.00  0.00    -0.168 OA 
HETATM   20  C   UNL     1      -9.542   3.089  70.975  1.00  0.00    -0.153 C  
HETATM   21  C   UNL     1      -9.789   3.898  72.172  1.00  0.00    -0.166 C  
BRANCH   4  22
HETATM   22  O   UNL     1     -10.793  11.285  68.824  1.00  0.00    -0.185 OA 
HETATM   23  C   UNL     1     -11.684  11.615  67.741  1.00  0.00    -0.245 C  
ENDBRANCH   4  22
BRANCH   6  24
HETATM   24  O   UNL     1      -8.800   9.207  68.341  1.00  0.00    -0.129 OA 
HETATM   25  C   UNL     1      -7.809  10.119  68.893  1.00  0.00    -0.100 C  
ENDBRANCH   6  24
BRANCH  15  26
HETATM   26  N   UNL     1      -6.453   6.570  72.403  1.00  0.00    -0.058 N  
HETATM   27  H   UNL     1      -5.599   6.470  71.854  1.00  0.00     0.000 HD 
HETATM   28  C   UNL     1      -6.425   6.257  73.746  1.00  0.00    -0.070 C  
HETATM   29  O   UNL     1      -7.263   6.603  74.563  1.00  0.00    -0.098 OA 
HETATM   30  C   UNL     1      -5.230   5.420  74.123  1.00  0.00    -0.022 C  
ENDBRANCH  15  26
ENDBRANCH   2   3
TORSDOF 4
ENDMDL
MODEL      103
REMARK 921   NORMALIZED FREE ENERGY PREDICTED BY IDOCK:   -2.64 KCAL/MOL
REMARK 922        TOTAL FREE ENERGY PREDICTED BY IDOCK:   -4.00 KCAL/MOL
REMARK 923 INTER-LIGAND FREE ENERGY PREDICTED BY IDOCK:   -3.45 KCAL/MOL
REMARK 924 INTRA-LIGAND FREE ENERGY PREDICTED BY IDOCK:   -0.54 KCAL/MOL
REMARK 927      BINDING AFFINITY PREDICTED BY RF-SCORE:    0.00 PKD
ROOT
HETATM    1  C   UNL     1     -12.079   8.799  71.115  1.00  0.00    -0.267 C  
HETATM    2  O   UNL     1     -10.726   8.678  71.535  1.00  0.00    -0.237 OA 
ENDROOT
BRANCH   2   3
HETATM    3  C   UNL     1      -9.803   8.370  70.571  1.00  0.00    -0.184 C  
HETATM    4  C   UNL     1      -8.639   7.653  70.877  1.00  0.00    -0.129 C  
HETATM    5  C   UNL     1      -7.219   8.362  67.024  1.00  0.00    -0.080 C  
HETATM    6  C   UNL     1      -7.588   7.513  69.827  1.00  0.00    -0.094 C  
HETATM    7  C   UNL     1      -6.532   9.497  66.688  1.00  0.00    -0.067 C  
HETATM    8  H   UNL     1      -5.589  10.436  62.870  1.00  0.00     0.000 HD 
HETATM    9  C   UNL     1      -7.823   8.070  68.505  1.00  0.00    -0.115 C  
HETATM   10  O   UNL     1      -6.477  10.106  62.939  1.00  0.00    -0.124 OA 
HETATM   11  C   UNL     1      -9.201   8.004  68.309  1.00  0.00    -0.134 C  
HETATM   12  C   UNL     1      -9.623   6.491  68.073  1.00  0.00    -0.119 C  
HETATM   13  C   UNL     1     -10.044   8.617  69.238  1.00  0.00    -0.203 C  
HETATM   14  C   UNL     1      -9.576   6.152  66.611  1.00  0.00    -0.181 C  
HETATM   15  C   UNL     1      -8.099   6.139  66.164  1.00  0.00    -0.115 C  
HETATM   16  C   UNL     1      -6.221  10.029  65.330  1.00  0.00    -0.095 C  
HETATM   17  C   UNL     1      -7.808   7.577  65.857  1.00  0.00    -0.107 C  
HETATM   18  C   UNL     1      -8.372   8.073  64.729  1.00  0.00    -0.086 C  
HETATM   19  O   UNL     1      -9.358  10.056  63.906  1.00  0.00    -0.265 OA 
HETATM   20  C   UNL     1      -7.008   9.975  64.211  1.00  0.00    -0.128 C  
HETATM   21  C   UNL     1      -8.379   9.467  64.317  1.00  0.00    -0.173 C  
BRANCH   4  22
HETATM   22  O   UNL     1      -8.491   7.034  72.117  1.00  0.00    -0.112 OA 
HETATM   23  C   UNL     1      -9.246   5.841  72.407  1.00  0.00    -0.143 C  
ENDBRANCH   4  22
BRANCH   6  24
HETATM   24  O   UNL     1      -6.505   6.655  70.010  1.00  0.00    -0.038 OA 
HETATM   25  C   UNL     1      -6.797   5.231  69.937  1.00  0.00    -0.056 C  
ENDBRANCH   6  24
BRANCH  15  26
HETATM   26  N   UNL     1      -7.944   5.266  65.014  1.00  0.00    -0.098 N  
HETATM   27  H   UNL     1      -8.733   5.139  64.381  1.00  0.00     0.000 HD 
HETATM   28  C   UNL     1      -6.763   4.604  64.753  1.00  0.00    -0.045 C  
HETATM   29  O   UNL     1      -5.679   4.886  65.238  1.00  0.00    -0.013 OA 
HETATM   30  C   UNL     1      -6.938   3.462  63.785  1.00  0.00    -0.048 C  
ENDBRANCH  15  26
ENDBRANCH   2   3
TORSDOF 4
ENDMDL
MODEL      104
REMARK 921   NORMALIZED FREE ENERGY PREDICTED BY IDOCK:   -2.59 KCAL/MOL
REMARK 922        TOTAL FREE ENERGY PREDICTED BY IDOCK:   -3.94 KCAL/MOL
REMARK 923 INTER-LIGAND FREE ENERGY PREDICTED BY IDOCK:   -4.84 KCAL/MOL
REMARK 924 INTRA-LIGAND FREE ENERGY PREDICTED BY IDOCK:    0.90 KCAL/MOL
REMARK 927      BINDING AFFINITY PREDICTED BY RF-SCORE:    0.00 PKD
ROOT
HETATM    1  C   UNL     1     -11.092  14.511  69.714  1.00  0.00    -0.200 C  
HETATM    2  O   UNL     1     -11.705  13.399  69.074  1.00  0.00    -0.280 OA 
ENDROOT
BRANCH   2   3
HETATM    3  C   UNL     1     -11.334  12.153  69.504  1.00  0.00    -0.207 C  
HETATM    4  C   UNL     1     -12.063  11.472  70.486  1.00  0.00    -0.378 C  
HETATM    5  C   UNL     1      -9.098   8.548  70.625  1.00  0.00    -0.184 C  
HETATM    6  C   UNL     1     -11.503  10.206  71.044  1.00  0.00    -0.354 C  
HETATM    7  C   UNL     1      -7.983   8.663  71.413  1.00  0.00    -0.174 C  
HETATM    8  H   UNL     1      -4.869   6.095  71.187  1.00  0.00     0.000 HD 
HETATM    9  C   UNL     1     -10.254   9.686  70.514  1.00  0.00    -0.351 C  
HETATM   10  O   UNL     1      -5.189   6.331  70.324  1.00  0.00    -0.013 OA 
HETATM   11  C   UNL     1     -10.213  10.090  69.182  1.00  0.00    -0.224 C  
HETATM   12  C   UNL     1     -11.265   9.244  68.346  1.00  0.00     0.202 C  
HETATM   13  C   UNL     1     -10.322  11.451  68.888  1.00  0.00    -0.203 C  
HETATM   14  C   UNL     1     -10.629   7.998  67.803  1.00  0.00    -0.239 C  
HETATM   15  C   UNL     1     -10.333   7.050  68.985  1.00  0.00    -0.200 C  
HETATM   16  C   UNL     1      -6.720   7.872  71.359  1.00  0.00    -0.046 C  
HETATM   17  C   UNL     1      -9.006   7.525  69.498  1.00  0.00    -0.143 C  
HETATM   18  C   UNL     1      -7.931   7.246  68.721  1.00  0.00    -0.123 C  
HETATM   19  O   UNL     1      -5.884   8.204  68.033  1.00  0.00    -0.039 OA 
HETATM   20  C   UNL     1      -6.088   7.382  70.248  1.00  0.00    -0.027 C  
HETATM   21  C   UNL     1      -6.581   7.747  68.916  1.00  0.00    -0.049 C  
BRANCH   4  22
HETATM   22  O   UNL     1     -13.312  11.936  70.894  1.00  0.00     0.185 OA 
HETATM   23  C   UNL     1     -13.441  12.602  72.166  1.00  0.00    -0.460 C  
ENDBRANCH   4  22
BRANCH   6  24
HETATM   24  O   UNL     1     -12.269   9.393  71.877  1.00  0.00    -0.365 OA 
HETATM   25  C   UNL     1     -12.091   7.957  71.711  1.00  0.00    -0.303 C  
ENDBRANCH   6  24
BRANCH  15  26
HETATM   26  N   UNL     1     -10.306   5.677  68.516  1.00  0.00    -0.195 N  
HETATM   27  H   UNL     1     -10.460   4.923  69.186  1.00  0.00     0.000 HD 
HETATM   28  C   UNL     1     -10.078   5.360  67.193  1.00  0.00    -0.198 C  
HETATM   29  O   UNL     1     -10.174   6.140  66.260  1.00  0.00    -0.082 OA 
HETATM   30  C   UNL     1      -9.685   3.918  67.000  1.00  0.00    -0.186 C  
ENDBRANCH  15  26
ENDBRANCH   2   3
TORSDOF 4
ENDMDL
MODEL      105
REMARK 921   NORMALIZED FREE ENERGY PREDICTED BY IDOCK:   -2.49 KCAL/MOL
REMARK 922        TOTAL FREE ENERGY PREDICTED BY IDOCK:   -3.81 KCAL/MOL
REMARK 923 INTER-LIGAND FREE ENERGY PREDICTED BY IDOCK:   -3.10 KCAL/MOL
REMARK 924 INTRA-LIGAND FREE ENERGY PREDICTED BY IDOCK:   -0.72 KCAL/MOL
REMARK 927      BINDING AFFINITY PREDICTED BY RF-SCORE:    0.00 PKD
ROOT
HETATM    1  C   UNL     1      -6.763   3.269  63.617  1.00  0.00    -0.035 C  
HETATM    2  O   UNL     1      -5.943   3.643  64.718  1.00  0.00    -0.021 OA 
ENDROOT
BRANCH   2   3
HETATM    3  C   UNL     1      -6.453   4.574  65.583  1.00  0.00    -0.040 C  
HETATM    4  C   UNL     1      -6.641   4.284  66.940  1.00  0.00    -0.046 C  
HETATM    5  C   UNL     1      -8.629   7.916  67.414  1.00  0.00    -0.125 C  
HETATM    6  C   UNL     1      -7.371   5.271  67.788  1.00  0.00    -0.076 C  
HETATM    7  C   UNL     1      -9.969   8.061  67.173  1.00  0.00    -0.303 C  
HETATM    8  H   UNL     1     -11.808  11.661  67.138  1.00  0.00     0.000 HD 
HETATM    9  C   UNL     1      -7.812   6.526  67.201  1.00  0.00    -0.108 C  
HETATM   10  O   UNL     1     -10.972  11.693  66.689  1.00  0.00    -0.274 OA 
HETATM   11  C   UNL     1      -6.886   6.820  66.202  1.00  0.00    -0.060 C  
HETATM   12  C   UNL     1      -5.520   7.270  66.873  1.00  0.00    -0.023 C  
HETATM   13  C   UNL     1      -6.661   5.879  65.196  1.00  0.00    -0.043 C  
HETATM   14  C   UNL     1      -5.499   8.757  67.083  1.00  0.00    -0.038 C  
HETATM   15  C   UNL     1      -6.520   9.103  68.188  1.00  0.00    -0.059 C  
HETATM   16  C   UNL     1     -10.754   9.318  67.011  1.00  0.00    -0.199 C  
HETATM   17  C   UNL     1      -7.821   9.208  67.450  1.00  0.00    -0.099 C  
HETATM   18  C   UNL     1      -7.974  10.300  66.661  1.00  0.00    -0.116 C  
HETATM   19  O   UNL     1      -8.912  10.932  64.588  1.00  0.00    -0.191 OA 
HETATM   20  C   UNL     1     -10.352  10.485  66.418  1.00  0.00    -0.221 C  
HETATM   21  C   UNL     1      -9.060  10.534  65.726  1.00  0.00    -0.179 C  
BRANCH   4  22
HETATM   22  O   UNL     1      -6.108   3.125  67.500  1.00  0.00    -0.026 OA 
HETATM   23  C   UNL     1      -6.955   1.972  67.683  1.00  0.00    -0.039 C  
ENDBRANCH   4  22
BRANCH   6  24
HETATM   24  O   UNL     1      -7.420   5.126  69.173  1.00  0.00    -0.063 OA 
HETATM   25  C   UNL     1      -8.745   4.965  69.754  1.00  0.00    -0.086 C  
ENDBRANCH   6  24
BRANCH  15  26
HETATM   26  N   UNL     1      -6.132  10.340  68.841  1.00  0.00    -0.041 N  
HETATM   27  H   UNL     1      -5.694  11.076  68.286  1.00  0.00     0.000 HD 
HETATM   28  C   UNL     1      -6.337  10.552  70.188  1.00  0.00    -0.132 C  
HETATM   29  O   UNL     1      -7.096   9.904  70.891  1.00  0.00    -0.323 OA 
HETATM   30  C   UNL     1      -5.510  11.689  70.732  1.00  0.00    -0.135 C  
ENDBRANCH  15  26
ENDBRANCH   2   3
TORSDOF 4
ENDMDL
MODEL      106
REMARK 921   NORMALIZED FREE ENERGY PREDICTED BY IDOCK:   -2.33 KCAL/MOL
REMARK 922        TOTAL FREE ENERGY PREDICTED BY IDOCK:   -3.62 KCAL/MOL
REMARK 923 INTER-LIGAND FREE ENERGY PREDICTED BY IDOCK:   -3.27 KCAL/MOL
REMARK 924 INTRA-LIGAND FREE ENERGY PREDICTED BY IDOCK:   -0.35 KCAL/MOL
REMARK 927      BINDING AFFINITY PREDICTED BY RF-SCORE:    0.00 PKD
ROOT
HETATM    1  C   UNL     1      -6.305   3.312  70.967  1.00  0.00    -0.019 C  
HETATM    2  O   UNL     1      -7.661   3.363  70.541  1.00  0.00    -0.040 OA 
ENDROOT
BRANCH   2   3
HETATM    3  C   UNL     1      -8.040   4.454  69.805  1.00  0.00    -0.060 C  
HETATM    4  C   UNL     1      -9.064   4.373  68.854  1.00  0.00    -0.124 C  
HETATM    5  C   UNL     1      -8.155   8.235  67.583  1.00  0.00    -0.126 C  
HETATM    6  C   UNL     1      -9.302   5.541  67.957  1.00  0.00    -0.110 C  
HETATM    7  C   UNL     1      -7.191   8.497  66.646  1.00  0.00    -0.074 C  
HETATM    8  H   UNL     1      -5.949  12.243  65.771  1.00  0.00     0.000 HD 
HETATM    9  C   UNL     1      -8.508   6.746  68.132  1.00  0.00    -0.121 C  
HETATM   10  O   UNL     1      -6.051  12.120  66.707  1.00  0.00    -0.204 OA 
HETATM   11  C   UNL     1      -8.196   6.797  69.489  1.00  0.00    -0.131 C  
HETATM   12  C   UNL     1      -9.500   7.177  70.311  1.00  0.00    -0.162 C  
HETATM   13  C   UNL     1      -7.541   5.709  70.069  1.00  0.00    -0.082 C  
HETATM   14  C   UNL     1      -9.614   8.666  70.464  1.00  0.00    -0.210 C  
HETATM   15  C   UNL     1      -9.929   9.271  69.079  1.00  0.00    -0.182 C  
HETATM   16  C   UNL     1      -6.554   9.801  66.306  1.00  0.00    -0.073 C  
HETATM   17  C   UNL     1      -8.580   9.422  68.441  1.00  0.00    -0.124 C  
HETATM   18  C   UNL     1      -7.792  10.408  68.936  1.00  0.00    -0.115 C  
HETATM   19  O   UNL     1      -5.524  10.855  69.420  1.00  0.00    -0.041 OA 
HETATM   20  C   UNL     1      -6.237  10.824  67.159  1.00  0.00    -0.065 C  
HETATM   21  C   UNL     1      -6.396  10.634  68.604  1.00  0.00    -0.046 C  
BRANCH   4  22
HETATM   22  O   UNL     1      -9.882   3.246  68.784  1.00  0.00     0.007 OA 
HETATM   23  C   UNL     1      -9.514   2.156  67.916  1.00  0.00    -0.123 C  
ENDBRANCH   4  22
BRANCH   6  24
HETATM   24  O   UNL     1     -10.421   5.590  67.128  1.00  0.00    -0.227 OA 
HETATM   25  C   UNL     1     -10.157   5.645  65.697  1.00  0.00     0.349 C  
ENDBRANCH   6  24
BRANCH  15  26
HETATM   26  N   UNL     1     -10.627  10.533  69.244  1.00  0.00    -0.222 N  
HETATM   27  H   UNL     1     -10.323  11.341  68.700  1.00  0.00     0.000 HD 
HETATM   28  C   UNL     1     -11.687  10.674  70.115  1.00  0.00    -0.332 C  
HETATM   29  O   UNL     1     -12.329   9.753  70.591  1.00  0.00    -0.253 OA 
HETATM   30  C   UNL     1     -11.987  12.116  70.438  1.00  0.00    -0.360 C  
ENDBRANCH  15  26
ENDBRANCH   2   3
TORSDOF 4
ENDMDL
MODEL      107
REMARK 921   NORMALIZED FREE ENERGY PREDICTED BY IDOCK:   -2.17 KCAL/MOL
REMARK 922        TOTAL FREE ENERGY PREDICTED BY IDOCK:   -3.41 KCAL/MOL
REMARK 923 INTER-LIGAND FREE ENERGY PREDICTED BY IDOCK:   -2.96 KCAL/MOL
REMARK 924 INTRA-LIGAND FREE ENERGY PREDICTED BY IDOCK:   -0.45 KCAL/MOL
REMARK 927      BINDING AFFINITY PREDICTED BY RF-SCORE:    0.00 PKD
ROOT
HETATM    1  C   UNL     1     -12.249  11.686  63.263  1.00  0.00    -0.152 C  
HETATM    2  O   UNL     1     -10.912  11.395  63.652  1.00  0.00    -0.393 OA 
ENDROOT
BRANCH   2   3
HETATM    3  C   UNL     1     -10.493  11.895  64.856  1.00  0.00    -0.287 C  
HETATM    4  C   UNL     1      -9.399  11.344  65.535  1.00  0.00    -0.208 C  
HETATM    5  C   UNL     1     -10.259  13.752  68.824  1.00  0.00    -0.168 C  
HETATM    6  C   UNL     1      -9.110  11.809  66.923  1.00  0.00    -0.192 C  
HETATM    7  C   UNL     1     -11.154  13.386  69.794  1.00  0.00     0.065 C  
HETATM    8  H   UNL     1     -12.375  15.906  72.710  1.00  0.00     0.000 HD 
HETATM    9  C   UNL     1      -9.929  12.858  67.507  1.00  0.00    -0.215 C  
HETATM   10  O   UNL     1     -12.341  16.340  71.866  1.00  0.00    -0.423 OA 
HETATM   11  C   UNL     1     -10.343  13.651  66.439  1.00  0.00    -0.286 C  
HETATM   12  C   UNL     1      -9.109  14.499  65.910  1.00  0.00     0.161 C  
HETATM   13  C   UNL     1     -11.026  13.051  65.380  1.00  0.00    -0.297 C  
HETATM   14  C   UNL     1      -9.026  15.816  66.626  1.00  0.00    -0.313 C  
HETATM   15  C   UNL     1      -8.616  15.546  68.089  1.00  0.00    -0.152 C  
HETATM   16  C   UNL     1     -11.780  14.232  70.850  1.00  0.00    -0.242 C  
HETATM   17  C   UNL     1      -9.915  15.237  68.771  1.00  0.00    -0.215 C  
HETATM   18  C   UNL     1     -10.750  16.287  68.969  1.00  0.00    -0.300 C  
HETATM   19  O   UNL     1     -13.054  16.809  68.949  1.00  0.00     2.311 OA 
HETATM   20  C   UNL     1     -12.173  15.540  70.749  1.00  0.00    -0.403 C  
HETATM   21  C   UNL     1     -12.121  16.211  69.446  1.00  0.00     0.049 C  
BRANCH   4  22
HETATM   22  O   UNL     1      -8.564  10.422  64.907  1.00  0.00    -0.172 OA 
HETATM   23  C   UNL     1      -8.402   9.109  65.479  1.00  0.00    -0.133 C  
ENDBRANCH   4  22
BRANCH   6  24
HETATM   24  O   UNL     1      -7.932  11.440  67.569  1.00  0.00    -0.117 OA 
HETATM   25  C   UNL     1      -6.867  12.432  67.577  1.00  0.00    -0.143 C  
ENDBRANCH   6  24
BRANCH  15  26
HETATM   26  N   UNL     1      -7.949  16.715  68.633  1.00  0.00    -0.224 N  
HETATM   27  H   UNL     1      -8.406  17.244  69.376  1.00  0.00     0.000 HD 
HETATM   28  C   UNL     1      -6.716  17.131  68.177  1.00  0.00    -0.163 C  
HETATM   29  O   UNL     1      -5.941  16.448  67.527  1.00  0.00    -0.131 OA 
HETATM   30  C   UNL     1      -6.403  18.554  68.564  1.00  0.00    -0.219 C  
ENDBRANCH  15  26
ENDBRANCH   2   3
TORSDOF 4
ENDMDL
MODEL      108
REMARK 921   NORMALIZED FREE ENERGY PREDICTED BY IDOCK:   -2.14 KCAL/MOL
REMARK 922        TOTAL FREE ENERGY PREDICTED BY IDOCK:   -3.38 KCAL/MOL
REMARK 923 INTER-LIGAND FREE ENERGY PREDICTED BY IDOCK:   -3.82 KCAL/MOL
REMARK 924 INTRA-LIGAND FREE ENERGY PREDICTED BY IDOCK:    0.43 KCAL/MOL
REMARK 927      BINDING AFFINITY PREDICTED BY RF-SCORE:    0.00 PKD
ROOT
HETATM    1  C   UNL     1     -12.322  11.875  70.899  1.00  0.00    -0.300 C  
HETATM    2  O   UNL     1     -12.179  11.346  69.587  1.00  0.00    -0.296 OA 
ENDROOT
BRANCH   2   3
HETATM    3  C   UNL     1     -11.060  10.597  69.338  1.00  0.00    -0.260 C  
HETATM    4  C   UNL     1      -9.891  11.176  68.830  1.00  0.00    -0.162 C  
HETATM    5  C   UNL     1      -8.249   7.378  68.342  1.00  0.00    -0.125 C  
HETATM    6  C   UNL     1      -8.775  10.282  68.406  1.00  0.00    -0.129 C  
HETATM    7  C   UNL     1      -8.461   6.621  67.221  1.00  0.00    -0.120 C  
HETATM    8  H   UNL     1      -7.303   2.758  66.939  1.00  0.00     0.000 HD 
HETATM    9  C   UNL     1      -8.906   8.846  68.585  1.00  0.00    -0.137 C  
HETATM   10  O   UNL     1      -7.691   2.944  67.786  1.00  0.00    -0.060 OA 
HETATM   11  C   UNL     1      -9.718   8.679  69.704  1.00  0.00    -0.179 C  
HETATM   12  C   UNL     1      -8.898   9.067  71.007  1.00  0.00    -0.291 C  
HETATM   13  C   UNL     1     -10.981   9.275  69.715  1.00  0.00    -0.213 C  
HETATM   14  C   UNL     1      -8.188   7.865  71.562  1.00  0.00    -0.122 C  
HETATM   15  C   UNL     1      -7.059   7.476  70.585  1.00  0.00    -0.059 C  
HETATM   16  C   UNL     1      -8.200   5.167  67.017  1.00  0.00    -0.107 C  
HETATM   17  C   UNL     1      -7.750   6.619  69.566  1.00  0.00    -0.104 C  
HETATM   18  C   UNL     1      -8.118   5.381  69.978  1.00  0.00    -0.085 C  
HETATM   19  O   UNL     1      -9.872   3.821  69.713  1.00  0.00    -0.176 OA 
HETATM   20  C   UNL     1      -8.345   4.156  67.930  1.00  0.00    -0.094 C  
HETATM   21  C   UNL     1      -8.944   4.444  69.237  1.00  0.00    -0.099 C  
BRANCH   4  22
HETATM   22  O   UNL     1      -9.751  12.562  68.776  1.00  0.00    -0.095 OA 
HETATM   23  C   UNL     1     -10.005  13.252  67.536  1.00  0.00    -0.223 C  
ENDBRANCH   4  22
BRANCH   6  24
HETATM   24  O   UNL     1      -7.526  10.806  68.076  1.00  0.00    -0.087 OA 
HETATM   25  C   UNL     1      -7.112  10.648  66.689  1.00  0.00    -0.124 C  
ENDBRANCH   6  24
BRANCH  15  26
HETATM   26  N   UNL     1      -6.010   6.776  71.304  1.00  0.00    -0.036 N  
HETATM   27  H   UNL     1      -5.172   6.487  70.798  1.00  0.00     0.000 HD 
HETATM   28  C   UNL     1      -6.112   6.489  72.649  1.00  0.00    -0.046 C  
HETATM   29  O   UNL     1      -6.893   7.019  73.421  1.00  0.00    -0.070 OA 
HETATM   30  C   UNL     1      -5.140   5.425  73.092  1.00  0.00    -0.017 C  
ENDBRANCH  15  26
ENDBRANCH   2   3
TORSDOF 4
ENDMDL
MODEL      109
REMARK 921   NORMALIZED FREE ENERGY PREDICTED BY IDOCK:   -2.02 KCAL/MOL
REMARK 922        TOTAL FREE ENERGY PREDICTED BY IDOCK:   -3.23 KCAL/MOL
REMARK 923 INTER-LIGAND FREE ENERGY PREDICTED BY IDOCK:   -2.53 KCAL/MOL
REMARK 924 INTRA-LIGAND FREE ENERGY PREDICTED BY IDOCK:   -0.70 KCAL/MOL
REMARK 927      BINDING AFFINITY PREDICTED BY RF-SCORE:    0.00 PKD
ROOT
HETATM    1  C   UNL     1      -9.855  11.833  67.460  1.00  0.00    -0.186 C  
HETATM    2  O   UNL     1      -8.925  11.502  68.484  1.00  0.00    -0.165 OA 
ENDROOT
BRANCH   2   3
HETATM    3  C   UNL     1      -8.320  10.277  68.400  1.00  0.00    -0.119 C  
HETATM    4  C   UNL     1      -7.317   9.894  69.300  1.00  0.00    -0.084 C  
HETATM    5  C   UNL     1      -6.605   6.482  67.018  1.00  0.00    -0.051 C  
HETATM    6  C   UNL     1      -6.569   8.629  69.043  1.00  0.00    -0.048 C  
HETATM    7  C   UNL     1      -5.758   6.477  65.942  1.00  0.00    -0.021 C  
HETATM    8  H   UNL     1      -5.439   3.331  63.423  1.00  0.00     0.000 HD 
HETATM    9  C   UNL     1      -6.938   7.802  67.906  1.00  0.00    -0.077 C  
HETATM   10  O   UNL     1      -6.345   3.508  63.646  1.00  0.00    -0.021 OA 
HETATM   11  C   UNL     1      -8.304   8.007  67.719  1.00  0.00    -0.129 C  
HETATM   12  C   UNL     1      -9.105   7.284  68.884  1.00  0.00    -0.132 C  
HETATM   13  C   UNL     1      -8.769   9.310  67.529  1.00  0.00    -0.116 C  
HETATM   14  C   UNL     1      -9.443   5.874  68.496  1.00  0.00    -0.134 C  
HETATM   15  C   UNL     1      -8.136   5.055  68.460  1.00  0.00    -0.085 C  
HETATM   16  C   UNL     1      -5.621   5.449  64.870  1.00  0.00    -0.017 C  
HETATM   17  C   UNL     1      -7.589   5.319  67.089  1.00  0.00    -0.092 C  
HETATM   18  C   UNL     1      -8.245   4.728  66.060  1.00  0.00    -0.111 C  
HETATM   19  O   UNL     1      -8.893   5.155  63.828  1.00  0.00    -0.095 OA 
HETATM   20  C   UNL     1      -6.615   4.697  64.302  1.00  0.00    -0.043 C  
HETATM   21  C   UNL     1      -8.014   4.971  64.646  1.00  0.00    -0.102 C  
BRANCH   4  22
HETATM   22  O   UNL     1      -7.062  10.650  70.444  1.00  0.00    -0.249 OA 
HETATM   23  C   UNL     1      -5.954  11.571  70.452  1.00  0.00    -0.138 C  
ENDBRANCH   4  22
BRANCH   6  24
HETATM   24  O   UNL     1      -5.701   8.105  69.999  1.00  0.00    -0.023 OA 
HETATM   25  C   UNL     1      -6.293   7.198  70.972  1.00  0.00    -0.036 C  
ENDBRANCH   6  24
BRANCH  15  26
HETATM   26  N   UNL     1      -8.430   3.653  68.697  1.00  0.00    -0.080 N  
HETATM   27  H   UNL     1      -8.995   3.145  68.017  1.00  0.00     0.000 HD 
HETATM   28  C   UNL     1      -7.969   2.989  69.814  1.00  0.00    -0.042 C  
HETATM   29  O   UNL     1      -7.063   3.374  70.535  1.00  0.00    -0.033 OA 
HETATM   30  C   UNL     1      -8.712   1.703  70.073  1.00  0.00    -0.104 C  
ENDBRANCH  15  26
ENDBRANCH   2   3
TORSDOF 4
ENDMDL
MODEL      110
REMARK 921   NORMALIZED FREE ENERGY PREDICTED BY IDOCK:   -1.38 KCAL/MOL
REMARK 922        TOTAL FREE ENERGY PREDICTED BY IDOCK:   -2.45 KCAL/MOL
REMARK 923 INTER-LIGAND FREE ENERGY PREDICTED BY IDOCK:   -2.17 KCAL/MOL
REMARK 924 INTRA-LIGAND FREE ENERGY PREDICTED BY IDOCK:   -0.27 KCAL/MOL
REMARK 927      BINDING AFFINITY PREDICTED BY RF-SCORE:    0.00 PKD
ROOT
HETATM    1  C   UNL     1     -13.058  13.225  72.087  1.00  0.00    -0.385 C  
HETATM    2  O   UNL     1     -12.808  13.582  70.733  1.00  0.00    -0.261 OA 
ENDROOT
BRANCH   2   3
HETATM    3  C   UNL     1     -12.234  12.628  69.936  1.00  0.00    -0.168 C  
HETATM    4  C   UNL     1     -12.058  12.834  68.562  1.00  0.00    -0.100 C  
HETATM    5  C   UNL     1     -10.870   8.862  68.143  1.00  0.00    -0.062 C  
HETATM    6  C   UNL     1     -11.602  11.690  67.719  1.00  0.00    -0.289 C  
HETATM    7  C   UNL     1     -11.762   7.839  67.961  1.00  0.00     1.826 C  
HETATM    8  H   UNL     1     -10.680   3.946  68.057  1.00  0.00     0.000 HD 
HETATM    9  C   UNL     1     -11.299  10.416  68.351  1.00  0.00    -0.292 C  
HETATM   10  O   UNL     1     -10.259   4.441  68.750  1.00  0.00     0.005 OA 
HETATM   11  C   UNL     1     -10.848  10.730  69.631  1.00  0.00    -0.294 C  
HETATM   12  C   UNL     1      -9.396  11.366  69.533  1.00  0.00     0.681 C  
HETATM   13  C   UNL     1     -11.669  11.490  70.467  1.00  0.00    -0.248 C  
HETATM   14  C   UNL     1      -8.344  10.298  69.617  1.00  0.00    -0.139 C  
HETATM   15  C   UNL     1      -8.406   9.457  68.324  1.00  0.00    -0.119 C  
HETATM   16  C   UNL     1     -11.534   6.371  68.086  1.00  0.00     0.154 C  
HETATM   17  C   UNL     1      -9.478   8.447  68.608  1.00  0.00    -0.147 C  
HETATM   18  C   UNL     1      -9.159   7.469  69.490  1.00  0.00    -0.143 C  
HETATM   19  O   UNL     1     -10.129   6.196  71.228  1.00  0.00    -0.183 OA 
HETATM   20  C   UNL     1     -10.723   5.725  68.981  1.00  0.00    -0.284 C  
HETATM   21  C   UNL     1     -10.075   6.490  70.051  1.00  0.00    -0.174 C  
BRANCH   4  22
HETATM   22  O   UNL     1     -12.248  14.096  68.002  1.00  0.00    -0.310 OA 
HETATM   23  C   UNL     1     -11.163  15.044  68.006  1.00  0.00    -0.316 C  
ENDBRANCH   4  22
BRANCH   6  24
HETATM   24  O   UNL     1     -11.228  11.885  66.391  1.00  0.00    -0.307 OA 
HETATM   25  C   UNL     1     -12.229  12.496  65.527  1.00  0.00    -0.377 C  
ENDBRANCH   6  24
BRANCH  15  26
HETATM   26  N   UNL     1      -7.109   8.857  68.070  1.00  0.00    -0.078 N  
HETATM   27  H   UNL     1      -6.461   8.731  68.848  1.00  0.00     0.000 HD 
HETATM   28  C   UNL     1      -6.725   8.451  66.809  1.00  0.00    -0.061 C  
HETATM   29  O   UNL     1      -7.484   8.269  65.871  1.00  0.00    -0.078 OA 
HETATM   30  C   UNL     1      -5.236   8.250  66.690  1.00  0.00    -0.028 C  
ENDBRANCH  15  26
ENDBRANCH   2   3
TORSDOF 4
ENDMDL
MODEL      111
REMARK 921   NORMALIZED FREE ENERGY PREDICTED BY IDOCK:   -0.99 KCAL/MOL
REMARK 922        TOTAL FREE ENERGY PREDICTED BY IDOCK:   -1.96 KCAL/MOL
REMARK 923 INTER-LIGAND FREE ENERGY PREDICTED BY IDOCK:   -1.44 KCAL/MOL
REMARK 924 INTRA-LIGAND FREE ENERGY PREDICTED BY IDOCK:   -0.52 KCAL/MOL
REMARK 927      BINDING AFFINITY PREDICTED BY RF-SCORE:    0.00 PKD
ROOT
HETATM    1  C   UNL     1     -11.367  16.356  71.447  1.00  0.00    -0.086 C  
HETATM    2  O   UNL     1     -10.643  17.122  70.492  1.00  0.00     0.357 OA 
ENDROOT
BRANCH   2   3
HETATM    3  C   UNL     1     -10.247  16.477  69.350  1.00  0.00    -0.264 C  
HETATM    4  C   UNL     1      -9.004  16.734  68.759  1.00  0.00    -0.254 C  
HETATM    5  C   UNL     1     -10.106  14.404  65.485  1.00  0.00    -0.382 C  
HETATM    6  C   UNL     1      -8.711  16.142  67.421  1.00  0.00    -0.180 C  
HETATM    7  C   UNL     1     -10.808  14.907  64.424  1.00  0.00     0.027 C  
HETATM    8  H   UNL     1     -12.317  12.570  61.491  1.00  0.00     0.000 HD 
HETATM    9  C   UNL     1      -9.694  15.272  66.797  1.00  0.00    -0.249 C  
HETATM   10  O   UNL     1     -12.454  12.184  62.348  1.00  0.00     1.214 OA 
HETATM   11  C   UNL     1     -10.366  14.649  67.847  1.00  0.00    -0.237 C  
HETATM   12  C   UNL     1      -9.405  13.578  68.519  1.00  0.00    -0.108 C  
HETATM   13  C   UNL     1     -10.982  15.442  68.816  1.00  0.00    -0.264 C  
HETATM   14  C   UNL     1      -9.562  12.239  67.858  1.00  0.00    -0.203 C  
HETATM   15  C   UNL     1      -8.979  12.332  66.432  1.00  0.00    -0.117 C  
HETATM   16  C   UNL     1     -11.519  14.166  63.342  1.00  0.00     0.998 C  
HETATM   17  C   UNL     1     -10.112  12.885  65.620  1.00  0.00    -0.282 C  
HETATM   18  C   UNL     1     -11.143  12.038  65.379  1.00  0.00    -0.369 C  
HETATM   19  O   UNL     1     -13.499  12.043  65.199  1.00  0.00     0.824 OA 
HETATM   20  C   UNL     1     -12.205  12.986  63.449  1.00  0.00    -0.472 C  
HETATM   21  C   UNL     1     -12.416  12.391  64.773  1.00  0.00    -0.401 C  
BRANCH   4  22
HETATM   22  O   UNL     1      -8.038  17.479  69.432  1.00  0.00     0.087 OA 
HETATM   23  C   UNL     1      -7.855  18.869  69.098  1.00  0.00    -0.114 C  
ENDBRANCH   4  22
BRANCH   6  24
HETATM   24  O   UNL     1      -7.430  16.205  66.877  1.00  0.00    -0.207 OA 
HETATM   25  C   UNL     1      -7.119  17.403  66.109  1.00  0.00    -0.284 C  
ENDBRANCH   6  24
BRANCH  15  26
HETATM   26  N   UNL     1      -8.550  11.016  65.992  1.00  0.00    -0.174 N  
HETATM   27  H   UNL     1      -9.250  10.355  65.657  1.00  0.00     0.000 HD 
HETATM   28  C   UNL     1      -7.225  10.634  66.015  1.00  0.00    -0.131 C  
HETATM   29  O   UNL     1      -6.277  11.397  66.104  1.00  0.00    -0.080 OA 
HETATM   30  C   UNL     1      -7.049   9.140  65.920  1.00  0.00    -0.089 C  
ENDBRANCH  15  26
ENDBRANCH   2   3
TORSDOF 4
ENDMDL
MODEL      112
REMARK 921   NORMALIZED FREE ENERGY PREDICTED BY IDOCK:   -0.89 KCAL/MOL
REMARK 922        TOTAL FREE ENERGY PREDICTED BY IDOCK:   -1.83 KCAL/MOL
REMARK 923 INTER-LIGAND FREE ENERGY PREDICTED BY IDOCK:   -2.37 KCAL/MOL
REMARK 924 INTRA-LIGAND FREE ENERGY PREDICTED BY IDOCK:    0.54 KCAL/MOL
REMARK 927      BINDING AFFINITY PREDICTED BY RF-SCORE:    0.00 PKD
ROOT
HETATM    1  C   UNL     1      -9.009  13.804  66.280  1.00  0.00     0.130 C  
HETATM    2  O   UNL     1      -7.995  12.897  65.866  1.00  0.00     1.398 OA 
ENDROOT
BRANCH   2   3
HETATM    3  C   UNL     1      -7.839  11.759  66.611  1.00  0.00    -0.043 C  
HETATM    4  C   UNL     1      -6.804  11.633  67.545  1.00  0.00    -0.104 C  
HETATM    5  C   UNL     1      -7.795   7.621  68.070  1.00  0.00    -0.121 C  
HETATM    6  C   UNL     1      -6.574  10.306  68.186  1.00  0.00    -0.057 C  
HETATM    7  C   UNL     1      -7.303   6.627  67.267  1.00  0.00    -0.090 C  
HETATM    8  H   UNL     1      -8.634   2.814  67.437  1.00  0.00     0.000 HD 
HETATM    9  C   UNL     1      -7.463   9.200  67.870  1.00  0.00    -0.084 C  
HETATM   10  O   UNL     1      -9.351   3.435  67.484  1.00  0.00    -0.183 OA 
HETATM   11  C   UNL     1      -8.698   9.779  67.589  1.00  0.00    -0.125 C  
HETATM   12  C   UNL     1      -9.348  10.306  68.938  1.00  0.00    -0.180 C  
HETATM   13  C   UNL     1      -8.775  10.748  66.587  1.00  0.00    -0.149 C  
HETATM   14  C   UNL     1     -10.192   9.237  69.571  1.00  0.00    -0.214 C  
HETATM   15  C   UNL     1      -9.256   8.124  70.088  1.00  0.00    -0.155 C  
HETATM   16  C   UNL     1      -7.773   5.219  67.134  1.00  0.00    -0.096 C  
HETATM   17  C   UNL     1      -9.033   7.259  68.883  1.00  0.00    -0.133 C  
HETATM   18  C   UNL     1     -10.084   6.497  68.493  1.00  0.00    -0.172 C  
HETATM   19  O   UNL     1     -11.130   5.707  66.528  1.00  0.00    -0.194 OA 
HETATM   20  C   UNL     1      -9.062   4.759  67.196  1.00  0.00    -0.118 C  
HETATM   21  C   UNL     1     -10.168   5.718  67.269  1.00  0.00    -0.205 C  
BRANCH   4  22
HETATM   22  O   UNL     1      -6.039  12.740  67.912  1.00  0.00    -0.086 OA 
HETATM   23  C   UNL     1      -6.700  13.969  68.271  1.00  0.00    -0.109 C  
ENDBRANCH   4  22
BRANCH   6  24
HETATM   24  O   UNL     1      -5.690  10.172  69.255  1.00  0.00    -0.038 OA 
HETATM   25  C   UNL     1      -5.855  11.122  70.346  1.00  0.00    -0.145 C  
ENDBRANCH   6  24
BRANCH  15  26
HETATM   26  N   UNL     1      -9.893   7.421  71.187  1.00  0.00    -0.175 N  
HETATM   27  H   UNL     1     -10.388   6.550  70.994  1.00  0.00     0.000 HD 
HETATM   28  C   UNL     1      -9.848   7.893  72.481  1.00  0.00    -0.236 C  
HETATM   29  O   UNL     1      -9.064   8.732  72.894  1.00  0.00    -0.311 OA 
HETATM   30  C   UNL     1     -10.890   7.261  73.368  1.00  0.00    -0.370 C  
ENDBRANCH  15  26
ENDBRANCH   2   3
TORSDOF 4
ENDMDL
MODEL      113
REMARK 921   NORMALIZED FREE ENERGY PREDICTED BY IDOCK:   -0.68 KCAL/MOL
REMARK 922        TOTAL FREE ENERGY PREDICTED BY IDOCK:   -1.57 KCAL/MOL
REMARK 923 INTER-LIGAND FREE ENERGY PREDICTED BY IDOCK:   -2.43 KCAL/MOL
REMARK 924 INTRA-LIGAND FREE ENERGY PREDICTED BY IDOCK:    0.86 KCAL/MOL
REMARK 927      BINDING AFFINITY PREDICTED BY RF-SCORE:    0.00 PKD
ROOT
HETATM    1  C   UNL     1      -7.616  11.322  69.075  1.00  0.00    -0.106 C  
HETATM    2  O   UNL     1      -7.567  10.926  70.440  1.00  0.00     0.286 OA 
ENDROOT
BRANCH   2   3
HETATM    3  C   UNL     1      -7.517   9.581  70.694  1.00  0.00    -0.118 C  
HETATM    4  C   UNL     1      -6.707   9.060  71.711  1.00  0.00     0.012 C  
HETATM    5  C   UNL     1      -7.571   5.204  70.388  1.00  0.00    -0.070 C  
HETATM    6  C   UNL     1      -6.553   7.579  71.815  1.00  0.00    -0.042 C  
HETATM    7  C   UNL     1      -6.861   4.589  69.391  1.00  0.00    -0.046 C  
HETATM    8  H   UNL     1      -7.989   1.069  67.753  1.00  0.00     0.000 HD 
HETATM    9  C   UNL     1      -7.289   6.721  70.901  1.00  0.00    -0.082 C  
HETATM   10  O   UNL     1      -8.731   1.649  67.878  1.00  0.00    -0.074 OA 
HETATM   11  C   UNL     1      -8.462   7.410  70.600  1.00  0.00    -0.136 C  
HETATM   12  C   UNL     1      -9.420   7.388  71.866  1.00  0.00    -0.166 C  
HETATM   13  C   UNL     1      -8.368   8.698  70.069  1.00  0.00    -0.124 C  
HETATM   14  C   UNL     1     -10.323   6.190  71.825  1.00  0.00    -0.250 C  
HETATM   15  C   UNL     1      -9.465   4.928  72.059  1.00  0.00    -0.143 C  
HETATM   16  C   UNL     1      -7.214   3.365  68.617  1.00  0.00    -0.050 C  
HETATM   17  C   UNL     1      -8.936   4.599  70.695  1.00  0.00    -0.162 C  
HETATM   18  C   UNL     1      -9.833   4.092  69.813  1.00  0.00    -0.220 C  
HETATM   19  O   UNL     1     -10.376   4.179  67.516  1.00  0.00     0.135 OA 
HETATM   20  C   UNL     1      -8.458   2.967  68.204  1.00  0.00    -0.082 C  
HETATM   21  C   UNL     1      -9.603   3.861  68.397  1.00  0.00    -0.112 C  
BRANCH   4  22
HETATM   22  O   UNL     1      -6.103   9.903  72.642  1.00  0.00    -0.114 OA 
HETATM   23  C   UNL     1      -5.130   9.365  73.559  1.00  0.00    -0.104 C  
ENDBRANCH   4  22
BRANCH   6  24
HETATM   24  O   UNL     1      -5.919   7.002  72.914  1.00  0.00    -0.045 OA 
HETATM   25  C   UNL     1      -6.367   5.667  73.282  1.00  0.00    -0.062 C  
ENDBRANCH   6  24
BRANCH  15  26
HETATM   26  N   UNL     1     -10.289   3.874  72.622  1.00  0.00    -0.166 N  
HETATM   27  H   UNL     1     -11.288   4.040  72.743  1.00  0.00     0.000 HD 
HETATM   28  C   UNL     1      -9.762   2.657  73.000  1.00  0.00    -0.107 C  
HETATM   29  O   UNL     1      -8.677   2.224  72.648  1.00  0.00    -0.062 OA 
HETATM   30  C   UNL     1     -10.676   1.887  73.918  1.00  0.00    -0.223 C  
ENDBRANCH  15  26
ENDBRANCH   2   3
TORSDOF 4
ENDMDL
MODEL      114
REMARK 921   NORMALIZED FREE ENERGY PREDICTED BY IDOCK:   -0.67 KCAL/MOL
REMARK 922        TOTAL FREE ENERGY PREDICTED BY IDOCK:   -1.56 KCAL/MOL
REMARK 923 INTER-LIGAND FREE ENERGY PREDICTED BY IDOCK:   -2.46 KCAL/MOL
REMARK 924 INTRA-LIGAND FREE ENERGY PREDICTED BY IDOCK:    0.90 KCAL/MOL
REMARK 927      BINDING AFFINITY PREDICTED BY RF-SCORE:    0.00 PKD
ROOT
HETATM    1  C   UNL     1      -6.719  13.943  67.274  1.00  0.00     0.240 C  
HETATM    2  O   UNL     1      -6.831  13.594  68.649  1.00  0.00    -0.084 OA 
ENDROOT
BRANCH   2   3
HETATM    3  C   UNL     1      -6.777  12.261  68.958  1.00  0.00    -0.105 C  
HETATM    4  C   UNL     1      -6.209  11.812  70.156  1.00  0.00    -0.104 C  
HETATM    5  C   UNL     1      -6.535   7.883  68.809  1.00  0.00    -0.048 C  
HETATM    6  C   UNL     1      -6.010  10.346  70.349  1.00  0.00    -0.104 C  
HETATM    7  C   UNL     1      -5.577   7.286  68.035  1.00  0.00    -0.025 C  
HETATM    8  H   UNL     1      -6.099   3.668  66.306  1.00  0.00     0.000 HD 
HETATM    9  C   UNL     1      -6.461   9.425  69.319  1.00  0.00    -0.044 C  
HETATM   10  O   UNL     1      -6.878   4.207  66.230  1.00  0.00    -0.052 OA 
HETATM   11  C   UNL     1      -7.561  10.038  68.722  1.00  0.00    -0.083 C  
HETATM   12  C   UNL     1      -8.793   9.991  69.723  1.00  0.00    -0.205 C  
HETATM   13  C   UNL     1      -7.407  11.315  68.180  1.00  0.00    -0.088 C  
HETATM   14  C   UNL     1      -9.598   8.741  69.511  1.00  0.00    -0.167 C  
HETATM   15  C   UNL     1      -8.759   7.538  69.990  1.00  0.00    -0.140 C  
HETATM   16  C   UNL     1      -5.671   6.025  67.244  1.00  0.00    -0.016 C  
HETATM   17  C   UNL     1      -7.902   7.207  68.805  1.00  0.00    -0.122 C  
HETATM   18  C   UNL     1      -8.534   6.628  67.754  1.00  0.00    -0.122 C  
HETATM   19  O   UNL     1      -8.514   6.628  65.392  1.00  0.00    -0.150 OA 
HETATM   20  C   UNL     1      -6.758   5.546  66.562  1.00  0.00    -0.058 C  
HETATM   21  C   UNL     1      -7.960   6.377  66.443  1.00  0.00    -0.110 C  
BRANCH   4  22
HETATM   22  O   UNL     1      -5.890  12.711  71.173  1.00  0.00    -0.342 OA 
HETATM   23  C   UNL     1      -5.158  12.247  72.324  1.00  0.00     0.195 C  
ENDBRANCH   4  22
BRANCH   6  24
HETATM   24  O   UNL     1      -5.631   9.833  71.588  1.00  0.00    -0.102 OA 
HETATM   25  C   UNL     1      -6.084   8.482  71.887  1.00  0.00    -0.060 C  
ENDBRANCH   6  24
BRANCH  15  26
HETATM   26  N   UNL     1      -9.640   6.452  70.380  1.00  0.00    -0.165 N  
HETATM   27  H   UNL     1     -10.647   6.569  70.270  1.00  0.00     0.000 HD 
HETATM   28  C   UNL     1      -9.156   5.266  70.892  1.00  0.00    -0.138 C  
HETATM   29  O   UNL     1      -8.001   4.883  70.801  1.00  0.00    -0.079 OA 
HETATM   30  C   UNL     1     -10.217   4.464  71.601  1.00  0.00    -0.186 C  
ENDBRANCH  15  26
ENDBRANCH   2   3
TORSDOF 4
ENDMDL
MODEL      115
REMARK 921   NORMALIZED FREE ENERGY PREDICTED BY IDOCK:   -0.58 KCAL/MOL
REMARK 922        TOTAL FREE ENERGY PREDICTED BY IDOCK:   -1.45 KCAL/MOL
REMARK 923 INTER-LIGAND FREE ENERGY PREDICTED BY IDOCK:   -1.18 KCAL/MOL
REMARK 924 INTRA-LIGAND FREE ENERGY PREDICTED BY IDOCK:   -0.28 KCAL/MOL
REMARK 927      BINDING AFFINITY PREDICTED BY RF-SCORE:    0.00 PKD
ROOT
HETATM    1  C   UNL     1      -6.242   8.216  64.700  1.00  0.00    -0.056 C  
HETATM    2  O   UNL     1      -7.439   8.034  65.448  1.00  0.00    -0.073 OA 
ENDROOT
BRANCH   2   3
HETATM    3  C   UNL     1      -7.754   9.005  66.360  1.00  0.00    -0.099 C  
HETATM    4  C   UNL     1      -7.175   9.024  67.635  1.00  0.00    -0.083 C  
HETATM    5  C   UNL     1      -9.769  12.091  68.741  1.00  0.00    -0.029 C  
HETATM    6  C   UNL     1      -7.697   9.991  68.644  1.00  0.00    -0.086 C  
HETATM    7  C   UNL     1     -11.028  11.855  69.224  1.00  0.00    -0.208 C  
HETATM    8  H   UNL     1     -13.730  14.802  69.824  1.00  0.00     0.000 HD 
HETATM    9  C   UNL     1      -8.746  10.922  68.262  1.00  0.00    -0.140 C  
HETATM   10  O   UNL     1     -13.266  14.917  69.003  1.00  0.00     1.102 OA 
HETATM   11  C   UNL     1      -8.553  11.168  66.904  1.00  0.00    -0.148 C  
HETATM   12  C   UNL     1      -7.265  12.077  66.715  1.00  0.00     0.036 C  
HETATM   13  C   UNL     1      -8.534  10.087  66.020  1.00  0.00    -0.137 C  
HETATM   14  C   UNL     1      -7.635  13.532  66.744  1.00  0.00     0.669 C  
HETATM   15  C   UNL     1      -8.065  13.892  68.182  1.00  0.00    -0.150 C  
HETATM   16  C   UNL     1     -12.159  12.814  69.382  1.00  0.00    -0.248 C  
HETATM   17  C   UNL     1      -9.513  13.504  68.228  1.00  0.00    -0.212 C  
HETATM   18  C   UNL     1     -10.367  14.301  67.539  1.00  0.00    -0.248 C  
HETATM   19  O   UNL     1     -12.319  14.162  66.215  1.00  0.00    -0.456 OA 
HETATM   20  C   UNL     1     -12.491  13.858  68.561  1.00  0.00     0.268 C  
HETATM   21  C   UNL     1     -11.775  14.035  67.294  1.00  0.00    -0.389 C  
BRANCH   4  22
HETATM   22  O   UNL     1      -6.095   8.196  67.938  1.00  0.00    -0.045 OA 
HETATM   23  C   UNL     1      -6.328   6.947  68.618  1.00  0.00    -0.032 C  
ENDBRANCH   4  22
BRANCH   6  24
HETATM   24  O   UNL     1      -7.037  10.185  69.856  1.00  0.00    -0.109 OA 
HETATM   25  C   UNL     1      -7.722   9.695  71.044  1.00  0.00     0.266 C  
ENDBRANCH   6  24
BRANCH  15  26
HETATM   26  N   UNL     1      -7.845  15.308  68.418  1.00  0.00    -0.118 N  
HETATM   27  H   UNL     1      -8.580  15.854  68.868  1.00  0.00     0.000 HD 
HETATM   28  C   UNL     1      -6.673  15.936  68.052  1.00  0.00    -0.128 C  
HETATM   29  O   UNL     1      -5.626  15.368  67.789  1.00  0.00    -0.143 OA 
HETATM   30  C   UNL     1      -6.809  17.437  68.003  1.00  0.00    -0.182 C  
ENDBRANCH  15  26
ENDBRANCH   2   3
TORSDOF 4
ENDMDL
MODEL      116
REMARK 921   NORMALIZED FREE ENERGY PREDICTED BY IDOCK:   -0.48 KCAL/MOL
REMARK 922        TOTAL FREE ENERGY PREDICTED BY IDOCK:   -1.32 KCAL/MOL
REMARK 923 INTER-LIGAND FREE ENERGY PREDICTED BY IDOCK:   -2.78 KCAL/MOL
REMARK 924 INTRA-LIGAND FREE ENERGY PREDICTED BY IDOCK:    1.45 KCAL/MOL
REMARK 927      BINDING AFFINITY PREDICTED BY RF-SCORE:    0.00 PKD
ROOT
HETATM    1  C   UNL     1      -5.266   8.543  65.009  1.00  0.00    -0.035 C  
HETATM    2  O   UNL     1      -5.222   9.159  66.290  1.00  0.00    -0.035 OA 
ENDROOT
BRANCH   2   3
HETATM    3  C   UNL     1      -6.349   9.818  66.701  1.00  0.00    -0.066 C  
HETATM    4  C   UNL     1      -6.920   9.576  67.956  1.00  0.00    -0.079 C  
HETATM    5  C   UNL     1     -10.191  11.930  66.896  1.00  0.00    -0.233 C  
HETATM    6  C   UNL     1      -8.247  10.184  68.268  1.00  0.00    -0.110 C  
HETATM    7  C   UNL     1     -11.269  11.432  66.216  1.00  0.00    -0.228 C  
HETATM    8  H   UNL     1     -14.206  13.788  64.742  1.00  0.00     0.000 HD 
HETATM    9  C   UNL     1      -8.880  11.053  67.290  1.00  0.00    -0.135 C  
HETATM   10  O   UNL     1     -13.348  14.163  64.587  1.00  0.00    -0.075 OA 
HETATM   11  C   UNL     1      -7.836  11.660  66.595  1.00  0.00    -0.083 C  
HETATM   12  C   UNL     1      -7.137  12.732  67.536  1.00  0.00    -0.148 C  
HETATM   13  C   UNL     1      -6.886  10.853  65.967  1.00  0.00    -0.072 C  
HETATM   14  C   UNL     1      -7.787  14.076  67.380  1.00  0.00    -0.188 C  
HETATM   15  C   UNL     1      -9.204  14.002  67.989  1.00  0.00    -0.201 C  
HETATM   16  C   UNL     1     -12.356  12.179  65.519  1.00  0.00     0.074 C  
HETATM   17  C   UNL     1     -10.041  13.448  66.875  1.00  0.00    -0.255 C  
HETATM   18  C   UNL     1     -10.292  14.289  65.842  1.00  0.00    -0.325 C  
HETATM   19  O   UNL     1     -10.515  14.268  63.490  1.00  0.00     1.537 OA 
HETATM   20  C   UNL     1     -12.250  13.353  64.823  1.00  0.00    -0.409 C  
HETATM   21  C   UNL     1     -10.925  13.933  64.583  1.00  0.00    -0.398 C  
BRANCH   4  22
HETATM   22  O   UNL     1      -6.237   8.831  68.916  1.00  0.00    -0.043 OA 
HETATM   23  C   UNL     1      -5.178   9.451  69.672  1.00  0.00    -0.034 C  
ENDBRANCH   4  22
BRANCH   6  24
HETATM   24  O   UNL     1      -8.769  10.136  69.560  1.00  0.00    -0.174 OA 
HETATM   25  C   UNL     1      -8.578   8.886  70.281  1.00  0.00    -0.167 C  
ENDBRANCH   6  24
BRANCH  15  26
HETATM   26  N   UNL     1      -9.622  15.324  68.416  1.00  0.00    -0.202 N  
HETATM   27  H   UNL     1     -10.285  15.408  69.186  1.00  0.00     0.000 HD 
HETATM   28  C   UNL     1      -9.151  16.471  67.811  1.00  0.00    -0.204 C  
HETATM   29  O   UNL     1      -8.159  16.532  67.103  1.00  0.00    -0.161 OA 
HETATM   30  C   UNL     1     -10.001  17.679  68.113  1.00  0.00    -0.330 C  
ENDBRANCH  15  26
ENDBRANCH   2   3
TORSDOF 4
ENDMDL
MODEL      117
REMARK 921   NORMALIZED FREE ENERGY PREDICTED BY IDOCK:    0.26 KCAL/MOL
REMARK 922        TOTAL FREE ENERGY PREDICTED BY IDOCK:   -0.42 KCAL/MOL
REMARK 923 INTER-LIGAND FREE ENERGY PREDICTED BY IDOCK:   -1.98 KCAL/MOL
REMARK 924 INTRA-LIGAND FREE ENERGY PREDICTED BY IDOCK:    1.56 KCAL/MOL
REMARK 927      BINDING AFFINITY PREDICTED BY RF-SCORE:    0.00 PKD
ROOT
HETATM    1  C   UNL     1      -6.244  18.167  67.220  1.00  0.00    -0.167 C  
HETATM    2  O   UNL     1      -6.564  17.000  66.472  1.00  0.00    -0.214 OA 
ENDROOT
BRANCH   2   3
HETATM    3  C   UNL     1      -7.051  15.929  67.172  1.00  0.00    -0.204 C  
HETATM    4  C   UNL     1      -8.061  16.081  68.130  1.00  0.00    -0.147 C  
HETATM    5  C   UNL     1      -7.548  12.105  69.267  1.00  0.00     0.288 C  
HETATM    6  C   UNL     1      -8.416  14.913  68.988  1.00  0.00    -0.178 C  
HETATM    7  C   UNL     1      -6.615  11.716  70.190  1.00  0.00     0.149 C  
HETATM    8  H   UNL     1      -5.759   7.835  70.933  1.00  0.00     0.000 HD 
HETATM    9  C   UNL     1      -7.749  13.640  68.769  1.00  0.00    -0.064 C  
HETATM   10  O   UNL     1      -5.849   8.000  70.002  1.00  0.00    -0.023 OA 
HETATM   11  C   UNL     1      -7.444  13.604  67.410  1.00  0.00    -0.139 C  
HETATM   12  C   UNL     1      -8.781  13.387  66.580  1.00  0.00    -0.014 C  
HETATM   13  C   UNL     1      -6.682  14.639  66.864  1.00  0.00     1.068 C  
HETATM   14  C   UNL     1      -9.045  11.922  66.378  1.00  0.00    -0.208 C  
HETATM   15  C   UNL     1      -9.419  11.306  67.743  1.00  0.00    -0.170 C  
HETATM   16  C   UNL     1      -6.113  10.343  70.483  1.00  0.00    -0.116 C  
HETATM   17  C   UNL     1      -8.092  10.998  68.370  1.00  0.00    -0.134 C  
HETATM   18  C   UNL     1      -7.408   9.954  67.839  1.00  0.00    -0.088 C  
HETATM   19  O   UNL     1      -5.197   9.296  67.331  1.00  0.00    -0.036 OA 
HETATM   20  C   UNL     1      -5.903   9.322  69.595  1.00  0.00    -0.033 C  
HETATM   21  C   UNL     1      -6.042   9.576  68.157  1.00  0.00    -0.055 C  
BRANCH   4  22
HETATM   22  O   UNL     1      -8.761  17.281  68.241  1.00  0.00    -0.235 OA 
HETATM   23  C   UNL     1      -9.902  17.517  67.392  1.00  0.00    -0.297 C  
ENDBRANCH   4  22
BRANCH   6  24
HETATM   24  O   UNL     1      -9.534  14.950  69.819  1.00  0.00    -0.015 OA 
HETATM   25  C   UNL     1     -10.649  14.098  69.430  1.00  0.00    -0.036 C  
ENDBRANCH   6  24
BRANCH  15  26
HETATM   26  N   UNL     1     -10.241  10.127  67.538  1.00  0.00    -0.197 N  
HETATM   27  H   UNL     1     -11.065   9.991  68.124  1.00  0.00     0.000 HD 
HETATM   28  C   UNL     1      -9.943   9.186  66.575  1.00  0.00    -0.288 C  
HETATM   29  O   UNL     1      -9.187   9.362  65.633  1.00  0.00    -0.193 OA 
HETATM   30  C   UNL     1     -10.655   7.877  66.801  1.00  0.00    -0.234 C  
ENDBRANCH  15  26
ENDBRANCH   2   3
TORSDOF 4
ENDMDL
MODEL      118
REMARK 921   NORMALIZED FREE ENERGY PREDICTED BY IDOCK:    0.60 KCAL/MOL
REMARK 922        TOTAL FREE ENERGY PREDICTED BY IDOCK:   -0.00 KCAL/MOL
REMARK 923 INTER-LIGAND FREE ENERGY PREDICTED BY IDOCK:   -1.28 KCAL/MOL
REMARK 924 INTRA-LIGAND FREE ENERGY PREDICTED BY IDOCK:    1.28 KCAL/MOL
REMARK 927      BINDING AFFINITY PREDICTED BY RF-SCORE:    0.00 PKD
ROOT
HETATM    1  C   UNL     1     -13.943  11.422  71.987  1.00  0.00     0.624 C  
HETATM    2  O   UNL     1     -13.474  12.467  71.144  1.00  0.00     0.107 OA 
ENDROOT
BRANCH   2   3
HETATM    3  C   UNL     1     -12.375  12.197  70.374  1.00  0.00    -0.233 C  
HETATM    4  C   UNL     1     -11.441  13.192  70.059  1.00  0.00    -0.024 C  
HETATM    5  C   UNL     1      -9.556  10.560  67.437  1.00  0.00    -0.181 C  
HETATM    6  C   UNL     1     -10.372  12.882  69.066  1.00  0.00     0.068 C  
HETATM    7  C   UNL     1      -9.952  10.403  66.136  1.00  0.00    -0.290 C  
HETATM    8  H   UNL     1      -8.474   7.510  63.730  1.00  0.00     0.000 HD 
HETATM    9  C   UNL     1     -10.292  11.546  68.499  1.00  0.00    -0.224 C  
HETATM   10  O   UNL     1      -8.659   7.178  64.601  1.00  0.00     0.085 OA 
HETATM   11  C   UNL     1     -10.777  10.689  69.485  1.00  0.00    -0.290 C  
HETATM   12  C   UNL     1      -9.709  10.580  70.654  1.00  0.00     1.313 C  
HETATM   13  C   UNL     1     -12.057  10.911  69.999  1.00  0.00    -0.433 C  
HETATM   14  C   UNL     1      -8.754   9.451  70.393  1.00  0.00    -0.278 C  
HETATM   15  C   UNL     1      -7.865   9.837  69.192  1.00  0.00    -0.095 C  
HETATM   16  C   UNL     1      -9.589   9.322  65.176  1.00  0.00    -0.103 C  
HETATM   17  C   UNL     1      -8.686   9.441  68.001  1.00  0.00    -0.124 C  
HETATM   18  C   UNL     1      -8.800   8.110  67.770  1.00  0.00    -0.130 C  
HETATM   19  O   UNL     1     -10.378   6.520  67.020  1.00  0.00    -0.196 OA 
HETATM   20  C   UNL     1      -9.389   7.995  65.448  1.00  0.00     0.403 C  
HETATM   21  C   UNL     1      -9.674   7.483  66.792  1.00  0.00    -0.216 C  
BRANCH   4  22
HETATM   22  O   UNL     1     -11.475  14.428  70.704  1.00  0.00    -0.230 OA 
HETATM   23  C   UNL     1     -12.630  15.276  70.549  1.00  0.00    -0.399 C  
ENDBRANCH   4  22
BRANCH   6  24
HETATM   24  O   UNL     1      -9.311  13.762  68.861  1.00  0.00    -0.056 OA 
HETATM   25  C   UNL     1      -9.640  15.021  68.207  1.00  0.00    -0.210 C  
ENDBRANCH   6  24
BRANCH  15  26
HETATM   26  N   UNL     1      -6.599   9.131  69.273  1.00  0.00    -0.048 N  
HETATM   27  H   UNL     1      -5.754   9.594  68.938  1.00  0.00     0.000 HD 
HETATM   28  C   UNL     1      -6.505   7.856  69.789  1.00  0.00    -0.034 C  
HETATM   29  O   UNL     1      -7.353   7.316  70.481  1.00  0.00    -0.071 OA 
HETATM   30  C   UNL     1      -5.219   7.168  69.408  1.00  0.00    -0.015 C  
ENDBRANCH  15  26
ENDBRANCH   2   3
TORSDOF 4
ENDMDL
MODEL      119
REMARK 921   NORMALIZED FREE ENERGY PREDICTED BY IDOCK:    0.70 KCAL/MOL
REMARK 922        TOTAL FREE ENERGY PREDICTED BY IDOCK:    0.12 KCAL/MOL
REMARK 923 INTER-LIGAND FREE ENERGY PREDICTED BY IDOCK:   -1.34 KCAL/MOL
REMARK 924 INTRA-LIGAND FREE ENERGY PREDICTED BY IDOCK:    1.47 KCAL/MOL
REMARK 927      BINDING AFFINITY PREDICTED BY RF-SCORE:    0.00 PKD
ROOT
HETATM    1  C   UNL     1      -6.345   8.723  71.815  1.00  0.00    -0.074 C  
HETATM    2  O   UNL     1      -5.791   8.592  70.512  1.00  0.00    -0.027 OA 
ENDROOT
BRANCH   2   3
HETATM    3  C   UNL     1      -6.221   7.533  69.758  1.00  0.00    -0.030 C  
HETATM    4  C   UNL     1      -6.962   6.488  70.323  1.00  0.00    -0.066 C  
HETATM    5  C   UNL     1      -6.649   4.368  66.749  1.00  0.00    -0.050 C  
HETATM    6  C   UNL     1      -7.238   5.278  69.495  1.00  0.00    -0.061 C  
HETATM    7  C   UNL     1      -5.579   3.565  66.459  1.00  0.00    -0.018 C  
HETATM    8  H   UNL     1      -5.013   1.906  62.816  1.00  0.00     0.000 HD 
HETATM    9  C   UNL     1      -6.786   5.241  68.114  1.00  0.00    -0.055 C  
HETATM   10  O   UNL     1      -5.295   2.810  62.746  1.00  0.00    -0.007 OA 
HETATM   11  C   UNL     1      -6.806   6.564  67.676  1.00  0.00    -0.076 C  
HETATM   12  C   UNL     1      -8.312   7.027  67.483  1.00  0.00    -0.119 C  
HETATM   13  C   UNL     1      -6.078   7.519  68.388  1.00  0.00    -0.035 C  
HETATM   14  C   UNL     1      -8.777   6.743  66.084  1.00  0.00    -0.156 C  
HETATM   15  C   UNL     1      -8.895   5.213  65.914  1.00  0.00    -0.142 C  
HETATM   16  C   UNL     1      -5.179   2.987  65.144  1.00  0.00    -0.009 C  
HETATM   17  C   UNL     1      -7.503   4.786  65.557  1.00  0.00    -0.081 C  
HETATM   18  C   UNL     1      -7.079   5.111  64.311  1.00  0.00    -0.050 C  
HETATM   19  O   UNL     1      -5.131   5.815  63.176  1.00  0.00    -0.012 OA 
HETATM   20  C   UNL     1      -5.292   3.565  63.907  1.00  0.00    -0.009 C  
HETATM   21  C   UNL     1      -5.727   4.961  63.801  1.00  0.00    -0.017 C  
BRANCH   4  22
HETATM   22  O   UNL     1      -7.480   6.599  71.612  1.00  0.00    -0.086 OA 
HETATM   23  C   UNL     1      -7.475   5.448  72.479  1.00  0.00    -0.096 C  
ENDBRANCH   4  22
BRANCH   6  24
HETATM   24  O   UNL     1      -8.126   4.298  69.936  1.00  0.00    -0.058 OA 
HETATM   25  C   UNL     1      -9.484   4.385  69.419  1.00  0.00    -0.180 C  
ENDBRANCH   6  24
BRANCH  15  26
HETATM   26  N   UNL     1      -9.869   4.910  64.881  1.00  0.00    -0.368 N  
HETATM   27  H   UNL     1     -10.366   5.678  64.430  1.00  0.00     0.000 HD 
HETATM   28  C   UNL     1     -10.141   3.615  64.491  1.00  0.00    -0.186 C  
HETATM   29  O   UNL     1      -9.431   2.650  64.721  1.00  0.00    -0.152 OA 
HETATM   30  C   UNL     1     -11.439   3.497  63.732  1.00  0.00     0.876 C  
ENDBRANCH  15  26
ENDBRANCH   2   3
TORSDOF 4
ENDMDL
MODEL      120
REMARK 921   NORMALIZED FREE ENERGY PREDICTED BY IDOCK:    1.05 KCAL/MOL
REMARK 922        TOTAL FREE ENERGY PREDICTED BY IDOCK:    0.56 KCAL/MOL
REMARK 923 INTER-LIGAND FREE ENERGY PREDICTED BY IDOCK:    0.91 KCAL/MOL
REMARK 924 INTRA-LIGAND FREE ENERGY PREDICTED BY IDOCK:   -0.35 KCAL/MOL
REMARK 927      BINDING AFFINITY PREDICTED BY RF-SCORE:    0.00 PKD
ROOT
HETATM    1  C   UNL     1      -6.298  10.779  72.078  1.00  0.00     2.028 C  
HETATM    2  O   UNL     1      -5.605  10.345  70.914  1.00  0.00    -0.083 OA 
ENDROOT
BRANCH   2   3
HETATM    3  C   UNL     1      -6.197   9.359  70.171  1.00  0.00    -0.055 C  
HETATM    4  C   UNL     1      -6.700   9.612  68.889  1.00  0.00    -0.046 C  
HETATM    5  C   UNL     1      -8.386   5.803  68.824  1.00  0.00    -0.104 C  
HETATM    6  C   UNL     1      -7.497   8.550  68.210  1.00  0.00    -0.096 C  
HETATM    7  C   UNL     1      -9.623   5.533  69.347  1.00  0.00    -0.196 C  
HETATM    8  H   UNL     1     -11.059   1.775  69.747  1.00  0.00     0.000 HD 
HETATM    9  C   UNL     1      -7.680   7.266  68.868  1.00  0.00    -0.116 C  
HETATM   10  O   UNL     1     -10.146   1.829  70.005  1.00  0.00     0.240 OA 
HETATM   11  C   UNL     1      -6.537   7.074  69.642  1.00  0.00    -0.045 C  
HETATM   12  C   UNL     1      -5.310   6.747  68.688  1.00  0.00    -0.016 C  
HETATM   13  C   UNL     1      -6.191   8.045  70.584  1.00  0.00    -0.036 C  
HETATM   14  C   UNL     1      -5.193   5.267  68.466  1.00  0.00     0.000 C  
HETATM   15  C   UNL     1      -6.389   4.811  67.604  1.00  0.00    -0.040 C  
HETATM   16  C   UNL     1     -10.231   4.209  69.663  1.00  0.00     0.345 C  
HETATM   17  C   UNL     1      -7.485   4.592  68.604  1.00  0.00    -0.065 C  
HETATM   18  C   UNL     1      -7.360   3.500  69.398  1.00  0.00    -0.049 C  
HETATM   19  O   UNL     1      -7.765   2.808  71.620  1.00  0.00    -0.046 OA 
HETATM   20  C   UNL     1      -9.601   3.094  70.146  1.00  0.00    -0.102 C  
HETATM   21  C   UNL     1      -8.192   3.176  70.544  1.00  0.00    -0.051 C  
BRANCH   4  22
HETATM   22  O   UNL     1      -6.413  10.810  68.237  1.00  0.00    -0.057 OA 
HETATM   23  C   UNL     1      -5.421  10.828  67.192  1.00  0.00    -0.044 C  
ENDBRANCH   4  22
BRANCH   6  24
HETATM   24  O   UNL     1      -7.856   8.673  66.869  1.00  0.00    -0.090 OA 
HETATM   25  C   UNL     1      -9.186   8.196  66.516  1.00  0.00    -0.188 C  
ENDBRANCH   6  24
BRANCH  15  26
HETATM   26  N   UNL     1      -6.035   3.609  66.872  1.00  0.00    -0.023 N  
HETATM   27  H   UNL     1      -5.176   3.116  67.119  1.00  0.00     0.000 HD 
HETATM   28  C   UNL     1      -6.822   3.113  65.855  1.00  0.00    -0.048 C  
HETATM   29  O   UNL     1      -7.988   3.417  65.660  1.00  0.00    -0.088 OA 
HETATM   30  C   UNL     1      -6.088   2.132  64.976  1.00  0.00    -0.018 C  
ENDBRANCH  15  26
ENDBRANCH   2   3
TORSDOF 4
ENDMDL
MODEL      121
REMARK 921   NORMALIZED FREE ENERGY PREDICTED BY IDOCK:    1.14 KCAL/MOL
REMARK 922        TOTAL FREE ENERGY PREDICTED BY IDOCK:    0.67 KCAL/MOL
REMARK 923 INTER-LIGAND FREE ENERGY PREDICTED BY IDOCK:   -0.84 KCAL/MOL
REMARK 924 INTRA-LIGAND FREE ENERGY PREDICTED BY IDOCK:    1.51 KCAL/MOL
REMARK 927      BINDING AFFINITY PREDICTED BY RF-SCORE:    0.00 PKD
ROOT
HETATM    1  C   UNL     1      -5.484  18.954  64.827  1.00  0.00    -0.231 C  
HETATM    2  O   UNL     1      -6.817  18.597  65.171  1.00  0.00    -0.522 OA 
ENDROOT
BRANCH   2   3
HETATM    3  C   UNL     1      -6.974  17.600  66.096  1.00  0.00    -0.303 C  
HETATM    4  C   UNL     1      -7.005  17.876  67.469  1.00  0.00    -0.193 C  
HETATM    5  C   UNL     1      -6.930  13.788  68.269  1.00  0.00    -0.109 C  
HETATM    6  C   UNL     1      -6.989  16.735  68.429  1.00  0.00    -0.170 C  
HETATM    7  C   UNL     1      -5.765  13.073  68.354  1.00  0.00    -0.074 C  
HETATM    8  H   UNL     1      -5.686   9.041  68.627  1.00  0.00     0.000 HD 
HETATM    9  C   UNL     1      -7.000  15.374  67.919  1.00  0.00    -0.161 C  
HETATM   10  O   UNL     1      -6.325   9.334  67.987  1.00  0.00    -0.053 OA 
HETATM   11  C   UNL     1      -7.699  15.430  66.714  1.00  0.00    -0.045 C  
HETATM   12  C   UNL     1      -9.243  15.648  67.016  1.00  0.00    -0.239 C  
HETATM   13  C   UNL     1      -7.257  16.306  65.721  1.00  0.00     1.959 C  
HETATM   14  C   UNL     1      -9.944  14.328  67.157  1.00  0.00    -0.255 C  
HETATM   15  C   UNL     1      -9.461  13.660  68.462  1.00  0.00    -0.143 C  
HETATM   16  C   UNL     1      -5.578  11.594  68.340  1.00  0.00    -0.045 C  
HETATM   17  C   UNL     1      -8.196  12.964  68.058  1.00  0.00    -0.168 C  
HETATM   18  C   UNL     1      -8.342  11.858  67.288  1.00  0.00    -0.169 C  
HETATM   19  O   UNL     1      -7.304  10.746  65.480  1.00  0.00    -0.098 OA 
HETATM   20  C   UNL     1      -6.287  10.669  67.621  1.00  0.00    -0.056 C  
HETATM   21  C   UNL     1      -7.273  11.122  66.635  1.00  0.00    -0.144 C  
BRANCH   4  22
HETATM   22  O   UNL     1      -7.108  19.188  67.928  1.00  0.00    -0.226 OA 
HETATM   23  C   UNL     1      -5.910  19.966  68.123  1.00  0.00    -0.229 C  
ENDBRANCH   4  22
BRANCH   6  24
HETATM   24  O   UNL     1      -7.210  16.942  69.790  1.00  0.00     0.075 OA 
HETATM   25  C   UNL     1      -8.444  16.388  70.329  1.00  0.00     2.036 C  
ENDBRANCH   6  24
BRANCH  15  26
HETATM   26  N   UNL     1     -10.481  12.751  68.953  1.00  0.00    -0.416 N  
HETATM   27  H   UNL     1     -10.764  12.809  69.931  1.00  0.00     0.000 HD 
HETATM   28  C   UNL     1     -11.079  11.813  68.138  1.00  0.00    -0.243 C  
HETATM   29  O   UNL     1     -11.058  11.830  66.918  1.00  0.00    -0.276 OA 
HETATM   30  C   UNL     1     -11.780  10.729  68.915  1.00  0.00    -0.338 C  
ENDBRANCH  15  26
ENDBRANCH   2   3
TORSDOF 4
ENDMDL
MODEL      122
REMARK 921   NORMALIZED FREE ENERGY PREDICTED BY IDOCK:    1.20 KCAL/MOL
REMARK 922        TOTAL FREE ENERGY PREDICTED BY IDOCK:    0.74 KCAL/MOL
REMARK 923 INTER-LIGAND FREE ENERGY PREDICTED BY IDOCK:    1.26 KCAL/MOL
REMARK 924 INTRA-LIGAND FREE ENERGY PREDICTED BY IDOCK:   -0.52 KCAL/MOL
REMARK 927      BINDING AFFINITY PREDICTED BY RF-SCORE:    0.00 PKD
ROOT
HETATM    1  C   UNL     1      -5.906  18.470  68.073  1.00  0.00    -0.176 C  
HETATM    2  O   UNL     1      -7.071  17.890  68.647  1.00  0.00    -0.246 OA 
ENDROOT
BRANCH   2   3
HETATM    3  C   UNL     1      -7.087  16.527  68.777  1.00  0.00    -0.189 C  
HETATM    4  C   UNL     1      -6.810  15.907  70.001  1.00  0.00     0.105 C  
HETATM    5  C   UNL     1      -6.808  12.201  68.096  1.00  0.00    -0.075 C  
HETATM    6  C   UNL     1      -6.658  14.423  70.034  1.00  0.00    -0.116 C  
HETATM    7  C   UNL     1      -5.697  11.684  67.488  1.00  0.00    -0.071 C  
HETATM    8  H   UNL     1      -5.800   8.344  65.212  1.00  0.00     0.000 HD 
HETATM    9  C   UNL     1      -6.858  13.660  68.813  1.00  0.00    -0.107 C  
HETATM   10  O   UNL     1      -6.541   8.911  65.033  1.00  0.00    -0.068 OA 
HETATM   11  C   UNL     1      -7.791  14.378  68.069  1.00  0.00    -0.141 C  
HETATM   12  C   UNL     1      -9.220  14.236  68.746  1.00  0.00    -0.112 C  
HETATM   13  C   UNL     1      -7.519  15.711  67.755  1.00  0.00    -0.163 C  
HETATM   14  C   UNL     1      -9.953  13.049  68.188  1.00  0.00    -0.231 C  
HETATM   15  C   UNL     1      -9.244  11.769  68.679  1.00  0.00    -0.083 C  
HETATM   16  C   UNL     1      -5.604  10.542  66.533  1.00  0.00    -0.063 C  
HETATM   17  C   UNL     1      -8.137  11.573  67.687  1.00  0.00    -0.130 C  
HETATM   18  C   UNL     1      -8.508  11.157  66.452  1.00  0.00    -0.167 C  
HETATM   19  O   UNL     1      -7.943  11.468  64.179  1.00  0.00     0.985 OA 
HETATM   20  C   UNL     1      -6.503  10.190  65.562  1.00  0.00    -0.107 C  
HETATM   21  C   UNL     1      -7.646  11.064  65.285  1.00  0.00     0.310 C  
BRANCH   4  22
HETATM   22  O   UNL     1      -6.735  16.654  71.176  1.00  0.00     2.087 OA 
HETATM   23  C   UNL     1      -5.531  17.388  71.473  1.00  0.00     0.393 C  
ENDBRANCH   4  22
BRANCH   6  24
HETATM   24  O   UNL     1      -6.574  13.740  71.245  1.00  0.00     0.244 OA 
HETATM   25  C   UNL     1      -5.256  13.235  71.606  1.00  0.00    -0.167 C  
ENDBRANCH   6  24
BRANCH  15  26
HETATM   26  N   UNL     1     -10.189  10.667  68.706  1.00  0.00    -0.181 N  
HETATM   27  H   UNL     1     -11.046  10.738  68.157  1.00  0.00     0.000 HD 
HETATM   28  C   UNL     1      -9.963   9.528  69.450  1.00  0.00    -0.191 C  
HETATM   29  O   UNL     1      -8.881   9.188  69.900  1.00  0.00    -0.143 OA 
HETATM   30  C   UNL     1     -11.215   8.717  69.666  1.00  0.00     0.067 C  
ENDBRANCH  15  26
ENDBRANCH   2   3
TORSDOF 4
ENDMDL
MODEL      123
REMARK 921   NORMALIZED FREE ENERGY PREDICTED BY IDOCK:    1.30 KCAL/MOL
REMARK 922        TOTAL FREE ENERGY PREDICTED BY IDOCK:    0.86 KCAL/MOL
REMARK 923 INTER-LIGAND FREE ENERGY PREDICTED BY IDOCK:   -0.69 KCAL/MOL
REMARK 924 INTRA-LIGAND FREE ENERGY PREDICTED BY IDOCK:    1.55 KCAL/MOL
REMARK 927      BINDING AFFINITY PREDICTED BY RF-SCORE:    0.00 PKD
ROOT
HETATM    1  C   UNL     1      -7.868   8.225  73.563  1.00  0.00    -0.148 C  
HETATM    2  O   UNL     1      -7.278   8.793  72.400  1.00  0.00    -0.300 OA 
ENDROOT
BRANCH   2   3
HETATM    3  C   UNL     1      -7.401   8.087  71.234  1.00  0.00    -0.067 C  
HETATM    4  C   UNL     1      -7.258   6.694  71.205  1.00  0.00    -0.078 C  
HETATM    5  C   UNL     1      -7.387   6.791  67.042  1.00  0.00    -0.082 C  
HETATM    6  C   UNL     1      -7.215   6.006  69.882  1.00  0.00    -0.074 C  
HETATM    7  C   UNL     1      -6.275   7.005  66.273  1.00  0.00    -0.039 C  
HETATM    8  H   UNL     1      -6.456   7.603  62.279  1.00  0.00     0.000 HD 
HETATM    9  C   UNL     1      -7.382   6.787  68.667  1.00  0.00    -0.090 C  
HETATM   10  O   UNL     1      -7.140   8.080  62.733  1.00  0.00    -0.084 OA 
HETATM   11  C   UNL     1      -8.206   7.855  69.017  1.00  0.00    -0.126 C  
HETATM   12  C   UNL     1      -9.686   7.324  69.234  1.00  0.00    -0.161 C  
HETATM   13  C   UNL     1      -7.817   8.689  70.068  1.00  0.00    -0.103 C  
HETATM   14  C   UNL     1     -10.461   7.378  67.949  1.00  0.00    -0.265 C  
HETATM   15  C   UNL     1      -9.883   6.314  66.991  1.00  0.00    -0.149 C  
HETATM   16  C   UNL     1      -6.197   7.355  64.826  1.00  0.00    -0.038 C  
HETATM   17  C   UNL     1      -8.725   7.012  66.343  1.00  0.00    -0.148 C  
HETATM   18  C   UNL     1      -9.036   7.973  65.439  1.00  0.00     0.096 C  
HETATM   19  O   UNL     1      -8.290  10.090  64.703  1.00  0.00    -0.148 OA 
HETATM   20  C   UNL     1      -7.047   8.158  64.113  1.00  0.00    -0.082 C  
HETATM   21  C   UNL     1      -8.102   8.895  64.815  1.00  0.00    -0.144 C  
BRANCH   4  22
HETATM   22  O   UNL     1      -7.213   5.959  72.389  1.00  0.00    -0.086 OA 
HETATM   23  C   UNL     1      -7.963   4.732  72.489  1.00  0.00    -0.093 C  
ENDBRANCH   4  22
BRANCH   6  24
HETATM   24  O   UNL     1      -7.268   4.616  69.797  1.00  0.00    -0.052 OA 
HETATM   25  C   UNL     1      -8.194   4.068  68.817  1.00  0.00    -0.074 C  
ENDBRANCH   6  24
BRANCH  15  26
HETATM   26  N   UNL     1     -10.905   5.903  66.045  1.00  0.00    -0.487 N  
HETATM   27  H   UNL     1     -11.857   6.249  66.165  1.00  0.00     0.000 HD 
HETATM   28  C   UNL     1     -10.627   5.058  64.991  1.00  0.00     0.500 C  
HETATM   29  O   UNL     1      -9.510   4.815  64.564  1.00  0.00    -0.086 OA 
HETATM   30  C   UNL     1     -11.868   4.441  64.398  1.00  0.00     1.921 C  
ENDBRANCH  15  26
ENDBRANCH   2   3
TORSDOF 4
ENDMDL
MODEL      124
REMARK 921   NORMALIZED FREE ENERGY PREDICTED BY IDOCK:    1.78 KCAL/MOL
REMARK 922        TOTAL FREE ENERGY PREDICTED BY IDOCK:    1.46 KCAL/MOL
REMARK 923 INTER-LIGAND FREE ENERGY PREDICTED BY IDOCK:    1.36 KCAL/MOL
REMARK 924 INTRA-LIGAND FREE ENERGY PREDICTED BY IDOCK:    0.10 KCAL/MOL
REMARK 927      BINDING AFFINITY PREDICTED BY RF-SCORE:    0.00 PKD
ROOT
HETATM    1  C   UNL     1     -11.221  16.263  71.650  1.00  0.00     0.097 C  
HETATM    2  O   UNL     1     -11.364  16.491  70.253  1.00  0.00    -0.281 OA 
ENDROOT
BRANCH   2   3
HETATM    3  C   UNL     1     -10.740  15.609  69.413  1.00  0.00    -0.252 C  
HETATM    4  C   UNL     1      -9.343  15.521  69.354  1.00  0.00    -0.279 C  
HETATM    5  C   UNL     1      -9.667  12.965  66.079  1.00  0.00    -0.228 C  
HETATM    6  C   UNL     1      -8.724  14.679  68.289  1.00  0.00    -0.173 C  
HETATM    7  C   UNL     1      -9.777  13.422  64.793  1.00  0.00     0.151 C  
HETATM    8  H   UNL     1     -10.595  10.992  61.668  1.00  0.00     0.000 HD 
HETATM    9  C   UNL     1      -9.580  13.931  67.384  1.00  0.00    -0.235 C  
HETATM   10  O   UNL     1     -11.132  10.781  62.422  1.00  0.00     1.182 OA 
HETATM   11  C   UNL     1     -10.725  13.626  68.116  1.00  0.00    -0.260 C  
HETATM   12  C   UNL     1     -10.377  12.507  69.188  1.00  0.00     0.149 C  
HETATM   13  C   UNL     1     -11.448  14.668  68.701  1.00  0.00    -0.326 C  
HETATM   14  C   UNL     1     -10.595  11.138  68.612  1.00  0.00    -0.222 C  
HETATM   15  C   UNL     1      -9.516  10.888  67.536  1.00  0.00    -0.155 C  
HETATM   16  C   UNL     1     -10.187  12.673  63.571  1.00  0.00    -0.072 C  
HETATM   17  C   UNL     1     -10.092  11.517  66.303  1.00  0.00    -0.261 C  
HETATM   18  C   UNL     1     -11.130  10.862  65.727  1.00  0.00     0.052 C  
HETATM   19  O   UNL     1     -13.169  11.300  64.618  1.00  0.00     1.369 OA 
HETATM   20  C   UNL     1     -11.127  11.682  63.474  1.00  0.00    -0.393 C  
HETATM   21  C   UNL     1     -11.956  11.357  64.639  1.00  0.00     0.353 C  
BRANCH   4  22
HETATM   22  O   UNL     1      -8.550  16.160  70.305  1.00  0.00     1.000 OA 
HETATM   23  C   UNL     1      -7.371  16.873  69.881  1.00  0.00     0.795 C  
ENDBRANCH   4  22
BRANCH   6  24
HETATM   24  O   UNL     1      -7.358  14.403  68.301  1.00  0.00    -0.103 OA 
HETATM   25  C   UNL     1      -6.988  13.009  68.500  1.00  0.00    -0.102 C  
ENDBRANCH   6  24
BRANCH  15  26
HETATM   26  N   UNL     1      -9.287   9.462  67.396  1.00  0.00    -0.126 N  
HETATM   27  H   UNL     1      -9.850   8.934  66.729  1.00  0.00     0.000 HD 
HETATM   28  C   UNL     1      -8.331   8.798  68.137  1.00  0.00    -0.122 C  
HETATM   29  O   UNL     1      -7.411   9.334  68.733  1.00  0.00    -0.073 OA 
HETATM   30  C   UNL     1      -8.535   7.305  68.146  1.00  0.00    -0.123 C  
ENDBRANCH  15  26
ENDBRANCH   2   3
TORSDOF 4
ENDMDL
MODEL      125
REMARK 921   NORMALIZED FREE ENERGY PREDICTED BY IDOCK:    3.61 KCAL/MOL
REMARK 922        TOTAL FREE ENERGY PREDICTED BY IDOCK:    3.72 KCAL/MOL
REMARK 923 INTER-LIGAND FREE ENERGY PREDICTED BY IDOCK:    2.90 KCAL/MOL
REMARK 924 INTRA-LIGAND FREE ENERGY PREDICTED BY IDOCK:    0.82 KCAL/MOL
REMARK 927      BINDING AFFINITY PREDICTED BY RF-SCORE:    0.00 PKD
ROOT
HETATM    1  C   UNL     1      -6.327  11.650  62.891  1.00  0.00     1.739 C  
HETATM    2  O   UNL     1      -6.721  10.549  63.701  1.00  0.00    -0.061 OA 
ENDROOT
BRANCH   2   3
HETATM    3  C   UNL     1      -7.133  10.833  64.976  1.00  0.00     0.207 C  
HETATM    4  C   UNL     1      -7.268   9.827  65.940  1.00  0.00    -0.103 C  
HETATM    5  C   UNL     1      -9.027  12.577  68.529  1.00  0.00    -0.052 C  
HETATM    6  C   UNL     1      -7.898  10.169  67.249  1.00  0.00    -0.103 C  
HETATM    7  C   UNL     1     -10.368  12.856  68.511  1.00  0.00    -0.239 C  
HETATM    8  H   UNL     1     -12.007  15.867  70.652  1.00  0.00     0.000 HD 
HETATM    9  C   UNL     1      -8.300  11.542  67.508  1.00  0.00    -0.143 C  
HETATM   10  O   UNL     1     -11.194  16.135  70.241  1.00  0.00    -0.356 OA 
HETATM   11  C   UNL     1      -7.412  12.336  66.786  1.00  0.00     0.114 C  
HETATM   12  C   UNL     1      -5.990  12.304  67.492  1.00  0.00    -0.136 C  
HETATM   13  C   UNL     1      -7.290  12.130  65.411  1.00  0.00     2.810 C  
HETATM   14  C   UNL     1      -5.877  13.408  68.504  1.00  0.00    -0.089 C  
HETATM   15  C   UNL     1      -6.820  13.082  69.682  1.00  0.00     0.174 C  
HETATM   16  C   UNL     1     -11.091  13.994  69.146  1.00  0.00    -0.294 C  
HETATM   17  C   UNL     1      -8.149  13.608  69.230  1.00  0.00     0.475 C  
HETATM   18  C   UNL     1      -8.282  14.957  69.211  1.00  0.00    -0.124 C  
HETATM   19  O   UNL     1      -9.289  16.669  67.933  1.00  0.00    -0.217 OA 
HETATM   20  C   UNL     1     -10.656  15.285  69.289  1.00  0.00    -0.256 C  
HETATM   21  C   UNL     1      -9.401  15.698  68.654  1.00  0.00    -0.201 C  
BRANCH   4  22
HETATM   22  O   UNL     1      -6.771   8.546  65.706  1.00  0.00    -0.062 OA 
HETATM   23  C   UNL     1      -5.352   8.309  65.792  1.00  0.00    -0.031 C  
ENDBRANCH   4  22
BRANCH   6  24
HETATM   24  O   UNL     1      -7.884   9.263  68.308  1.00  0.00    -0.096 OA 
HETATM   25  C   UNL     1      -7.082   9.641  69.463  1.00  0.00    -0.072 C  
ENDBRANCH   6  24
BRANCH  15  26
HETATM   26  N   UNL     1      -6.332  13.722  70.890  1.00  0.00    -0.407 N  
HETATM   27  H   UNL     1      -6.495  13.270  71.789  1.00  0.00     0.000 HD 
HETATM   28  C   UNL     1      -5.655  14.924  70.858  1.00  0.00    -0.118 C  
HETATM   29  O   UNL     1      -5.142  15.413  69.865  1.00  0.00    -0.096 OA 
HETATM   30  C   UNL     1      -5.608  15.601  72.204  1.00  0.00     0.639 C  
ENDBRANCH  15  26
ENDBRANCH   2   3
TORSDOF 4
ENDMDL
MODEL      126
REMARK 921   NORMALIZED FREE ENERGY PREDICTED BY IDOCK:    3.66 KCAL/MOL
REMARK 922        TOTAL FREE ENERGY PREDICTED BY IDOCK:    3.78 KCAL/MOL
REMARK 923 INTER-LIGAND FREE ENERGY PREDICTED BY IDOCK:    2.01 KCAL/MOL
REMARK 924 INTRA-LIGAND FREE ENERGY PREDICTED BY IDOCK:    1.77 KCAL/MOL
REMARK 927      BINDING AFFINITY PREDICTED BY RF-SCORE:    0.00 PKD
ROOT
HETATM    1  C   UNL     1     -12.110  15.237  62.732  1.00  0.00     4.061 C  
HETATM    2  O   UNL     1     -12.668  14.161  63.476  1.00  0.00    -0.794 OA 
ENDROOT
BRANCH   2   3
HETATM    3  C   UNL     1     -12.255  14.025  64.775  1.00  0.00    -0.433 C  
HETATM    4  C   UNL     1     -12.304  12.789  65.431  1.00  0.00    -0.470 C  
HETATM    5  C   UNL     1     -11.285  14.672  69.005  1.00  0.00    -0.287 C  
HETATM    6  C   UNL     1     -12.018  12.743  66.894  1.00  0.00    -0.310 C  
HETATM    7  C   UNL     1     -12.216  15.243  69.830  1.00  0.00    -0.357 C  
HETATM    8  H   UNL     1     -11.213  17.502  73.030  1.00  0.00     0.000 HD 
HETATM    9  C   UNL     1     -11.641  13.966  67.584  1.00  0.00    -0.381 C  
HETATM   10  O   UNL     1     -10.673  17.708  72.275  1.00  0.00     2.240 OA 
HETATM   11  C   UNL     1     -10.977  14.743  66.637  1.00  0.00    -0.326 C  
HETATM   12  C   UNL     1      -9.550  14.110  66.349  1.00  0.00    -0.310 C  
HETATM   13  C   UNL     1     -11.633  15.055  65.445  1.00  0.00    -0.229 C  
HETATM   14  C   UNL     1      -8.520  14.684  67.280  1.00  0.00    -0.234 C  
HETATM   15  C   UNL     1      -8.813  14.164  68.704  1.00  0.00    -0.132 C  
HETATM   16  C   UNL     1     -12.000  16.188  70.964  1.00  0.00    -0.309 C  
HETATM   17  C   UNL     1      -9.844  15.119  69.227  1.00  0.00    -0.231 C  
HETATM   18  C   UNL     1      -9.403  16.364  69.535  1.00  0.00     0.033 C  
HETATM   19  O   UNL     1     -10.098  18.619  69.433  1.00  0.00    -0.202 OA 
HETATM   20  C   UNL     1     -11.066  17.185  71.055  1.00  0.00     1.081 C  
HETATM   21  C   UNL     1     -10.233  17.502  69.890  1.00  0.00     0.500 C  
BRANCH   4  22
HETATM   22  O   UNL     1     -12.559  11.616  64.721  1.00  0.00    -0.037 OA 
HETATM   23  C   UNL     1     -13.355  11.674  63.521  1.00  0.00     0.649 C  
ENDBRANCH   4  22
BRANCH   6  24
HETATM   24  O   UNL     1     -11.866  11.526  67.555  1.00  0.00    -0.605 OA 
HETATM   25  C   UNL     1     -10.723  11.422  68.452  1.00  0.00    -0.203 C  
ENDBRANCH   6  24
BRANCH  15  26
HETATM   26  N   UNL     1      -7.588  14.161  69.484  1.00  0.00    -0.345 N  
HETATM   27  H   UNL     1      -7.501  13.509  70.264  1.00  0.00     0.000 HD 
HETATM   28  C   UNL     1      -6.540  15.012  69.203  1.00  0.00    -0.120 C  
HETATM   29  O   UNL     1      -6.389  15.614  68.152  1.00  0.00    -0.107 OA 
HETATM   30  C   UNL     1      -5.569  15.137  70.349  1.00  0.00    -0.138 C  
ENDBRANCH  15  26
ENDBRANCH   2   3
TORSDOF 4
ENDMDL
MODEL      127
REMARK 921   NORMALIZED FREE ENERGY PREDICTED BY IDOCK:    6.29 KCAL/MOL
REMARK 922        TOTAL FREE ENERGY PREDICTED BY IDOCK:    7.02 KCAL/MOL
REMARK 923 INTER-LIGAND FREE ENERGY PREDICTED BY IDOCK:    6.37 KCAL/MOL
REMARK 924 INTRA-LIGAND FREE ENERGY PREDICTED BY IDOCK:    0.65 KCAL/MOL
REMARK 927      BINDING AFFINITY PREDICTED BY RF-SCORE:    0.00 PKD
ROOT
HETATM    1  C   UNL     1     -10.496  19.612  70.804  1.00  0.00     1.999 C  
HETATM    2  O   UNL     1     -11.332  18.536  71.212  1.00  0.00     3.210 OA 
ENDROOT
BRANCH   2   3
HETATM    3  C   UNL     1     -10.996  17.285  70.766  1.00  0.00     1.166 C  
HETATM    4  C   UNL     1     -11.664  16.143  71.222  1.00  0.00    -0.425 C  
HETATM    5  C   UNL     1      -8.880  13.754  69.246  1.00  0.00     0.593 C  
HETATM    6  C   UNL     1     -11.130  14.802  70.845  1.00  0.00    -0.010 C  
HETATM    7  C   UNL     1      -7.689  13.386  69.812  1.00  0.00     1.123 C  
HETATM    8  H   UNL     1      -4.772  11.502  67.742  1.00  0.00     0.000 HD 
HETATM    9  C   UNL     1      -9.971  14.717  69.970  1.00  0.00     0.272 C  
HETATM   10  O   UNL     1      -5.160  12.206  67.235  1.00  0.00    -0.095 OA 
HETATM   11  C   UNL     1     -10.037  15.842  69.150  1.00  0.00    -0.238 C  
HETATM   12  C   UNL     1     -11.215  15.655  68.101  1.00  0.00    -0.345 C  
HETATM   13  C   UNL     1     -10.093  17.105  69.742  1.00  0.00     0.234 C  
HETATM   14  C   UNL     1     -10.712  14.992  66.852  1.00  0.00    -0.308 C  
HETATM   15  C   UNL     1     -10.358  13.528  67.191  1.00  0.00    -0.250 C  
HETATM   16  C   UNL     1      -6.487  12.800  69.152  1.00  0.00    -0.109 C  
HETATM   17  C   UNL     1      -8.962  13.614  67.730  1.00  0.00    -0.196 C  
HETATM   18  C   UNL     1      -7.987  13.870  66.823  1.00  0.00     0.382 C  
HETATM   19  O   UNL     1      -5.963  15.071  66.615  1.00  0.00     0.808 OA 
HETATM   20  C   UNL     1      -5.997  13.082  67.905  1.00  0.00    -0.130 C  
HETATM   21  C   UNL     1      -6.596  14.167  67.123  1.00  0.00     0.603 C  
BRANCH   4  22
HETATM   22  O   UNL     1     -12.837  16.255  71.966  1.00  0.00    -0.300 OA 
HETATM   23  C   UNL     1     -12.780  16.142  73.402  1.00  0.00    -0.527 C  
ENDBRANCH   4  22
BRANCH   6  24
HETATM   24  O   UNL     1     -11.857  13.643  71.108  1.00  0.00    -0.120 OA 
HETATM   25  C   UNL     1     -12.767  13.206  70.058  1.00  0.00     0.204 C  
ENDBRANCH   6  24
BRANCH  15  26
HETATM   26  N   UNL     1     -10.460  12.711  65.995  1.00  0.00    -0.263 N  
HETATM   27  H   UNL     1     -10.713  11.727  66.089  1.00  0.00     0.000 HD 
HETATM   28  C   UNL     1     -10.226  13.225  64.737  1.00  0.00    -0.304 C  
HETATM   29  O   UNL     1     -10.211  14.413  64.457  1.00  0.00    -0.262 OA 
HETATM   30  C   UNL     1      -9.980  12.152  63.707  1.00  0.00    -0.343 C  
ENDBRANCH  15  26
ENDBRANCH   2   3
TORSDOF 4
ENDMDL
MODEL      128
REMARK 921   NORMALIZED FREE ENERGY PREDICTED BY IDOCK:    8.32 KCAL/MOL
REMARK 922        TOTAL FREE ENERGY PREDICTED BY IDOCK:    9.52 KCAL/MOL
REMARK 923 INTER-LIGAND FREE ENERGY PREDICTED BY IDOCK:    2.78 KCAL/MOL
REMARK 924 INTRA-LIGAND FREE ENERGY PREDICTED BY IDOCK:    6.75 KCAL/MOL
REMARK 927      BINDING AFFINITY PREDICTED BY RF-SCORE:    0.00 PKD
ROOT
HETATM    1  C   UNL     1     -11.266  19.492  65.887  1.00  0.00     0.286 C  
HETATM    2  O   UNL     1     -11.532  18.216  66.455  1.00  0.00     0.880 OA 
ENDROOT
BRANCH   2   3
HETATM    3  C   UNL     1     -10.483  17.340  66.532  1.00  0.00    -0.260 C  
HETATM    4  C   UNL     1      -9.238  17.640  65.965  1.00  0.00    -0.020 C  
HETATM    5  C   UNL     1      -7.960  13.758  66.774  1.00  0.00     0.387 C  
HETATM    6  C   UNL     1      -8.197  16.573  65.918  1.00  0.00     0.161 C  
HETATM    7  C   UNL     1      -8.190  12.711  65.922  1.00  0.00     1.273 C  
HETATM    8  H   UNL     1      -7.411   8.870  66.910  1.00  0.00     0.000 HD 
HETATM    9  C   UNL     1      -8.479  15.276  66.511  1.00  0.00    -0.202 C  
HETATM   10  O   UNL     1      -7.820   9.338  67.628  1.00  0.00    -0.095 OA 
HETATM   11  C   UNL     1      -9.358  15.527  67.563  1.00  0.00    -0.207 C  
HETATM   12  C   UNL     1      -8.568  16.230  68.747  1.00  0.00    -0.240 C  
HETATM   13  C   UNL     1     -10.553  16.196  67.295  1.00  0.00    -0.305 C  
HETATM   14  C   UNL     1      -8.010  15.206  69.692  1.00  0.00    -0.113 C  
HETATM   15  C   UNL     1      -6.878  14.446  68.968  1.00  0.00    -0.111 C  
HETATM   16  C   UNL     1      -8.066  11.249  66.187  1.00  0.00    -0.065 C  
HETATM   17  C   UNL     1      -7.600  13.375  68.206  1.00  0.00    -0.135 C  
HETATM   18  C   UNL     1      -8.109  12.357  68.942  1.00  0.00     0.180 C  
HETATM   19  O   UNL     1      -9.994  10.936  69.026  1.00  0.00    -0.205 OA 
HETATM   20  C   UNL     1      -8.356  10.583  67.348  1.00  0.00    -0.121 C  
HETATM   21  C   UNL     1      -8.987  11.306  68.457  1.00  0.00    -0.166 C  
BRANCH   4  22
HETATM   22  O   UNL     1      -8.957  18.926  65.505  1.00  0.00    -0.069 OA 
HETATM   23  C   UNL     1     -10.039  19.776  65.076  1.00  0.00     1.291 C  
ENDBRANCH   4  22
BRANCH   6  24
HETATM   24  O   UNL     1      -6.887  16.868  65.543  1.00  0.00     0.534 OA 
HETATM   25  C   UNL     1      -6.032  17.420  66.584  1.00  0.00    -0.200 C  
ENDBRANCH   6  24
BRANCH  15  26
HETATM   26  N   UNL     1      -5.941  13.919  69.944  1.00  0.00    -0.126 N  
HETATM   27  H   UNL     1      -5.339  13.139  69.680  1.00  0.00     0.000 HD 
HETATM   28  C   UNL     1      -5.839  14.442  71.216  1.00  0.00    -0.148 C  
HETATM   29  O   UNL     1      -6.266  15.532  71.562  1.00  0.00     0.729 OA 
HETATM   30  C   UNL     1      -5.133  13.515  72.172  1.00  0.00    -0.156 C  
ENDBRANCH  15  26
ENDBRANCH   2   3
TORSDOF 4
ENDMDL
MODEL      129
REMARK 921   NORMALIZED FREE ENERGY PREDICTED BY IDOCK:   10.31 KCAL/MOL
REMARK 922        TOTAL FREE ENERGY PREDICTED BY IDOCK:   11.98 KCAL/MOL
REMARK 923 INTER-LIGAND FREE ENERGY PREDICTED BY IDOCK:   11.69 KCAL/MOL
REMARK 924 INTRA-LIGAND FREE ENERGY PREDICTED BY IDOCK:    0.28 KCAL/MOL
REMARK 927      BINDING AFFINITY PREDICTED BY RF-SCORE:    0.00 PKD
ROOT
HETATM    1  C   UNL     1     -11.575  17.701  66.261  1.00  0.00     1.957 C  
HETATM    2  O   UNL     1     -10.470  16.828  66.058  1.00  0.00    -0.331 OA 
ENDROOT
BRANCH   2   3
HETATM    3  C   UNL     1     -10.669  15.501  66.331  1.00  0.00    -0.303 C  
HETATM    4  C   UNL     1     -10.922  14.575  65.311  1.00  0.00    -0.360 C  
HETATM    5  C   UNL     1     -11.730  11.668  68.184  1.00  0.00    -0.365 C  
HETATM    6  C   UNL     1     -11.315  13.186  65.687  1.00  0.00    -0.303 C  
HETATM    7  C   UNL     1     -12.968  11.511  68.748  1.00  0.00     2.186 C  
HETATM    8  H   UNL     1     -13.649   9.048  71.881  1.00  0.00     0.000 HD 
HETATM    9  C   UNL     1     -11.368  12.816  67.092  1.00  0.00    -0.365 C  
HETATM   10  O   UNL     1     -12.846   9.542  71.995  1.00  0.00    -0.381 OA 
HETATM   11  C   UNL     1     -10.407  13.602  67.724  1.00  0.00    -0.241 C  
HETATM   12  C   UNL     1      -8.961  13.075  67.332  1.00  0.00    -0.204 C  
HETATM   13  C   UNL     1     -10.483  14.990  67.596  1.00  0.00    -0.247 C  
HETATM   14  C   UNL     1      -8.495  12.034  68.308  1.00  0.00    -0.167 C  
HETATM   15  C   UNL     1      -9.355  10.767  68.110  1.00  0.00    -0.155 C  
HETATM   16  C   UNL     1     -13.344  10.740  69.968  1.00  0.00     0.615 C  
HETATM   17  C   UNL     1     -10.573  11.030  68.945  1.00  0.00    -0.239 C  
HETATM   18  C   UNL     1     -10.401  10.969  70.288  1.00  0.00     0.823 C  
HETATM   19  O   UNL     1     -11.128  12.035  72.267  1.00  0.00     6.143 OA 
HETATM   20  C   UNL     1     -12.617  10.590  71.119  1.00  0.00    -0.417 C  
HETATM   21  C   UNL     1     -11.377  11.352  71.294  1.00  0.00     1.781 C  
BRANCH   4  22
HETATM   22  O   UNL     1     -10.754  14.928  63.973  1.00  0.00     0.429 OA 
HETATM   23  C   UNL     1     -11.764  14.562  63.012  1.00  0.00     2.269 C  
ENDBRANCH   4  22
BRANCH   6  24
HETATM   24  O   UNL     1     -11.391  12.180  64.725  1.00  0.00    -0.312 OA 
HETATM   25  C   UNL     1     -11.185  10.820  65.204  1.00  0.00     0.450 C  
ENDBRANCH   6  24
BRANCH  15  26
HETATM   26  N   UNL     1      -8.609   9.598  68.540  1.00  0.00    -0.118 N  
HETATM   27  H   UNL     1      -7.705   9.729  68.995  1.00  0.00     0.000 HD 
HETATM   28  C   UNL     1      -9.085   8.317  68.354  1.00  0.00    -0.136 C  
HETATM   29  O   UNL     1     -10.245   8.030  68.106  1.00  0.00    -0.194 OA 
HETATM   30  C   UNL     1      -8.007   7.272  68.484  1.00  0.00    -0.124 C  
ENDBRANCH  15  26
ENDBRANCH   2   3
TORSDOF 4
ENDMDL
MODEL      130
REMARK 921   NORMALIZED FREE ENERGY PREDICTED BY IDOCK:   10.69 KCAL/MOL
REMARK 922        TOTAL FREE ENERGY PREDICTED BY IDOCK:   12.45 KCAL/MOL
REMARK 923 INTER-LIGAND FREE ENERGY PREDICTED BY IDOCK:   10.90 KCAL/MOL
REMARK 924 INTRA-LIGAND FREE ENERGY PREDICTED BY IDOCK:    1.55 KCAL/MOL
REMARK 927      BINDING AFFINITY PREDICTED BY RF-SCORE:    0.00 PKD
ROOT
HETATM    1  C   UNL     1     -12.093  15.518  62.554  1.00  0.00     6.188 C  
HETATM    2  O   UNL     1     -12.229  14.459  63.493  1.00  0.00    -0.546 OA 
ENDROOT
BRANCH   2   3
HETATM    3  C   UNL     1     -11.592  14.611  64.696  1.00  0.00    -0.402 C  
HETATM    4  C   UNL     1     -10.858  13.565  65.270  1.00  0.00    -0.310 C  
HETATM    5  C   UNL     1     -10.413  15.819  68.746  1.00  0.00    -0.228 C  
HETATM    6  C   UNL     1     -10.347  13.730  66.662  1.00  0.00    -0.279 C  
HETATM    7  C   UNL     1     -11.347  15.825  69.747  1.00  0.00    -0.339 C  
HETATM    8  H   UNL     1     -11.182  18.374  72.880  1.00  0.00     0.000 HD 
HETATM    9  C   UNL     1     -10.572  14.985  67.359  1.00  0.00    -0.271 C  
HETATM   10  O   UNL     1     -10.975  18.813  72.063  1.00  0.00     2.346 OA 
HETATM   11  C   UNL     1     -10.602  15.965  66.369  1.00  0.00    -0.298 C  
HETATM   12  C   UNL     1      -9.132  16.193  65.814  1.00  0.00    -0.143 C  
HETATM   13  C   UNL     1     -11.516  15.835  65.321  1.00  0.00     0.024 C  
HETATM   14  C   UNL     1      -8.429  17.261  66.601  1.00  0.00    -0.292 C  
HETATM   15  C   UNL     1      -8.149  16.713  68.017  1.00  0.00    -0.180 C  
HETATM   16  C   UNL     1     -11.482  16.775  70.889  1.00  0.00     0.380 C  
HETATM   17  C   UNL     1      -9.424  16.979  68.760  1.00  0.00    -0.263 C  
HETATM   18  C   UNL     1      -9.673  18.275  69.073  1.00  0.00    -0.225 C  
HETATM   19  O   UNL     1     -11.474  19.795  69.231  1.00  0.00     2.425 OA 
HETATM   20  C   UNL     1     -11.228  18.120  70.891  1.00  0.00     3.489 C  
HETATM   21  C   UNL     1     -10.909  18.797  69.630  1.00  0.00     1.777 C  
BRANCH   4  22
HETATM   22  O   UNL     1     -10.562  12.418  64.536  1.00  0.00    -0.289 OA 
HETATM   23  C   UNL     1     -11.438  12.016  63.465  1.00  0.00    -0.446 C  
ENDBRANCH   4  22
BRANCH   6  24
HETATM   24  O   UNL     1      -9.455  12.809  67.209  1.00  0.00    -0.193 OA 
HETATM   25  C   UNL     1      -8.052  13.199  67.209  1.00  0.00    -0.146 C  
ENDBRANCH   6  24
BRANCH  15  26
HETATM   26  N   UNL     1      -7.002  17.396  68.586  1.00  0.00    -0.215 N  
HETATM   27  H   UNL     1      -6.434  16.913  69.283  1.00  0.00     0.000 HD 
HETATM   28  C   UNL     1      -6.656  18.679  68.215  1.00  0.00    -0.222 C  
HETATM   29  O   UNL     1      -7.050  19.248  67.210  1.00  0.00    -0.204 OA 
HETATM   30  C   UNL     1      -5.719  19.336  69.197  1.00  0.00    -0.237 C  
ENDBRANCH  15  26
ENDBRANCH   2   3
TORSDOF 4
ENDMDL
MODEL      131
REMARK 921   NORMALIZED FREE ENERGY PREDICTED BY IDOCK:   14.68 KCAL/MOL
REMARK 922        TOTAL FREE ENERGY PREDICTED BY IDOCK:   17.38 KCAL/MOL
REMARK 923 INTER-LIGAND FREE ENERGY PREDICTED BY IDOCK:   16.94 KCAL/MOL
REMARK 924 INTRA-LIGAND FREE ENERGY PREDICTED BY IDOCK:    0.44 KCAL/MOL
REMARK 927      BINDING AFFINITY PREDICTED BY RF-SCORE:    0.00 PKD
ROOT
HETATM    1  C   UNL     1      -7.529   4.855  71.706  1.00  0.00    -0.087 C  
HETATM    2  O   UNL     1      -8.199   4.707  70.460  1.00  0.00    -0.082 OA 
ENDROOT
BRANCH   2   3
HETATM    3  C   UNL     1      -8.739   5.838  69.908  1.00  0.00    -0.128 C  
HETATM    4  C   UNL     1     -10.023   5.836  69.349  1.00  0.00    -0.187 C  
HETATM    5  C   UNL     1      -9.374   9.692  67.908  1.00  0.00    -0.141 C  
HETATM    6  C   UNL     1     -10.479   7.043  68.600  1.00  0.00    -0.204 C  
HETATM    7  C   UNL     1      -8.761   9.939  66.709  1.00  0.00    -0.137 C  
HETATM    8  H   UNL     1      -7.674  13.649  65.529  1.00  0.00     0.000 HD 
HETATM    9  C   UNL     1      -9.607   8.204  68.521  1.00  0.00    -0.153 C  
HETATM   10  O   UNL     1      -7.468  13.501  66.444  1.00  0.00     1.015 OA 
HETATM   11  C   UNL     1      -8.862   8.195  69.698  1.00  0.00    -0.143 C  
HETATM   12  C   UNL     1      -9.798   8.609  70.912  1.00  0.00    -0.256 C  
HETATM   13  C   UNL     1      -8.112   7.060  70.011  1.00  0.00    -0.128 C  
HETATM   14  C   UNL     1      -9.773  10.096  71.116  1.00  0.00     1.406 C  
HETATM   15  C   UNL     1     -10.494  10.760  69.924  1.00  0.00    -0.004 C  
HETATM   16  C   UNL     1      -8.201  11.222  66.197  1.00  0.00    -0.088 C  
HETATM   17  C   UNL     1      -9.426  10.868  68.877  1.00  0.00    -0.182 C  
HETATM   18  C   UNL     1      -8.466  11.799  69.098  1.00  0.00     0.343 C  
HETATM   19  O   UNL     1      -6.144  12.125  68.809  1.00  0.00    -0.061 OA 
HETATM   20  C   UNL     1      -7.565  12.201  66.912  1.00  0.00    -0.029 C  
HETATM   21  C   UNL     1      -7.247  11.971  68.325  1.00  0.00    -0.090 C  
BRANCH   4  22
HETATM   22  O   UNL     1     -10.879   4.752  69.537  1.00  0.00     0.378 OA 
HETATM   23  C   UNL     1     -12.157   4.735  68.871  1.00  0.00     9.699 C  
ENDBRANCH   4  22
BRANCH   6  24
HETATM   24  O   UNL     1     -11.805   7.171  68.190  1.00  0.00     0.917 OA 
HETATM   25  C   UNL     1     -12.653   8.012  69.023  1.00  0.00     4.412 C  
ENDBRANCH   6  24
BRANCH  15  26
HETATM   26  N   UNL     1     -11.028  12.047  70.331  1.00  0.00     0.381 N  
HETATM   27  H   UNL     1     -10.413  12.709  70.805  1.00  0.00     0.000 HD 
HETATM   28  C   UNL     1     -12.340  12.403  70.096  1.00  0.00    -0.136 C  
HETATM   29  O   UNL     1     -13.083  11.852  69.300  1.00  0.00     0.920 OA 
HETATM   30  C   UNL     1     -12.787  13.568  70.942  1.00  0.00    -0.298 C  
ENDBRANCH  15  26
ENDBRANCH   2   3
TORSDOF 4
ENDMDL
MODEL      132
REMARK 921   NORMALIZED FREE ENERGY PREDICTED BY IDOCK:   15.87 KCAL/MOL
REMARK 922        TOTAL FREE ENERGY PREDICTED BY IDOCK:   18.85 KCAL/MOL
REMARK 923 INTER-LIGAND FREE ENERGY PREDICTED BY IDOCK:   17.79 KCAL/MOL
REMARK 924 INTRA-LIGAND FREE ENERGY PREDICTED BY IDOCK:    1.05 KCAL/MOL
REMARK 927      BINDING AFFINITY PREDICTED BY RF-SCORE:    0.00 PKD
ROOT
HETATM    1  C   UNL     1      -6.161  17.401  72.363  1.00  0.00     3.042 C  
HETATM    2  O   UNL     1      -5.722  16.461  71.390  1.00  0.00     0.318 OA 
ENDROOT
BRANCH   2   3
HETATM    3  C   UNL     1      -6.670  15.627  70.861  1.00  0.00     1.095 C  
HETATM    4  C   UNL     1      -7.863  16.125  70.322  1.00  0.00     1.498 C  
HETATM    5  C   UNL     1      -9.295  12.230  69.952  1.00  0.00     2.713 C  
HETATM    6  C   UNL     1      -8.932  15.160  69.936  1.00  0.00     0.187 C  
HETATM    7  C   UNL     1      -9.932  11.577  70.973  1.00  0.00     6.001 C  
HETATM    8  H   UNL     1     -10.876   7.650  70.808  1.00  0.00     0.000 HD 
HETATM    9  C   UNL     1      -8.688  13.733  70.073  1.00  0.00     2.301 C  
HETATM   10  O   UNL     1     -10.004   7.813  70.469  1.00  0.00    -0.187 OA 
HETATM   11  C   UNL     1      -7.317  13.567  69.884  1.00  0.00     0.783 C  
HETATM   12  C   UNL     1      -6.971  13.782  68.349  1.00  0.00    -0.103 C  
HETATM   13  C   UNL     1      -6.435  14.280  70.698  1.00  0.00     0.016 C  
HETATM   14  C   UNL     1      -7.052  12.482  67.603  1.00  0.00    -0.139 C  
HETATM   15  C   UNL     1      -8.534  12.055  67.534  1.00  0.00    -0.165 C  
HETATM   16  C   UNL     1     -10.234  10.123  71.103  1.00  0.00     0.804 C  
HETATM   17  C   UNL     1      -8.760  11.342  68.834  1.00  0.00    -0.012 C  
HETATM   18  C   UNL     1      -8.186  10.120  68.952  1.00  0.00    -0.124 C  
HETATM   19  O   UNL     1      -7.117   8.759  70.560  1.00  0.00    -0.040 OA 
HETATM   20  C   UNL     1      -9.464   9.069  70.687  1.00  0.00    -0.236 C  
HETATM   21  C   UNL     1      -8.118   9.321  70.164  1.00  0.00    -0.145 C  
BRANCH   4  22
HETATM   22  O   UNL     1      -8.025  17.491  70.098  1.00  0.00     1.624 OA 
HETATM   23  C   UNL     1      -7.901  18.008  68.758  1.00  0.00    -0.258 C  
ENDBRANCH   4  22
BRANCH   6  24
HETATM   24  O   UNL     1     -10.053  15.582  69.223  1.00  0.00    -0.222 OA 
HETATM   25  C   UNL     1     -11.344  15.291  69.828  1.00  0.00    -0.289 C  
ENDBRANCH   6  24
BRANCH  15  26
HETATM   26  N   UNL     1      -8.745  11.208  66.374  1.00  0.00    -0.173 N  
HETATM   27  H   UNL     1      -8.074  11.246  65.606  1.00  0.00     0.000 HD 
HETATM   28  C   UNL     1      -9.823  10.354  66.278  1.00  0.00    -0.218 C  
HETATM   29  O   UNL     1     -10.517   9.994  67.215  1.00  0.00    -0.225 OA 
HETATM   30  C   UNL     1     -10.077   9.893  64.866  1.00  0.00    -0.055 C  
ENDBRANCH  15  26
ENDBRANCH   2   3
TORSDOF 4
ENDMDL
MODEL      133
REMARK 921   NORMALIZED FREE ENERGY PREDICTED BY IDOCK:   16.83 KCAL/MOL
REMARK 922        TOTAL FREE ENERGY PREDICTED BY IDOCK:   20.03 KCAL/MOL
REMARK 923 INTER-LIGAND FREE ENERGY PREDICTED BY IDOCK:   17.25 KCAL/MOL
REMARK 924 INTRA-LIGAND FREE ENERGY PREDICTED BY IDOCK:    2.78 KCAL/MOL
REMARK 927      BINDING AFFINITY PREDICTED BY RF-SCORE:    0.00 PKD
ROOT
HETATM    1  C   UNL     1     -11.045   8.662  71.157  1.00  0.00    -0.266 C  
HETATM    2  O   UNL     1      -9.690   8.706  71.587  1.00  0.00    -0.223 OA 
ENDROOT
BRANCH   2   3
HETATM    3  C   UNL     1      -8.733   8.808  70.613  1.00  0.00    -0.180 C  
HETATM    4  C   UNL     1      -7.462   8.241  70.775  1.00  0.00    -0.065 C  
HETATM    5  C   UNL     1      -6.204  10.118  67.275  1.00  0.00    -0.059 C  
HETATM    6  C   UNL     1      -6.408   8.545  69.764  1.00  0.00    -0.035 C  
HETATM    7  C   UNL     1      -5.722  11.400  67.256  1.00  0.00    -0.079 C  
HETATM    8  H   UNL     1      -4.973  13.408  63.828  1.00  0.00     0.000 HD 
HETATM    9  C   UNL     1      -6.742   9.368  68.613  1.00  0.00    -0.053 C  
HETATM   10  O   UNL     1      -5.792  12.928  63.779  1.00  0.00     8.721 OA 
HETATM   11  C   UNL     1      -8.089   9.125  68.354  1.00  0.00    -0.104 C  
HETATM   12  C   UNL     1      -8.247   7.671  67.736  1.00  0.00    -0.119 C  
HETATM   13  C   UNL     1      -9.019   9.336  69.374  1.00  0.00    -0.147 C  
HETATM   14  C   UNL     1      -8.151   7.721  66.238  1.00  0.00    -0.114 C  
HETATM   15  C   UNL     1      -6.696   8.066  65.858  1.00  0.00    -0.049 C  
HETATM   16  C   UNL     1      -5.514  12.299  66.085  1.00  0.00     1.477 C  
HETATM   17  C   UNL     1      -6.656   9.564  65.928  1.00  0.00    -0.078 C  
HETATM   18  C   UNL     1      -7.303  10.225  64.937  1.00  0.00    -0.110 C  
HETATM   19  O   UNL     1      -8.617  12.158  64.594  1.00  0.00     1.081 OA 
HETATM   20  C   UNL     1      -6.286  12.396  64.958  1.00  0.00     6.222 C  
HETATM   21  C   UNL     1      -7.549  11.656  64.883  1.00  0.00     1.852 C  
BRANCH   4  22
HETATM   22  O   UNL     1      -7.204   7.364  71.828  1.00  0.00    -0.069 OA 
HETATM   23  C   UNL     1      -7.967   6.146  71.939  1.00  0.00    -0.106 C  
ENDBRANCH   4  22
BRANCH   6  24
HETATM   24  O   UNL     1      -5.194   7.862  69.770  1.00  0.00    -0.023 OA 
HETATM   25  C   UNL     1      -5.198   6.544  69.151  1.00  0.00    -0.013 C  
ENDBRANCH   6  24
BRANCH  15  26
HETATM   26  N   UNL     1      -6.400   7.548  64.535  1.00  0.00    -0.041 N  
HETATM   27  H   UNL     1      -6.696   6.601  64.298  1.00  0.00     0.000 HD 
HETATM   28  C   UNL     1      -5.731   8.296  63.589  1.00  0.00    -0.066 C  
HETATM   29  O   UNL     1      -5.588   9.508  63.627  1.00  0.00    -0.073 OA 
HETATM   30  C   UNL     1      -5.173   7.455  62.470  1.00  0.00    -0.038 C  
ENDBRANCH  15  26
ENDBRANCH   2   3
TORSDOF 4
ENDMDL
MODEL      134
REMARK 921   NORMALIZED FREE ENERGY PREDICTED BY IDOCK:   17.83 KCAL/MOL
REMARK 922        TOTAL FREE ENERGY PREDICTED BY IDOCK:   21.27 KCAL/MOL
REMARK 923 INTER-LIGAND FREE ENERGY PREDICTED BY IDOCK:   21.69 KCAL/MOL
REMARK 924 INTRA-LIGAND FREE ENERGY PREDICTED BY IDOCK:   -0.42 KCAL/MOL
REMARK 927      BINDING AFFINITY PREDICTED BY RF-SCORE:    0.00 PKD
ROOT
HETATM    1  C   UNL     1     -10.264  13.083  64.865  1.00  0.00    -0.284 C  
HETATM    2  O   UNL     1     -10.694  12.475  66.076  1.00  0.00    -0.254 OA 
ENDROOT
BRANCH   2   3
HETATM    3  C   UNL     1     -10.402  11.147  66.242  1.00  0.00    -0.249 C  
HETATM    4  C   UNL     1     -11.214  10.147  65.695  1.00  0.00     1.266 C  
HETATM    5  C   UNL     1      -9.017   7.269  67.756  1.00  0.00    -0.126 C  
HETATM    6  C   UNL     1     -10.949   8.726  66.067  1.00  0.00     2.097 C  
HETATM    7  C   UNL     1      -9.299   6.909  69.047  1.00  0.00    -0.135 C  
HETATM    8  H   UNL     1      -6.888   4.503  71.224  1.00  0.00     0.000 HD 
HETATM    9  C   UNL     1      -9.826   8.415  66.935  1.00  0.00    -0.313 C  
HETATM   10  O   UNL     1      -6.388   5.142  70.731  1.00  0.00    -0.022 OA 
HETATM   11  C   UNL     1      -8.868   9.394  66.675  1.00  0.00    -0.151 C  
HETATM   12  C   UNL     1      -8.224   9.129  65.249  1.00  0.00    -0.135 C  
HETATM   13  C   UNL     1      -9.222  10.736  66.821  1.00  0.00    -0.174 C  
HETATM   14  C   UNL     1      -7.022   8.236  65.369  1.00  0.00    -0.063 C  
HETATM   15  C   UNL     1      -7.506   6.824  65.762  1.00  0.00    -0.085 C  
HETATM   16  C   UNL     1      -8.455   6.136  70.003  1.00  0.00    -0.129 C  
HETATM   17  C   UNL     1      -7.627   6.892  67.255  1.00  0.00    -0.108 C  
HETATM   18  C   UNL     1      -6.462   6.924  67.947  1.00  0.00    -0.050 C  
HETATM   19  O   UNL     1      -5.511   7.921  69.866  1.00  0.00    -0.023 OA 
HETATM   20  C   UNL     1      -7.093   6.175  70.136  1.00  0.00    -0.074 C  
HETATM   21  C   UNL     1      -6.321   7.162  69.374  1.00  0.00    -0.035 C  
BRANCH   4  22
HETATM   22  O   UNL     1     -12.214  10.465  64.776  1.00  0.00     3.302 OA 
HETATM   23  C   UNL     1     -11.934  10.374  63.366  1.00  0.00     4.228 C  
ENDBRANCH   4  22
BRANCH   6  24
HETATM   24  O   UNL     1     -11.597   7.683  65.409  1.00  0.00     6.817 OA 
HETATM   25  C   UNL     1     -10.739   6.728  64.721  1.00  0.00     6.582 C  
ENDBRANCH   6  24
BRANCH  15  26
HETATM   26  N   UNL     1      -6.544   5.835  65.310  1.00  0.00    -0.042 N  
HETATM   27  H   UNL     1      -5.612   5.826  65.726  1.00  0.00     0.000 HD 
HETATM   28  C   UNL     1      -6.850   4.908  64.337  1.00  0.00    -0.048 C  
HETATM   29  O   UNL     1      -7.980   4.616  63.978  1.00  0.00    -0.087 OA 
HETATM   30  C   UNL     1      -5.625   4.269  63.736  1.00  0.00    -0.013 C  
ENDBRANCH  15  26
ENDBRANCH   2   3
TORSDOF 4
ENDMDL
MODEL      135
REMARK 921   NORMALIZED FREE ENERGY PREDICTED BY IDOCK:   19.28 KCAL/MOL
REMARK 922        TOTAL FREE ENERGY PREDICTED BY IDOCK:   23.05 KCAL/MOL
REMARK 923 INTER-LIGAND FREE ENERGY PREDICTED BY IDOCK:   21.43 KCAL/MOL
REMARK 924 INTRA-LIGAND FREE ENERGY PREDICTED BY IDOCK:    1.62 KCAL/MOL
REMARK 927      BINDING AFFINITY PREDICTED BY RF-SCORE:    0.00 PKD
ROOT
HETATM    1  C   UNL     1      -6.239  17.432  72.594  1.00  0.00     4.011 C  
HETATM    2  O   UNL     1      -6.002  16.937  71.282  1.00  0.00     0.699 OA 
ENDROOT
BRANCH   2   3
HETATM    3  C   UNL     1      -7.094  16.514  70.572  1.00  0.00     1.827 C  
HETATM    4  C   UNL     1      -8.359  17.082  70.769  1.00  0.00     5.129 C  
HETATM    5  C   UNL     1     -10.028  14.164  68.309  1.00  0.00    -0.241 C  
HETATM    6  C   UNL     1      -9.538  16.454  70.105  1.00  0.00     0.910 C  
HETATM    7  C   UNL     1     -10.415  12.936  68.776  1.00  0.00    -0.183 C  
HETATM    8  H   UNL     1     -11.562   9.925  66.335  1.00  0.00     0.000 HD 
HETATM    9  C   UNL     1      -9.336  15.311  69.230  1.00  0.00    -0.239 C  
HETATM   10  O   UNL     1     -10.798  10.377  65.996  1.00  0.00    -0.049 OA 
HETATM   11  C   UNL     1      -8.069  15.480  68.676  1.00  0.00    -0.159 C  
HETATM   12  C   UNL     1      -8.116  16.662  67.616  1.00  0.00    -0.184 C  
HETATM   13  C   UNL     1      -6.974  15.621  69.530  1.00  0.00    -0.193 C  
HETATM   14  C   UNL     1      -8.449  16.134  66.250  1.00  0.00    -0.357 C  
HETATM   15  C   UNL     1      -9.918  15.662  66.259  1.00  0.00    -0.295 C  
HETATM   16  C   UNL     1     -10.745  11.706  68.001  1.00  0.00    -0.246 C  
HETATM   17  C   UNL     1      -9.840  14.265  66.799  1.00  0.00    -0.274 C  
HETATM   18  C   UNL     1      -9.316  13.331  65.967  1.00  0.00    -0.016 C  
HETATM   19  O   UNL     1      -7.940  11.412  66.021  1.00  0.00    -0.054 OA 
HETATM   20  C   UNL     1     -10.159  11.265  66.844  1.00  0.00    -0.212 C  
HETATM   21  C   UNL     1      -8.980  11.962  66.321  1.00  0.00    -0.157 C  
BRANCH   4  22
HETATM   22  O   UNL     1      -8.505  18.246  71.523  1.00  0.00     8.251 OA 
HETATM   23  C   UNL     1      -8.714  19.504  70.852  1.00  0.00     2.707 C  
ENDBRANCH   4  22
BRANCH   6  24
HETATM   24  O   UNL     1     -10.781  17.084  70.110  1.00  0.00    -0.082 OA 
HETATM   25  C   UNL     1     -11.888  16.311  70.654  1.00  0.00    -0.071 C  
ENDBRANCH   6  24
BRANCH  15  26
HETATM   26  N   UNL     1     -10.459  15.724  64.913  1.00  0.00    -0.396 N  
HETATM   27  H   UNL     1     -10.027  16.353  64.236  1.00  0.00     0.000 HD 
HETATM   28  C   UNL     1     -11.540  14.961  64.523  1.00  0.00    -0.352 C  
HETATM   29  O   UNL     1     -11.954  13.979  65.117  1.00  0.00    -0.352 OA 
HETATM   30  C   UNL     1     -12.184  15.468  63.258  1.00  0.00     2.008 C  
ENDBRANCH  15  26
ENDBRANCH   2   3
TORSDOF 4
ENDMDL
MODEL      136
REMARK 921   NORMALIZED FREE ENERGY PREDICTED BY IDOCK:   24.70 KCAL/MOL
REMARK 922        TOTAL FREE ENERGY PREDICTED BY IDOCK:   29.74 KCAL/MOL
REMARK 923 INTER-LIGAND FREE ENERGY PREDICTED BY IDOCK:   28.02 KCAL/MOL
REMARK 924 INTRA-LIGAND FREE ENERGY PREDICTED BY IDOCK:    1.72 KCAL/MOL
REMARK 927      BINDING AFFINITY PREDICTED BY RF-SCORE:    0.00 PKD
ROOT
HETATM    1  C   UNL     1     -10.393  15.282  72.430  1.00  0.00     2.557 C  
HETATM    2  O   UNL     1      -9.510  14.219  72.091  1.00  0.00     5.330 OA 
ENDROOT
BRANCH   2   3
HETATM    3  C   UNL     1      -9.975  13.284  71.206  1.00  0.00     8.464 C  
HETATM    4  C   UNL     1     -11.269  13.362  70.675  1.00  0.00     1.053 C  
HETATM    5  C   UNL     1     -10.761   9.602  68.953  1.00  0.00    -0.230 C  
HETATM    6  C   UNL     1     -11.781  12.217  69.867  1.00  0.00    -0.273 C  
HETATM    7  C   UNL     1     -11.019   8.439  69.629  1.00  0.00    -0.094 C  
HETATM    8  H   UNL     1     -10.061   4.796  68.162  1.00  0.00     0.000 HD 
HETATM    9  C   UNL     1     -10.908  11.084  69.605  1.00  0.00    -0.241 C  
HETATM   10  O   UNL     1      -9.363   5.424  68.017  1.00  0.00    -0.109 OA 
HETATM   11  C   UNL     1      -9.616  11.604  69.575  1.00  0.00     0.819 C  
HETATM   12  C   UNL     1      -9.421  12.443  68.241  1.00  0.00    -0.203 C  
HETATM   13  C   UNL     1      -9.150  12.314  70.683  1.00  0.00     7.528 C  
HETATM   14  C   UNL     1      -8.904  11.568  67.136  1.00  0.00    -0.168 C  
HETATM   15  C   UNL     1     -10.026  10.589  66.729  1.00  0.00    -0.204 C  
HETATM   16  C   UNL     1     -10.620   7.048  69.272  1.00  0.00    -0.240 C  
HETATM   17  C   UNL     1      -9.889   9.463  67.710  1.00  0.00    -0.207 C  
HETATM   18  C   UNL     1      -8.818   8.650  67.539  1.00  0.00    -0.139 C  
HETATM   19  O   UNL     1      -7.229   7.441  68.802  1.00  0.00    -0.084 OA 
HETATM   20  C   UNL     1      -9.457   6.638  68.676  1.00  0.00    -0.128 C  
HETATM   21  C   UNL     1      -8.380   7.608  68.453  1.00  0.00    -0.125 C  
BRANCH   4  22
HETATM   22  O   UNL     1     -12.041  14.510  70.848  1.00  0.00    -0.299 OA 
HETATM   23  C   UNL     1     -11.822  15.647  69.990  1.00  0.00    -0.367 C  
ENDBRANCH   4  22
BRANCH   6  24
HETATM   24  O   UNL     1     -12.976  12.320  69.159  1.00  0.00     0.923 OA 
HETATM   25  C   UNL     1     -13.902  11.205  69.298  1.00  0.00     5.270 C  
ENDBRANCH   6  24
BRANCH  15  26
HETATM   26  N   UNL     1      -9.837  10.174  65.351  1.00  0.00    -0.289 N  
HETATM   27  H   UNL     1      -9.965   9.191  65.110  1.00  0.00     0.000 HD 
HETATM   28  C   UNL     1      -9.488  11.067  64.360  1.00  0.00    -0.238 C  
HETATM   29  O   UNL     1      -9.591  12.280  64.442  1.00  0.00    -0.046 OA 
HETATM   30  C   UNL     1      -8.947  10.386  63.128  1.00  0.00    -0.245 C  
ENDBRANCH  15  26
ENDBRANCH   2   3
TORSDOF 4
ENDMDL
MODEL      137
REMARK 921   NORMALIZED FREE ENERGY PREDICTED BY IDOCK:   31.82 KCAL/MOL
REMARK 922        TOTAL FREE ENERGY PREDICTED BY IDOCK:   38.52 KCAL/MOL
REMARK 923 INTER-LIGAND FREE ENERGY PREDICTED BY IDOCK:   37.64 KCAL/MOL
REMARK 924 INTRA-LIGAND FREE ENERGY PREDICTED BY IDOCK:    0.88 KCAL/MOL
REMARK 927      BINDING AFFINITY PREDICTED BY RF-SCORE:    0.00 PKD
ROOT
HETATM    1  C   UNL     1     -11.270   4.493  69.524  1.00  0.00     3.570 C  
HETATM    2  O   UNL     1     -10.959   5.641  70.304  1.00  0.00    -0.294 OA 
ENDROOT
BRANCH   2   3
HETATM    3  C   UNL     1     -11.073   6.859  69.689  1.00  0.00    -0.258 C  
HETATM    4  C   UNL     1     -11.517   7.990  70.384  1.00  0.00    -0.135 C  
HETATM    5  C   UNL     1     -11.651  10.111  66.800  1.00  0.00     1.379 C  
HETATM    6  C   UNL     1     -11.797   9.238  69.616  1.00  0.00     0.522 C  
HETATM    7  C   UNL     1     -12.739  10.090  65.970  1.00  0.00    10.800 C  
HETATM    8  H   UNL     1     -12.702  11.721  62.271  1.00  0.00     0.000 HD 
HETATM    9  C   UNL     1     -11.547   9.265  68.184  1.00  0.00     1.079 C  
HETATM   10  O   UNL     1     -11.902  11.241  62.448  1.00  0.00     1.229 OA 
HETATM   11  C   UNL     1     -10.489   8.384  67.972  1.00  0.00    -0.242 C  
HETATM   12  C   UNL     1      -9.148   9.035  68.520  1.00  0.00    -0.133 C  
HETATM   13  C   UNL     1     -10.615   7.063  68.406  1.00  0.00    -0.240 C  
HETATM   14  C   UNL     1      -8.469   9.832  67.444  1.00  0.00    -0.121 C  
HETATM   15  C   UNL     1      -9.328  11.081  67.151  1.00  0.00    -0.164 C  
HETATM   16  C   UNL     1     -12.836  10.539  64.551  1.00  0.00     6.539 C  
HETATM   17  C   UNL     1     -10.348  10.589  66.168  1.00  0.00    -0.276 C  
HETATM   18  C   UNL     1      -9.896  10.337  64.915  1.00  0.00    -0.404 C  
HETATM   19  O   UNL     1     -10.211   8.812  63.139  1.00  0.00     3.787 OA 
HETATM   20  C   UNL     1     -11.882  10.437  63.575  1.00  0.00     3.966 C  
HETATM   21  C   UNL     1     -10.646   9.696  63.848  1.00  0.00     3.266 C  
BRANCH   4  22
HETATM   22  O   UNL     1     -11.640   7.969  71.772  1.00  0.00    -0.262 OA 
HETATM   23  C   UNL     1     -11.929   6.723  72.439  1.00  0.00    -0.135 C  
ENDBRANCH   4  22
BRANCH   6  24
HETATM   24  O   UNL     1     -12.055  10.439  70.274  1.00  0.00    -0.277 OA 
HETATM   25  C   UNL     1     -12.788  11.442  69.513  1.00  0.00     0.573 C  
ENDBRANCH   6  24
BRANCH  15  26
HETATM   26  N   UNL     1      -8.487  12.139  66.622  1.00  0.00    -0.345 N  
HETATM   27  H   UNL     1      -8.833  12.703  65.846  1.00  0.00     0.000 HD 
HETATM   28  C   UNL     1      -7.235  12.404  67.135  1.00  0.00    -0.080 C  
HETATM   29  O   UNL     1      -6.828  12.023  68.220  1.00  0.00    -0.059 OA 
HETATM   30  C   UNL     1      -6.388  13.232  66.203  1.00  0.00     4.355 C  
ENDBRANCH  15  26
ENDBRANCH   2   3
TORSDOF 4
ENDMDL
MODEL      138
REMARK 921   NORMALIZED FREE ENERGY PREDICTED BY IDOCK:   32.23 KCAL/MOL
REMARK 922        TOTAL FREE ENERGY PREDICTED BY IDOCK:   39.03 KCAL/MOL
REMARK 923 INTER-LIGAND FREE ENERGY PREDICTED BY IDOCK:   39.35 KCAL/MOL
REMARK 924 INTRA-LIGAND FREE ENERGY PREDICTED BY IDOCK:   -0.32 KCAL/MOL
REMARK 927      BINDING AFFINITY PREDICTED BY RF-SCORE:    0.00 PKD
ROOT
HETATM    1  C   UNL     1      -7.474   9.625  72.630  1.00  0.00     2.068 C  
HETATM    2  O   UNL     1      -7.292   8.786  71.496  1.00  0.00    -0.101 OA 
ENDROOT
BRANCH   2   3
HETATM    3  C   UNL     1      -7.786   9.240  70.302  1.00  0.00    -0.129 C  
HETATM    4  C   UNL     1      -8.927   8.673  69.721  1.00  0.00    -0.145 C  
HETATM    5  C   UNL     1      -8.266  10.929  66.281  1.00  0.00    -0.165 C  
HETATM    6  C   UNL     1      -9.304   9.082  68.337  1.00  0.00    -0.139 C  
HETATM    7  C   UNL     1      -7.442  10.512  65.271  1.00  0.00    -0.065 C  
HETATM    8  H   UNL     1      -6.396  12.890  62.175  1.00  0.00     0.000 HD 
HETATM    9  C   UNL     1      -8.516  10.096  67.655  1.00  0.00    -0.118 C  
HETATM   10  O   UNL     1      -6.369  13.361  62.999  1.00  0.00    10.396 OA 
HETATM   11  C   UNL     1      -8.025  10.929  68.658  1.00  0.00    -0.140 C  
HETATM   12  C   UNL     1      -9.213  11.812  69.231  1.00  0.00     0.569 C  
HETATM   13  C   UNL     1      -7.278  10.366  69.694  1.00  0.00    -0.148 C  
HETATM   14  C   UNL     1      -9.332  13.099  68.466  1.00  0.00    -0.085 C  
HETATM   15  C   UNL     1      -9.841  12.772  67.046  1.00  0.00    -0.231 C  
HETATM   16  C   UNL     1      -6.879  11.305  64.141  1.00  0.00     1.532 C  
HETATM   17  C   UNL     1      -8.593  12.419  66.293  1.00  0.00     0.170 C  
HETATM   18  C   UNL     1      -7.764  13.449  65.995  1.00  0.00     2.785 C  
HETATM   19  O   UNL     1      -5.459  13.944  65.840  1.00  0.00     5.063 OA 
HETATM   20  C   UNL     1      -6.469  12.611  64.159  1.00  0.00    10.431 C  
HETATM   21  C   UNL     1      -6.429  13.337  65.433  1.00  0.00     9.282 C  
BRANCH   4  22
HETATM   22  O   UNL     1      -9.727   7.788  70.442  1.00  0.00    -0.178 OA 
HETATM   23  C   UNL     1     -10.364   8.236  71.655  1.00  0.00    -0.224 C  
ENDBRANCH   4  22
BRANCH   6  24
HETATM   24  O   UNL     1     -10.525   8.699  67.786  1.00  0.00    -0.235 OA 
HETATM   25  C   UNL     1     -10.457   7.844  66.610  1.00  0.00    -0.123 C  
ENDBRANCH   6  24
BRANCH  15  26
HETATM   26  N   UNL     1     -10.533  13.924  66.497  1.00  0.00    -0.279 N  
HETATM   27  H   UNL     1     -10.334  14.848  66.881  1.00  0.00     0.000 HD 
HETATM   28  C   UNL     1     -11.450  13.808  65.474  1.00  0.00    -0.311 C  
HETATM   29  O   UNL     1     -11.561  12.839  64.739  1.00  0.00    -0.303 OA 
HETATM   30  C   UNL     1     -12.333  15.022  65.343  1.00  0.00     0.169 C  
ENDBRANCH  15  26
ENDBRANCH   2   3
TORSDOF 4
ENDMDL
MODEL      139
REMARK 921   NORMALIZED FREE ENERGY PREDICTED BY IDOCK:   32.36 KCAL/MOL
REMARK 922        TOTAL FREE ENERGY PREDICTED BY IDOCK:   39.18 KCAL/MOL
REMARK 923 INTER-LIGAND FREE ENERGY PREDICTED BY IDOCK:   37.45 KCAL/MOL
REMARK 924 INTRA-LIGAND FREE ENERGY PREDICTED BY IDOCK:    1.74 KCAL/MOL
REMARK 927      BINDING AFFINITY PREDICTED BY RF-SCORE:    0.00 PKD
ROOT
HETATM    1  C   UNL     1      -6.085  13.399  62.794  1.00  0.00    12.187 C  
HETATM    2  O   UNL     1      -6.709  12.435  63.633  1.00  0.00     5.295 OA 
ENDROOT
BRANCH   2   3
HETATM    3  C   UNL     1      -7.047  12.838  64.897  1.00  0.00     8.294 C  
HETATM    4  C   UNL     1      -7.178  11.919  65.946  1.00  0.00     1.093 C  
HETATM    5  C   UNL     1      -8.690  14.946  68.377  1.00  0.00    -0.172 C  
HETATM    6  C   UNL     1      -7.729  12.394  67.249  1.00  0.00    -0.158 C  
HETATM    7  C   UNL     1     -10.016  15.285  68.396  1.00  0.00    -0.220 C  
HETATM    8  H   UNL     1     -11.419  18.531  70.356  1.00  0.00     0.000 HD 
HETATM    9  C   UNL     1      -8.058  13.800  67.413  1.00  0.00    -0.188 C  
HETATM   10  O   UNL     1     -10.616  18.727  69.888  1.00  0.00     0.757 OA 
HETATM   11  C   UNL     1      -7.172  14.492  66.589  1.00  0.00     1.417 C  
HETATM   12  C   UNL     1      -5.721  14.450  67.231  1.00  0.00     0.569 C  
HETATM   13  C   UNL     1      -7.126  14.171  65.231  1.00  0.00    11.160 C  
HETATM   14  C   UNL     1      -5.512  15.624  68.143  1.00  0.00    -0.122 C  
HETATM   15  C   UNL     1      -6.409  15.437  69.385  1.00  0.00    -0.134 C  
HETATM   16  C   UNL     1     -10.658  16.503  68.969  1.00  0.00    -0.324 C  
HETATM   17  C   UNL     1      -7.735  15.987  68.952  1.00  0.00    -0.196 C  
HETATM   18  C   UNL     1      -7.811  17.335  68.829  1.00  0.00    -0.254 C  
HETATM   19  O   UNL     1      -8.804  18.986  67.461  1.00  0.00    -0.285 OA 
HETATM   20  C   UNL     1     -10.161  17.779  68.986  1.00  0.00    -0.290 C  
HETATM   21  C   UNL     1      -8.922  18.082  68.263  1.00  0.00    -0.282 C  
BRANCH   4  22
HETATM   22  O   UNL     1      -6.749  10.601  65.795  1.00  0.00    -0.127 OA 
HETATM   23  C   UNL     1      -5.355  10.335  65.545  1.00  0.00    -0.079 C  
ENDBRANCH   4  22
BRANCH   6  24
HETATM   24  O   UNL     1      -7.702  11.575  68.376  1.00  0.00    -0.114 OA 
HETATM   25  C   UNL     1      -6.394  11.357  68.978  1.00  0.00    -0.063 C  
ENDBRANCH   6  24
BRANCH  15  26
HETATM   26  N   UNL     1      -5.836  16.148  70.513  1.00  0.00    -0.061 N  
HETATM   27  H   UNL     1      -5.660  15.640  71.380  1.00  0.00     0.000 HD 
HETATM   28  C   UNL     1      -5.524  17.490  70.450  1.00  0.00    -0.253 C  
HETATM   29  O   UNL     1      -5.404  18.133  69.420  1.00  0.00    -0.187 OA 
HETATM   30  C   UNL     1      -5.341  18.110  71.811  1.00  0.00     0.187 C  
ENDBRANCH  15  26
ENDBRANCH   2   3
TORSDOF 4
ENDMDL
MODEL      140
REMARK 921   NORMALIZED FREE ENERGY PREDICTED BY IDOCK:   33.34 KCAL/MOL
REMARK 922        TOTAL FREE ENERGY PREDICTED BY IDOCK:   40.40 KCAL/MOL
REMARK 923 INTER-LIGAND FREE ENERGY PREDICTED BY IDOCK:   40.93 KCAL/MOL
REMARK 924 INTRA-LIGAND FREE ENERGY PREDICTED BY IDOCK:   -0.53 KCAL/MOL
REMARK 927      BINDING AFFINITY PREDICTED BY RF-SCORE:    0.00 PKD
ROOT
HETATM    1  C   UNL     1     -10.428  16.063  72.980  1.00  0.00     4.402 C  
HETATM    2  O   UNL     1      -9.548  15.000  72.635  1.00  0.00     4.134 OA 
ENDROOT
BRANCH   2   3
HETATM    3  C   UNL     1     -10.022  14.062  71.757  1.00  0.00     6.562 C  
HETATM    4  C   UNL     1     -10.258  14.374  70.412  1.00  0.00     1.028 C  
HETATM    5  C   UNL     1     -12.044  10.647  69.885  1.00  0.00    -0.372 C  
HETATM    6  C   UNL     1     -10.949  13.368  69.554  1.00  0.00     0.051 C  
HETATM    7  C   UNL     1     -13.368  10.418  70.151  1.00  0.00     0.388 C  
HETATM    8  H   UNL     1     -14.996   6.718  70.130  1.00  0.00     0.000 HD 
HETATM    9  C   UNL     1     -11.304  12.076  70.117  1.00  0.00     0.057 C  
HETATM   10  O   UNL     1     -14.149   6.723  70.560  1.00  0.00     0.983 OA 
HETATM   11  C   UNL     1     -10.341  11.811  71.088  1.00  0.00     6.012 C  
HETATM   12  C   UNL     1      -8.966  11.458  70.376  1.00  0.00     3.647 C  
HETATM   13  C   UNL     1     -10.147  12.738  72.114  1.00  0.00    14.724 C  
HETATM   14  C   UNL     1      -8.865   9.981  70.126  1.00  0.00    -0.037 C  
HETATM   15  C   UNL     1      -9.889   9.603  69.035  1.00  0.00    -0.182 C  
HETATM   16  C   UNL     1     -14.076   9.114  70.296  1.00  0.00     1.330 C  
HETATM   17  C   UNL     1     -11.164   9.405  69.798  1.00  0.00    -0.139 C  
HETATM   18  C   UNL     1     -11.236   8.286  70.560  1.00  0.00    -0.247 C  
HETATM   19  O   UNL     1     -12.089   7.549  72.636  1.00  0.00    -0.180 OA 
HETATM   20  C   UNL     1     -13.594   7.958  70.849  1.00  0.00     0.241 C  
HETATM   21  C   UNL     1     -12.286   7.966  71.513  1.00  0.00    -0.311 C  
BRANCH   4  22
HETATM   22  O   UNL     1      -9.806  15.577  69.871  1.00  0.00    -0.286 OA 
HETATM   23  C   UNL     1      -8.429  15.696  69.463  1.00  0.00    -0.182 C  
ENDBRANCH   4  22
BRANCH   6  24
HETATM   24  O   UNL     1     -11.038  13.545  68.175  1.00  0.00    -0.240 OA 
HETATM   25  C   UNL     1     -12.349  13.323  67.583  1.00  0.00     0.052 C  
ENDBRANCH   6  24
BRANCH  15  26
HETATM   26  N   UNL     1      -9.445   8.408  68.341  1.00  0.00    -0.139 N  
HETATM   27  H   UNL     1      -9.743   7.496  68.689  1.00  0.00     0.000 HD 
HETATM   28  C   UNL     1      -8.635   8.467  67.227  1.00  0.00    -0.123 C  
HETATM   29  O   UNL     1      -8.454   9.462  66.545  1.00  0.00    -0.129 OA 
HETATM   30  C   UNL     1      -7.969   7.149  66.922  1.00  0.00    -0.115 C  
ENDBRANCH  15  26
ENDBRANCH   2   3
TORSDOF 4
ENDMDL
MODEL      141
REMARK 921   NORMALIZED FREE ENERGY PREDICTED BY IDOCK:   34.60 KCAL/MOL
REMARK 922        TOTAL FREE ENERGY PREDICTED BY IDOCK:   41.95 KCAL/MOL
REMARK 923 INTER-LIGAND FREE ENERGY PREDICTED BY IDOCK:   40.90 KCAL/MOL
REMARK 924 INTRA-LIGAND FREE ENERGY PREDICTED BY IDOCK:    1.05 KCAL/MOL
REMARK 927      BINDING AFFINITY PREDICTED BY RF-SCORE:    0.00 PKD
ROOT
HETATM    1  C   UNL     1     -10.003  17.716  62.557  1.00  0.00    20.457 C  
HETATM    2  O   UNL     1     -10.355  16.383  62.911  1.00  0.00     6.155 OA 
ENDROOT
BRANCH   2   3
HETATM    3  C   UNL     1      -9.937  15.936  64.135  1.00  0.00     3.550 C  
HETATM    4  C   UNL     1      -9.003  16.651  64.895  1.00  0.00     3.291 C  
HETATM    5  C   UNL     1      -8.798  13.478  67.588  1.00  0.00    -0.202 C  
HETATM    6  C   UNL     1      -8.450  16.020  66.129  1.00  0.00    -0.212 C  
HETATM    7  C   UNL     1      -7.959  12.411  67.409  1.00  0.00    -0.178 C  
HETATM    8  H   UNL     1      -8.103   9.101  69.726  1.00  0.00     0.000 HD 
HETATM    9  C   UNL     1      -8.935  14.713  66.539  1.00  0.00    -0.236 C  
HETATM   10  O   UNL     1      -8.974   9.400  69.492  1.00  0.00    -0.143 OA 
HETATM   11  C   UNL     1     -10.255  14.646  66.098  1.00  0.00    -0.313 C  
HETATM   12  C   UNL     1     -11.155  15.593  66.999  1.00  0.00    -0.200 C  
HETATM   13  C   UNL     1     -10.522  14.847  64.742  1.00  0.00    -0.296 C  
HETATM   14  C   UNL     1     -11.698  14.840  68.179  1.00  0.00    -0.353 C  
HETATM   15  C   UNL     1     -10.525  14.523  69.132  1.00  0.00    -0.216 C  
HETATM   16  C   UNL     1      -7.974  11.089  68.099  1.00  0.00    -0.119 C  
HETATM   17  C   UNL     1      -9.943  13.260  68.571  1.00  0.00    -0.189 C  
HETATM   18  C   UNL     1     -10.677  12.134  68.747  1.00  0.00    -0.252 C  
HETATM   19  O   UNL     1     -11.251  10.139  67.619  1.00  0.00    -0.284 OA 
HETATM   20  C   UNL     1      -9.067  10.374  68.511  1.00  0.00    -0.145 C  
HETATM   21  C   UNL     1     -10.410  10.836  68.150  1.00  0.00    -0.171 C  
BRANCH   4  22
HETATM   22  O   UNL     1      -8.642  17.949  64.538  1.00  0.00     4.537 OA 
HETATM   23  C   UNL     1      -7.246  18.285  64.404  1.00  0.00     4.115 C  
ENDBRANCH   4  22
BRANCH   6  24
HETATM   24  O   UNL     1      -7.670  16.756  67.019  1.00  0.00    -0.162 OA 
HETATM   25  C   UNL     1      -6.547  16.051  67.621  1.00  0.00    -0.162 C  
ENDBRANCH   6  24
BRANCH  15  26
HETATM   26  N   UNL     1     -11.024  14.370  70.487  1.00  0.00    -0.464 N  
HETATM   27  H   UNL     1     -11.772  13.700  70.665  1.00  0.00     0.000 HD 
HETATM   28  C   UNL     1     -10.516  15.102  71.539  1.00  0.00     0.881 C  
HETATM   29  O   UNL     1      -9.452  15.700  71.529  1.00  0.00     2.485 OA 
HETATM   30  C   UNL     1     -11.425  15.099  72.742  1.00  0.00    -0.276 C  
ENDBRANCH  15  26
ENDBRANCH   2   3
TORSDOF 4
ENDMDL
MODEL      142
REMARK 921   NORMALIZED FREE ENERGY PREDICTED BY IDOCK:   38.16 KCAL/MOL
REMARK 922        TOTAL FREE ENERGY PREDICTED BY IDOCK:   46.35 KCAL/MOL
REMARK 923 INTER-LIGAND FREE ENERGY PREDICTED BY IDOCK:   41.90 KCAL/MOL
REMARK 924 INTRA-LIGAND FREE ENERGY PREDICTED BY IDOCK:    4.45 KCAL/MOL
REMARK 927      BINDING AFFINITY PREDICTED BY RF-SCORE:    0.00 PKD
ROOT
HETATM    1  C   UNL     1     -12.635  11.336  71.901  1.00  0.00    -0.039 C  
HETATM    2  O   UNL     1     -11.293  11.445  71.443  1.00  0.00     1.226 OA 
ENDROOT
BRANCH   2   3
HETATM    3  C   UNL     1     -10.509  10.327  71.547  1.00  0.00     1.795 C  
HETATM    4  C   UNL     1      -9.370  10.307  72.360  1.00  0.00     7.377 C  
HETATM    5  C   UNL     1      -8.357   6.576  70.805  1.00  0.00    -0.130 C  
HETATM    6  C   UNL     1      -8.458   9.128  72.285  1.00  0.00     0.696 C  
HETATM    7  C   UNL     1      -7.637   6.428  69.650  1.00  0.00    -0.094 C  
HETATM    8  H   UNL     1      -7.078   2.845  67.863  1.00  0.00     0.000 HD 
HETATM    9  C   UNL     1      -8.805   8.013  71.420  1.00  0.00    -0.170 C  
HETATM   10  O   UNL     1      -7.973   2.947  68.165  1.00  0.00    -0.061 OA 
HETATM   11  C   UNL     1     -10.197   7.984  71.384  1.00  0.00    -0.239 C  
HETATM   12  C   UNL     1     -10.744   7.458  72.779  1.00  0.00    -0.362 C  
HETATM   13  C   UNL     1     -10.885   9.129  70.980  1.00  0.00    -0.362 C  
HETATM   14  C   UNL     1     -10.889   5.964  72.761  1.00  0.00    -0.289 C  
HETATM   15  C   UNL     1      -9.477   5.341  72.724  1.00  0.00    -0.142 C  
HETATM   16  C   UNL     1      -7.449   5.203  68.821  1.00  0.00    -0.066 C  
HETATM   17  C   UNL     1      -9.127   5.343  71.266  1.00  0.00    -0.162 C  
HETATM   18  C   UNL     1      -9.783   4.442  70.493  1.00  0.00    -0.287 C  
HETATM   19  O   UNL     1     -10.720   4.236  68.335  1.00  0.00     0.805 OA 
HETATM   20  C   UNL     1      -8.361   4.211  68.576  1.00  0.00    -0.083 C  
HETATM   21  C   UNL     1      -9.742   4.370  69.042  1.00  0.00    -0.153 C  
BRANCH   4  22
HETATM   22  O   UNL     1      -9.122  11.339  73.263  1.00  0.00    16.123 OA 
HETATM   23  C   UNL     1      -7.804  11.488  73.825  1.00  0.00    15.804 C  
ENDBRANCH   4  22
BRANCH   6  24
HETATM   24  O   UNL     1      -7.421   8.967  73.203  1.00  0.00    -0.284 OA 
HETATM   25  C   UNL     1      -6.312   9.903  73.086  1.00  0.00     1.300 C  
ENDBRANCH   6  24
BRANCH  15  26
HETATM   26  N   UNL     1      -9.514   4.010  73.301  1.00  0.00    -0.111 N  
HETATM   27  H   UNL     1     -10.164   3.821  74.065  1.00  0.00     0.000 HD 
HETATM   28  C   UNL     1      -8.698   2.994  72.850  1.00  0.00    -0.080 C  
HETATM   29  O   UNL     1      -8.108   2.992  71.782  1.00  0.00    -0.056 OA 
HETATM   30  C   UNL     1      -8.597   1.851  73.828  1.00  0.00    -0.058 C  
ENDBRANCH  15  26
ENDBRANCH   2   3
TORSDOF 4
ENDMDL
MODEL      143
REMARK 921   NORMALIZED FREE ENERGY PREDICTED BY IDOCK:   49.09 KCAL/MOL
REMARK 922        TOTAL FREE ENERGY PREDICTED BY IDOCK:   59.83 KCAL/MOL
REMARK 923 INTER-LIGAND FREE ENERGY PREDICTED BY IDOCK:   58.00 KCAL/MOL
REMARK 924 INTRA-LIGAND FREE ENERGY PREDICTED BY IDOCK:    1.83 KCAL/MOL
REMARK 927      BINDING AFFINITY PREDICTED BY RF-SCORE:    0.00 PKD
ROOT
HETATM    1  C   UNL     1      -5.978  17.029  64.280  1.00  0.00     5.979 C  
HETATM    2  O   UNL     1      -7.336  17.451  64.307  1.00  0.00     5.158 OA 
ENDROOT
BRANCH   2   3
HETATM    3  C   UNL     1      -7.833  17.867  65.513  1.00  0.00     0.620 C  
HETATM    4  C   UNL     1      -8.917  18.749  65.592  1.00  0.00     0.732 C  
HETATM    5  C   UNL     1      -8.339  19.057  69.706  1.00  0.00     0.734 C  
HETATM    6  C   UNL     1      -9.290  19.309  66.924  1.00  0.00    -0.318 C  
HETATM    7  C   UNL     1      -7.464  19.950  70.265  1.00  0.00     0.596 C  
HETATM    8  H   UNL     1      -6.517  19.922  74.195  1.00  0.00     0.000 HD 
HETATM    9  C   UNL     1      -8.560  18.880  68.106  1.00  0.00    -0.349 C  
HETATM   10  O   UNL     1      -6.543  19.042  73.837  1.00  0.00     5.345 OA 
HETATM   11  C   UNL     1      -8.153  17.574  67.843  1.00  0.00    -0.230 C  
HETATM   12  C   UNL     1      -9.414  16.611  67.907  1.00  0.00    -0.225 C  
HETATM   13  C   UNL     1      -7.392  17.323  66.699  1.00  0.00    -0.282 C  
HETATM   14  C   UNL     1      -9.606  16.083  69.299  1.00  0.00    -0.255 C  
HETATM   15  C   UNL     1     -10.057  17.251  70.202  1.00  0.00     0.903 C  
HETATM   16  C   UNL     1      -6.932  19.986  71.657  1.00  0.00     0.751 C  
HETATM   17  C   UNL     1      -8.770  17.905  70.608  1.00  0.00     4.904 C  
HETATM   18  C   UNL     1      -8.009  17.223  71.499  1.00  0.00     9.448 C  
HETATM   19  O   UNL     1      -5.743  16.769  71.985  1.00  0.00     0.791 OA 
HETATM   20  C   UNL     1      -6.616  18.922  72.459  1.00  0.00     2.950 C  
HETATM   21  C   UNL     1      -6.657  17.564  71.906  1.00  0.00     4.564 C  
BRANCH   4  22
HETATM   22  O   UNL     1      -9.669  19.054  64.458  1.00  0.00     3.203 OA 
HETATM   23  C   UNL     1     -10.920  18.375  64.234  1.00  0.00     4.802 C  
ENDBRANCH   4  22
BRANCH   6  24
HETATM   24  O   UNL     1     -10.468  20.035  67.090  1.00  0.00    -0.427 OA 
HETATM   25  C   UNL     1     -11.198  19.797  68.327  1.00  0.00     1.018 C  
ENDBRANCH   6  24
BRANCH  15  26
HETATM   26  N   UNL     1     -10.816  16.735  71.326  1.00  0.00     0.560 N  
HETATM   27  H   UNL     1     -11.741  17.120  71.517  1.00  0.00     0.000 HD 
HETATM   28  C   UNL     1     -10.324  15.740  72.145  1.00  0.00     2.478 C  
HETATM   29  O   UNL     1      -9.394  15.001  71.868  1.00  0.00     3.079 OA 
HETATM   30  C   UNL     1     -11.062  15.647  73.456  1.00  0.00     1.470 C  
ENDBRANCH  15  26
ENDBRANCH   2   3
TORSDOF 4
ENDMDL
MODEL      144
REMARK 921   NORMALIZED FREE ENERGY PREDICTED BY IDOCK:   51.82 KCAL/MOL
REMARK 922        TOTAL FREE ENERGY PREDICTED BY IDOCK:   63.21 KCAL/MOL
REMARK 923 INTER-LIGAND FREE ENERGY PREDICTED BY IDOCK:   63.15 KCAL/MOL
REMARK 924 INTRA-LIGAND FREE ENERGY PREDICTED BY IDOCK:    0.06 KCAL/MOL
REMARK 927      BINDING AFFINITY PREDICTED BY RF-SCORE:    0.00 PKD
ROOT
HETATM    1  C   UNL     1      -9.993  17.742  62.528  1.00  0.00    20.992 C  
HETATM    2  O   UNL     1     -10.331  16.605  63.313  1.00  0.00     4.704 OA 
ENDROOT
BRANCH   2   3
HETATM    3  C   UNL     1     -10.006  16.650  64.642  1.00  0.00     1.993 C  
HETATM    4  C   UNL     1      -8.674  16.739  65.066  1.00  0.00     3.129 C  
HETATM    5  C   UNL     1      -9.912  16.161  69.002  1.00  0.00    -0.242 C  
HETATM    6  C   UNL     1      -8.374  16.595  66.520  1.00  0.00    -0.287 C  
HETATM    7  C   UNL     1     -10.089  14.917  69.545  1.00  0.00    -0.120 C  
HETATM    8  H   UNL     1     -11.762  14.332  73.178  1.00  0.00     0.000 HD 
HETATM    9  C   UNL     1      -9.470  16.425  67.460  1.00  0.00    -0.224 C  
HETATM   10  O   UNL     1     -12.231  14.991  72.681  1.00  0.00    -0.342 OA 
HETATM   11  C   UNL     1     -10.551  17.105  66.903  1.00  0.00    -0.209 C  
HETATM   12  C   UNL     1     -10.301  18.668  67.018  1.00  0.00    -0.445 C  
HETATM   13  C   UNL     1     -10.972  16.761  65.617  1.00  0.00     0.004 C  
HETATM   14  C   UNL     1     -10.858  19.200  68.307  1.00  0.00     0.059 C  
HETATM   15  C   UNL     1      -9.996  18.658  69.466  1.00  0.00     0.228 C  
HETATM   16  C   UNL     1     -10.791  14.543  70.806  1.00  0.00     0.398 C  
HETATM   17  C   UNL     1     -10.585  17.308  69.748  1.00  0.00     0.208 C  
HETATM   18  C   UNL     1     -11.797  17.300  70.355  1.00  0.00     2.840 C  
HETATM   19  O   UNL     1     -13.831  16.098  70.345  1.00  0.00     0.896 OA 
HETATM   20  C   UNL     1     -11.914  15.117  71.339  1.00  0.00    -0.350 C  
HETATM   21  C   UNL     1     -12.638  16.135  70.571  1.00  0.00     0.419 C  
BRANCH   4  22
HETATM   22  O   UNL     1      -7.656  17.015  64.155  1.00  0.00     7.497 OA 
HETATM   23  C   UNL     1      -6.507  16.146  64.091  1.00  0.00    14.845 C  
ENDBRANCH   4  22
BRANCH   6  24
HETATM   24  O   UNL     1      -7.100  16.864  67.017  1.00  0.00    -0.160 OA 
HETATM   25  C   UNL     1      -6.627  15.984  68.076  1.00  0.00    -0.133 C  
ENDBRANCH   6  24
BRANCH  15  26
HETATM   26  N   UNL     1     -10.075  19.563  70.599  1.00  0.00     0.291 N  
HETATM   27  H   UNL     1     -10.992  19.802  70.977  1.00  0.00     0.000 HD 
HETATM   28  C   UNL     1      -8.949  20.109  71.178  1.00  0.00     2.154 C  
HETATM   29  O   UNL     1      -7.812  19.693  71.029  1.00  0.00     1.472 OA 
HETATM   30  C   UNL     1      -9.261  21.308  72.037  1.00  0.00     3.530 C  
ENDBRANCH  15  26
ENDBRANCH   2   3
TORSDOF 4
ENDMDL
MODEL      145
REMARK 921   NORMALIZED FREE ENERGY PREDICTED BY IDOCK:   53.80 KCAL/MOL
REMARK 922        TOTAL FREE ENERGY PREDICTED BY IDOCK:   65.64 KCAL/MOL
REMARK 923 INTER-LIGAND FREE ENERGY PREDICTED BY IDOCK:   62.94 KCAL/MOL
REMARK 924 INTRA-LIGAND FREE ENERGY PREDICTED BY IDOCK:    2.70 KCAL/MOL
REMARK 927      BINDING AFFINITY PREDICTED BY RF-SCORE:    0.00 PKD
ROOT
HETATM    1  C   UNL     1     -11.289   4.488  69.527  1.00  0.00     4.356 C  
HETATM    2  O   UNL     1     -11.024   5.620  70.346  1.00  0.00    -0.285 OA 
ENDROOT
BRANCH   2   3
HETATM    3  C   UNL     1     -11.292   6.851  69.808  1.00  0.00    -0.237 C  
HETATM    4  C   UNL     1     -12.601   7.249  69.512  1.00  0.00     2.140 C  
HETATM    5  C   UNL     1     -11.112  10.652  67.624  1.00  0.00    -0.385 C  
HETATM    6  C   UNL     1     -12.809   8.520  68.758  1.00  0.00     6.944 C  
HETATM    7  C   UNL     1     -10.724  10.658  66.312  1.00  0.00    -0.172 C  
HETATM    8  H   UNL     1      -8.817  13.790  64.607  1.00  0.00     0.000 HD 
HETATM    9  C   UNL     1     -11.659   9.335  68.405  1.00  0.00     0.884 C  
HETATM   10  O   UNL     1      -8.477  13.605  65.475  1.00  0.00     1.738 OA 
HETATM   11  C   UNL     1     -10.720   9.115  69.410  1.00  0.00    -0.210 C  
HETATM   12  C   UNL     1     -11.199   9.839  70.740  1.00  0.00    -0.419 C  
HETATM   13  C   UNL     1     -10.310   7.807  69.675  1.00  0.00    -0.212 C  
HETATM   14  C   UNL     1     -10.671  11.243  70.798  1.00  0.00     1.870 C  
HETATM   15  C   UNL     1     -11.388  12.074  69.712  1.00  0.00    -0.126 C  
HETATM   16  C   UNL     1      -9.916  11.680  65.584  1.00  0.00    -0.274 C  
HETATM   17  C   UNL     1     -10.588  11.806  68.473  1.00  0.00    -0.242 C  
HETATM   18  C   UNL     1      -9.362  12.383  68.416  1.00  0.00    -0.158 C  
HETATM   19  O   UNL     1      -7.172  11.935  67.653  1.00  0.00    -0.095 OA 
HETATM   20  C   UNL     1      -8.870  12.418  66.070  1.00  0.00     0.212 C  
HETATM   21  C   UNL     1      -8.345  12.133  67.409  1.00  0.00    -0.174 C  
BRANCH   4  22
HETATM   22  O   UNL     1     -13.690   6.504  69.962  1.00  0.00     2.843 OA 
HETATM   23  C   UNL     1     -13.543   5.085  70.161  1.00  0.00    14.712 C  
ENDBRANCH   4  22
BRANCH   6  24
HETATM   24  O   UNL     1     -14.085   9.058  68.604  1.00  0.00     9.127 OA 
HETATM   25  C   UNL     1     -14.264   9.971  67.483  1.00  0.00    20.474 C  
ENDBRANCH   6  24
BRANCH  15  26
HETATM   26  N   UNL     1     -11.396  13.475  70.095  1.00  0.00    -0.494 N  
HETATM   27  H   UNL     1     -11.214  14.183  69.383  1.00  0.00     0.000 HD 
HETATM   28  C   UNL     1     -11.641  13.877  71.391  1.00  0.00     0.757 C  
HETATM   29  O   UNL     1     -12.153  13.184  72.255  1.00  0.00     0.736 OA 
HETATM   30  C   UNL     1     -11.202  15.295  71.653  1.00  0.00    -0.369 C  
ENDBRANCH  15  26
ENDBRANCH   2   3
TORSDOF 4
ENDMDL
MODEL      146
REMARK 921   NORMALIZED FREE ENERGY PREDICTED BY IDOCK:   54.69 KCAL/MOL
REMARK 922        TOTAL FREE ENERGY PREDICTED BY IDOCK:   66.74 KCAL/MOL
REMARK 923 INTER-LIGAND FREE ENERGY PREDICTED BY IDOCK:   67.10 KCAL/MOL
REMARK 924 INTRA-LIGAND FREE ENERGY PREDICTED BY IDOCK:   -0.36 KCAL/MOL
REMARK 927      BINDING AFFINITY PREDICTED BY RF-SCORE:    0.00 PKD
ROOT
HETATM    1  C   UNL     1      -7.474   9.625  72.630  1.00  0.00     2.068 C  
HETATM    2  O   UNL     1      -7.295   8.791  71.492  1.00  0.00    -0.101 OA 
ENDROOT
BRANCH   2   3
HETATM    3  C   UNL     1      -7.795   9.250  70.302  1.00  0.00    -0.141 C  
HETATM    4  C   UNL     1      -7.002   9.303  69.149  1.00  0.00    -0.058 C  
HETATM    5  C   UNL     1     -10.044  11.361  67.181  1.00  0.00    -0.226 C  
HETATM    6  C   UNL     1      -7.544   9.985  67.938  1.00  0.00    -0.089 C  
HETATM    7  C   UNL     1     -10.181  12.721  67.251  1.00  0.00    -0.232 C  
HETATM    8  H   UNL     1     -13.396  14.677  65.774  1.00  0.00     0.000 HD 
HETATM    9  C   UNL     1      -8.895  10.521  67.967  1.00  0.00    -0.131 C  
HETATM   10  O   UNL     1     -13.651  13.887  66.236  1.00  0.00     0.804 OA 
HETATM   11  C   UNL     1      -9.606   9.701  68.842  1.00  0.00    -0.161 C  
HETATM   12  C   UNL     1      -9.859   8.294  68.150  1.00  0.00    -0.198 C  
HETATM   13  C   UNL     1      -9.132   9.537  70.145  1.00  0.00    -0.276 C  
HETATM   14  C   UNL     1     -11.153   8.305  67.389  1.00  0.00     0.341 C  
HETATM   15  C   UNL     1     -10.988   9.231  66.166  1.00  0.00     1.125 C  
HETATM   16  C   UNL     1     -11.350  13.560  66.862  1.00  0.00    -0.350 C  
HETATM   17  C   UNL     1     -11.277  10.597  66.712  1.00  0.00    -0.001 C  
HETATM   18  C   UNL     1     -12.574  10.858  67.010  1.00  0.00     4.509 C  
HETATM   19  O   UNL     1     -13.879  12.004  68.611  1.00  0.00     5.847 OA 
HETATM   20  C   UNL     1     -12.679  13.254  66.992  1.00  0.00     0.708 C  
HETATM   21  C   UNL     1     -13.072  12.034  67.704  1.00  0.00     4.709 C  
BRANCH   4  22
HETATM   22  O   UNL     1      -5.754   8.682  69.115  1.00  0.00    -0.037 OA 
HETATM   23  C   UNL     1      -5.667   7.257  69.309  1.00  0.00    -0.019 C  
ENDBRANCH   4  22
BRANCH   6  24
HETATM   24  O   UNL     1      -6.883   9.901  66.714  1.00  0.00    -0.081 OA 
HETATM   25  C   UNL     1      -7.640   9.317  65.616  1.00  0.00    -0.094 C  
ENDBRANCH   6  24
BRANCH  15  26
HETATM   26  N   UNL     1     -11.909   8.826  65.119  1.00  0.00     8.990 N  
HETATM   27  H   UNL     1     -12.844   8.512  65.378  1.00  0.00     0.000 HD 
HETATM   28  C   UNL     1     -11.558   8.854  63.785  1.00  0.00    14.839 C  
HETATM   29  O   UNL     1     -10.612   9.470  63.323  1.00  0.00     2.818 OA 
HETATM   30  C   UNL     1     -12.477   8.026  62.925  1.00  0.00    22.537 C  
ENDBRANCH  15  26
ENDBRANCH   2   3
TORSDOF 4
ENDMDL
MODEL      147
REMARK 921   NORMALIZED FREE ENERGY PREDICTED BY IDOCK:   73.02 KCAL/MOL
REMARK 922        TOTAL FREE ENERGY PREDICTED BY IDOCK:   89.35 KCAL/MOL
REMARK 923 INTER-LIGAND FREE ENERGY PREDICTED BY IDOCK:   86.49 KCAL/MOL
REMARK 924 INTRA-LIGAND FREE ENERGY PREDICTED BY IDOCK:    2.86 KCAL/MOL
REMARK 927      BINDING AFFINITY PREDICTED BY RF-SCORE:    0.00 PKD
ROOT
HETATM    1  C   UNL     1     -11.941   5.647  69.106  1.00  0.00     3.103 C  
HETATM    2  O   UNL     1     -10.657   6.063  68.658  1.00  0.00    -0.209 OA 
ENDROOT
BRANCH   2   3
HETATM    3  C   UNL     1     -10.331   7.380  68.846  1.00  0.00    -0.206 C  
HETATM    4  C   UNL     1     -10.601   8.346  67.869  1.00  0.00    -0.154 C  
HETATM    5  C   UNL     1      -8.445  11.146  70.075  1.00  0.00     1.478 C  
HETATM    6  C   UNL     1     -10.056   9.722  68.053  1.00  0.00    -0.171 C  
HETATM    7  C   UNL     1      -7.088  11.290  69.962  1.00  0.00     0.307 C  
HETATM    8  H   UNL     1      -4.920  13.635  72.440  1.00  0.00     0.000 HD 
HETATM    9  C   UNL     1      -9.313  10.038  69.262  1.00  0.00    -0.224 C  
HETATM   10  O   UNL     1      -5.570  13.132  72.916  1.00  0.00    -0.292 OA 
HETATM   11  C   UNL     1      -9.849   9.222  70.256  1.00  0.00    -0.265 C  
HETATM   12  C   UNL     1     -11.293   9.754  70.647  1.00  0.00    -0.401 C  
HETATM   13  C   UNL     1      -9.864   7.841  70.057  1.00  0.00    -0.181 C  
HETATM   14  C   UNL     1     -11.204  10.755  71.763  1.00  0.00     2.292 C  
HETATM   15  C   UNL     1     -10.536  12.034  71.214  1.00  0.00     6.064 C  
HETATM   16  C   UNL     1      -6.150  12.016  70.865  1.00  0.00     0.475 C  
HETATM   17  C   UNL     1      -9.069  11.747  71.330  1.00  0.00    12.420 C  
HETATM   18  C   UNL     1      -8.557  11.755  72.585  1.00  0.00    21.801 C  
HETATM   19  O   UNL     1      -6.963  10.619  73.908  1.00  0.00     3.033 OA 
HETATM   20  C   UNL     1      -6.213  12.117  72.229  1.00  0.00     3.380 C  
HETATM   21  C   UNL     1      -7.216  11.340  72.964  1.00  0.00    10.188 C  
BRANCH   4  22
HETATM   22  O   UNL     1     -11.411   8.043  66.775  1.00  0.00     1.085 OA 
HETATM   23  C   UNL     1     -12.384   6.986  66.885  1.00  0.00     5.762 C  
ENDBRANCH   4  22
BRANCH   6  24
HETATM   24  O   UNL     1     -10.450  10.765  67.216  1.00  0.00    -0.211 OA 
HETATM   25  C   UNL     1     -10.406  12.101  67.793  1.00  0.00    -0.206 C  
ENDBRANCH   6  24
BRANCH  15  26
HETATM   26  N   UNL     1     -10.959  13.180  71.998  1.00  0.00     4.968 N  
HETATM   27  H   UNL     1     -10.700  14.116  71.684  1.00  0.00     0.000 HD 
HETATM   28  C   UNL     1     -11.698  13.043  73.154  1.00  0.00     5.738 C  
HETATM   29  O   UNL     1     -12.314  12.041  73.477  1.00  0.00     5.616 OA 
HETATM   30  C   UNL     1     -11.672  14.283  74.011  1.00  0.00     1.301 C  
ENDBRANCH  15  26
ENDBRANCH   2   3
TORSDOF 4
ENDMDL
MODEL      148
REMARK 921   NORMALIZED FREE ENERGY PREDICTED BY IDOCK:   74.18 KCAL/MOL
REMARK 922        TOTAL FREE ENERGY PREDICTED BY IDOCK:   90.79 KCAL/MOL
REMARK 923 INTER-LIGAND FREE ENERGY PREDICTED BY IDOCK:   90.77 KCAL/MOL
REMARK 924 INTRA-LIGAND FREE ENERGY PREDICTED BY IDOCK:    0.02 KCAL/MOL
REMARK 927      BINDING AFFINITY PREDICTED BY RF-SCORE:    0.00 PKD
ROOT
HETATM    1  C   UNL     1      -6.192  10.216  63.622  1.00  0.00    -0.138 C  
HETATM    2  O   UNL     1      -7.601  10.283  63.804  1.00  0.00    -0.146 OA 
ENDROOT
BRANCH   2   3
HETATM    3  C   UNL     1      -8.134  11.517  64.066  1.00  0.00     1.313 C  
HETATM    4  C   UNL     1      -9.508  11.690  64.274  1.00  0.00    -0.024 C  
HETATM    5  C   UNL     1      -8.967  15.821  64.256  1.00  0.00     7.374 C  
HETATM    6  C   UNL     1     -10.049  13.077  64.367  1.00  0.00    -0.221 C  
HETATM    7  C   UNL     1      -8.964  16.561  63.104  1.00  0.00    19.758 C  
HETATM    8  H   UNL     1      -7.945  20.472  63.016  1.00  0.00     0.000 HD 
HETATM    9  C   UNL     1      -9.134  14.205  64.299  1.00  0.00     4.615 C  
HETATM   10  O   UNL     1      -7.358  19.972  63.571  1.00  0.00     1.407 OA 
HETATM   11  C   UNL     1      -7.934  13.748  64.840  1.00  0.00     8.232 C  
HETATM   12  C   UNL     1      -8.095  13.591  66.412  1.00  0.00     0.959 C  
HETATM   13  C   UNL     1      -7.334  12.616  64.285  1.00  0.00     8.572 C  
HETATM   14  C   UNL     1      -7.721  14.866  67.111  1.00  0.00    -0.177 C  
HETATM   15  C   UNL     1      -8.794  15.928  66.790  1.00  0.00    -0.262 C  
HETATM   16  C   UNL     1      -8.502  17.963  62.900  1.00  0.00    24.609 C  
HETATM   17  C   UNL     1      -8.349  16.497  65.476  1.00  0.00     1.184 C  
HETATM   18  C   UNL     1      -7.255  17.297  65.511  1.00  0.00     0.835 C  
HETATM   19  O   UNL     1      -5.331  17.808  64.239  1.00  0.00     0.433 OA 
HETATM   20  C   UNL     1      -7.444  18.591  63.502  1.00  0.00     9.797 C  
HETATM   21  C   UNL     1      -6.539  17.819  64.359  1.00  0.00     3.505 C  
BRANCH   4  22
HETATM   22  O   UNL     1     -10.345  10.589  64.449  1.00  0.00    -0.341 OA 
HETATM   23  C   UNL     1      -9.821   9.390  65.054  1.00  0.00     0.194 C  
ENDBRANCH   4  22
BRANCH   6  24
HETATM   24  O   UNL     1     -11.366  13.306  64.762  1.00  0.00    -0.307 OA 
HETATM   25  C   UNL     1     -12.221  13.970  63.789  1.00  0.00    -0.205 C  
ENDBRANCH   6  24
BRANCH  15  26
HETATM   26  N   UNL     1      -8.840  16.914  67.854  1.00  0.00    -0.214 N  
HETATM   27  H   UNL     1      -7.966  17.322  68.187  1.00  0.00     0.000 HD 
HETATM   28  C   UNL     1     -10.027  17.315  68.429  1.00  0.00    -0.322 C  
HETATM   29  O   UNL     1     -11.134  17.142  67.944  1.00  0.00    -0.288 OA 
HETATM   30  C   UNL     1      -9.828  18.006  69.753  1.00  0.00     0.626 C  
ENDBRANCH  15  26
ENDBRANCH   2   3
TORSDOF 4
ENDMDL
MODEL      149
REMARK 921   NORMALIZED FREE ENERGY PREDICTED BY IDOCK:   77.44 KCAL/MOL
REMARK 922        TOTAL FREE ENERGY PREDICTED BY IDOCK:   94.81 KCAL/MOL
REMARK 923 INTER-LIGAND FREE ENERGY PREDICTED BY IDOCK:   93.51 KCAL/MOL
REMARK 924 INTRA-LIGAND FREE ENERGY PREDICTED BY IDOCK:    1.30 KCAL/MOL
REMARK 927      BINDING AFFINITY PREDICTED BY RF-SCORE:    0.00 PKD
ROOT
HETATM    1  C   UNL     1     -11.282  12.131  74.145  1.00  0.00    17.938 C  
HETATM    2  O   UNL     1     -11.318  13.025  73.040  1.00  0.00     5.288 OA 
ENDROOT
BRANCH   2   3
HETATM    3  C   UNL     1     -10.663  12.632  71.903  1.00  0.00     8.819 C  
HETATM    4  C   UNL     1      -9.278  12.425  71.892  1.00  0.00    19.734 C  
HETATM    5  C   UNL     1      -9.405  11.964  67.753  1.00  0.00    -0.184 C  
HETATM    6  C   UNL     1      -8.601  12.182  70.585  1.00  0.00     7.113 C  
HETATM    7  C   UNL     1      -9.338  13.024  66.889  1.00  0.00    -0.241 C  
HETATM    8  H   UNL     1      -9.961  12.651  62.912  1.00  0.00     0.000 HD 
HETATM    9  C   UNL     1      -9.400  12.109  69.372  1.00  0.00     1.025 C  
HETATM   10  O   UNL     1     -10.593  12.148  63.412  1.00  0.00    -0.436 OA 
HETATM   11  C   UNL     1     -10.638  11.606  69.767  1.00  0.00     0.373 C  
HETATM   12  C   UNL     1     -10.488  10.065  70.118  1.00  0.00    -0.338 C  
HETATM   13  C   UNL     1     -11.350  12.278  70.763  1.00  0.00     1.308 C  
HETATM   14  C   UNL     1     -10.732   9.220  68.902  1.00  0.00    -0.182 C  
HETATM   15  C   UNL     1      -9.559   9.433  67.921  1.00  0.00    -0.134 C  
HETATM   16  C   UNL     1      -9.658  13.061  65.433  1.00  0.00     0.079 C  
HETATM   17  C   UNL     1      -9.948  10.667  67.164  1.00  0.00    -0.234 C  
HETATM   18  C   UNL     1     -10.957  10.525  66.269  1.00  0.00     0.031 C  
HETATM   19  O   UNL     1     -12.824  11.702  65.428  1.00  0.00     0.933 OA 
HETATM   20  C   UNL     1     -10.646  12.376  64.777  1.00  0.00    -0.300 C  
HETATM   21  C   UNL     1     -11.620  11.599  65.550  1.00  0.00    -0.016 C  
BRANCH   4  22
HETATM   22  O   UNL     1      -8.556  12.389  73.083  1.00  0.00    19.167 OA 
HETATM   23  C   UNL     1      -7.305  11.675  73.131  1.00  0.00    13.158 C  
ENDBRANCH   4  22
BRANCH   6  24
HETATM   24  O   UNL     1      -7.267  11.783  70.534  1.00  0.00     0.935 OA 
HETATM   25  C   UNL     1      -6.277  12.850  70.573  1.00  0.00     0.164 C  
ENDBRANCH   6  24
BRANCH  15  26
HETATM   26  N   UNL     1      -9.412   8.264  67.073  1.00  0.00    -0.164 N  
HETATM   27  H   UNL     1     -10.156   7.566  67.061  1.00  0.00     0.000 HD 
HETATM   28  C   UNL     1      -8.297   8.068  66.285  1.00  0.00    -0.121 C  
HETATM   29  O   UNL     1      -7.494   8.934  65.980  1.00  0.00    -0.088 OA 
HETATM   30  C   UNL     1      -8.156   6.641  65.822  1.00  0.00    -0.122 C  
ENDBRANCH  15  26
ENDBRANCH   2   3
TORSDOF 4
ENDMDL
