MODEL        1
REMARK 921   NORMALIZED FREE ENERGY PREDICTED BY IDOCK:   -6.69 KCAL/MOL
REMARK 922        TOTAL FREE ENERGY PREDICTED BY IDOCK:   -9.33 KCAL/MOL
REMARK 923 INTER-LIGAND FREE ENERGY PREDICTED BY IDOCK:   -8.64 KCAL/MOL
REMARK 924 INTRA-LIGAND FREE ENERGY PREDICTED BY IDOCK:   -0.69 KCAL/MOL
REMARK 927      BINDING AFFINITY PREDICTED BY RF-SCORE:    0.00 PKD
ROOT
HETATM    1  C   UNL     1     -13.838  15.722  72.589  1.00  0.00    -0.518 C  
HETATM    2  O   UNL     1     -13.659  15.605  71.175  1.00  0.00    -0.582 OA 
ENDROOT
BRANCH   2   3
HETATM    3  C   UNL     1     -12.997  14.487  70.734  1.00  0.00    -0.343 A  
HETATM    4  C   UNL     1     -13.128  13.289  71.405  1.00  0.00    -0.361 A  
HETATM    5  C   UNL     1     -12.504  12.090  70.989  1.00  0.00    -0.376 A  
HETATM    6  C   UNL     1     -11.677  12.060  69.844  1.00  0.00    -0.374 A  
HETATM    7  C   UNL     1     -11.445  13.346  69.216  1.00  0.00    -0.290 A  
HETATM    8  C   UNL     1     -11.133  10.737  69.233  1.00  0.00    -0.312 C  
HETATM    9  C   UNL     1     -12.113  14.553  69.652  1.00  0.00    -0.323 A  
HETATM   10  C   UNL     1     -11.277  10.657  67.883  1.00  0.00    -0.376 C  
HETATM   11  C   UNL     1     -12.745   9.609  71.352  1.00  0.00    -0.466 C  
HETATM   12  C   UNL     1     -12.818  10.979  71.948  1.00  0.00    -0.412 C  
HETATM   13  C   UNL     1     -11.267   9.222  71.353  1.00  0.00    -0.362 C  
HETATM   14  C   UNL     1     -10.785   9.530  67.093  1.00  0.00    -0.252 C  
HETATM   15  C   UNL     1     -10.631   9.496  69.991  1.00  0.00    -0.280 C  
HETATM   16  C   UNL     1      -9.446   9.367  67.111  1.00  0.00    -0.145 C  
HETATM   17  C   UNL     1      -8.982   8.506  68.234  1.00  0.00    -0.139 C  
HETATM   18  O   UNL     1      -8.051   7.714  68.107  1.00  0.00    -0.121 OA 
HETATM   19  C   UNL     1      -9.696   8.617  69.547  1.00  0.00    -0.179 C  
BRANCH   7  20
HETATM   20  O   UNL     1     -10.494  13.347  68.202  1.00  0.00    -0.231 OA 
HETATM   21  C   UNL     1      -9.131  13.563  68.564  1.00  0.00    -0.092 C  
ENDBRANCH   7  20
BRANCH   9  22
HETATM   22  O   UNL     1     -11.765  15.729  69.045  1.00  0.00    -0.379 OA 
HETATM   23  C   UNL     1     -10.805  16.557  69.693  1.00  0.00    -0.322 C  
ENDBRANCH   9  22
BRANCH  16  24
HETATM   24  O   UNL     1      -8.488  10.184  66.555  1.00  0.00    -0.125 OA 
HETATM   25  C   UNL     1      -8.745  10.654  65.240  1.00  0.00    -0.187 C  
ENDBRANCH  16  24
BRANCH  13  26
HETATM   26  N   UNL     1     -11.201   7.848  71.870  1.00  0.00    -0.258 N  
HETATM   27  C   UNL     1     -10.333   7.637  72.940  1.00  0.00    -0.322 C  
HETATM   28  H   UNL     1     -11.758   7.093  71.469  1.00  0.00     0.000 HD 
HETATM   29  O   UNL     1      -9.478   8.456  73.274  1.00  0.00    -0.199 OA 
HETATM   30  C   UNL     1     -10.520   6.375  73.737  1.00  0.00    -0.319 C  
ENDBRANCH  13  26
ENDBRANCH   2   3
TORSDOF 5
ENDMDL
MODEL        2
REMARK 921   NORMALIZED FREE ENERGY PREDICTED BY IDOCK:   -6.44 KCAL/MOL
REMARK 922        TOTAL FREE ENERGY PREDICTED BY IDOCK:   -9.00 KCAL/MOL
REMARK 923 INTER-LIGAND FREE ENERGY PREDICTED BY IDOCK:   -8.32 KCAL/MOL
REMARK 924 INTRA-LIGAND FREE ENERGY PREDICTED BY IDOCK:   -0.68 KCAL/MOL
REMARK 927      BINDING AFFINITY PREDICTED BY RF-SCORE:    0.00 PKD
ROOT
HETATM    1  C   UNL     1     -13.581   8.980  72.551  1.00  0.00    -0.435 C  
HETATM    2  O   UNL     1     -12.205   8.649  72.349  1.00  0.00    -0.374 OA 
ENDROOT
BRANCH   2   3
HETATM    3  C   UNL     1     -11.699   8.877  71.093  1.00  0.00    -0.298 A  
HETATM    4  C   UNL     1     -11.804  10.126  70.517  1.00  0.00    -0.408 A  
HETATM    5  C   UNL     1     -11.276  10.443  69.244  1.00  0.00    -0.304 A  
HETATM    6  C   UNL     1     -10.613   9.467  68.468  1.00  0.00    -0.247 A  
HETATM    7  C   UNL     1     -10.614   8.129  69.025  1.00  0.00    -0.151 A  
HETATM    8  C   UNL     1      -9.845   9.811  67.160  1.00  0.00    -0.238 C  
HETATM    9  C   UNL     1     -11.144   7.838  70.340  1.00  0.00    -0.251 A  
HETATM   10  C   UNL     1      -8.609   9.247  67.083  1.00  0.00    -0.130 C  
HETATM   11  C   UNL     1     -10.631  12.488  67.921  1.00  0.00    -0.233 C  
HETATM   12  C   UNL     1     -11.587  11.869  68.892  1.00  0.00    -0.370 C  
HETATM   13  C   UNL     1     -11.075  12.026  66.533  1.00  0.00    -0.314 C  
HETATM   14  C   UNL     1      -7.737   9.388  65.920  1.00  0.00    -0.099 C  
HETATM   15  C   UNL     1     -10.256  10.820  66.073  1.00  0.00    -0.310 C  
HETATM   16  C   UNL     1      -8.218   8.847  64.782  1.00  0.00    -0.163 C  
HETATM   17  C   UNL     1      -9.059   9.796  63.999  1.00  0.00    -0.237 C  
HETATM   18  O   UNL     1      -9.040   9.823  62.771  1.00  0.00    -0.257 OA 
HETATM   19  C   UNL     1      -9.938  10.745  64.756  1.00  0.00    -0.382 C  
BRANCH   7  20
HETATM   20  O   UNL     1     -10.121   7.137  68.186  1.00  0.00    -0.157 OA 
HETATM   21  C   UNL     1     -11.030   6.520  67.274  1.00  0.00    -0.400 C  
ENDBRANCH   7  20
BRANCH   9  22
HETATM   22  O   UNL     1     -11.171   6.530  70.741  1.00  0.00    -0.280 OA 
HETATM   23  C   UNL     1     -10.059   6.034  71.480  1.00  0.00    -0.192 C  
ENDBRANCH   9  22
BRANCH  16  24
HETATM   24  O   UNL     1      -8.402   7.514  64.492  1.00  0.00    -0.079 OA 
HETATM   25  C   UNL     1      -7.324   6.855  63.845  1.00  0.00    -0.080 C  
ENDBRANCH  16  24
BRANCH  13  26
HETATM   26  N   UNL     1     -11.064  13.221  65.678  1.00  0.00    -0.281 N  
HETATM   27  C   UNL     1     -12.213  13.441  64.919  1.00  0.00    -0.408 C  
HETATM   28  H   UNL     1     -10.264  13.852  65.642  1.00  0.00     0.000 HD 
HETATM   29  O   UNL     1     -13.076  12.580  64.754  1.00  0.00    -0.853 OA 
HETATM   30  C   UNL     1     -12.404  14.820  64.349  1.00  0.00    -0.389 C  
ENDBRANCH  13  26
ENDBRANCH   2   3
TORSDOF 5
ENDMDL
MODEL        3
REMARK 921   NORMALIZED FREE ENERGY PREDICTED BY IDOCK:   -6.41 KCAL/MOL
REMARK 922        TOTAL FREE ENERGY PREDICTED BY IDOCK:   -8.97 KCAL/MOL
REMARK 923 INTER-LIGAND FREE ENERGY PREDICTED BY IDOCK:   -8.34 KCAL/MOL
REMARK 924 INTRA-LIGAND FREE ENERGY PREDICTED BY IDOCK:   -0.64 KCAL/MOL
REMARK 927      BINDING AFFINITY PREDICTED BY RF-SCORE:    0.00 PKD
ROOT
HETATM    1  C   UNL     1     -13.350   9.548  71.833  1.00  0.00    -0.437 C  
HETATM    2  O   UNL     1     -13.454  10.968  71.968  1.00  0.00    -0.378 OA 
ENDROOT
BRANCH   2   3
HETATM    3  C   UNL     1     -12.749  11.722  71.062  1.00  0.00    -0.275 A  
HETATM    4  C   UNL     1     -11.783  11.135  70.270  1.00  0.00    -0.431 A  
HETATM    5  C   UNL     1     -11.043  11.841  69.294  1.00  0.00    -0.278 A  
HETATM    6  C   UNL     1     -11.246  13.223  69.086  1.00  0.00    -0.305 A  
HETATM    7  C   UNL     1     -12.173  13.857  70.003  1.00  0.00    -0.344 A  
HETATM    8  C   UNL     1     -10.608  13.998  67.898  1.00  0.00    -0.246 C  
HETATM    9  C   UNL     1     -12.931  13.106  70.980  1.00  0.00    -0.133 A  
HETATM   10  C   UNL     1     -11.481  14.804  67.235  1.00  0.00    -0.378 C  
HETATM   11  C   UNL     1      -9.656  11.345  67.250  1.00  0.00    -0.187 C  
HETATM   12  C   UNL     1     -10.053  10.928  68.631  1.00  0.00    -0.200 C  
HETATM   13  C   UNL     1      -8.584  12.421  67.421  1.00  0.00    -0.181 C  
HETATM   14  C   UNL     1     -11.085  15.667  66.124  1.00  0.00    -0.127 C  
HETATM   15  C   UNL     1      -9.194  13.819  67.318  1.00  0.00    -0.239 C  
HETATM   16  C   UNL     1     -10.203  16.635  66.445  1.00  0.00    -0.315 C  
HETATM   17  C   UNL     1      -8.786  16.192  66.324  1.00  0.00    -0.337 C  
HETATM   18  O   UNL     1      -7.901  16.939  65.914  1.00  0.00    -0.391 OA 
HETATM   19  C   UNL     1      -8.456  14.781  66.707  1.00  0.00    -0.179 C  
BRANCH   7  20
HETATM   20  O   UNL     1     -12.239  15.242  69.915  1.00  0.00    -0.329 OA 
HETATM   21  C   UNL     1     -11.278  16.005  70.645  1.00  0.00    -0.372 C  
ENDBRANCH   7  20
BRANCH   9  22
HETATM   22  O   UNL     1     -13.718  13.807  71.852  1.00  0.00    -0.395 OA 
HETATM   23  C   UNL     1     -13.127  14.271  73.062  1.00  0.00    -0.424 C  
ENDBRANCH   9  22
BRANCH  16  24
HETATM   24  O   UNL     1     -10.412  17.740  67.239  1.00  0.00    -0.356 OA 
HETATM   25  C   UNL     1     -10.636  18.969  66.563  1.00  0.00    -0.410 C  
ENDBRANCH  16  24
BRANCH  13  26
HETATM   26  N   UNL     1      -7.505  12.079  66.483  1.00  0.00    -0.369 N  
HETATM   27  C   UNL     1      -6.299  11.681  67.057  1.00  0.00    -0.149 C  
HETATM   28  H   UNL     1      -7.632  12.130  65.473  1.00  0.00     0.000 HD 
HETATM   29  O   UNL     1      -6.042  11.848  68.249  1.00  0.00    -0.049 OA 
HETATM   30  C   UNL     1      -5.321  10.962  66.169  1.00  0.00    -0.121 C  
ENDBRANCH  13  26
ENDBRANCH   2   3
TORSDOF 5
ENDMDL
MODEL        4
REMARK 921   NORMALIZED FREE ENERGY PREDICTED BY IDOCK:   -6.39 KCAL/MOL
REMARK 922        TOTAL FREE ENERGY PREDICTED BY IDOCK:   -8.94 KCAL/MOL
REMARK 923 INTER-LIGAND FREE ENERGY PREDICTED BY IDOCK:   -8.75 KCAL/MOL
REMARK 924 INTRA-LIGAND FREE ENERGY PREDICTED BY IDOCK:   -0.19 KCAL/MOL
REMARK 927      BINDING AFFINITY PREDICTED BY RF-SCORE:    0.00 PKD
ROOT
HETATM    1  C   UNL     1     -11.445  12.505  63.524  1.00  0.00    -0.496 C  
HETATM    2  O   UNL     1     -10.604  12.747  64.656  1.00  0.00    -0.312 OA 
ENDROOT
BRANCH   2   3
HETATM    3  C   UNL     1     -10.706  11.857  65.695  1.00  0.00    -0.280 A  
HETATM    4  C   UNL     1     -10.138  10.603  65.598  1.00  0.00    -0.335 A  
HETATM    5  C   UNL     1     -10.175   9.649  66.640  1.00  0.00    -0.302 A  
HETATM    6  C   UNL     1     -10.827   9.929  67.861  1.00  0.00    -0.312 A  
HETATM    7  C   UNL     1     -11.526  11.198  67.911  1.00  0.00    -0.284 A  
HETATM    8  C   UNL     1     -10.724   8.999  69.103  1.00  0.00    -0.176 C  
HETATM    9  C   UNL     1     -11.454  12.164  66.836  1.00  0.00    -0.351 A  
HETATM   10  C   UNL     1     -10.461   9.658  70.264  1.00  0.00    -0.338 C  
HETATM   11  C   UNL     1      -8.951   7.557  67.332  1.00  0.00    -0.129 C  
HETATM   12  C   UNL     1      -9.499   8.379  66.208  1.00  0.00    -0.292 C  
HETATM   13  C   UNL     1     -10.131   6.764  67.893  1.00  0.00    -0.159 C  
HETATM   14  C   UNL     1     -10.380   8.992  71.561  1.00  0.00    -0.412 C  
HETATM   15  C   UNL     1     -10.719   7.460  69.120  1.00  0.00    -0.180 C  
HETATM   16  C   UNL     1     -11.527   8.416  71.975  1.00  0.00    -0.349 C  
HETATM   17  C   UNL     1     -11.673   7.010  71.502  1.00  0.00    -0.300 C  
HETATM   18  O   UNL     1     -12.178   6.136  72.202  1.00  0.00    -0.319 OA 
HETATM   19  C   UNL     1     -11.168   6.674  70.132  1.00  0.00    -0.416 C  
BRANCH   7  20
HETATM   20  O   UNL     1     -12.312  11.397  69.039  1.00  0.00    -0.407 OA 
HETATM   21  C   UNL     1     -11.927  12.426  69.950  1.00  0.00    -0.299 C  
ENDBRANCH   7  20
BRANCH   9  22
HETATM   22  O   UNL     1     -12.214  13.297  66.946  1.00  0.00    -0.350 OA 
HETATM   23  C   UNL     1     -11.544  14.533  67.171  1.00  0.00    -0.388 C  
ENDBRANCH   9  22
BRANCH  16  24
HETATM   24  O   UNL     1     -12.693   9.036  72.358  1.00  0.00    -0.392 OA 
HETATM   25  C   UNL     1     -13.787   8.933  71.459  1.00  0.00    -0.336 C  
ENDBRANCH  16  24
BRANCH  13  26
HETATM   26  N   UNL     1      -9.657   5.383  68.058  1.00  0.00    -0.122 N  
HETATM   27  C   UNL     1      -9.897   4.522  66.988  1.00  0.00    -0.202 C  
HETATM   28  H   UNL     1      -9.180   5.072  68.905  1.00  0.00     0.000 HD 
HETATM   29  O   UNL     1     -10.676   4.796  66.076  1.00  0.00    -0.319 OA 
HETATM   30  C   UNL     1      -9.104   3.244  66.945  1.00  0.00    -0.191 C  
ENDBRANCH  13  26
ENDBRANCH   2   3
TORSDOF 5
ENDMDL
MODEL        5
REMARK 921   NORMALIZED FREE ENERGY PREDICTED BY IDOCK:   -6.19 KCAL/MOL
REMARK 922        TOTAL FREE ENERGY PREDICTED BY IDOCK:   -8.68 KCAL/MOL
REMARK 923 INTER-LIGAND FREE ENERGY PREDICTED BY IDOCK:   -8.29 KCAL/MOL
REMARK 924 INTRA-LIGAND FREE ENERGY PREDICTED BY IDOCK:   -0.39 KCAL/MOL
REMARK 927      BINDING AFFINITY PREDICTED BY RF-SCORE:    0.00 PKD
ROOT
HETATM    1  C   UNL     1     -13.275  15.964  73.266  1.00  0.00    -0.595 C  
HETATM    2  O   UNL     1     -12.740  16.268  71.976  1.00  0.00    -0.348 OA 
ENDROOT
BRANCH   2   3
HETATM    3  C   UNL     1     -12.313  15.202  71.224  1.00  0.00    -0.336 A  
HETATM    4  C   UNL     1     -12.676  13.916  71.569  1.00  0.00    -0.440 A  
HETATM    5  C   UNL     1     -12.302  12.775  70.823  1.00  0.00    -0.375 A  
HETATM    6  C   UNL     1     -11.503  12.893  69.664  1.00  0.00    -0.251 A  
HETATM    7  C   UNL     1     -11.025  14.231  69.377  1.00  0.00    -0.209 A  
HETATM    8  C   UNL     1     -11.235  11.700  68.703  1.00  0.00    -0.308 C  
HETATM    9  C   UNL     1     -11.440  15.383  70.147  1.00  0.00    -0.317 A  
HETATM   10  C   UNL     1     -11.398  12.008  67.387  1.00  0.00    -0.393 C  
HETATM   11  C   UNL     1     -13.027  10.378  70.546  1.00  0.00    -0.280 C  
HETATM   12  C   UNL     1     -12.825  11.530  71.480  1.00  0.00    -0.485 C  
HETATM   13  C   UNL     1     -11.654   9.732  70.364  1.00  0.00    -0.258 C  
HETATM   14  C   UNL     1     -11.142  11.058  66.307  1.00  0.00    -0.106 C  
HETATM   15  C   UNL     1     -10.984  10.231  69.084  1.00  0.00    -0.280 C  
HETATM   16  C   UNL     1      -9.862  10.646  66.205  1.00  0.00    -0.214 C  
HETATM   17  C   UNL     1      -9.571   9.447  67.040  1.00  0.00    -0.158 C  
HETATM   18  O   UNL     1      -8.815   8.555  66.661  1.00  0.00    -0.125 OA 
HETATM   19  C   UNL     1     -10.243   9.341  68.376  1.00  0.00    -0.231 C  
BRANCH   7  20
HETATM   20  O   UNL     1     -10.098  14.320  68.345  1.00  0.00    -0.230 OA 
HETATM   21  C   UNL     1      -8.715  14.379  68.692  1.00  0.00    -0.164 C  
ENDBRANCH   7  20
BRANCH   9  22
HETATM   22  O   UNL     1     -10.869  16.590  69.845  1.00  0.00    -0.344 OA 
HETATM   23  C   UNL     1     -11.111  17.141  68.555  1.00  0.00    -0.092 C  
ENDBRANCH   9  22
BRANCH  16  24
HETATM   24  O   UNL     1      -8.765  11.384  65.826  1.00  0.00    -0.162 OA 
HETATM   25  C   UNL     1      -7.738  11.533  66.796  1.00  0.00    -0.136 C  
ENDBRANCH  16  24
BRANCH  13  26
HETATM   26  N   UNL     1     -11.858   8.283  70.503  1.00  0.00    -0.480 N  
HETATM   27  C   UNL     1     -11.489   7.728  71.728  1.00  0.00    -0.266 C  
HETATM   28  H   UNL     1     -12.248   7.718  69.749  1.00  0.00     0.000 HD 
HETATM   29  O   UNL     1     -10.797   8.330  72.549  1.00  0.00    -0.333 OA 
HETATM   30  C   UNL     1     -12.030   6.364  72.053  1.00  0.00    -0.375 C  
ENDBRANCH  13  26
ENDBRANCH   2   3
TORSDOF 5
ENDMDL
MODEL        6
REMARK 921   NORMALIZED FREE ENERGY PREDICTED BY IDOCK:   -6.15 KCAL/MOL
REMARK 922        TOTAL FREE ENERGY PREDICTED BY IDOCK:   -8.63 KCAL/MOL
REMARK 923 INTER-LIGAND FREE ENERGY PREDICTED BY IDOCK:   -8.41 KCAL/MOL
REMARK 924 INTRA-LIGAND FREE ENERGY PREDICTED BY IDOCK:   -0.22 KCAL/MOL
REMARK 927      BINDING AFFINITY PREDICTED BY RF-SCORE:    0.00 PKD
ROOT
HETATM    1  C   UNL     1      -9.257  11.186  62.742  1.00  0.00    -0.348 C  
HETATM    2  O   UNL     1      -9.568  11.935  63.920  1.00  0.00    -0.191 OA 
ENDROOT
BRANCH   2   3
HETATM    3  C   UNL     1      -9.891  11.209  65.039  1.00  0.00    -0.266 A  
HETATM    4  C   UNL     1      -9.366   9.947  65.227  1.00  0.00    -0.309 A  
HETATM    5  C   UNL     1      -9.627   9.157  66.369  1.00  0.00    -0.309 A  
HETATM    6  C   UNL     1     -10.477   9.622  67.397  1.00  0.00    -0.319 A  
HETATM    7  C   UNL     1     -11.121  10.895  67.137  1.00  0.00    -0.240 A  
HETATM    8  C   UNL     1     -10.636   8.884  68.756  1.00  0.00    -0.185 C  
HETATM    9  C   UNL     1     -10.819  11.691  65.968  1.00  0.00    -0.289 A  
HETATM   10  C   UNL     1     -10.559   9.703  69.840  1.00  0.00    -0.281 C  
HETATM   11  C   UNL     1      -8.633   7.173  67.564  1.00  0.00    -0.122 C  
HETATM   12  C   UNL     1      -8.937   7.829  66.253  1.00  0.00    -0.209 C  
HETATM   13  C   UNL     1      -9.926   6.488  68.006  1.00  0.00    -0.134 C  
HETATM   14  C   UNL     1     -10.739   9.234  71.212  1.00  0.00    -0.422 C  
HETATM   15  C   UNL     1     -10.697   7.365  68.992  1.00  0.00    -0.164 C  
HETATM   16  C   UNL     1     -11.964   8.741  71.485  1.00  0.00    -0.324 C  
HETATM   17  C   UNL     1     -12.079   7.283  71.199  1.00  0.00    -0.340 C  
HETATM   18  O   UNL     1     -12.737   6.528  71.911  1.00  0.00    -0.325 OA 
HETATM   19  C   UNL     1     -11.351   6.742  70.006  1.00  0.00    -0.396 C  
BRANCH   7  20
HETATM   20  O   UNL     1     -12.089  11.268  68.062  1.00  0.00    -0.638 OA 
HETATM   21  C   UNL     1     -11.884  12.478  68.792  1.00  0.00    -0.303 C  
ENDBRANCH   7  20
BRANCH   9  22
HETATM   22  O   UNL     1     -11.540  12.838  65.774  1.00  0.00    -0.336 OA 
HETATM   23  C   UNL     1     -12.657  12.785  64.893  1.00  0.00    -0.470 C  
ENDBRANCH   9  22
BRANCH  16  24
HETATM   24  O   UNL     1     -13.155   9.426  71.556  1.00  0.00    -0.343 OA 
HETATM   25  C   UNL     1     -13.070  10.804  71.892  1.00  0.00    -0.451 C  
ENDBRANCH  16  24
BRANCH  13  26
HETATM   26  N   UNL     1      -9.545   5.139  68.450  1.00  0.00    -0.132 N  
HETATM   27  C   UNL     1      -9.567   4.145  67.473  1.00  0.00    -0.171 C  
HETATM   28  H   UNL     1      -9.280   4.942  69.415  1.00  0.00     0.000 HD 
HETATM   29  O   UNL     1     -10.113   4.297  66.381  1.00  0.00    -0.227 OA 
HETATM   30  C   UNL     1      -8.826   2.871  67.774  1.00  0.00    -0.164 C  
ENDBRANCH  13  26
ENDBRANCH   2   3
TORSDOF 5
ENDMDL
MODEL        7
REMARK 921   NORMALIZED FREE ENERGY PREDICTED BY IDOCK:   -6.03 KCAL/MOL
REMARK 922        TOTAL FREE ENERGY PREDICTED BY IDOCK:   -8.48 KCAL/MOL
REMARK 923 INTER-LIGAND FREE ENERGY PREDICTED BY IDOCK:   -8.26 KCAL/MOL
REMARK 924 INTRA-LIGAND FREE ENERGY PREDICTED BY IDOCK:   -0.22 KCAL/MOL
REMARK 927      BINDING AFFINITY PREDICTED BY RF-SCORE:    0.00 PKD
ROOT
HETATM    1  C   UNL     1     -11.411  16.066  71.079  1.00  0.00    -0.417 C  
HETATM    2  O   UNL     1     -12.484  15.153  70.830  1.00  0.00    -0.318 OA 
ENDROOT
BRANCH   2   3
HETATM    3  C   UNL     1     -12.135  13.920  70.338  1.00  0.00    -0.351 A  
HETATM    4  C   UNL     1     -11.546  13.807  69.095  1.00  0.00    -0.363 A  
HETATM    5  C   UNL     1     -11.131  12.575  68.540  1.00  0.00    -0.297 A  
HETATM    6  C   UNL     1     -11.318  11.362  69.239  1.00  0.00    -0.355 A  
HETATM    7  C   UNL     1     -12.046  11.474  70.487  1.00  0.00    -0.378 A  
HETATM    8  C   UNL     1     -10.702  10.014  68.765  1.00  0.00    -0.250 C  
HETATM    9  C   UNL     1     -12.442  12.751  71.041  1.00  0.00    -0.277 A  
HETATM   10  C   UNL     1     -10.089   9.312  69.756  1.00  0.00    -0.218 C  
HETATM   11  C   UNL     1      -9.583  11.741  66.734  1.00  0.00    -0.212 C  
HETATM   12  C   UNL     1     -10.562  12.788  67.167  1.00  0.00    -0.249 C  
HETATM   13  C   UNL     1     -10.416  10.563  66.230  1.00  0.00    -0.183 C  
HETATM   14  C   UNL     1      -9.494   7.993  69.551  1.00  0.00    -0.160 C  
HETATM   15  C   UNL     1     -10.574   9.503  67.320  1.00  0.00    -0.317 C  
HETATM   16  C   UNL     1     -10.366   7.026  69.201  1.00  0.00    -0.201 C  
HETATM   17  C   UNL     1     -10.565   6.930  67.727  1.00  0.00    -0.244 C  
HETATM   18  O   UNL     1     -10.715   5.851  67.158  1.00  0.00    -0.262 OA 
HETATM   19  C   UNL     1     -10.565   8.201  66.934  1.00  0.00    -0.311 C  
BRANCH   7  20
HETATM   20  O   UNL     1     -12.386  10.266  71.085  1.00  0.00    -0.328 OA 
HETATM   21  C   UNL     1     -13.671   9.716  70.799  1.00  0.00     0.175 C  
ENDBRANCH   7  20
BRANCH   9  22
HETATM   22  O   UNL     1     -13.196  12.744  72.183  1.00  0.00    -0.475 OA 
HETATM   23  C   UNL     1     -14.383  13.530  72.205  1.00  0.00    -0.250 C  
ENDBRANCH   9  22
BRANCH  16  24
HETATM   24  O   UNL     1     -11.360   6.466  69.970  1.00  0.00    -0.370 OA 
HETATM   25  C   UNL     1     -11.022   6.165  71.316  1.00  0.00    -0.282 C  
ENDBRANCH  16  24
BRANCH  13  26
HETATM   26  N   UNL     1      -9.810  10.145  64.958  1.00  0.00    -0.315 N  
HETATM   27  C   UNL     1     -10.165  10.893  63.836  1.00  0.00    -0.354 C  
HETATM   28  H   UNL     1      -9.167   9.355  64.899  1.00  0.00     0.000 HD 
HETATM   29  O   UNL     1     -11.113  11.678  63.833  1.00  0.00    -0.359 OA 
HETATM   30  C   UNL     1      -9.292  10.760  62.619  1.00  0.00    -0.340 C  
ENDBRANCH  13  26
ENDBRANCH   2   3
TORSDOF 5
ENDMDL
MODEL        8
REMARK 921   NORMALIZED FREE ENERGY PREDICTED BY IDOCK:   -6.00 KCAL/MOL
REMARK 922        TOTAL FREE ENERGY PREDICTED BY IDOCK:   -8.43 KCAL/MOL
REMARK 923 INTER-LIGAND FREE ENERGY PREDICTED BY IDOCK:   -7.67 KCAL/MOL
REMARK 924 INTRA-LIGAND FREE ENERGY PREDICTED BY IDOCK:   -0.77 KCAL/MOL
REMARK 927      BINDING AFFINITY PREDICTED BY RF-SCORE:    0.00 PKD
ROOT
HETATM    1  C   UNL     1     -11.260  14.916  67.059  1.00  0.00    -0.344 C  
HETATM    2  O   UNL     1     -12.170  13.833  66.847  1.00  0.00    -0.410 OA 
ENDROOT
BRANCH   2   3
HETATM    3  C   UNL     1     -11.684  12.571  67.084  1.00  0.00    -0.355 A  
HETATM    4  C   UNL     1     -11.672  12.059  68.365  1.00  0.00    -0.390 A  
HETATM    5  C   UNL     1     -11.219  10.756  68.678  1.00  0.00    -0.333 A  
HETATM    6  C   UNL     1     -10.726   9.896  67.673  1.00  0.00    -0.339 A  
HETATM    7  C   UNL     1     -10.628  10.483  66.351  1.00  0.00    -0.149 A  
HETATM    8  C   UNL     1     -10.407   8.396  67.931  1.00  0.00    -0.279 C  
HETATM    9  C   UNL     1     -11.118  11.811  66.055  1.00  0.00    -0.312 A  
HETATM   10  C   UNL     1     -10.905   7.556  66.984  1.00  0.00    -0.264 C  
HETATM   11  C   UNL     1     -11.434   9.079  70.546  1.00  0.00    -0.248 C  
HETATM   12  C   UNL     1     -11.303  10.519  70.158  1.00  0.00    -0.400 C  
HETATM   13  C   UNL     1     -10.021   8.498  70.510  1.00  0.00    -0.188 C  
HETATM   14  C   UNL     1     -10.677   6.113  66.994  1.00  0.00    -0.423 C  
HETATM   15  C   UNL     1      -9.762   7.781  69.185  1.00  0.00    -0.161 C  
HETATM   16  C   UNL     1      -9.388   5.743  66.857  1.00  0.00    -0.127 C  
HETATM   17  C   UNL     1      -8.669   5.650  68.159  1.00  0.00    -0.102 C  
HETATM   18  O   UNL     1      -7.831   4.780  68.381  1.00  0.00    -0.080 OA 
HETATM   19  C   UNL     1      -9.007   6.653  69.220  1.00  0.00    -0.135 C  
BRANCH   7  20
HETATM   20  O   UNL     1      -9.981   9.700  65.402  1.00  0.00    -0.316 OA 
HETATM   21  C   UNL     1      -8.578   9.890  65.223  1.00  0.00    -0.156 C  
ENDBRANCH   7  20
BRANCH   9  22
HETATM   22  O   UNL     1     -10.905  12.304  64.796  1.00  0.00    -0.283 OA 
HETATM   23  C   UNL     1     -11.932  12.125  63.826  1.00  0.00    -0.513 C  
ENDBRANCH   9  22
BRANCH  16  24
HETATM   24  O   UNL     1      -8.586   5.869  65.746  1.00  0.00    -0.145 OA 
HETATM   25  C   UNL     1      -8.714   4.859  64.757  1.00  0.00    -0.154 C  
ENDBRANCH  16  24
BRANCH  13  26
HETATM   26  N   UNL     1      -9.865   7.718  71.746  1.00  0.00    -0.164 N  
HETATM   27  C   UNL     1      -8.823   8.107  72.587  1.00  0.00    -0.219 C  
HETATM   28  H   UNL     1     -10.483   6.940  71.976  1.00  0.00     0.000 HD 
HETATM   29  O   UNL     1      -7.924   8.865  72.226  1.00  0.00    -0.371 OA 
HETATM   30  C   UNL     1      -8.868   7.613  74.007  1.00  0.00    -0.305 C  
ENDBRANCH  13  26
ENDBRANCH   2   3
TORSDOF 5
ENDMDL
MODEL        9
REMARK 921   NORMALIZED FREE ENERGY PREDICTED BY IDOCK:   -5.95 KCAL/MOL
REMARK 922        TOTAL FREE ENERGY PREDICTED BY IDOCK:   -8.38 KCAL/MOL
REMARK 923 INTER-LIGAND FREE ENERGY PREDICTED BY IDOCK:   -7.70 KCAL/MOL
REMARK 924 INTRA-LIGAND FREE ENERGY PREDICTED BY IDOCK:   -0.67 KCAL/MOL
REMARK 927      BINDING AFFINITY PREDICTED BY RF-SCORE:    0.00 PKD
ROOT
HETATM    1  C   UNL     1     -13.584  14.092  72.262  1.00  0.00    -0.525 C  
HETATM    2  O   UNL     1     -13.080  14.129  70.924  1.00  0.00    -0.334 OA 
ENDROOT
BRANCH   2   3
HETATM    3  C   UNL     1     -12.447  12.996  70.477  1.00  0.00    -0.231 A  
HETATM    4  C   UNL     1     -12.591  11.803  71.157  1.00  0.00    -0.412 A  
HETATM    5  C   UNL     1     -11.999  10.591  70.736  1.00  0.00    -0.472 A  
HETATM    6  C   UNL     1     -11.192  10.539  69.578  1.00  0.00    -0.329 A  
HETATM    7  C   UNL     1     -10.945  11.817  68.939  1.00  0.00    -0.239 A  
HETATM    8  C   UNL     1     -10.685   9.202  68.965  1.00  0.00    -0.176 C  
HETATM    9  C   UNL     1     -11.582  13.039  69.380  1.00  0.00    -0.299 A  
HETATM   10  C   UNL     1     -10.853   9.118  67.617  1.00  0.00    -0.160 C  
HETATM   11  C   UNL     1     -12.283   8.116  71.117  1.00  0.00    -0.257 C  
HETATM   12  C   UNL     1     -12.318   9.491  71.707  1.00  0.00    -0.474 C  
HETATM   13  C   UNL     1     -10.812   7.700  71.095  1.00  0.00    -0.235 C  
HETATM   14  C   UNL     1     -10.398   7.977  66.825  1.00  0.00    -0.360 C  
HETATM   15  C   UNL     1     -10.195   7.955  69.720  1.00  0.00    -0.212 C  
HETATM   16  C   UNL     1      -9.063   7.788  66.821  1.00  0.00    -0.154 C  
HETATM   17  C   UNL     1      -8.596   6.923  67.941  1.00  0.00    -0.122 C  
HETATM   18  O   UNL     1      -7.683   6.112  67.802  1.00  0.00    -0.095 OA 
HETATM   19  C   UNL     1      -9.286   7.055  69.265  1.00  0.00    -0.139 C  
BRANCH   7  20
HETATM   20  O   UNL     1     -10.012  11.793  67.909  1.00  0.00    -0.173 OA 
HETATM   21  C   UNL     1      -8.655  12.097  68.229  1.00  0.00    -0.175 C  
ENDBRANCH   7  20
BRANCH   9  22
HETATM   22  O   UNL     1     -11.220  14.205  68.761  1.00  0.00    -0.243 OA 
HETATM   23  C   UNL     1     -11.844  14.525  67.522  1.00  0.00    -0.374 C  
ENDBRANCH   9  22
BRANCH  16  24
HETATM   24  O   UNL     1      -8.099   8.583  66.245  1.00  0.00    -0.102 OA 
HETATM   25  C   UNL     1      -8.133   8.691  64.829  1.00  0.00    -0.149 C  
ENDBRANCH  16  24
BRANCH  13  26
HETATM   26  N   UNL     1     -10.765   6.327  71.617  1.00  0.00    -0.231 N  
HETATM   27  C   UNL     1     -10.746   6.201  73.005  1.00  0.00    -0.252 C  
HETATM   28  H   UNL     1     -10.748   5.515  71.001  1.00  0.00     0.000 HD 
HETATM   29  O   UNL     1     -10.516   7.149  73.756  1.00  0.00    -0.371 OA 
HETATM   30  C   UNL     1     -11.090   4.853  73.576  1.00  0.00    -0.405 C  
ENDBRANCH  13  26
ENDBRANCH   2   3
TORSDOF 5
ENDMDL
MODEL       10
REMARK 921   NORMALIZED FREE ENERGY PREDICTED BY IDOCK:   -5.78 KCAL/MOL
REMARK 922        TOTAL FREE ENERGY PREDICTED BY IDOCK:   -8.15 KCAL/MOL
REMARK 923 INTER-LIGAND FREE ENERGY PREDICTED BY IDOCK:   -7.45 KCAL/MOL
REMARK 924 INTRA-LIGAND FREE ENERGY PREDICTED BY IDOCK:   -0.70 KCAL/MOL
REMARK 927      BINDING AFFINITY PREDICTED BY RF-SCORE:    0.00 PKD
ROOT
HETATM    1  C   UNL     1     -12.344  15.729  71.251  1.00  0.00    -0.438 C  
HETATM    2  O   UNL     1     -12.695  15.123  70.004  1.00  0.00    -0.264 OA 
ENDROOT
BRANCH   2   3
HETATM    3  C   UNL     1     -12.150  13.889  69.749  1.00  0.00    -0.345 A  
HETATM    4  C   UNL     1     -12.385  12.833  70.605  1.00  0.00    -0.381 A  
HETATM    5  C   UNL     1     -11.885  11.529  70.388  1.00  0.00    -0.413 A  
HETATM    6  C   UNL     1     -11.083  11.235  69.264  1.00  0.00    -0.314 A  
HETATM    7  C   UNL     1     -10.739  12.374  68.435  1.00  0.00    -0.235 A  
HETATM    8  C   UNL     1     -10.679   9.784  68.875  1.00  0.00    -0.241 C  
HETATM    9  C   UNL     1     -11.281  13.694  68.670  1.00  0.00    -0.277 A  
HETATM   10  C   UNL     1     -10.850   9.501  67.555  1.00  0.00    -0.239 C  
HETATM   11  C   UNL     1     -12.357   9.173  71.149  1.00  0.00    -0.330 C  
HETATM   12  C   UNL     1     -12.289  10.623  71.515  1.00  0.00    -0.414 C  
HETATM   13  C   UNL     1     -10.922   8.650  71.212  1.00  0.00    -0.267 C  
HETATM   14  C   UNL     1     -10.482   8.219  66.958  1.00  0.00    -0.384 C  
HETATM   15  C   UNL     1     -10.286   8.638  69.823  1.00  0.00    -0.206 C  
HETATM   16  C   UNL     1      -9.165   7.932  67.002  1.00  0.00    -0.148 C  
HETATM   17  C   UNL     1      -8.767   7.222  68.250  1.00  0.00    -0.125 C  
HETATM   18  O   UNL     1      -7.918   6.334  68.253  1.00  0.00    -0.106 OA 
HETATM   19  C   UNL     1      -9.446   7.613  69.527  1.00  0.00    -0.152 C  
BRANCH   7  20
HETATM   20  O   UNL     1      -9.809  12.119  67.435  1.00  0.00    -0.188 OA 
HETATM   21  C   UNL     1      -8.425  12.239  67.761  1.00  0.00    -0.163 C  
ENDBRANCH   7  20
BRANCH   9  22
HETATM   22  O   UNL     1     -10.832  14.718  67.881  1.00  0.00    -0.258 OA 
HETATM   23  C   UNL     1     -11.421  14.879  66.595  1.00  0.00    -0.296 C  
ENDBRANCH   9  22
BRANCH  16  24
HETATM   24  O   UNL     1      -8.142   8.552  66.321  1.00  0.00    -0.102 OA 
HETATM   25  C   UNL     1      -7.942   8.145  64.975  1.00  0.00    -0.139 C  
ENDBRANCH  16  24
BRANCH  13  26
HETATM   26  N   UNL     1     -10.981   7.377  71.944  1.00  0.00    -0.229 N  
HETATM   27  C   UNL     1     -10.171   7.284  73.075  1.00  0.00    -0.268 C  
HETATM   28  H   UNL     1     -11.578   6.608  71.643  1.00  0.00     0.000 HD 
HETATM   29  O   UNL     1      -9.269   8.086  73.316  1.00  0.00    -0.257 OA 
HETATM   30  C   UNL     1     -10.483   6.186  74.054  1.00  0.00    -0.272 C  
ENDBRANCH  13  26
ENDBRANCH   2   3
TORSDOF 5
ENDMDL
MODEL       11
REMARK 921   NORMALIZED FREE ENERGY PREDICTED BY IDOCK:   -5.74 KCAL/MOL
REMARK 922        TOTAL FREE ENERGY PREDICTED BY IDOCK:   -8.11 KCAL/MOL
REMARK 923 INTER-LIGAND FREE ENERGY PREDICTED BY IDOCK:   -8.07 KCAL/MOL
REMARK 924 INTRA-LIGAND FREE ENERGY PREDICTED BY IDOCK:   -0.03 KCAL/MOL
REMARK 927      BINDING AFFINITY PREDICTED BY RF-SCORE:    0.00 PKD
ROOT
HETATM    1  C   UNL     1      -8.374  10.578  63.259  1.00  0.00    -0.134 C  
HETATM    2  O   UNL     1      -9.744  10.281  63.542  1.00  0.00    -0.298 OA 
ENDROOT
BRANCH   2   3
HETATM    3  C   UNL     1     -10.197  10.616  64.794  1.00  0.00    -0.331 A  
HETATM    4  C   UNL     1      -9.972   9.776  65.864  1.00  0.00    -0.345 A  
HETATM    5  C   UNL     1     -10.379  10.072  67.185  1.00  0.00    -0.300 A  
HETATM    6  C   UNL     1     -11.071  11.266  67.483  1.00  0.00    -0.346 A  
HETATM    7  C   UNL     1     -11.411  12.085  66.337  1.00  0.00    -0.353 A  
HETATM    8  C   UNL     1     -11.361  11.730  68.939  1.00  0.00    -0.326 C  
HETATM    9  C   UNL     1     -10.964  11.768  64.998  1.00  0.00    -0.300 A  
HETATM   10  C   UNL     1     -11.069  13.040  69.167  1.00  0.00    -0.245 C  
HETATM   11  C   UNL     1      -9.837   9.347  69.537  1.00  0.00    -0.192 C  
HETATM   12  C   UNL     1     -10.016   8.943  68.107  1.00  0.00    -0.208 C  
HETATM   13  C   UNL     1     -11.241   9.416  70.138  1.00  0.00    -0.219 C  
HETATM   14  C   UNL     1     -11.316  13.703  70.445  1.00  0.00     0.183 C  
HETATM   15  C   UNL     1     -11.763  10.852  70.137  1.00  0.00    -0.433 C  
HETATM   16  C   UNL     1     -12.614  13.775  70.804  1.00  0.00    -0.340 C  
HETATM   17  C   UNL     1     -13.070  12.586  71.577  1.00  0.00    -0.277 C  
HETATM   18  O   UNL     1     -13.865  12.679  72.509  1.00  0.00    -0.435 OA 
HETATM   19  C   UNL     1     -12.517  11.246  71.195  1.00  0.00    -0.479 C  
BRANCH   7  20
HETATM   20  O   UNL     1     -12.243  13.166  66.607  1.00  0.00    -0.366 OA 
HETATM   21  C   UNL     1     -11.800  14.465  66.213  1.00  0.00    -0.379 C  
ENDBRANCH   7  20
BRANCH   9  22
HETATM   22  O   UNL     1     -11.406  12.560  63.973  1.00  0.00    -0.344 OA 
HETATM   23  C   UNL     1     -12.569  12.147  63.263  1.00  0.00    -0.368 C  
ENDBRANCH   9  22
BRANCH  16  24
HETATM   24  O   UNL     1     -13.612  14.518  70.217  1.00  0.00     0.207 OA 
HETATM   25  C   UNL     1     -14.408  15.307  71.089  1.00  0.00    -0.276 C  
ENDBRANCH  16  24
BRANCH  13  26
HETATM   26  N   UNL     1     -11.169   8.720  71.431  1.00  0.00    -0.269 N  
HETATM   27  C   UNL     1     -11.624   7.402  71.442  1.00  0.00    -0.275 C  
HETATM   28  H   UNL     1     -10.809   9.174  72.270  1.00  0.00     0.000 HD 
HETATM   29  O   UNL     1     -12.285   6.918  70.524  1.00  0.00    -0.340 OA 
HETATM   30  C   UNL     1     -11.215   6.546  72.609  1.00  0.00    -0.284 C  
ENDBRANCH  13  26
ENDBRANCH   2   3
TORSDOF 5
ENDMDL
MODEL       12
REMARK 921   NORMALIZED FREE ENERGY PREDICTED BY IDOCK:   -5.72 KCAL/MOL
REMARK 922        TOTAL FREE ENERGY PREDICTED BY IDOCK:   -8.08 KCAL/MOL
REMARK 923 INTER-LIGAND FREE ENERGY PREDICTED BY IDOCK:   -7.72 KCAL/MOL
REMARK 924 INTRA-LIGAND FREE ENERGY PREDICTED BY IDOCK:   -0.36 KCAL/MOL
REMARK 927      BINDING AFFINITY PREDICTED BY RF-SCORE:    0.00 PKD
ROOT
HETATM    1  C   UNL     1     -10.404   8.489  67.320  1.00  0.00    -0.302 C  
HETATM    2  O   UNL     1     -10.866   9.469  66.386  1.00  0.00     0.025 OA 
ENDROOT
BRANCH   2   3
HETATM    3  C   UNL     1     -10.727  10.782  66.760  1.00  0.00    -0.231 A  
HETATM    4  C   UNL     1     -11.287  11.235  67.936  1.00  0.00    -0.367 A  
HETATM    5  C   UNL     1     -11.156  12.564  68.400  1.00  0.00    -0.293 A  
HETATM    6  C   UNL     1     -10.441  13.528  67.656  1.00  0.00    -0.239 A  
HETATM    7  C   UNL     1      -9.960  13.077  66.364  1.00  0.00    -0.277 A  
HETATM    8  C   UNL     1     -10.098  14.938  68.214  1.00  0.00    -0.221 C  
HETATM    9  C   UNL     1     -10.091  11.706  65.924  1.00  0.00    -0.230 A  
HETATM   10  C   UNL     1      -8.804  15.308  68.016  1.00  0.00    -0.169 C  
HETATM   11  C   UNL     1     -11.390  13.845  70.558  1.00  0.00     0.139 C  
HETATM   12  C   UNL     1     -11.908  12.743  69.688  1.00  0.00    -0.384 C  
HETATM   13  C   UNL     1     -11.985  15.139  70.005  1.00  0.00    -0.336 C  
HETATM   14  C   UNL     1      -8.278  16.614  68.406  1.00  0.00    -0.206 C  
HETATM   15  C   UNL     1     -10.993  15.842  69.080  1.00  0.00    -0.277 C  
HETATM   16  C   UNL     1      -8.831  17.663  67.764  1.00  0.00    -0.240 C  
HETATM   17  C   UNL     1     -10.046  18.187  68.450  1.00  0.00    -0.388 C  
HETATM   18  O   UNL     1     -10.304  19.387  68.495  1.00  0.00    -0.408 OA 
HETATM   19  C   UNL     1     -10.961  17.199  69.109  1.00  0.00     0.058 C  
BRANCH   7  20
HETATM   20  O   UNL     1      -9.413  14.069  65.558  1.00  0.00    -0.070 OA 
HETATM   21  C   UNL     1     -10.310  14.925  64.850  1.00  0.00    -0.313 C  
ENDBRANCH   7  20
BRANCH   9  22
HETATM   22  O   UNL     1      -9.677  11.401  64.656  1.00  0.00    -0.240 OA 
HETATM   23  C   UNL     1     -10.632  11.478  63.603  1.00  0.00    -0.429 C  
ENDBRANCH   9  22
BRANCH  16  24
HETATM   24  O   UNL     1      -8.709  18.002  66.437  1.00  0.00    -0.308 OA 
HETATM   25  C   UNL     1      -7.513  18.672  66.065  1.00  0.00    -0.230 C  
ENDBRANCH  16  24
BRANCH  13  26
HETATM   26  N   UNL     1     -12.483  15.891  71.165  1.00  0.00    -0.537 N  
HETATM   27  C   UNL     1     -13.605  15.362  71.802  1.00  0.00    -0.498 C  
HETATM   28  H   UNL     1     -12.035  16.749  71.486  1.00  0.00     0.000 HD 
HETATM   29  O   UNL     1     -14.304  14.484  71.297  1.00  0.00    -0.357 OA 
HETATM   30  C   UNL     1     -13.904  15.860  73.189  1.00  0.00    -0.388 C  
ENDBRANCH  13  26
ENDBRANCH   2   3
TORSDOF 5
ENDMDL
MODEL       13
REMARK 921   NORMALIZED FREE ENERGY PREDICTED BY IDOCK:   -5.62 KCAL/MOL
REMARK 922        TOTAL FREE ENERGY PREDICTED BY IDOCK:   -7.95 KCAL/MOL
REMARK 923 INTER-LIGAND FREE ENERGY PREDICTED BY IDOCK:   -7.29 KCAL/MOL
REMARK 924 INTRA-LIGAND FREE ENERGY PREDICTED BY IDOCK:   -0.65 KCAL/MOL
REMARK 927      BINDING AFFINITY PREDICTED BY RF-SCORE:    0.00 PKD
ROOT
HETATM    1  C   UNL     1     -12.327  13.018  64.867  1.00  0.00    -0.459 C  
HETATM    2  O   UNL     1     -11.323  13.210  65.867  1.00  0.00    -0.299 OA 
ENDROOT
BRANCH   2   3
HETATM    3  C   UNL     1     -11.083  12.150  66.705  1.00  0.00    -0.306 A  
HETATM    4  C   UNL     1     -10.562  10.973  66.207  1.00  0.00    -0.295 A  
HETATM    5  C   UNL     1     -10.258   9.854  67.015  1.00  0.00    -0.294 A  
HETATM    6  C   UNL     1     -10.495   9.875  68.407  1.00  0.00    -0.239 A  
HETATM    7  C   UNL     1     -11.155  11.066  68.903  1.00  0.00    -0.239 A  
HETATM    8  C   UNL     1      -9.996   8.754  69.363  1.00  0.00    -0.196 C  
HETATM    9  C   UNL     1     -11.436  12.205  68.057  1.00  0.00    -0.319 A  
HETATM   10  C   UNL     1      -9.387   9.221  70.487  1.00  0.00    -0.316 C  
HETATM   11  C   UNL     1      -8.857   7.762  66.898  1.00  0.00    -0.143 C  
HETATM   12  C   UNL     1      -9.740   8.726  66.169  1.00  0.00    -0.320 C  
HETATM   13  C   UNL     1      -9.791   6.806  67.639  1.00  0.00    -0.128 C  
HETATM   14  C   UNL     1      -8.893   8.349  71.550  1.00  0.00    -0.239 C  
HETATM   15  C   UNL     1      -9.970   7.240  69.094  1.00  0.00    -0.170 C  
HETATM   16  C   UNL     1      -9.845   7.634  72.183  1.00  0.00    -0.178 C  
HETATM   17  C   UNL     1     -10.118   6.323  71.528  1.00  0.00    -0.190 C  
HETATM   18  O   UNL     1     -10.368   5.310  72.176  1.00  0.00    -0.199 OA 
HETATM   19  C   UNL     1     -10.069   6.263  70.031  1.00  0.00    -0.217 C  
BRANCH   7  20
HETATM   20  O   UNL     1     -11.548  11.015  70.235  1.00  0.00    -0.306 OA 
HETATM   21  C   UNL     1     -12.901  10.662  70.520  1.00  0.00    -0.279 C  
ENDBRANCH   7  20
BRANCH   9  22
HETATM   22  O   UNL     1     -12.135  13.248  68.602  1.00  0.00    -0.337 OA 
HETATM   23  C   UNL     1     -11.396  14.312  69.193  1.00  0.00    -0.276 C  
ENDBRANCH   9  22
BRANCH  16  24
HETATM   24  O   UNL     1     -10.837   8.098  73.015  1.00  0.00    -0.331 OA 
HETATM   25  C   UNL     1     -12.158   8.078  72.494  1.00  0.00    -0.284 C  
ENDBRANCH  16  24
BRANCH  13  26
HETATM   26  N   UNL     1      -9.275   5.453  67.392  1.00  0.00    -0.111 N  
HETATM   27  C   UNL     1      -9.922   4.723  66.396  1.00  0.00    -0.241 C  
HETATM   28  H   UNL     1      -8.489   5.070  67.918  1.00  0.00     0.000 HD 
HETATM   29  O   UNL     1     -11.010   5.057  65.928  1.00  0.00    -0.218 OA 
HETATM   30  C   UNL     1      -9.202   3.522  65.848  1.00  0.00    -0.162 C  
ENDBRANCH  13  26
ENDBRANCH   2   3
TORSDOF 5
ENDMDL
MODEL       14
REMARK 921   NORMALIZED FREE ENERGY PREDICTED BY IDOCK:   -5.62 KCAL/MOL
REMARK 922        TOTAL FREE ENERGY PREDICTED BY IDOCK:   -7.94 KCAL/MOL
REMARK 923 INTER-LIGAND FREE ENERGY PREDICTED BY IDOCK:   -8.00 KCAL/MOL
REMARK 924 INTRA-LIGAND FREE ENERGY PREDICTED BY IDOCK:    0.06 KCAL/MOL
REMARK 927      BINDING AFFINITY PREDICTED BY RF-SCORE:    0.00 PKD
ROOT
HETATM    1  C   UNL     1      -9.163   8.336  66.643  1.00  0.00    -0.179 C  
HETATM    2  O   UNL     1     -10.530   8.642  66.932  1.00  0.00    -0.294 OA 
ENDROOT
BRANCH   2   3
HETATM    3  C   UNL     1     -10.765   9.816  67.603  1.00  0.00    -0.274 A  
HETATM    4  C   UNL     1     -10.672  11.026  66.945  1.00  0.00    -0.325 A  
HETATM    5  C   UNL     1     -10.933  12.270  67.563  1.00  0.00    -0.298 A  
HETATM    6  C   UNL     1     -11.295  12.344  68.926  1.00  0.00    -0.342 A  
HETATM    7  C   UNL     1     -11.271  11.083  69.640  1.00  0.00    -0.278 A  
HETATM    8  C   UNL     1     -11.784  13.660  69.596  1.00  0.00    -0.383 C  
HETATM    9  C   UNL     1     -11.020   9.822  68.978  1.00  0.00    -0.163 A  
HETATM   10  C   UNL     1     -12.902  13.506  70.357  1.00  0.00    -0.064 C  
HETATM   11  C   UNL     1     -11.487  14.634  66.890  1.00  0.00    -0.372 C  
HETATM   12  C   UNL     1     -10.711  13.391  66.589  1.00  0.00    -0.282 C  
HETATM   13  C   UNL     1     -10.697  15.381  67.964  1.00  0.00    -0.279 C  
HETATM   14  C   UNL     1     -13.503  14.594  71.124  1.00  0.00    -0.425 C  
HETATM   15  C   UNL     1     -11.255  15.084  69.356  1.00  0.00    -0.299 C  
HETATM   16  C   UNL     1     -12.723  15.093  72.105  1.00  0.00    -0.341 C  
HETATM   17  C   UNL     1     -11.838  16.198  71.637  1.00  0.00    -0.487 C  
HETATM   18  O   UNL     1     -11.586  17.173  72.340  1.00  0.00     0.062 OA 
HETATM   19  C   UNL     1     -11.260  16.098  70.258  1.00  0.00    -0.389 C  
BRANCH   7  20
HETATM   20  O   UNL     1     -11.452  11.179  71.015  1.00  0.00     0.092 OA 
HETATM   21  C   UNL     1     -12.566  10.497  71.592  1.00  0.00    -0.393 C  
ENDBRANCH   7  20
BRANCH   9  22
HETATM   22  O   UNL     1     -10.940   8.699  69.755  1.00  0.00    -0.216 OA 
HETATM   23  C   UNL     1      -9.675   8.361  70.314  1.00  0.00    -0.172 C  
ENDBRANCH   9  22
BRANCH  16  24
HETATM   24  O   UNL     1     -12.334  14.476  73.271  1.00  0.00    -0.276 OA 
HETATM   25  C   UNL     1     -12.358  15.274  74.445  1.00  0.00    -0.561 C  
ENDBRANCH  16  24
BRANCH  13  26
HETATM   26  N   UNL     1     -10.648  16.786  67.537  1.00  0.00    -0.324 N  
HETATM   27  C   UNL     1      -9.376  17.334  67.379  1.00  0.00    -0.236 C  
HETATM   28  H   UNL     1     -11.494  17.328  67.365  1.00  0.00     0.000 HD 
HETATM   29  O   UNL     1      -8.360  16.791  67.812  1.00  0.00    -0.183 OA 
HETATM   30  C   UNL     1      -9.270  18.607  66.585  1.00  0.00    -0.321 C  
ENDBRANCH  13  26
ENDBRANCH   2   3
TORSDOF 5
ENDMDL
MODEL       15
REMARK 921   NORMALIZED FREE ENERGY PREDICTED BY IDOCK:   -5.57 KCAL/MOL
REMARK 922        TOTAL FREE ENERGY PREDICTED BY IDOCK:   -7.88 KCAL/MOL
REMARK 923 INTER-LIGAND FREE ENERGY PREDICTED BY IDOCK:   -7.35 KCAL/MOL
REMARK 924 INTRA-LIGAND FREE ENERGY PREDICTED BY IDOCK:   -0.54 KCAL/MOL
REMARK 927      BINDING AFFINITY PREDICTED BY RF-SCORE:    0.00 PKD
ROOT
HETATM    1  C   UNL     1     -13.104  13.306  71.634  1.00  0.00    -0.363 C  
HETATM    2  O   UNL     1     -13.252  11.893  71.806  1.00  0.00    -0.454 OA 
ENDROOT
BRANCH   2   3
HETATM    3  C   UNL     1     -12.466  11.095  71.014  1.00  0.00    -0.403 A  
HETATM    4  C   UNL     1     -12.055  11.534  69.771  1.00  0.00    -0.374 A  
HETATM    5  C   UNL     1     -11.218  10.781  68.917  1.00  0.00    -0.328 A  
HETATM    6  C   UNL     1     -10.760   9.499  69.292  1.00  0.00    -0.240 A  
HETATM    7  C   UNL     1     -11.293   8.994  70.542  1.00  0.00    -0.243 A  
HETATM    8  C   UNL     1      -9.683   8.720  68.484  1.00  0.00    -0.173 C  
HETATM    9  C   UNL     1     -12.132   9.795  71.406  1.00  0.00    -0.400 A  
HETATM   10  C   UNL     1      -8.699   8.183  69.255  1.00  0.00    -0.140 C  
HETATM   11  C   UNL     1      -9.714  11.159  66.931  1.00  0.00    -0.216 C  
HETATM   12  C   UNL     1     -10.986  11.521  67.631  1.00  0.00    -0.296 C  
HETATM   13  C   UNL     1     -10.002   9.870  66.163  1.00  0.00    -0.263 C  
HETATM   14  C   UNL     1      -7.618   7.362  68.714  1.00  0.00    -0.107 C  
HETATM   15  C   UNL     1      -9.533   8.649  66.955  1.00  0.00    -0.235 C  
HETATM   16  C   UNL     1      -8.014   6.204  68.149  1.00  0.00    -0.107 C  
HETATM   17  C   UNL     1      -8.342   6.346  66.702  1.00  0.00    -0.113 C  
HETATM   18  O   UNL     1      -8.076   5.469  65.884  1.00  0.00    -0.104 OA 
HETATM   19  C   UNL     1      -9.005   7.613  66.254  1.00  0.00    -0.203 C  
BRANCH   7  20
HETATM   20  O   UNL     1     -10.985   7.669  70.825  1.00  0.00    -0.242 OA 
HETATM   21  C   UNL     1     -11.867   6.658  70.335  1.00  0.00    -0.346 C  
ENDBRANCH   7  20
BRANCH   9  22
HETATM   22  O   UNL     1     -12.649   9.199  72.524  1.00  0.00    -0.341 OA 
HETATM   23  C   UNL     1     -14.022   8.822  72.507  1.00  0.00    -0.363 C  
ENDBRANCH   9  22
BRANCH  16  24
HETATM   24  O   UNL     1      -8.550   5.100  68.772  1.00  0.00    -0.088 OA 
HETATM   25  C   UNL     1      -7.801   4.558  69.850  1.00  0.00    -0.060 C  
ENDBRANCH  16  24
BRANCH  13  26
HETATM   26  N   UNL     1      -9.447  10.060  64.816  1.00  0.00    -0.285 N  
HETATM   27  C   UNL     1     -10.188  10.871  63.958  1.00  0.00    -0.357 C  
HETATM   28  H   UNL     1      -8.571   9.625  64.526  1.00  0.00     0.000 HD 
HETATM   29  O   UNL     1     -11.351  11.199  64.191  1.00  0.00    -0.191 OA 
HETATM   30  C   UNL     1      -9.485  11.404  62.739  1.00  0.00    -0.314 C  
ENDBRANCH  13  26
ENDBRANCH   2   3
TORSDOF 5
ENDMDL
MODEL       16
REMARK 921   NORMALIZED FREE ENERGY PREDICTED BY IDOCK:   -5.52 KCAL/MOL
REMARK 922        TOTAL FREE ENERGY PREDICTED BY IDOCK:   -7.82 KCAL/MOL
REMARK 923 INTER-LIGAND FREE ENERGY PREDICTED BY IDOCK:   -7.78 KCAL/MOL
REMARK 924 INTRA-LIGAND FREE ENERGY PREDICTED BY IDOCK:   -0.04 KCAL/MOL
REMARK 927      BINDING AFFINITY PREDICTED BY RF-SCORE:    0.00 PKD
ROOT
HETATM    1  C   UNL     1     -10.696  11.615  63.500  1.00  0.00    -0.428 C  
HETATM    2  O   UNL     1     -10.588  11.020  64.796  1.00  0.00    -0.319 OA 
ENDROOT
BRANCH   2   3
HETATM    3  C   UNL     1     -10.818  11.845  65.868  1.00  0.00    -0.297 A  
HETATM    4  C   UNL     1     -10.464  13.177  65.811  1.00  0.00    -0.291 A  
HETATM    5  C   UNL     1     -10.702  14.091  66.863  1.00  0.00    -0.285 A  
HETATM    6  C   UNL     1     -11.313  13.674  68.065  1.00  0.00    -0.316 A  
HETATM    7  C   UNL     1     -11.571  12.251  68.166  1.00  0.00    -0.339 A  
HETATM    8  C   UNL     1     -11.776  14.673  69.165  1.00  0.00    -0.342 C  
HETATM    9  C   UNL     1     -11.336  11.342  67.066  1.00  0.00    -0.187 A  
HETATM   10  C   UNL     1     -13.031  14.433  69.632  1.00  0.00     0.468 C  
HETATM   11  C   UNL     1     -10.848  16.584  67.203  1.00  0.00    -0.142 C  
HETATM   12  C   UNL     1     -10.170  15.449  66.502  1.00  0.00    -0.287 C  
HETATM   13  C   UNL     1     -10.206  16.675  68.587  1.00  0.00    -0.284 C  
HETATM   14  C   UNL     1     -13.646  15.209  70.706  1.00  0.00    -0.299 C  
HETATM   15  C   UNL     1     -11.055  15.950  69.630  1.00  0.00    -0.320 C  
HETATM   16  C   UNL     1     -13.024  15.118  71.899  1.00  0.00    -0.359 C  
HETATM   17  C   UNL     1     -11.948  16.134  72.071  1.00  0.00    -0.526 C  
HETATM   18  O   UNL     1     -11.732  16.679  73.150  1.00  0.00    -0.397 OA 
HETATM   19  C   UNL     1     -11.125  16.496  70.871  1.00  0.00     0.050 C  
BRANCH   7  20
HETATM   20  O   UNL     1     -12.006  11.815  69.412  1.00  0.00    -0.306 OA 
HETATM   21  C   UNL     1     -11.162  10.925  70.142  1.00  0.00    -0.237 C  
ENDBRANCH   7  20
BRANCH   9  22
HETATM   22  O   UNL     1     -11.534  10.006  67.289  1.00  0.00    -0.076 OA 
HETATM   23  C   UNL     1     -10.398   9.149  67.272  1.00  0.00    -0.270 C  
ENDBRANCH   9  22
BRANCH  16  24
HETATM   24  O   UNL     1     -12.942  14.023  72.727  1.00  0.00    -0.435 OA 
HETATM   25  C   UNL     1     -13.768  12.917  72.395  1.00  0.00    -0.431 C  
ENDBRANCH  16  24
BRANCH  13  26
HETATM   26  N   UNL     1      -9.918  18.098  68.815  1.00  0.00    -0.380 N  
HETATM   27  C   UNL     1      -8.642  18.530  68.457  1.00  0.00    -0.324 C  
HETATM   28  H   UNL     1     -10.612  18.733  69.210  1.00  0.00     0.000 HD 
HETATM   29  O   UNL     1      -7.720  17.751  68.216  1.00  0.00    -0.246 OA 
HETATM   30  C   UNL     1      -8.437  20.012  68.303  1.00  0.00    -0.173 C  
ENDBRANCH  13  26
ENDBRANCH   2   3
TORSDOF 5
ENDMDL
MODEL       17
REMARK 921   NORMALIZED FREE ENERGY PREDICTED BY IDOCK:   -5.49 KCAL/MOL
REMARK 922        TOTAL FREE ENERGY PREDICTED BY IDOCK:   -7.78 KCAL/MOL
REMARK 923 INTER-LIGAND FREE ENERGY PREDICTED BY IDOCK:   -7.11 KCAL/MOL
REMARK 924 INTRA-LIGAND FREE ENERGY PREDICTED BY IDOCK:   -0.67 KCAL/MOL
REMARK 927      BINDING AFFINITY PREDICTED BY RF-SCORE:    0.00 PKD
ROOT
HETATM    1  C   UNL     1      -5.462  18.278  70.204  1.00  0.00    -0.248 C  
HETATM    2  O   UNL     1      -6.662  18.664  69.529  1.00  0.00    -0.240 OA 
ENDROOT
BRANCH   2   3
HETATM    3  C   UNL     1      -7.381  17.656  68.936  1.00  0.00    -0.239 A  
HETATM    4  C   UNL     1      -6.877  16.373  68.893  1.00  0.00    -0.180 A  
HETATM    5  C   UNL     1      -7.575  15.281  68.329  1.00  0.00    -0.112 A  
HETATM    6  C   UNL     1      -8.851  15.454  67.749  1.00  0.00    -0.170 A  
HETATM    7  C   UNL     1      -9.320  16.824  67.687  1.00  0.00    -0.228 A  
HETATM    8  C   UNL     1      -9.740  14.260  67.299  1.00  0.00    -0.234 C  
HETATM    9  C   UNL     1      -8.594  17.919  68.291  1.00  0.00    -0.275 A  
HETATM   10  C   UNL     1     -11.034  14.353  67.709  1.00  0.00    -0.283 C  
HETATM   11  C   UNL     1      -7.533  12.762  68.415  1.00  0.00    -0.124 C  
HETATM   12  C   UNL     1      -6.742  14.034  68.409  1.00  0.00    -0.099 C  
HETATM   13  C   UNL     1      -7.876  12.467  66.956  1.00  0.00    -0.085 C  
HETATM   14  C   UNL     1     -12.058  13.374  67.352  1.00  0.00    -0.338 C  
HETATM   15  C   UNL     1      -9.282  12.959  66.617  1.00  0.00    -0.222 C  
HETATM   16  C   UNL     1     -12.326  13.290  66.033  1.00  0.00    -0.386 C  
HETATM   17  C   UNL     1     -11.451  12.313  65.325  1.00  0.00    -0.351 C  
HETATM   18  O   UNL     1     -11.869  11.602  64.415  1.00  0.00    -0.224 OA 
HETATM   19  C   UNL     1     -10.022  12.205  65.764  1.00  0.00    -0.271 C  
BRANCH   7  20
HETATM   20  O   UNL     1     -10.490  17.017  66.961  1.00  0.00    -0.315 OA 
HETATM   21  C   UNL     1     -10.373  17.491  65.620  1.00  0.00    -0.134 C  
ENDBRANCH   7  20
BRANCH   9  22
HETATM   22  O   UNL     1      -9.081  19.185  68.108  1.00  0.00    -0.302 OA 
HETATM   23  C   UNL     1     -10.012  19.687  69.061  1.00  0.00    -0.399 C  
ENDBRANCH   9  22
BRANCH  16  24
HETATM   24  O   UNL     1     -12.934  14.229  65.232  1.00  0.00    -0.679 OA 
HETATM   25  C   UNL     1     -12.120  14.831  64.237  1.00  0.00    -0.394 C  
ENDBRANCH  16  24
BRANCH  13  26
HETATM   26  N   UNL     1      -7.585  11.041  66.745  1.00  0.00    -0.133 N  
HETATM   27  C   UNL     1      -6.299  10.738  66.303  1.00  0.00    -0.129 C  
HETATM   28  H   UNL     1      -8.283  10.317  66.914  1.00  0.00     0.000 HD 
HETATM   29  O   UNL     1      -5.529  11.590  65.859  1.00  0.00    -0.254 OA 
HETATM   30  C   UNL     1      -5.841   9.313  66.450  1.00  0.00    -0.058 C  
ENDBRANCH  13  26
ENDBRANCH   2   3
TORSDOF 5
ENDMDL
MODEL       18
REMARK 921   NORMALIZED FREE ENERGY PREDICTED BY IDOCK:   -5.48 KCAL/MOL
REMARK 922        TOTAL FREE ENERGY PREDICTED BY IDOCK:   -7.77 KCAL/MOL
REMARK 923 INTER-LIGAND FREE ENERGY PREDICTED BY IDOCK:   -7.50 KCAL/MOL
REMARK 924 INTRA-LIGAND FREE ENERGY PREDICTED BY IDOCK:   -0.27 KCAL/MOL
REMARK 927      BINDING AFFINITY PREDICTED BY RF-SCORE:    0.00 PKD
ROOT
HETATM    1  C   UNL     1     -11.729  15.934  68.870  1.00  0.00    -0.370 C  
HETATM    2  O   UNL     1     -12.314  15.148  69.912  1.00  0.00    -0.314 OA 
ENDROOT
BRANCH   2   3
HETATM    3  C   UNL     1     -11.976  13.819  69.939  1.00  0.00    -0.347 A  
HETATM    4  C   UNL     1     -11.194  13.278  68.939  1.00  0.00    -0.322 A  
HETATM    5  C   UNL     1     -10.779  11.927  68.920  1.00  0.00    -0.236 A  
HETATM    6  C   UNL     1     -11.167  11.032  69.940  1.00  0.00    -0.327 A  
HETATM    7  C   UNL     1     -12.087  11.574  70.921  1.00  0.00    -0.247 A  
HETATM    8  C   UNL     1     -10.577   9.599  70.072  1.00  0.00    -0.300 C  
HETATM    9  C   UNL     1     -12.479  12.967  70.927  1.00  0.00    -0.296 A  
HETATM   10  C   UNL     1     -10.192   9.277  71.337  1.00  0.00    -0.371 C  
HETATM   11  C   UNL     1      -9.011  10.509  67.819  1.00  0.00    -0.132 C  
HETATM   12  C   UNL     1      -9.972  11.648  67.684  1.00  0.00    -0.201 C  
HETATM   13  C   UNL     1      -9.827   9.236  67.600  1.00  0.00    -0.176 C  
HETATM   14  C   UNL     1      -9.665   7.964  71.702  1.00  0.00    -0.207 C  
HETATM   15  C   UNL     1     -10.242   8.618  68.935  1.00  0.00    -0.221 C  
HETATM   16  C   UNL     1     -10.532   6.943  71.547  1.00  0.00    -0.212 C  
HETATM   17  C   UNL     1     -10.484   6.345  70.183  1.00  0.00    -0.216 C  
HETATM   18  O   UNL     1     -10.611   5.137  69.995  1.00  0.00    -0.285 OA 
HETATM   19  C   UNL     1     -10.260   7.264  69.020  1.00  0.00    -0.197 C  
BRANCH   7  20
HETATM   20  O   UNL     1     -12.607  10.651  71.819  1.00  0.00    -0.390 OA 
HETATM   21  C   UNL     1     -13.855  10.036  71.499  1.00  0.00     0.025 C  
ENDBRANCH   7  20
BRANCH   9  22
HETATM   22  O   UNL     1     -13.414  13.361  71.845  1.00  0.00    -0.414 OA 
HETATM   23  C   UNL     1     -12.986  14.185  72.925  1.00  0.00    -0.399 C  
ENDBRANCH   9  22
BRANCH  16  24
HETATM   24  O   UNL     1     -11.679   6.691  72.264  1.00  0.00    -0.284 OA 
HETATM   25  C   UNL     1     -12.906   6.851  71.568  1.00  0.00    -0.333 C  
ENDBRANCH  16  24
BRANCH  13  26
HETATM   26  N   UNL     1      -9.045   8.399  66.678  1.00  0.00    -0.154 N  
HETATM   27  C   UNL     1      -9.004   8.825  65.351  1.00  0.00    -0.160 C  
HETATM   28  H   UNL     1      -8.561   7.557  66.991  1.00  0.00     0.000 HD 
HETATM   29  O   UNL     1      -9.767   9.679  64.902  1.00  0.00    -0.267 OA 
HETATM   30  C   UNL     1      -7.925   8.244  64.478  1.00  0.00    -0.146 C  
ENDBRANCH  13  26
ENDBRANCH   2   3
TORSDOF 5
ENDMDL
MODEL       19
REMARK 921   NORMALIZED FREE ENERGY PREDICTED BY IDOCK:   -5.41 KCAL/MOL
REMARK 922        TOTAL FREE ENERGY PREDICTED BY IDOCK:   -7.68 KCAL/MOL
REMARK 923 INTER-LIGAND FREE ENERGY PREDICTED BY IDOCK:   -7.06 KCAL/MOL
REMARK 924 INTRA-LIGAND FREE ENERGY PREDICTED BY IDOCK:   -0.62 KCAL/MOL
REMARK 927      BINDING AFFINITY PREDICTED BY RF-SCORE:    0.00 PKD
ROOT
HETATM    1  C   UNL     1      -9.797  11.268  63.573  1.00  0.00    -0.359 C  
HETATM    2  O   UNL     1      -8.933  10.327  64.218  1.00  0.00    -0.195 OA 
ENDROOT
BRANCH   2   3
HETATM    3  C   UNL     1      -9.298   9.927  65.479  1.00  0.00    -0.223 A  
HETATM    4  C   UNL     1     -10.167  10.693  66.229  1.00  0.00    -0.304 A  
HETATM    5  C   UNL     1     -10.613  10.327  67.519  1.00  0.00    -0.320 A  
HETATM    6  C   UNL     1     -10.166   9.135  68.132  1.00  0.00    -0.249 A  
HETATM    7  C   UNL     1      -9.161   8.399  67.391  1.00  0.00    -0.137 A  
HETATM    8  C   UNL     1     -10.776   8.590  69.455  1.00  0.00    -0.181 C  
HETATM    9  C   UNL     1      -8.738   8.787  66.064  1.00  0.00    -0.167 A  
HETATM   10  C   UNL     1     -11.068   7.261  69.419  1.00  0.00    -0.092 C  
HETATM   11  C   UNL     1     -12.493  10.889  69.100  1.00  0.00     0.160 C  
HETATM   12  C   UNL     1     -11.520  11.385  68.077  1.00  0.00    -0.377 C  
HETATM   13  C   UNL     1     -11.724  10.821  70.420  1.00  0.00    -0.351 C  
HETATM   14  C   UNL     1     -11.594   6.527  70.567  1.00  0.00    -0.455 C  
HETATM   15  C   UNL     1     -11.220   9.402  70.683  1.00  0.00    -0.345 C  
HETATM   16  C   UNL     1     -10.765   6.468  71.629  1.00  0.00    -0.230 C  
HETATM   17  C   UNL     1     -10.932   7.619  72.560  1.00  0.00    -0.324 C  
HETATM   18  O   UNL     1     -10.847   7.490  73.779  1.00  0.00    -0.316 OA 
HETATM   19  C   UNL     1     -11.225   8.964  71.968  1.00  0.00    -0.422 C  
BRANCH   7  20
HETATM   20  O   UNL     1      -8.593   7.327  68.069  1.00  0.00    -0.125 OA 
HETATM   21  C   UNL     1      -7.404   7.566  68.823  1.00  0.00    -0.095 C  
ENDBRANCH   7  20
BRANCH   9  22
HETATM   22  O   UNL     1      -7.726   8.073  65.482  1.00  0.00    -0.084 OA 
HETATM   23  C   UNL     1      -8.073   6.931  64.706  1.00  0.00    -0.095 C  
ENDBRANCH   9  22
BRANCH  16  24
HETATM   24  O   UNL     1      -9.571   5.791  71.733  1.00  0.00    -0.155 OA 
HETATM   25  C   UNL     1      -9.617   4.392  71.493  1.00  0.00    -0.162 C  
ENDBRANCH  16  24
BRANCH  13  26
HETATM   26  N   UNL     1     -12.594  11.433  71.434  1.00  0.00    -0.362 N  
HETATM   27  C   UNL     1     -12.663  12.825  71.422  1.00  0.00    -0.255 C  
HETATM   28  H   UNL     1     -13.117  10.872  72.107  1.00  0.00     0.000 HD 
HETATM   29  O   UNL     1     -11.866  13.525  70.798  1.00  0.00    -0.237 OA 
HETATM   30  C   UNL     1     -13.810  13.462  72.157  1.00  0.00    -0.605 C  
ENDBRANCH  13  26
ENDBRANCH   2   3
TORSDOF 5
ENDMDL
MODEL       20
REMARK 921   NORMALIZED FREE ENERGY PREDICTED BY IDOCK:   -5.40 KCAL/MOL
REMARK 922        TOTAL FREE ENERGY PREDICTED BY IDOCK:   -7.66 KCAL/MOL
REMARK 923 INTER-LIGAND FREE ENERGY PREDICTED BY IDOCK:   -6.94 KCAL/MOL
REMARK 924 INTRA-LIGAND FREE ENERGY PREDICTED BY IDOCK:   -0.73 KCAL/MOL
REMARK 927      BINDING AFFINITY PREDICTED BY RF-SCORE:    0.00 PKD
ROOT
HETATM    1  C   UNL     1      -7.991   7.389  64.981  1.00  0.00    -0.129 C  
HETATM    2  O   UNL     1      -8.545   8.578  64.412  1.00  0.00    -0.127 OA 
ENDROOT
BRANCH   2   3
HETATM    3  C   UNL     1      -9.066   9.492  65.294  1.00  0.00    -0.224 A  
HETATM    4  C   UNL     1      -9.534   9.084  66.526  1.00  0.00    -0.266 A  
HETATM    5  C   UNL     1     -10.051   9.972  67.496  1.00  0.00    -0.243 A  
HETATM    6  C   UNL     1     -10.137  11.359  67.241  1.00  0.00    -0.218 A  
HETATM    7  C   UNL     1      -9.759  11.765  65.902  1.00  0.00    -0.237 A  
HETATM    8  C   UNL     1     -10.508  12.395  68.340  1.00  0.00    -0.245 C  
HETATM    9  C   UNL     1      -9.213  10.836  64.936  1.00  0.00    -0.212 A  
HETATM   10  C   UNL     1      -9.689  13.482  68.369  1.00  0.00    -0.207 C  
HETATM   11  C   UNL     1     -10.503  10.010  69.975  1.00  0.00    -0.337 C  
HETATM   12  C   UNL     1     -10.505   9.212  68.709  1.00  0.00    -0.236 C  
HETATM   13  C   UNL     1     -11.799  10.819  69.970  1.00  0.00    -0.344 C  
HETATM   14  C   UNL     1      -9.887  14.607  69.280  1.00  0.00    -0.076 C  
HETATM   15  C   UNL     1     -11.554  12.238  69.457  1.00  0.00    -0.366 C  
HETATM   16  C   UNL     1     -11.035  15.290  69.096  1.00  0.00    -0.251 C  
HETATM   17  C   UNL     1     -12.173  14.733  69.880  1.00  0.00    -0.311 C  
HETATM   18  O   UNL     1     -13.023  15.453  70.397  1.00  0.00    -0.367 OA 
HETATM   19  C   UNL     1     -12.255  13.245  70.038  1.00  0.00    -0.345 C  
BRANCH   7  20
HETATM   20  O   UNL     1     -10.009  13.097  65.594  1.00  0.00    -0.276 OA 
HETATM   21  C   UNL     1     -11.281  13.426  65.036  1.00  0.00    -0.317 C  
ENDBRANCH   7  20
BRANCH   9  22
HETATM   22  O   UNL     1      -8.963  11.302  63.674  1.00  0.00    -0.085 OA 
HETATM   23  C   UNL     1      -9.945  11.070  62.668  1.00  0.00    -0.052 C  
ENDBRANCH   9  22
BRANCH  16  24
HETATM   24  O   UNL     1     -11.383  16.084  68.028  1.00  0.00    -0.340 OA 
HETATM   25  C   UNL     1     -10.660  17.298  67.882  1.00  0.00    -0.384 C  
ENDBRANCH  16  24
BRANCH  13  26
HETATM   26  N   UNL     1     -12.381  10.673  71.312  1.00  0.00    -0.379 N  
HETATM   27  C   UNL     1     -13.405   9.736  71.436  1.00  0.00    -0.371 C  
HETATM   28  H   UNL     1     -12.053  11.224  72.105  1.00  0.00     0.000 HD 
HETATM   29  O   UNL     1     -13.980   9.247  70.464  1.00  0.00     0.258 OA 
HETATM   30  C   UNL     1     -13.751   9.277  72.826  1.00  0.00    -0.254 C  
ENDBRANCH  13  26
ENDBRANCH   2   3
TORSDOF 5
ENDMDL
MODEL       21
REMARK 921   NORMALIZED FREE ENERGY PREDICTED BY IDOCK:   -5.38 KCAL/MOL
REMARK 922        TOTAL FREE ENERGY PREDICTED BY IDOCK:   -7.64 KCAL/MOL
REMARK 923 INTER-LIGAND FREE ENERGY PREDICTED BY IDOCK:   -7.02 KCAL/MOL
REMARK 924 INTRA-LIGAND FREE ENERGY PREDICTED BY IDOCK:   -0.62 KCAL/MOL
REMARK 927      BINDING AFFINITY PREDICTED BY RF-SCORE:    0.00 PKD
ROOT
HETATM    1  C   UNL     1      -6.085  10.256  70.309  1.00  0.00    -0.098 C  
HETATM    2  O   UNL     1      -5.606  11.599  70.195  1.00  0.00    -0.096 OA 
ENDROOT
BRANCH   2   3
HETATM    3  C   UNL     1      -6.418  12.484  69.531  1.00  0.00    -0.083 A  
HETATM    4  C   UNL     1      -7.416  12.023  68.697  1.00  0.00    -0.113 A  
HETATM    5  C   UNL     1      -8.311  12.874  68.009  1.00  0.00    -0.169 A  
HETATM    6  C   UNL     1      -8.217  14.278  68.128  1.00  0.00    -0.146 A  
HETATM    7  C   UNL     1      -7.092  14.757  68.906  1.00  0.00    -0.118 A  
HETATM    8  C   UNL     1      -9.293  15.245  67.556  1.00  0.00    -0.204 C  
HETATM    9  C   UNL     1      -6.204  13.863  69.616  1.00  0.00    -0.124 A  
HETATM   10  C   UNL     1      -9.679  16.215  68.429  1.00  0.00    -0.219 C  
HETATM   11  C   UNL     1     -10.558  12.735  66.877  1.00  0.00    -0.257 C  
HETATM   12  C   UNL     1      -9.250  12.065  67.161  1.00  0.00    -0.190 C  
HETATM   13  C   UNL     1     -10.301  13.695  65.715  1.00  0.00    -0.298 C  
HETATM   14  C   UNL     1     -10.634  17.265  68.085  1.00  0.00    -0.386 C  
HETATM   15  C   UNL     1     -10.054  15.114  66.226  1.00  0.00    -0.299 C  
HETATM   16  C   UNL     1     -10.231  18.099  67.105  1.00  0.00    -0.367 C  
HETATM   17  C   UNL     1     -10.599  17.616  65.745  1.00  0.00    -0.177 C  
HETATM   18  O   UNL     1     -10.951  18.384  64.853  1.00  0.00    -0.598 OA 
HETATM   19  C   UNL     1     -10.542  16.141  65.484  1.00  0.00    -0.394 C  
BRANCH   7  20
HETATM   20  O   UNL     1      -6.896  16.133  68.878  1.00  0.00    -0.133 OA 
HETATM   21  C   UNL     1      -5.972  16.657  67.924  1.00  0.00    -0.126 C  
ENDBRANCH   7  20
BRANCH   9  22
HETATM   22  O   UNL     1      -5.126  14.411  70.256  1.00  0.00    -0.093 OA 
HETATM   23  C   UNL     1      -5.180  14.532  71.674  1.00  0.00    -0.159 C  
ENDBRANCH   9  22
BRANCH  16  24
HETATM   24  O   UNL     1      -9.216  19.027  67.150  1.00  0.00    -0.285 OA 
HETATM   25  C   UNL     1      -9.516  20.261  67.784  1.00  0.00    -0.322 C  
ENDBRANCH  16  24
BRANCH  13  26
HETATM   26  N   UNL     1     -11.405  13.497  64.765  1.00  0.00    -0.333 N  
HETATM   27  C   UNL     1     -11.288  12.401  63.911  1.00  0.00    -0.433 C  
HETATM   28  H   UNL     1     -12.209  14.123  64.733  1.00  0.00     0.000 HD 
HETATM   29  O   UNL     1     -10.233  11.786  63.759  1.00  0.00    -0.324 OA 
HETATM   30  C   UNL     1     -12.537  11.938  63.214  1.00  0.00    -0.473 C  
ENDBRANCH  13  26
ENDBRANCH   2   3
TORSDOF 5
ENDMDL
MODEL       22
REMARK 921   NORMALIZED FREE ENERGY PREDICTED BY IDOCK:   -5.36 KCAL/MOL
REMARK 922        TOTAL FREE ENERGY PREDICTED BY IDOCK:   -7.61 KCAL/MOL
REMARK 923 INTER-LIGAND FREE ENERGY PREDICTED BY IDOCK:   -6.93 KCAL/MOL
REMARK 924 INTRA-LIGAND FREE ENERGY PREDICTED BY IDOCK:   -0.68 KCAL/MOL
REMARK 927      BINDING AFFINITY PREDICTED BY RF-SCORE:    0.00 PKD
ROOT
HETATM    1  C   UNL     1     -13.312  15.885  71.616  1.00  0.00    -0.133 C  
HETATM    2  O   UNL     1     -12.155  16.008  70.784  1.00  0.00    -0.380 OA 
ENDROOT
BRANCH   2   3
HETATM    3  C   UNL     1     -11.704  14.855  70.192  1.00  0.00    -0.294 A  
HETATM    4  C   UNL     1     -12.134  13.624  70.643  1.00  0.00    -0.398 A  
HETATM    5  C   UNL     1     -11.739  12.399  70.060  1.00  0.00    -0.307 A  
HETATM    6  C   UNL     1     -10.844  12.368  68.967  1.00  0.00    -0.194 A  
HETATM    7  C   UNL     1     -10.301  13.655  68.578  1.00  0.00    -0.243 A  
HETATM    8  C   UNL     1     -10.536  11.071  68.167  1.00  0.00    -0.226 C  
HETATM    9  C   UNL     1     -10.739  14.895  69.179  1.00  0.00    -0.252 A  
HETATM   10  C   UNL     1     -10.581  11.234  66.817  1.00  0.00    -0.305 C  
HETATM   11  C   UNL     1     -12.515  10.003  69.985  1.00  0.00     0.075 C  
HETATM   12  C   UNL     1     -12.353  11.247  70.801  1.00  0.00    -0.495 C  
HETATM   13  C   UNL     1     -11.153   9.309  69.991  1.00  0.00    -0.205 C  
HETATM   14  C   UNL     1     -10.269  10.164  65.872  1.00  0.00    -0.281 C  
HETATM   15  C   UNL     1     -10.365   9.648  68.726  1.00  0.00    -0.233 C  
HETATM   16  C   UNL     1      -8.999   9.714  65.926  1.00  0.00    -0.167 C  
HETATM   17  C   UNL     1      -8.816   8.608  66.908  1.00  0.00    -0.132 C  
HETATM   18  O   UNL     1      -8.061   7.663  66.693  1.00  0.00    -0.113 OA 
HETATM   19  C   UNL     1      -9.598   8.667  68.185  1.00  0.00    -0.162 C  
BRANCH   7  20
HETATM   20  O   UNL     1      -9.290  13.607  67.625  1.00  0.00    -0.200 OA 
HETATM   21  C   UNL     1      -7.949  13.432  68.081  1.00  0.00    -0.150 C  
ENDBRANCH   7  20
BRANCH   9  22
HETATM   22  O   UNL     1     -10.107  16.047  68.798  1.00  0.00    -0.210 OA 
HETATM   23  C   UNL     1     -10.540  16.683  67.599  1.00  0.00    -0.321 C  
ENDBRANCH   9  22
BRANCH  16  24
HETATM   24  O   UNL     1      -7.851  10.379  65.563  1.00  0.00    -0.148 OA 
HETATM   25  C   UNL     1      -7.268  10.003  64.324  1.00  0.00    -0.133 C  
ENDBRANCH  16  24
BRANCH  13  26
HETATM   26  N   UNL     1     -11.415   7.890  70.270  1.00  0.00    -0.459 N  
HETATM   27  C   UNL     1     -11.257   7.488  71.595  1.00  0.00    -0.243 C  
HETATM   28  H   UNL     1     -11.697   7.239  69.537  1.00  0.00     0.000 HD 
HETATM   29  O   UNL     1     -10.687   8.180  72.437  1.00  0.00    -0.284 OA 
HETATM   30  C   UNL     1     -11.879   6.177  71.993  1.00  0.00    -0.336 C  
ENDBRANCH  13  26
ENDBRANCH   2   3
TORSDOF 5
ENDMDL
MODEL       23
REMARK 921   NORMALIZED FREE ENERGY PREDICTED BY IDOCK:   -5.33 KCAL/MOL
REMARK 922        TOTAL FREE ENERGY PREDICTED BY IDOCK:   -7.57 KCAL/MOL
REMARK 923 INTER-LIGAND FREE ENERGY PREDICTED BY IDOCK:   -7.03 KCAL/MOL
REMARK 924 INTRA-LIGAND FREE ENERGY PREDICTED BY IDOCK:   -0.54 KCAL/MOL
REMARK 927      BINDING AFFINITY PREDICTED BY RF-SCORE:    0.00 PKD
ROOT
HETATM    1  C   UNL     1     -10.213   3.661  73.053  1.00  0.00    -0.159 C  
HETATM    2  O   UNL     1     -10.021   3.551  71.640  1.00  0.00    -0.175 OA 
ENDROOT
BRANCH   2   3
HETATM    3  C   UNL     1     -10.086   4.719  70.922  1.00  0.00    -0.205 A  
HETATM    4  C   UNL     1     -10.535   5.880  71.518  1.00  0.00    -0.287 A  
HETATM    5  C   UNL     1     -10.596   7.124  70.850  1.00  0.00    -0.238 A  
HETATM    6  C   UNL     1     -10.207   7.245  69.498  1.00  0.00    -0.200 A  
HETATM    7  C   UNL     1      -9.853   6.000  68.844  1.00  0.00    -0.140 A  
HETATM    8  C   UNL     1     -10.065   8.618  68.782  1.00  0.00    -0.210 C  
HETATM    9  C   UNL     1      -9.780   4.744  69.557  1.00  0.00    -0.201 A  
HETATM   10  C   UNL     1      -8.914   8.749  68.067  1.00  0.00    -0.141 C  
HETATM   11  C   UNL     1     -10.738   9.573  71.427  1.00  0.00    -0.348 C  
HETATM   12  C   UNL     1     -11.159   8.176  71.761  1.00  0.00    -0.329 C  
HETATM   13  C   UNL     1     -11.653  10.034  70.293  1.00  0.00    -0.280 C  
HETATM   14  C   UNL     1      -8.599   9.932  67.269  1.00  0.00    -0.125 C  
HETATM   15  C   UNL     1     -10.973   9.850  68.936  1.00  0.00    -0.214 C  
HETATM   16  C   UNL     1      -9.440  10.161  66.240  1.00  0.00    -0.180 C  
HETATM   17  C   UNL     1     -10.613  10.996  66.625  1.00  0.00    -0.262 C  
HETATM   18  O   UNL     1     -11.090  11.838  65.868  1.00  0.00    -0.309 OA 
HETATM   19  C   UNL     1     -11.204  10.793  67.987  1.00  0.00    -0.372 C  
BRANCH   7  20
HETATM   20  O   UNL     1      -9.643   6.091  67.473  1.00  0.00    -0.112 OA 
HETATM   21  C   UNL     1     -10.698   5.677  66.606  1.00  0.00    -0.268 C  
ENDBRANCH   7  20
BRANCH   9  22
HETATM   22  O   UNL     1      -9.516   3.614  68.833  1.00  0.00    -0.161 OA 
HETATM   23  C   UNL     1      -8.155   3.232  68.661  1.00  0.00    -0.060 C  
ENDBRANCH   9  22
BRANCH  16  24
HETATM   24  O   UNL     1      -9.593   9.418  65.093  1.00  0.00    -0.256 OA 
HETATM   25  C   UNL     1      -8.993   9.941  63.917  1.00  0.00    -0.248 C  
ENDBRANCH  16  24
BRANCH  13  26
HETATM   26  N   UNL     1     -12.103  11.386  70.650  1.00  0.00    -0.377 N  
HETATM   27  C   UNL     1     -13.090  11.464  71.631  1.00  0.00    -0.393 C  
HETATM   28  H   UNL     1     -11.715  12.219  70.207  1.00  0.00     0.000 HD 
HETATM   29  O   UNL     1     -13.743  10.487  71.997  1.00  0.00    -0.212 OA 
HETATM   30  C   UNL     1     -13.294  12.798  72.296  1.00  0.00    -0.563 C  
ENDBRANCH  13  26
ENDBRANCH   2   3
TORSDOF 5
ENDMDL
MODEL       24
REMARK 921   NORMALIZED FREE ENERGY PREDICTED BY IDOCK:   -5.25 KCAL/MOL
REMARK 922        TOTAL FREE ENERGY PREDICTED BY IDOCK:   -7.47 KCAL/MOL
REMARK 923 INTER-LIGAND FREE ENERGY PREDICTED BY IDOCK:   -6.95 KCAL/MOL
REMARK 924 INTRA-LIGAND FREE ENERGY PREDICTED BY IDOCK:   -0.52 KCAL/MOL
REMARK 927      BINDING AFFINITY PREDICTED BY RF-SCORE:    0.00 PKD
ROOT
HETATM    1  C   UNL     1     -11.049  13.988  67.127  1.00  0.00    -0.303 C  
HETATM    2  O   UNL     1     -12.067  13.184  67.728  1.00  0.00    -0.324 OA 
ENDROOT
BRANCH   2   3
HETATM    3  C   UNL     1     -11.668  11.975  68.241  1.00  0.00    -0.334 A  
HETATM    4  C   UNL     1     -11.098  11.023  67.420  1.00  0.00    -0.370 A  
HETATM    5  C   UNL     1     -10.634   9.772  67.885  1.00  0.00    -0.310 A  
HETATM    6  C   UNL     1     -10.748   9.412  69.246  1.00  0.00    -0.228 A  
HETATM    7  C   UNL     1     -11.457  10.364  70.078  1.00  0.00    -0.308 A  
HETATM    8  C   UNL     1     -10.076   8.142  69.840  1.00  0.00    -0.195 C  
HETATM    9  C   UNL     1     -11.904  11.646  69.580  1.00  0.00    -0.352 A  
HETATM   10  C   UNL     1      -9.411   8.366  71.006  1.00  0.00    -0.211 C  
HETATM   11  C   UNL     1      -9.082   7.934  67.133  1.00  0.00    -0.158 C  
HETATM   12  C   UNL     1     -10.102   8.957  66.741  1.00  0.00    -0.350 C  
HETATM   13  C   UNL     1      -9.865   6.730  67.656  1.00  0.00    -0.128 C  
HETATM   14  C   UNL     1      -8.756   7.306  71.768  1.00  0.00    -0.123 C  
HETATM   15  C   UNL     1      -9.950   6.757  69.181  1.00  0.00    -0.166 C  
HETATM   16  C   UNL     1      -9.586   6.359  72.251  1.00  0.00    -0.150 C  
HETATM   17  C   UNL     1      -9.808   5.239  71.294  1.00  0.00    -0.173 C  
HETATM   18  O   UNL     1      -9.915   4.074  71.667  1.00  0.00    -0.183 OA 
HETATM   19  C   UNL     1      -9.886   5.568  69.834  1.00  0.00    -0.259 C  
BRANCH   7  20
HETATM   20  O   UNL     1     -11.725   9.934  71.372  1.00  0.00    -0.369 OA 
HETATM   21  C   UNL     1     -12.924   9.192  71.596  1.00  0.00    -0.365 C  
ENDBRANCH   7  20
BRANCH   9  22
HETATM   22  O   UNL     1     -12.635  12.439  70.423  1.00  0.00    -0.157 OA 
HETATM   23  C   UNL     1     -12.128  13.733  70.733  1.00  0.00    -0.319 C  
ENDBRANCH   9  22
BRANCH  16  24
HETATM   24  O   UNL     1     -10.536   6.492  73.237  1.00  0.00    -0.240 OA 
HETATM   25  C   UNL     1     -10.128   6.158  74.556  1.00  0.00    -0.329 C  
ENDBRANCH  16  24
BRANCH  13  26
HETATM   26  N   UNL     1      -9.264   5.544  67.029  1.00  0.00    -0.115 N  
HETATM   27  C   UNL     1     -10.041   4.900  66.068  1.00  0.00    -0.239 C  
HETATM   28  H   UNL     1      -8.333   5.213  67.282  1.00  0.00     0.000 HD 
HETATM   29  O   UNL     1     -11.242   5.124  65.924  1.00  0.00    -0.031 OA 
HETATM   30  C   UNL     1      -9.335   3.948  65.141  1.00  0.00    -0.158 C  
ENDBRANCH  13  26
ENDBRANCH   2   3
TORSDOF 5
ENDMDL
MODEL       25
REMARK 921   NORMALIZED FREE ENERGY PREDICTED BY IDOCK:   -5.17 KCAL/MOL
REMARK 922        TOTAL FREE ENERGY PREDICTED BY IDOCK:   -7.37 KCAL/MOL
REMARK 923 INTER-LIGAND FREE ENERGY PREDICTED BY IDOCK:   -7.78 KCAL/MOL
REMARK 924 INTRA-LIGAND FREE ENERGY PREDICTED BY IDOCK:    0.41 KCAL/MOL
REMARK 927      BINDING AFFINITY PREDICTED BY RF-SCORE:    0.00 PKD
ROOT
HETATM    1  C   UNL     1     -11.267  15.018  66.269  1.00  0.00    -0.309 C  
HETATM    2  O   UNL     1     -12.038  14.530  67.370  1.00  0.00    -0.380 OA 
ENDROOT
BRANCH   2   3
HETATM    3  C   UNL     1     -11.735  13.268  67.816  1.00  0.00    -0.358 A  
HETATM    4  C   UNL     1     -11.315  12.297  66.930  1.00  0.00    -0.392 A  
HETATM    5  C   UNL     1     -10.954  10.988  67.323  1.00  0.00    -0.356 A  
HETATM    6  C   UNL     1     -11.024  10.589  68.676  1.00  0.00    -0.294 A  
HETATM    7  C   UNL     1     -11.582  11.573  69.582  1.00  0.00    -0.333 A  
HETATM    8  C   UNL     1     -10.452   9.235  69.184  1.00  0.00    -0.231 C  
HETATM    9  C   UNL     1     -11.925  12.912  69.156  1.00  0.00    -0.259 A  
HETATM   10  C   UNL     1      -9.700   9.345  70.313  1.00  0.00    -0.292 C  
HETATM   11  C   UNL     1      -9.645   9.036  66.415  1.00  0.00    -0.309 C  
HETATM   12  C   UNL     1     -10.576  10.170  66.122  1.00  0.00    -0.099 C  
HETATM   13  C   UNL     1     -10.515   7.897  66.945  1.00  0.00    -0.318 C  
HETATM   14  C   UNL     1      -9.113   8.196  70.998  1.00  0.00    -0.176 C  
HETATM   15  C   UNL     1     -10.507   7.872  68.473  1.00  0.00    -0.202 C  
HETATM   16  C   UNL     1     -10.006   7.319  71.500  1.00  0.00    -0.182 C  
HETATM   17  C   UNL     1     -10.397   6.265  70.521  1.00  0.00    -0.204 C  
HETATM   18  O   UNL     1     -10.601   5.102  70.861  1.00  0.00    -0.216 OA 
HETATM   19  C   UNL     1     -10.526   6.658  69.081  1.00  0.00    -0.250 C  
BRANCH   7  20
HETATM   20  O   UNL     1     -11.817  11.121  70.875  1.00  0.00    -0.292 OA 
HETATM   21  C   UNL     1     -13.094  10.554  71.164  1.00  0.00    -0.358 C  
ENDBRANCH   7  20
BRANCH   9  22
HETATM   22  O   UNL     1     -12.520  13.740  70.069  1.00  0.00    -0.314 OA 
HETATM   23  C   UNL     1     -11.692  14.647  70.789  1.00  0.00    -0.279 C  
ENDBRANCH   9  22
BRANCH  16  24
HETATM   24  O   UNL     1     -10.878   7.507  72.547  1.00  0.00    -0.251 OA 
HETATM   25  C   UNL     1     -10.469   6.999  73.808  1.00  0.00    -0.354 C  
ENDBRANCH  16  24
BRANCH  13  26
HETATM   26  N   UNL     1     -10.076   6.682  66.243  1.00  0.00    -0.424 N  
HETATM   27  C   UNL     1      -8.723   6.366  66.356  1.00  0.00    -0.138 C  
HETATM   28  H   UNL     1     -10.723   6.105  65.706  1.00  0.00     0.000 HD 
HETATM   29  O   UNL     1      -7.886   7.163  66.779  1.00  0.00    -0.099 OA 
HETATM   30  C   UNL     1      -8.314   4.963  65.999  1.00  0.00    -0.113 C  
ENDBRANCH  13  26
ENDBRANCH   2   3
TORSDOF 5
ENDMDL
MODEL       26
REMARK 921   NORMALIZED FREE ENERGY PREDICTED BY IDOCK:   -5.15 KCAL/MOL
REMARK 922        TOTAL FREE ENERGY PREDICTED BY IDOCK:   -7.34 KCAL/MOL
REMARK 923 INTER-LIGAND FREE ENERGY PREDICTED BY IDOCK:   -6.83 KCAL/MOL
REMARK 924 INTRA-LIGAND FREE ENERGY PREDICTED BY IDOCK:   -0.50 KCAL/MOL
REMARK 927      BINDING AFFINITY PREDICTED BY RF-SCORE:    0.00 PKD
ROOT
HETATM    1  C   UNL     1      -5.132  14.012  70.677  1.00  0.00    -0.105 C  
HETATM    2  O   UNL     1      -5.184  14.517  69.340  1.00  0.00    -0.087 OA 
ENDROOT
BRANCH   2   3
HETATM    3  C   UNL     1      -6.250  14.114  68.575  1.00  0.00    -0.093 A  
HETATM    4  C   UNL     1      -6.261  12.858  68.003  1.00  0.00    -0.110 A  
HETATM    5  C   UNL     1      -7.339  12.364  67.232  1.00  0.00    -0.127 A  
HETATM    6  C   UNL     1      -8.481  13.157  66.986  1.00  0.00    -0.139 A  
HETATM    7  C   UNL     1      -8.410  14.515  67.486  1.00  0.00    -0.188 A  
HETATM    8  C   UNL     1      -9.769  12.593  66.320  1.00  0.00    -0.260 C  
HETATM    9  C   UNL     1      -7.303  14.988  68.289  1.00  0.00    -0.111 A  
HETATM   10  C   UNL     1     -10.917  12.941  66.962  1.00  0.00    -0.290 C  
HETATM   11  C   UNL     1      -8.232  10.146  66.437  1.00  0.00    -0.122 C  
HETATM   12  C   UNL     1      -7.027  10.985  66.727  1.00  0.00    -0.131 C  
HETATM   13  C   UNL     1      -8.721  10.568  65.051  1.00  0.00    -0.182 C  
HETATM   14  C   UNL     1     -12.246  12.571  66.480  1.00  0.00    -0.053 C  
HETATM   15  C   UNL     1      -9.856  11.585  65.161  1.00  0.00    -0.294 C  
HETATM   16  C   UNL     1     -12.580  13.096  65.283  1.00  0.00    -0.472 C  
HETATM   17  C   UNL     1     -12.161  12.240  64.138  1.00  0.00    -0.436 C  
HETATM   18  O   UNL     1     -12.851  12.116  63.129  1.00  0.00    -0.662 OA 
HETATM   19  C   UNL     1     -10.858  11.507  64.248  1.00  0.00    -0.421 C  
BRANCH   7  20
HETATM   20  O   UNL     1      -9.452  15.347  67.093  1.00  0.00    -0.207 OA 
HETATM   21  C   UNL     1      -9.230  16.220  65.986  1.00  0.00    -0.316 C  
ENDBRANCH   7  20
BRANCH   9  22
HETATM   22  O   UNL     1      -7.292  16.310  68.644  1.00  0.00    -0.160 OA 
HETATM   23  C   UNL     1      -6.391  17.177  67.963  1.00  0.00    -0.141 C  
ENDBRANCH   9  22
BRANCH  16  24
HETATM   24  O   UNL     1     -12.828  14.414  64.978  1.00  0.00    -0.631 OA 
HETATM   25  C   UNL     1     -11.828  15.086  64.227  1.00  0.00    -0.275 C  
ENDBRANCH  16  24
BRANCH  13  26
HETATM   26  N   UNL     1      -8.990   9.325  64.314  1.00  0.00    -0.395 N  
HETATM   27  C   UNL     1      -8.300   9.164  63.114  1.00  0.00    -0.193 C  
HETATM   28  H   UNL     1      -9.644   8.623  64.660  1.00  0.00     0.000 HD 
HETATM   29  O   UNL     1      -7.708  10.088  62.558  1.00  0.00    -0.120 OA 
HETATM   30  C   UNL     1      -8.240   7.775  62.539  1.00  0.00    -0.112 C  
ENDBRANCH  13  26
ENDBRANCH   2   3
TORSDOF 5
ENDMDL
MODEL       27
REMARK 921   NORMALIZED FREE ENERGY PREDICTED BY IDOCK:   -5.14 KCAL/MOL
REMARK 922        TOTAL FREE ENERGY PREDICTED BY IDOCK:   -7.33 KCAL/MOL
REMARK 923 INTER-LIGAND FREE ENERGY PREDICTED BY IDOCK:   -7.85 KCAL/MOL
REMARK 924 INTRA-LIGAND FREE ENERGY PREDICTED BY IDOCK:    0.52 KCAL/MOL
REMARK 927      BINDING AFFINITY PREDICTED BY RF-SCORE:    0.00 PKD
ROOT
HETATM    1  C   UNL     1     -10.749   7.613  73.181  1.00  0.00    -0.387 C  
HETATM    2  O   UNL     1     -11.802   7.752  72.223  1.00  0.00    -0.309 OA 
ENDROOT
BRANCH   2   3
HETATM    3  C   UNL     1     -11.454   8.282  71.005  1.00  0.00    -0.275 A  
HETATM    4  C   UNL     1     -11.737   9.601  70.714  1.00  0.00    -0.390 A  
HETATM    5  C   UNL     1     -11.379  10.223  69.496  1.00  0.00    -0.299 A  
HETATM    6  C   UNL     1     -10.712   9.504  68.480  1.00  0.00    -0.222 A  
HETATM    7  C   UNL     1     -10.527   8.090  68.743  1.00  0.00    -0.173 A  
HETATM    8  C   UNL     1     -10.121  10.187  67.214  1.00  0.00    -0.254 C  
HETATM    9  C   UNL     1     -10.886   7.484  70.007  1.00  0.00    -0.249 A  
HETATM   10  C   UNL     1      -8.852   9.794  66.918  1.00  0.00    -0.150 C  
HETATM   11  C   UNL     1     -11.073  12.551  68.581  1.00  0.00    -0.305 C  
HETATM   12  C   UNL     1     -11.858  11.645  69.477  1.00  0.00    -0.414 C  
HETATM   13  C   UNL     1     -11.614  12.326  67.169  1.00  0.00    -0.353 C  
HETATM   14  C   UNL     1      -8.124  10.263  65.741  1.00  0.00    -0.149 C  
HETATM   15  C   UNL     1     -10.738  11.338  66.401  1.00  0.00    -0.320 C  
HETATM   16  C   UNL     1      -8.669   9.908  64.560  1.00  0.00    -0.198 C  
HETATM   17  C   UNL     1      -9.673  10.891  64.065  1.00  0.00    -0.301 C  
HETATM   18  O   UNL     1      -9.786  11.165  62.873  1.00  0.00    -0.324 OA 
HETATM   19  C   UNL     1     -10.554  11.564  65.075  1.00  0.00    -0.354 C  
BRANCH   7  20
HETATM   20  O   UNL     1     -10.033   7.348  67.677  1.00  0.00    -0.148 OA 
HETATM   21  C   UNL     1     -10.960   6.581  66.910  1.00  0.00    -0.338 C  
ENDBRANCH   7  20
BRANCH   9  22
HETATM   22  O   UNL     1     -10.746   6.128  70.127  1.00  0.00    -0.248 OA 
HETATM   23  C   UNL     1      -9.461   5.615  70.462  1.00  0.00    -0.163 C  
ENDBRANCH   9  22
BRANCH  16  24
HETATM   24  O   UNL     1      -8.755   8.648  64.014  1.00  0.00    -0.076 OA 
HETATM   25  C   UNL     1      -7.584   7.847  64.087  1.00  0.00    -0.112 C  
ENDBRANCH  16  24
BRANCH  13  26
HETATM   26  N   UNL     1     -11.807  13.661  66.585  1.00  0.00    -0.385 N  
HETATM   27  C   UNL     1     -10.664  14.452  66.477  1.00  0.00    -0.306 C  
HETATM   28  H   UNL     1     -12.722  13.990  66.278  1.00  0.00     0.000 HD 
HETATM   29  O   UNL     1      -9.613  14.185  67.058  1.00  0.00    -0.244 OA 
HETATM   30  C   UNL     1     -10.734  15.635  65.550  1.00  0.00    -0.403 C  
ENDBRANCH  13  26
ENDBRANCH   2   3
TORSDOF 5
ENDMDL
MODEL       28
REMARK 921   NORMALIZED FREE ENERGY PREDICTED BY IDOCK:   -5.13 KCAL/MOL
REMARK 922        TOTAL FREE ENERGY PREDICTED BY IDOCK:   -7.31 KCAL/MOL
REMARK 923 INTER-LIGAND FREE ENERGY PREDICTED BY IDOCK:   -7.26 KCAL/MOL
REMARK 924 INTRA-LIGAND FREE ENERGY PREDICTED BY IDOCK:   -0.05 KCAL/MOL
REMARK 927      BINDING AFFINITY PREDICTED BY RF-SCORE:    0.00 PKD
ROOT
HETATM    1  C   UNL     1      -9.032   3.868  71.406  1.00  0.00    -0.107 C  
HETATM    2  O   UNL     1      -9.945   3.958  70.308  1.00  0.00    -0.162 OA 
ENDROOT
BRANCH   2   3
HETATM    3  C   UNL     1     -10.107   5.200  69.748  1.00  0.00    -0.266 A  
HETATM    4  C   UNL     1     -10.470   6.276  70.532  1.00  0.00    -0.274 A  
HETATM    5  C   UNL     1     -10.622   7.589  70.029  1.00  0.00    -0.242 A  
HETATM    6  C   UNL     1     -10.423   7.872  68.660  1.00  0.00    -0.196 A  
HETATM    7  C   UNL     1     -10.162   6.717  67.823  1.00  0.00    -0.171 A  
HETATM    8  C   UNL     1     -10.381   9.321  68.098  1.00  0.00    -0.261 C  
HETATM    9  C   UNL     1      -9.992   5.388  68.367  1.00  0.00    -0.161 A  
HETATM   10  C   UNL     1      -9.339   9.553  67.253  1.00  0.00    -0.161 C  
HETATM   11  C   UNL     1     -10.684   9.951  70.903  1.00  0.00    -0.305 C  
HETATM   12  C   UNL     1     -11.055   8.518  71.126  1.00  0.00    -0.312 C  
HETATM   13  C   UNL     1     -11.746  10.525  69.967  1.00  0.00    -0.312 C  
HETATM   14  C   UNL     1      -9.137  10.825  66.564  1.00  0.00    -0.181 C  
HETATM   15  C   UNL     1     -11.259  10.512  68.518  1.00  0.00    -0.332 C  
HETATM   16  C   UNL     1     -10.112  11.158  65.693  1.00  0.00    -0.253 C  
HETATM   17  C   UNL     1     -11.220  11.925  66.330  1.00  0.00    -0.337 C  
HETATM   18  O   UNL     1     -11.797  12.841  65.749  1.00  0.00    -0.387 OA 
HETATM   19  C   UNL     1     -11.618  11.555  67.726  1.00  0.00    -0.338 C  
BRANCH   7  20
HETATM   20  O   UNL     1     -10.142   6.970  66.456  1.00  0.00    -0.173 OA 
HETATM   21  C   UNL     1      -8.900   6.829  65.768  1.00  0.00    -0.069 C  
ENDBRANCH   7  20
BRANCH   9  22
HETATM   22  O   UNL     1      -9.830   4.354  67.485  1.00  0.00    -0.177 OA 
HETATM   23  C   UNL     1      -8.550   3.734  67.410  1.00  0.00    -0.103 C  
ENDBRANCH   9  22
BRANCH  16  24
HETATM   24  O   UNL     1     -10.421  10.552  64.498  1.00  0.00    -0.310 OA 
HETATM   25  C   UNL     1      -9.328  10.239  63.647  1.00  0.00    -0.296 C  
ENDBRANCH  16  24
BRANCH  13  26
HETATM   26  N   UNL     1     -12.143  11.820  70.538  1.00  0.00    -0.403 N  
HETATM   27  C   UNL     1     -13.050  11.770  71.596  1.00  0.00    -0.338 C  
HETATM   28  H   UNL     1     -11.776  12.703  70.183  1.00  0.00     0.000 HD 
HETATM   29  O   UNL     1     -13.689  10.757  71.876  1.00  0.00    -0.146 OA 
HETATM   30  C   UNL     1     -13.177  13.002  72.449  1.00  0.00    -0.487 C  
ENDBRANCH  13  26
ENDBRANCH   2   3
TORSDOF 5
ENDMDL
MODEL       29
REMARK 921   NORMALIZED FREE ENERGY PREDICTED BY IDOCK:   -5.09 KCAL/MOL
REMARK 922        TOTAL FREE ENERGY PREDICTED BY IDOCK:   -7.27 KCAL/MOL
REMARK 923 INTER-LIGAND FREE ENERGY PREDICTED BY IDOCK:   -6.64 KCAL/MOL
REMARK 924 INTRA-LIGAND FREE ENERGY PREDICTED BY IDOCK:   -0.63 KCAL/MOL
REMARK 927      BINDING AFFINITY PREDICTED BY RF-SCORE:    0.00 PKD
ROOT
HETATM    1  C   UNL     1      -5.335  11.646  70.827  1.00  0.00    -0.141 C  
HETATM    2  O   UNL     1      -6.513  10.954  70.405  1.00  0.00    -0.240 OA 
ENDROOT
BRANCH   2   3
HETATM    3  C   UNL     1      -7.296  11.589  69.474  1.00  0.00     0.136 A  
HETATM    4  C   UNL     1      -7.046  12.902  69.133  1.00  0.00     0.033 A  
HETATM    5  C   UNL     1      -7.788  13.609  68.158  1.00  0.00    -0.143 A  
HETATM    6  C   UNL     1      -8.864  12.997  67.478  1.00  0.00    -0.195 A  
HETATM    7  C   UNL     1      -9.198  11.660  67.928  1.00  0.00    -0.171 A  
HETATM    8  C   UNL     1      -9.577  13.658  66.265  1.00  0.00    -0.254 C  
HETATM    9  C   UNL     1      -8.409  10.954  68.913  1.00  0.00    -0.139 A  
HETATM   10  C   UNL     1      -9.762  12.818  65.211  1.00  0.00    -0.024 C  
HETATM   11  C   UNL     1      -7.544  15.663  66.720  1.00  0.00    -0.125 C  
HETATM   12  C   UNL     1      -7.289  15.020  68.047  1.00  0.00    -0.135 C  
HETATM   13  C   UNL     1      -8.991  16.153  66.755  1.00  0.00    -0.241 C  
HETATM   14  C   UNL     1     -10.462  13.209  63.990  1.00  0.00    -0.258 C  
HETATM   15  C   UNL     1      -9.923  15.146  66.082  1.00  0.00    -0.317 C  
HETATM   16  C   UNL     1     -11.762  13.524  64.158  1.00  0.00    -0.411 C  
HETATM   17  C   UNL     1     -11.973  14.963  64.485  1.00  0.00    -0.410 C  
HETATM   18  O   UNL     1     -12.932  15.597  64.050  1.00  0.00    -0.455 OA 
HETATM   19  C   UNL     1     -10.964  15.639  65.362  1.00  0.00    -0.342 C  
BRANCH   7  20
HETATM   20  O   UNL     1     -10.362  11.127  67.387  1.00  0.00    -0.184 OA 
HETATM   21  C   UNL     1     -11.602  11.453  68.015  1.00  0.00    -0.286 C  
ENDBRANCH   7  20
BRANCH   9  22
HETATM   22  O   UNL     1      -8.855   9.729  69.329  1.00  0.00    -0.145 OA 
HETATM   23  C   UNL     1      -8.461   8.584  68.580  1.00  0.00    -0.131 C  
ENDBRANCH   9  22
BRANCH  16  24
HETATM   24  O   UNL     1     -12.799  12.683  64.492  1.00  0.00    -0.706 OA 
HETATM   25  C   UNL     1     -13.036  11.594  63.612  1.00  0.00     0.063 C  
ENDBRANCH  16  24
BRANCH  13  26
HETATM   26  N   UNL     1      -8.974  17.524  66.224  1.00  0.00    -0.227 N  
HETATM   27  C   UNL     1      -9.678  18.474  66.962  1.00  0.00    -0.310 C  
HETATM   28  H   UNL     1      -8.477  17.765  65.367  1.00  0.00     0.000 HD 
HETATM   29  O   UNL     1     -10.480  18.171  67.845  1.00  0.00    -0.380 OA 
HETATM   30  C   UNL     1      -9.371  19.921  66.687  1.00  0.00    -0.500 C  
ENDBRANCH  13  26
ENDBRANCH   2   3
TORSDOF 5
ENDMDL
MODEL       30
REMARK 921   NORMALIZED FREE ENERGY PREDICTED BY IDOCK:   -5.08 KCAL/MOL
REMARK 922        TOTAL FREE ENERGY PREDICTED BY IDOCK:   -7.25 KCAL/MOL
REMARK 923 INTER-LIGAND FREE ENERGY PREDICTED BY IDOCK:   -6.89 KCAL/MOL
REMARK 924 INTRA-LIGAND FREE ENERGY PREDICTED BY IDOCK:   -0.35 KCAL/MOL
REMARK 927      BINDING AFFINITY PREDICTED BY RF-SCORE:    0.00 PKD
ROOT
HETATM    1  C   UNL     1      -5.222  15.730  70.599  1.00  0.00    -0.168 C  
HETATM    2  O   UNL     1      -5.500  16.207  69.280  1.00  0.00    -0.111 OA 
ENDROOT
BRANCH   2   3
HETATM    3  C   UNL     1      -6.522  15.585  68.607  1.00  0.00    -0.102 A  
HETATM    4  C   UNL     1      -6.449  14.237  68.321  1.00  0.00    -0.116 A  
HETATM    5  C   UNL     1      -7.478  13.524  67.663  1.00  0.00    -0.187 A  
HETATM    6  C   UNL     1      -8.656  14.175  67.237  1.00  0.00    -0.231 A  
HETATM    7  C   UNL     1      -8.674  15.611  67.431  1.00  0.00    -0.179 A  
HETATM    8  C   UNL     1      -9.894  13.404  66.693  1.00  0.00    -0.278 C  
HETATM    9  C   UNL     1      -7.616  16.312  68.126  1.00  0.00    -0.149 A  
HETATM   10  C   UNL     1     -11.075  13.813  67.231  1.00  0.00    -0.319 C  
HETATM   11  C   UNL     1      -8.226  11.137  67.357  1.00  0.00    -0.132 C  
HETATM   12  C   UNL     1      -7.077  12.090  67.473  1.00  0.00    -0.129 C  
HETATM   13  C   UNL     1      -8.703  11.220  65.908  1.00  0.00    -0.145 C  
HETATM   14  C   UNL     1     -12.368  13.269  66.824  1.00  0.00    -0.239 C  
HETATM   15  C   UNL     1      -9.896  12.167  65.780  1.00  0.00    -0.264 C  
HETATM   16  C   UNL     1     -12.702  13.502  65.538  1.00  0.00    -0.440 C  
HETATM   17  C   UNL     1     -12.207  12.445  64.611  1.00  0.00    -0.425 C  
HETATM   18  O   UNL     1     -12.864  12.065  63.645  1.00  0.00    -0.713 OA 
HETATM   19  C   UNL     1     -10.868  11.833  64.894  1.00  0.00    -0.353 C  
BRANCH   7  20
HETATM   20  O   UNL     1      -9.751  16.274  66.854  1.00  0.00    -0.228 OA 
HETATM   21  C   UNL     1     -10.635  16.989  67.717  1.00  0.00    -0.350 C  
ENDBRANCH   7  20
BRANCH   9  22
HETATM   22  O   UNL     1      -7.687  17.677  68.186  1.00  0.00    -0.226 OA 
HETATM   23  C   UNL     1      -7.229  18.421  67.061  1.00  0.00    -0.203 C  
ENDBRANCH   9  22
BRANCH  16  24
HETATM   24  O   UNL     1     -13.015  14.706  64.951  1.00  0.00    -0.481 OA 
HETATM   25  C   UNL     1     -11.959  15.372  64.276  1.00  0.00    -0.188 C  
ENDBRANCH  16  24
BRANCH  13  26
HETATM   26  N   UNL     1      -8.884   9.833  65.455  1.00  0.00    -0.157 N  
HETATM   27  C   UNL     1      -7.875   9.318  64.643  1.00  0.00    -0.120 C  
HETATM   28  H   UNL     1      -9.700   9.281  65.719  1.00  0.00     0.000 HD 
HETATM   29  O   UNL     1      -7.021  10.027  64.112  1.00  0.00    -0.123 OA 
HETATM   30  C   UNL     1      -7.818   7.823  64.485  1.00  0.00    -0.138 C  
ENDBRANCH  13  26
ENDBRANCH   2   3
TORSDOF 5
ENDMDL
MODEL       31
REMARK 921   NORMALIZED FREE ENERGY PREDICTED BY IDOCK:   -5.04 KCAL/MOL
REMARK 922        TOTAL FREE ENERGY PREDICTED BY IDOCK:   -7.20 KCAL/MOL
REMARK 923 INTER-LIGAND FREE ENERGY PREDICTED BY IDOCK:   -6.98 KCAL/MOL
REMARK 924 INTRA-LIGAND FREE ENERGY PREDICTED BY IDOCK:   -0.22 KCAL/MOL
REMARK 927      BINDING AFFINITY PREDICTED BY RF-SCORE:    0.00 PKD
ROOT
HETATM    1  C   UNL     1      -7.616   5.064  66.811  1.00  0.00    -0.088 C  
HETATM    2  O   UNL     1      -6.948   6.294  66.520  1.00  0.00    -0.063 OA 
ENDROOT
BRANCH   2   3
HETATM    3  C   UNL     1      -7.737   7.414  66.438  1.00  0.00    -0.093 A  
HETATM    4  C   UNL     1      -8.194   8.030  67.585  1.00  0.00    -0.124 A  
HETATM    5  C   UNL     1      -8.981   9.205  67.577  1.00  0.00    -0.131 A  
HETATM    6  C   UNL     1      -9.365   9.815  66.362  1.00  0.00    -0.218 A  
HETATM    7  C   UNL     1      -8.985   9.096  65.162  1.00  0.00    -0.189 A  
HETATM    8  C   UNL     1     -10.055  11.208  66.302  1.00  0.00    -0.277 C  
HETATM    9  C   UNL     1      -8.163   7.906  65.200  1.00  0.00    -0.141 A  
HETATM   10  C   UNL     1      -9.516  12.047  65.376  1.00  0.00    -0.080 C  
HETATM   11  C   UNL     1      -9.627  11.057  69.158  1.00  0.00    -0.081 C  
HETATM   12  C   UNL     1      -9.341   9.599  68.980  1.00  0.00    -0.159 C  
HETATM   13  C   UNL     1     -11.071  11.266  68.704  1.00  0.00    -0.232 C  
HETATM   14  C   UNL     1     -10.043  13.384  65.107  1.00  0.00    -0.266 C  
HETATM   15  C   UNL     1     -11.122  11.764  67.260  1.00  0.00    -0.342 C  
HETATM   16  C   UNL     1     -11.299  13.409  64.619  1.00  0.00    -0.350 C  
HETATM   17  C   UNL     1     -12.337  13.449  65.688  1.00  0.00    -0.470 C  
HETATM   18  O   UNL     1     -13.370  14.104  65.571  1.00  0.00    -0.656 OA 
HETATM   19  C   UNL     1     -12.083  12.669  66.942  1.00  0.00    -0.213 C  
BRANCH   7  20
HETATM   20  O   UNL     1      -9.513   9.598  63.979  1.00  0.00    -0.177 OA 
HETATM   21  C   UNL     1      -8.606  10.145  63.021  1.00  0.00    -0.192 C  
ENDBRANCH   7  20
BRANCH   9  22
HETATM   22  O   UNL     1      -7.927   7.257  64.019  1.00  0.00    -0.135 OA 
HETATM   23  C   UNL     1      -6.610   7.304  63.480  1.00  0.00    -0.052 C  
ENDBRANCH   9  22
BRANCH  16  24
HETATM   24  O   UNL     1     -11.736  12.982  63.386  1.00  0.00    -0.504 OA 
HETATM   25  C   UNL     1     -12.433  11.745  63.358  1.00  0.00    -0.372 C  
ENDBRANCH  16  24
BRANCH  13  26
HETATM   26  N   UNL     1     -11.709  12.100  69.733  1.00  0.00    -0.405 N  
HETATM   27  C   UNL     1     -12.501  11.426  70.662  1.00  0.00    -0.327 C  
HETATM   28  H   UNL     1     -11.580  13.111  69.766  1.00  0.00     0.000 HD 
HETATM   29  O   UNL     1     -12.871  10.264  70.502  1.00  0.00    -0.315 OA 
HETATM   30  C   UNL     1     -12.843  12.158  71.931  1.00  0.00    -0.327 C  
ENDBRANCH  13  26
ENDBRANCH   2   3
TORSDOF 5
ENDMDL
MODEL       32
REMARK 921   NORMALIZED FREE ENERGY PREDICTED BY IDOCK:   -4.93 KCAL/MOL
REMARK 922        TOTAL FREE ENERGY PREDICTED BY IDOCK:   -7.05 KCAL/MOL
REMARK 923 INTER-LIGAND FREE ENERGY PREDICTED BY IDOCK:   -6.29 KCAL/MOL
REMARK 924 INTRA-LIGAND FREE ENERGY PREDICTED BY IDOCK:   -0.76 KCAL/MOL
REMARK 927      BINDING AFFINITY PREDICTED BY RF-SCORE:    0.00 PKD
ROOT
HETATM    1  C   UNL     1     -12.760  12.051  63.334  1.00  0.00    -0.398 C  
HETATM    2  O   UNL     1     -12.724  12.884  64.496  1.00  0.00    -0.654 OA 
ENDROOT
BRANCH   2   3
HETATM    3  C   UNL     1     -11.673  12.689  65.356  1.00  0.00    -0.387 A  
HETATM    4  C   UNL     1     -11.261  11.411  65.674  1.00  0.00    -0.144 A  
HETATM    5  C   UNL     1     -10.166  11.135  66.524  1.00  0.00    -0.275 A  
HETATM    6  C   UNL     1      -9.428  12.180  67.124  1.00  0.00    -0.190 A  
HETATM    7  C   UNL     1      -9.942  13.514  66.884  1.00  0.00    -0.256 A  
HETATM    8  C   UNL     1      -8.103  11.937  67.900  1.00  0.00    -0.147 C  
HETATM    9  C   UNL     1     -11.052  13.768  65.993  1.00  0.00    -0.291 A  
HETATM   10  C   UNL     1      -7.102  12.794  67.560  1.00  0.00    -0.148 C  
HETATM   11  C   UNL     1      -8.608   9.223  67.040  1.00  0.00    -0.128 C  
HETATM   12  C   UNL     1      -9.999   9.652  66.694  1.00  0.00    -0.301 C  
HETATM   13  C   UNL     1      -8.460   9.434  68.546  1.00  0.00    -0.119 C  
HETATM   14  C   UNL     1      -5.790  12.785  68.202  1.00  0.00    -0.083 C  
HETATM   15  C   UNL     1      -7.774  10.767  68.844  1.00  0.00    -0.129 C  
HETATM   16  C   UNL     1      -5.801  13.085  69.517  1.00  0.00    -0.103 C  
HETATM   17  C   UNL     1      -5.995  11.887  70.383  1.00  0.00    -0.115 C  
HETATM   18  O   UNL     1      -5.419  11.761  71.461  1.00  0.00    -0.363 OA 
HETATM   19  C   UNL     1      -6.917  10.810  69.896  1.00  0.00    -0.127 C  
BRANCH   7  20
HETATM   20  O   UNL     1      -9.327  14.525  67.613  1.00  0.00    -0.195 OA 
HETATM   21  C   UNL     1      -9.941  14.937  68.834  1.00  0.00    -0.233 C  
ENDBRANCH   7  20
BRANCH   9  22
HETATM   22  O   UNL     1     -11.512  15.054  65.897  1.00  0.00    -0.321 OA 
HETATM   23  C   UNL     1     -11.017  15.864  64.835  1.00  0.00    -0.411 C  
ENDBRANCH   9  22
BRANCH  16  24
HETATM   24  O   UNL     1      -6.090  14.294  70.106  1.00  0.00    -0.136 OA 
HETATM   25  C   UNL     1      -5.416  15.428  69.581  1.00  0.00    -0.104 C  
ENDBRANCH  16  24
BRANCH  13  26
HETATM   26  N   UNL     1      -7.831   8.214  69.073  1.00  0.00    -0.106 N  
HETATM   27  C   UNL     1      -8.585   7.485  69.992  1.00  0.00    -0.139 C  
HETATM   28  H   UNL     1      -6.899   7.918  68.784  1.00  0.00     0.000 HD 
HETATM   29  O   UNL     1      -9.589   7.941  70.539  1.00  0.00    -0.170 OA 
HETATM   30  C   UNL     1      -8.165   6.065  70.250  1.00  0.00    -0.119 C  
ENDBRANCH  13  26
ENDBRANCH   2   3
TORSDOF 5
ENDMDL
MODEL       33
REMARK 921   NORMALIZED FREE ENERGY PREDICTED BY IDOCK:   -4.92 KCAL/MOL
REMARK 922        TOTAL FREE ENERGY PREDICTED BY IDOCK:   -7.04 KCAL/MOL
REMARK 923 INTER-LIGAND FREE ENERGY PREDICTED BY IDOCK:   -7.38 KCAL/MOL
REMARK 924 INTRA-LIGAND FREE ENERGY PREDICTED BY IDOCK:    0.34 KCAL/MOL
REMARK 927      BINDING AFFINITY PREDICTED BY RF-SCORE:    0.00 PKD
ROOT
HETATM    1  C   UNL     1      -8.315   6.933  70.277  1.00  0.00    -0.134 C  
HETATM    2  O   UNL     1      -9.532   6.905  69.526  1.00  0.00    -0.147 OA 
ENDROOT
BRANCH   2   3
HETATM    3  C   UNL     1      -9.881   8.066  68.884  1.00  0.00    -0.175 A  
HETATM    4  C   UNL     1     -10.307   9.161  69.607  1.00  0.00    -0.226 A  
HETATM    5  C   UNL     1     -10.650  10.399  69.016  1.00  0.00    -0.247 A  
HETATM    6  C   UNL     1     -10.589  10.579  67.617  1.00  0.00    -0.295 A  
HETATM    7  C   UNL     1     -10.260   9.390  66.855  1.00  0.00    -0.248 A  
HETATM    8  C   UNL     1     -10.760  11.968  66.939  1.00  0.00    -0.282 C  
HETATM    9  C   UNL     1      -9.894   8.142  67.488  1.00  0.00    -0.177 A  
HETATM   10  C   UNL     1      -9.820  12.237  65.993  1.00  0.00    -0.263 C  
HETATM   11  C   UNL     1     -10.922  12.809  69.701  1.00  0.00     0.149 C  
HETATM   12  C   UNL     1     -11.104  11.369  70.068  1.00  0.00    -0.051 C  
HETATM   13  C   UNL     1     -12.112  13.176  68.815  1.00  0.00    -0.191 C  
HETATM   14  C   UNL     1      -9.822  13.457  65.189  1.00  0.00    -0.094 C  
HETATM   15  C   UNL     1     -11.738  13.087  67.336  1.00  0.00    -0.427 C  
HETATM   16  C   UNL     1     -10.892  13.602  64.381  1.00  0.00    -0.361 C  
HETATM   17  C   UNL     1     -12.031  14.295  65.046  1.00  0.00    -0.410 C  
HETATM   18  O   UNL     1     -12.754  15.086  64.446  1.00  0.00    -0.529 OA 
HETATM   19  C   UNL     1     -12.276  14.009  66.497  1.00  0.00    -0.485 C  
BRANCH   7  20
HETATM   20  O   UNL     1     -10.373   9.521  65.476  1.00  0.00    -0.063 OA 
HETATM   21  C   UNL     1      -9.173   9.511  64.703  1.00  0.00    -0.185 C  
ENDBRANCH   7  20
BRANCH   9  22
HETATM   22  O   UNL     1      -9.679   7.058  66.681  1.00  0.00    -0.179 OA 
HETATM   23  C   UNL     1     -10.720   6.093  66.565  1.00  0.00    -0.137 C  
ENDBRANCH   9  22
BRANCH  16  24
HETATM   24  O   UNL     1     -11.218  12.860  63.269  1.00  0.00    -0.333 OA 
HETATM   25  C   UNL     1     -12.254  11.903  63.430  1.00  0.00    -0.450 C  
ENDBRANCH  16  24
BRANCH  13  26
HETATM   26  N   UNL     1     -12.613  14.465  69.313  1.00  0.00    -0.522 N  
HETATM   27  C   UNL     1     -13.024  14.489  70.645  1.00  0.00    -0.301 C  
HETATM   28  H   UNL     1     -12.658  15.293  68.720  1.00  0.00     0.000 HD 
HETATM   29  O   UNL     1     -13.214  13.465  71.301  1.00  0.00    -0.274 OA 
HETATM   30  C   UNL     1     -13.166  15.837  71.296  1.00  0.00    -0.348 C  
ENDBRANCH  13  26
ENDBRANCH   2   3
TORSDOF 5
ENDMDL
MODEL       34
REMARK 921   NORMALIZED FREE ENERGY PREDICTED BY IDOCK:   -4.87 KCAL/MOL
REMARK 922        TOTAL FREE ENERGY PREDICTED BY IDOCK:   -6.98 KCAL/MOL
REMARK 923 INTER-LIGAND FREE ENERGY PREDICTED BY IDOCK:   -6.30 KCAL/MOL
REMARK 924 INTRA-LIGAND FREE ENERGY PREDICTED BY IDOCK:   -0.67 KCAL/MOL
REMARK 927      BINDING AFFINITY PREDICTED BY RF-SCORE:    0.00 PKD
ROOT
HETATM    1  C   UNL     1     -11.484   5.445  72.819  1.00  0.00    -0.268 C  
HETATM    2  O   UNL     1     -12.262   6.319  71.997  1.00  0.00    -0.338 OA 
ENDROOT
BRANCH   2   3
HETATM    3  C   UNL     1     -11.647   6.808  70.872  1.00  0.00    -0.353 A  
HETATM    4  C   UNL     1     -11.368   5.971  69.811  1.00  0.00    -0.344 A  
HETATM    5  C   UNL     1     -10.769   6.412  68.609  1.00  0.00    -0.341 A  
HETATM    6  C   UNL     1     -10.399   7.763  68.433  1.00  0.00    -0.231 A  
HETATM    7  C   UNL     1     -10.582   8.610  69.595  1.00  0.00    -0.218 A  
HETATM    8  C   UNL     1      -9.925   8.335  67.066  1.00  0.00    -0.325 C  
HETATM    9  C   UNL     1     -11.216   8.137  70.806  1.00  0.00    -0.261 A  
HETATM   10  C   UNL     1     -10.519   9.512  66.727  1.00  0.00    -0.263 C  
HETATM   11  C   UNL     1     -10.521   5.633  66.225  1.00  0.00    -0.181 C  
HETATM   12  C   UNL     1     -10.570   5.255  67.672  1.00  0.00    -0.126 C  
HETATM   13  C   UNL     1      -9.097   6.121  65.961  1.00  0.00    -0.121 C  
HETATM   14  C   UNL     1     -10.183  10.256  65.516  1.00  0.00    -0.308 C  
HETATM   15  C   UNL     1      -9.023   7.646  66.028  1.00  0.00    -0.178 C  
HETATM   16  C   UNL     1      -8.914  10.710  65.463  1.00  0.00    -0.191 C  
HETATM   17  C   UNL     1      -7.971   9.725  64.862  1.00  0.00    -0.133 C  
HETATM   18  O   UNL     1      -7.042  10.071  64.135  1.00  0.00    -0.126 OA 
HETATM   19  C   UNL     1      -8.189   8.272  65.158  1.00  0.00    -0.156 C  
BRANCH   7  20
HETATM   20  O   UNL     1     -10.056   9.891  69.483  1.00  0.00    -0.193 OA 
HETATM   21  C   UNL     1      -8.671  10.074  69.780  1.00  0.00    -0.179 C  
ENDBRANCH   7  20
BRANCH   9  22
HETATM   22  O   UNL     1     -11.269   8.991  71.874  1.00  0.00    -0.354 OA 
HETATM   23  C   UNL     1     -12.382   9.873  71.971  1.00  0.00    -0.204 C  
ENDBRANCH   9  22
BRANCH  16  24
HETATM   24  O   UNL     1      -8.334  11.689  66.236  1.00  0.00    -0.135 OA 
HETATM   25  C   UNL     1      -9.200  12.702  66.726  1.00  0.00    -0.225 C  
ENDBRANCH  16  24
BRANCH  13  26
HETATM   26  N   UNL     1      -8.665   5.474  64.714  1.00  0.00    -0.301 N  
HETATM   27  C   UNL     1      -7.919   4.305  64.858  1.00  0.00    -0.093 C  
HETATM   28  H   UNL     1      -8.897   5.857  63.798  1.00  0.00     0.000 HD 
HETATM   29  O   UNL     1      -7.419   3.963  65.929  1.00  0.00    -0.078 OA 
HETATM   30  C   UNL     1      -7.796   3.416  63.651  1.00  0.00    -0.080 C  
ENDBRANCH  13  26
ENDBRANCH   2   3
TORSDOF 5
ENDMDL
MODEL       35
REMARK 921   NORMALIZED FREE ENERGY PREDICTED BY IDOCK:   -4.84 KCAL/MOL
REMARK 922        TOTAL FREE ENERGY PREDICTED BY IDOCK:   -6.94 KCAL/MOL
REMARK 923 INTER-LIGAND FREE ENERGY PREDICTED BY IDOCK:   -6.22 KCAL/MOL
REMARK 924 INTRA-LIGAND FREE ENERGY PREDICTED BY IDOCK:   -0.72 KCAL/MOL
REMARK 927      BINDING AFFINITY PREDICTED BY RF-SCORE:    0.00 PKD
ROOT
HETATM    1  C   UNL     1      -7.927   8.536  72.177  1.00  0.00    -0.088 C  
HETATM    2  O   UNL     1      -8.173   8.188  70.812  1.00  0.00    -0.103 OA 
ENDROOT
BRANCH   2   3
HETATM    3  C   UNL     1      -8.448   9.225  69.956  1.00  0.00    -0.176 A  
HETATM    4  C   UNL     1      -7.519  10.225  69.752  1.00  0.00    -0.169 A  
HETATM    5  C   UNL     1      -7.720  11.304  68.861  1.00  0.00    -0.125 A  
HETATM    6  C   UNL     1      -8.921  11.429  68.128  1.00  0.00    -0.169 A  
HETATM    7  C   UNL     1      -9.939  10.445  68.439  1.00  0.00    -0.162 A  
HETATM    8  C   UNL     1      -9.110  12.477  66.994  1.00  0.00    -0.213 C  
HETATM    9  C   UNL     1      -9.698   9.339  69.340  1.00  0.00    -0.172 A  
HETATM   10  C   UNL     1      -9.661  11.966  65.860  1.00  0.00    -0.258 C  
HETATM   11  C   UNL     1      -6.347  13.029  67.642  1.00  0.00    -0.162 C  
HETATM   12  C   UNL     1      -6.541  12.233  68.894  1.00  0.00    -0.094 C  
HETATM   13  C   UNL     1      -7.309  14.213  67.737  1.00  0.00    -0.167 C  
HETATM   14  C   UNL     1      -9.982  12.780  64.690  1.00  0.00    -0.158 C  
HETATM   15  C   UNL     1      -8.600  13.928  66.969  1.00  0.00    -0.190 C  
HETATM   16  C   UNL     1     -10.921  13.726  64.899  1.00  0.00    -0.375 C  
HETATM   17  C   UNL     1     -10.348  15.017  65.374  1.00  0.00    -0.383 C  
HETATM   18  O   UNL     1     -10.798  16.102  65.014  1.00  0.00    -0.516 OA 
HETATM   19  C   UNL     1      -9.179  14.964  66.311  1.00  0.00    -0.301 C  
BRANCH   7  20
HETATM   20  O   UNL     1     -11.179  10.670  67.852  1.00  0.00    -0.289 OA 
HETATM   21  C   UNL     1     -12.136  11.433  68.585  1.00  0.00    -0.145 C  
ENDBRANCH   7  20
BRANCH   9  22
HETATM   22  O   UNL     1     -10.749   8.512  69.629  1.00  0.00    -0.229 OA 
HETATM   23  C   UNL     1     -11.494   8.765  70.816  1.00  0.00    -0.270 C  
ENDBRANCH   9  22
BRANCH  16  24
HETATM   24  O   UNL     1     -12.261  13.545  65.150  1.00  0.00    -0.382 OA 
HETATM   25  C   UNL     1     -12.907  12.515  64.415  1.00  0.00    -0.275 C  
ENDBRANCH  16  24
BRANCH  13  26
HETATM   26  N   UNL     1      -6.538  15.403  67.351  1.00  0.00    -0.165 N  
HETATM   27  C   UNL     1      -6.412  16.392  68.325  1.00  0.00    -0.131 C  
HETATM   28  H   UNL     1      -6.119  15.499  66.426  1.00  0.00     0.000 HD 
HETATM   29  O   UNL     1      -7.103  16.416  69.343  1.00  0.00    -0.221 OA 
HETATM   30  C   UNL     1      -5.332  17.420  68.123  1.00  0.00    -0.133 C  
ENDBRANCH  13  26
ENDBRANCH   2   3
TORSDOF 5
ENDMDL
MODEL       36
REMARK 921   NORMALIZED FREE ENERGY PREDICTED BY IDOCK:   -4.80 KCAL/MOL
REMARK 922        TOTAL FREE ENERGY PREDICTED BY IDOCK:   -6.89 KCAL/MOL
REMARK 923 INTER-LIGAND FREE ENERGY PREDICTED BY IDOCK:   -6.15 KCAL/MOL
REMARK 924 INTRA-LIGAND FREE ENERGY PREDICTED BY IDOCK:   -0.75 KCAL/MOL
REMARK 927      BINDING AFFINITY PREDICTED BY RF-SCORE:    0.00 PKD
ROOT
HETATM    1  C   UNL     1      -5.960  10.417  64.788  1.00  0.00    -0.118 C  
HETATM    2  O   UNL     1      -6.164  11.016  66.071  1.00  0.00    -0.129 OA 
ENDROOT
BRANCH   2   3
HETATM    3  C   UNL     1      -7.094  10.418  66.884  1.00  0.00    -0.094 A  
HETATM    4  C   UNL     1      -7.008   9.070  67.167  1.00  0.00    -0.078 A  
HETATM    5  C   UNL     1      -7.910   8.396  68.023  1.00  0.00    -0.111 A  
HETATM    6  C   UNL     1      -8.984   9.081  68.633  1.00  0.00    -0.137 A  
HETATM    7  C   UNL     1      -9.140  10.466  68.235  1.00  0.00    -0.145 A  
HETATM    8  C   UNL     1      -9.877   8.436  69.731  1.00  0.00    -0.187 C  
HETATM    9  C   UNL     1      -8.190  11.135  67.374  1.00  0.00    -0.132 A  
HETATM   10  C   UNL     1     -10.083   9.237  70.812  1.00  0.00    -0.358 C  
HETATM   11  C   UNL     1      -8.014   6.258  69.352  1.00  0.00    -0.109 C  
HETATM   12  C   UNL     1      -7.565   6.937  68.095  1.00  0.00    -0.108 C  
HETATM   13  C   UNL     1      -9.491   5.922  69.150  1.00  0.00    -0.128 C  
HETATM   14  C   UNL     1     -10.937   8.859  71.936  1.00  0.00    -0.439 C  
HETATM   15  C   UNL     1     -10.383   6.984  69.791  1.00  0.00    -0.225 C  
HETATM   16  C   UNL     1     -12.238   8.688  71.626  1.00  0.00    -0.333 C  
HETATM   17  C   UNL     1     -12.555   7.297  71.195  1.00  0.00    -0.323 C  
HETATM   18  O   UNL     1     -13.609   6.744  71.498  1.00  0.00    -0.229 OA 
HETATM   19  C   UNL     1     -11.533   6.566  70.378  1.00  0.00    -0.465 C  
BRANCH   7  20
HETATM   20  O   UNL     1     -10.294  11.088  68.695  1.00  0.00    -0.178 OA 
HETATM   21  C   UNL     1     -11.417  11.147  67.816  1.00  0.00    -0.272 C  
ENDBRANCH   7  20
BRANCH   9  22
HETATM   22  O   UNL     1      -8.470  12.419  66.992  1.00  0.00    -0.179 OA 
HETATM   23  C   UNL     1      -7.971  13.481  67.799  1.00  0.00    -0.168 C  
ENDBRANCH   9  22
BRANCH  16  24
HETATM   24  O   UNL     1     -13.149   9.647  71.247  1.00  0.00    -0.354 OA 
HETATM   25  C   UNL     1     -13.057  10.901  71.907  1.00  0.00    -0.432 C  
ENDBRANCH  16  24
BRANCH  13  26
HETATM   26  N   UNL     1      -9.661   4.532  69.596  1.00  0.00    -0.204 N  
HETATM   27  C   UNL     1      -9.523   3.552  68.614  1.00  0.00    -0.141 C  
HETATM   28  H   UNL     1      -9.868   4.298  70.567  1.00  0.00     0.000 HD 
HETATM   29  O   UNL     1      -9.523   3.812  67.411  1.00  0.00    -0.186 OA 
HETATM   30  C   UNL     1      -9.300   2.140  69.081  1.00  0.00    -0.184 C  
ENDBRANCH  13  26
ENDBRANCH   2   3
TORSDOF 5
ENDMDL
MODEL       37
REMARK 921   NORMALIZED FREE ENERGY PREDICTED BY IDOCK:   -4.80 KCAL/MOL
REMARK 922        TOTAL FREE ENERGY PREDICTED BY IDOCK:   -6.89 KCAL/MOL
REMARK 923 INTER-LIGAND FREE ENERGY PREDICTED BY IDOCK:   -7.07 KCAL/MOL
REMARK 924 INTRA-LIGAND FREE ENERGY PREDICTED BY IDOCK:    0.19 KCAL/MOL
REMARK 927      BINDING AFFINITY PREDICTED BY RF-SCORE:    0.00 PKD
ROOT
HETATM    1  C   UNL     1     -10.991   6.467  67.037  1.00  0.00    -0.396 C  
HETATM    2  O   UNL     1     -10.500   6.858  68.322  1.00  0.00    -0.183 OA 
ENDROOT
BRANCH   2   3
HETATM    3  C   UNL     1     -10.735   8.157  68.698  1.00  0.00    -0.025 A  
HETATM    4  C   UNL     1     -10.557   9.186  67.796  1.00  0.00    -0.289 A  
HETATM    5  C   UNL     1     -10.813  10.542  68.102  1.00  0.00    -0.300 A  
HETATM    6  C   UNL     1     -11.258  10.927  69.386  1.00  0.00    -0.335 A  
HETATM    7  C   UNL     1     -11.325   9.858  70.363  1.00  0.00    -0.307 A  
HETATM    8  C   UNL     1     -11.742  12.369  69.712  1.00  0.00    -0.361 C  
HETATM    9  C   UNL     1     -11.077   8.475  70.016  1.00  0.00    -0.151 A  
HETATM   10  C   UNL     1     -12.910  12.412  70.407  1.00  0.00     0.183 C  
HETATM   11  C   UNL     1     -11.239  12.707  66.885  1.00  0.00    -0.348 C  
HETATM   12  C   UNL     1     -10.489  11.412  66.922  1.00  0.00    -0.278 C  
HETATM   13  C   UNL     1     -10.492  13.658  67.819  1.00  0.00    -0.240 C  
HETATM   14  C   UNL     1     -13.519  13.657  70.870  1.00  0.00     0.073 C  
HETATM   15  C   UNL     1     -11.147  13.692  69.199  1.00  0.00    -0.275 C  
HETATM   16  C   UNL     1     -12.787  14.346  71.768  1.00  0.00    -0.347 C  
HETATM   17  C   UNL     1     -11.835  15.300  71.130  1.00  0.00    -0.348 C  
HETATM   18  O   UNL     1     -11.593  16.402  71.615  1.00  0.00    -0.443 OA 
HETATM   19  C   UNL     1     -11.174  14.882  69.851  1.00  0.00    -0.307 C  
BRANCH   7  20
HETATM   20  O   UNL     1     -11.590  10.262  71.666  1.00  0.00    -0.191 OA 
HETATM   21  C   UNL     1     -12.794   9.800  72.278  1.00  0.00    -0.295 C  
ENDBRANCH   7  20
BRANCH   9  22
HETATM   22  O   UNL     1     -11.086   7.553  71.027  1.00  0.00    -0.248 OA 
HETATM   23  C   UNL     1      -9.858   7.276  71.691  1.00  0.00    -0.165 C  
ENDBRANCH   9  22
BRANCH  16  24
HETATM   24  O   UNL     1     -12.495  13.998  73.066  1.00  0.00    -0.113 OA 
HETATM   25  C   UNL     1     -12.502  15.051  74.019  1.00  0.00    -0.496 C  
ENDBRANCH  16  24
BRANCH  13  26
HETATM   26  N   UNL     1     -10.366  14.931  67.095  1.00  0.00    -0.257 N  
HETATM   27  C   UNL     1      -9.088  15.488  67.055  1.00  0.00    -0.230 C  
HETATM   28  H   UNL     1     -11.165  15.380  66.648  1.00  0.00     0.000 HD 
HETATM   29  O   UNL     1      -8.173  15.106  67.783  1.00  0.00    -0.136 OA 
HETATM   30  C   UNL     1      -8.836  16.552  66.021  1.00  0.00    -0.267 C  
ENDBRANCH  13  26
ENDBRANCH   2   3
TORSDOF 5
ENDMDL
MODEL       38
REMARK 921   NORMALIZED FREE ENERGY PREDICTED BY IDOCK:   -4.80 KCAL/MOL
REMARK 922        TOTAL FREE ENERGY PREDICTED BY IDOCK:   -6.88 KCAL/MOL
REMARK 923 INTER-LIGAND FREE ENERGY PREDICTED BY IDOCK:   -6.18 KCAL/MOL
REMARK 924 INTRA-LIGAND FREE ENERGY PREDICTED BY IDOCK:   -0.71 KCAL/MOL
REMARK 927      BINDING AFFINITY PREDICTED BY RF-SCORE:    0.00 PKD
ROOT
HETATM    1  C   UNL     1     -11.717  12.466  67.742  1.00  0.00    -0.350 C  
HETATM    2  O   UNL     1     -11.745  11.880  69.046  1.00  0.00    -0.284 OA 
ENDROOT
BRANCH   2   3
HETATM    3  C   UNL     1     -11.335  10.573  69.139  1.00  0.00    -0.257 A  
HETATM    4  C   UNL     1     -10.876   9.906  68.021  1.00  0.00    -0.294 A  
HETATM    5  C   UNL     1     -10.406   8.573  68.049  1.00  0.00    -0.272 A  
HETATM    6  C   UNL     1     -10.397   7.829  69.249  1.00  0.00    -0.220 A  
HETATM    7  C   UNL     1     -10.993   8.493  70.392  1.00  0.00    -0.238 A  
HETATM    8  C   UNL     1      -9.709   6.440  69.373  1.00  0.00    -0.160 C  
HETATM    9  C   UNL     1     -11.448   9.865  70.340  1.00  0.00    -0.301 A  
HETATM   10  C   UNL     1      -8.927   6.311  70.479  1.00  0.00    -0.151 C  
HETATM   11  C   UNL     1      -8.990   7.039  66.638  1.00  0.00    -0.157 C  
HETATM   12  C   UNL     1     -10.012   8.132  66.669  1.00  0.00    -0.339 C  
HETATM   13  C   UNL     1      -9.754   5.735  66.862  1.00  0.00    -0.148 C  
HETATM   14  C   UNL     1      -8.233   5.074  70.827  1.00  0.00    -0.100 C  
HETATM   15  C   UNL     1      -9.689   5.311  68.329  1.00  0.00    -0.185 C  
HETATM   16  C   UNL     1      -9.040   4.027  71.093  1.00  0.00    -0.118 C  
HETATM   17  C   UNL     1      -9.387   3.238  69.877  1.00  0.00    -0.164 C  
HETATM   18  O   UNL     1      -9.492   2.014  69.902  1.00  0.00    -0.113 OA 
HETATM   19  C   UNL     1      -9.597   3.983  68.594  1.00  0.00    -0.190 C  
BRANCH   7  20
HETATM   20  O   UNL     1     -11.147   7.701  71.523  1.00  0.00    -0.233 OA 
HETATM   21  C   UNL     1     -12.358   6.958  71.660  1.00  0.00    -0.371 C  
ENDBRANCH   7  20
BRANCH   9  22
HETATM   22  O   UNL     1     -12.069  10.374  71.448  1.00  0.00    -0.363 OA 
HETATM   23  C   UNL     1     -13.490  10.302  71.511  1.00  0.00    -0.246 C  
ENDBRANCH   9  22
BRANCH  16  24
HETATM   24  O   UNL     1      -9.885   3.863  72.167  1.00  0.00    -0.151 OA 
HETATM   25  C   UNL     1      -9.313   4.044  73.454  1.00  0.00    -0.107 C  
ENDBRANCH  16  24
BRANCH  13  26
HETATM   26  N   UNL     1      -9.252   4.786  65.857  1.00  0.00    -0.142 N  
HETATM   27  C   UNL     1     -10.187   4.324  64.931  1.00  0.00    -0.175 C  
HETATM   28  H   UNL     1      -8.278   4.484  65.839  1.00  0.00     0.000 HD 
HETATM   29  O   UNL     1     -11.399   4.473  65.079  1.00  0.00    -0.201 OA 
HETATM   30  C   UNL     1      -9.652   3.682  63.681  1.00  0.00    -0.147 C  
ENDBRANCH  13  26
ENDBRANCH   2   3
TORSDOF 5
ENDMDL
MODEL       39
REMARK 921   NORMALIZED FREE ENERGY PREDICTED BY IDOCK:   -4.80 KCAL/MOL
REMARK 922        TOTAL FREE ENERGY PREDICTED BY IDOCK:   -6.88 KCAL/MOL
REMARK 923 INTER-LIGAND FREE ENERGY PREDICTED BY IDOCK:   -6.32 KCAL/MOL
REMARK 924 INTRA-LIGAND FREE ENERGY PREDICTED BY IDOCK:   -0.56 KCAL/MOL
REMARK 927      BINDING AFFINITY PREDICTED BY RF-SCORE:    0.00 PKD
ROOT
HETATM    1  C   UNL     1      -8.480   4.714  74.268  1.00  0.00    -0.104 C  
HETATM    2  O   UNL     1      -8.674   6.131  74.236  1.00  0.00    -0.121 OA 
ENDROOT
BRANCH   2   3
HETATM    3  C   UNL     1      -8.920   6.686  73.005  1.00  0.00    -0.127 A  
HETATM    4  C   UNL     1      -9.496   5.933  72.003  1.00  0.00    -0.164 A  
HETATM    5  C   UNL     1      -9.809   6.448  70.724  1.00  0.00    -0.206 A  
HETATM    6  C   UNL     1      -9.525   7.791  70.391  1.00  0.00    -0.164 A  
HETATM    7  C   UNL     1      -8.810   8.541  71.405  1.00  0.00    -0.198 A  
HETATM    8  C   UNL     1     -10.028   8.456  69.078  1.00  0.00    -0.194 C  
HETATM    9  C   UNL     1      -8.521   7.994  72.712  1.00  0.00    -0.180 A  
HETATM   10  C   UNL     1     -10.584   9.685  69.263  1.00  0.00    -0.236 C  
HETATM   11  C   UNL     1     -11.281   5.870  68.762  1.00  0.00    -0.071 C  
HETATM   12  C   UNL     1     -10.391   5.369  69.857  1.00  0.00    -0.377 C  
HETATM   13  C   UNL     1     -10.354   6.311  67.629  1.00  0.00    -0.195 C  
HETATM   14  C   UNL     1     -11.069  10.515  68.164  1.00  0.00    -0.346 C  
HETATM   15  C   UNL     1     -10.112   7.819  67.680  1.00  0.00    -0.254 C  
HETATM   16  C   UNL     1     -10.120  10.911  67.291  1.00  0.00    -0.191 C  
HETATM   17  C   UNL     1      -9.912   9.940  66.180  1.00  0.00    -0.263 C  
HETATM   18  O   UNL     1      -9.674  10.303  65.031  1.00  0.00    -0.259 OA 
HETATM   19  C   UNL     1     -10.014   8.478  66.498  1.00  0.00    -0.350 C  
BRANCH   7  20
HETATM   20  O   UNL     1      -8.375   9.801  71.012  1.00  0.00    -0.160 OA 
HETATM   21  C   UNL     1      -7.249   9.877  70.138  1.00  0.00    -0.155 C  
ENDBRANCH   7  20
BRANCH   9  22
HETATM   22  O   UNL     1      -7.771   8.753  73.569  1.00  0.00    -0.397 OA 
HETATM   23  C   UNL     1      -6.379   8.472  73.669  1.00  0.00    -0.106 C  
ENDBRANCH   9  22
BRANCH  16  24
HETATM   24  O   UNL     1      -9.086  11.792  67.509  1.00  0.00    -0.167 OA 
HETATM   25  C   UNL     1      -9.429  13.031  68.113  1.00  0.00    -0.218 C  
ENDBRANCH  16  24
BRANCH  13  26
HETATM   26  N   UNL     1     -10.922   5.755  66.393  1.00  0.00    -0.740 N  
HETATM   27  C   UNL     1     -10.185   4.740  65.784  1.00  0.00    -0.225 C  
HETATM   28  H   UNL     1     -11.803   6.091  66.004  1.00  0.00     0.000 HD 
HETATM   29  O   UNL     1      -9.018   4.492  66.085  1.00  0.00    -0.116 OA 
HETATM   30  C   UNL     1     -10.898   3.891  64.767  1.00  0.00    -0.034 C  
ENDBRANCH  13  26
ENDBRANCH   2   3
TORSDOF 5
ENDMDL
MODEL       40
REMARK 921   NORMALIZED FREE ENERGY PREDICTED BY IDOCK:   -4.77 KCAL/MOL
REMARK 922        TOTAL FREE ENERGY PREDICTED BY IDOCK:   -6.85 KCAL/MOL
REMARK 923 INTER-LIGAND FREE ENERGY PREDICTED BY IDOCK:   -6.77 KCAL/MOL
REMARK 924 INTRA-LIGAND FREE ENERGY PREDICTED BY IDOCK:   -0.08 KCAL/MOL
REMARK 927      BINDING AFFINITY PREDICTED BY RF-SCORE:    0.00 PKD
ROOT
HETATM    1  C   UNL     1     -13.203  10.880  72.166  1.00  0.00    -0.228 C  
HETATM    2  O   UNL     1     -13.531  12.266  72.031  1.00  0.00    -0.467 OA 
ENDROOT
BRANCH   2   3
HETATM    3  C   UNL     1     -12.835  12.969  71.081  1.00  0.00    -0.245 A  
HETATM    4  C   UNL     1     -12.637  12.435  69.824  1.00  0.00     0.257 A  
HETATM    5  C   UNL     1     -11.959  13.116  68.786  1.00  0.00    -0.316 A  
HETATM    6  C   UNL     1     -11.420  14.405  68.993  1.00  0.00    -0.314 A  
HETATM    7  C   UNL     1     -11.524  14.908  70.348  1.00  0.00    -0.266 A  
HETATM    8  C   UNL     1     -10.847  15.272  67.836  1.00  0.00    -0.288 C  
HETATM    9  C   UNL     1     -12.241  14.198  71.385  1.00  0.00    -0.301 A  
HETATM   10  C   UNL     1     -11.282  16.561  67.848  1.00  0.00    -0.155 C  
HETATM   11  C   UNL     1     -11.753  13.012  66.277  1.00  0.00    -0.440 C  
HETATM   12  C   UNL     1     -11.883  12.252  67.560  1.00  0.00    -0.331 C  
HETATM   13  C   UNL     1     -10.274  13.371  66.143  1.00  0.00    -0.301 C  
HETATM   14  C   UNL     1     -10.828  17.567  66.891  1.00  0.00    -0.020 C  
HETATM   15  C   UNL     1     -10.013  14.794  66.635  1.00  0.00    -0.272 C  
HETATM   16  C   UNL     1      -9.512  17.854  66.952  1.00  0.00    -0.279 C  
HETATM   17  C   UNL     1      -8.684  16.967  66.087  1.00  0.00    -0.245 C  
HETATM   18  O   UNL     1      -7.703  17.383  65.475  1.00  0.00    -0.312 OA 
HETATM   19  C   UNL     1      -9.088  15.529  65.965  1.00  0.00    -0.316 C  
BRANCH   7  20
HETATM   20  O   UNL     1     -10.841  16.093  70.594  1.00  0.00    -0.259 OA 
HETATM   21  C   UNL     1      -9.421  16.090  70.442  1.00  0.00     1.135 C  
ENDBRANCH   7  20
BRANCH   9  22
HETATM   22  O   UNL     1     -12.212  14.719  72.650  1.00  0.00    -0.307 OA 
HETATM   23  C   UNL     1     -13.320  15.506  73.075  1.00  0.00    -0.548 C  
ENDBRANCH   9  22
BRANCH  16  24
HETATM   24  O   UNL     1      -8.833  18.497  67.961  1.00  0.00    -0.284 OA 
HETATM   25  C   UNL     1      -9.533  19.537  68.629  1.00  0.00    -0.397 C  
ENDBRANCH  16  24
BRANCH  13  26
HETATM   26  N   UNL     1      -9.896  13.050  64.760  1.00  0.00    -0.563 N  
HETATM   27  C   UNL     1      -9.582  11.715  64.505  1.00  0.00    -0.114 C  
HETATM   28  H   UNL     1      -9.866  13.760  64.029  1.00  0.00     0.000 HD 
HETATM   29  O   UNL     1      -9.370  10.899  65.401  1.00  0.00    -0.192 OA 
HETATM   30  C   UNL     1      -9.576  11.275  63.067  1.00  0.00    -0.397 C  
ENDBRANCH  13  26
ENDBRANCH   2   3
TORSDOF 5
ENDMDL
MODEL       41
REMARK 921   NORMALIZED FREE ENERGY PREDICTED BY IDOCK:   -4.77 KCAL/MOL
REMARK 922        TOTAL FREE ENERGY PREDICTED BY IDOCK:   -6.85 KCAL/MOL
REMARK 923 INTER-LIGAND FREE ENERGY PREDICTED BY IDOCK:   -6.60 KCAL/MOL
REMARK 924 INTRA-LIGAND FREE ENERGY PREDICTED BY IDOCK:   -0.25 KCAL/MOL
REMARK 927      BINDING AFFINITY PREDICTED BY RF-SCORE:    0.00 PKD
ROOT
HETATM    1  C   UNL     1      -7.710   5.755  64.089  1.00  0.00    -0.097 C  
HETATM    2  O   UNL     1      -7.755   7.112  63.640  1.00  0.00    -0.110 OA 
ENDROOT
BRANCH   2   3
HETATM    3  C   UNL     1      -8.285   8.028  64.514  1.00  0.00    -0.094 A  
HETATM    4  C   UNL     1      -8.529   7.679  65.827  1.00  0.00    -0.153 A  
HETATM    5  C   UNL     1      -9.040   8.579  66.789  1.00  0.00    -0.186 A  
HETATM    6  C   UNL     1      -9.354   9.912  66.446  1.00  0.00    -0.213 A  
HETATM    7  C   UNL     1      -9.211  10.237  65.040  1.00  0.00    -0.213 A  
HETATM    8  C   UNL     1      -9.726  10.989  67.504  1.00  0.00    -0.190 C  
HETATM    9  C   UNL     1      -8.666   9.302  64.080  1.00  0.00    -0.173 A  
HETATM   10  C   UNL     1      -9.073  12.171  67.338  1.00  0.00    -0.181 C  
HETATM   11  C   UNL     1      -9.174   8.789  69.297  1.00  0.00    -0.149 C  
HETATM   12  C   UNL     1      -9.223   7.882  68.107  1.00  0.00    -0.136 C  
HETATM   13  C   UNL     1     -10.562   9.417  69.411  1.00  0.00    -0.221 C  
HETATM   14  C   UNL     1      -9.312  13.341  68.180  1.00  0.00    -0.220 C  
HETATM   15  C   UNL     1     -10.588  10.801  68.764  1.00  0.00    -0.229 C  
HETATM   16  C   UNL     1     -10.559  13.848  68.107  1.00  0.00    -0.252 C  
HETATM   17  C   UNL     1     -11.498  13.222  69.080  1.00  0.00    -0.305 C  
HETATM   18  O   UNL     1     -12.369  13.870  69.655  1.00  0.00    -0.328 OA 
HETATM   19  C   UNL     1     -11.346  11.757  69.359  1.00  0.00    -0.337 C  
BRANCH   7  20
HETATM   20  O   UNL     1      -9.686  11.490  64.671  1.00  0.00    -0.238 OA 
HETATM   21  C   UNL     1     -10.933  11.556  63.980  1.00  0.00    -0.383 C  
ENDBRANCH   7  20
BRANCH   9  22
HETATM   22  O   UNL     1      -8.648   9.677  62.764  1.00  0.00    -0.170 OA 
HETATM   23  C   UNL     1      -7.707  10.667  62.364  1.00  0.00    -0.153 C  
ENDBRANCH   9  22
BRANCH  16  24
HETATM   24  O   UNL     1     -11.150  14.486  67.041  1.00  0.00    -0.304 OA 
HETATM   25  C   UNL     1     -10.276  15.148  66.138  1.00  0.00    -0.295 C  
ENDBRANCH  16  24
BRANCH  13  26
HETATM   26  N   UNL     1     -10.941   9.322  70.828  1.00  0.00    -0.260 N  
HETATM   27  C   UNL     1     -11.297   8.053  71.282  1.00  0.00    -0.264 C  
HETATM   28  H   UNL     1     -10.944  10.136  71.443  1.00  0.00     0.000 HD 
HETATM   29  O   UNL     1     -11.541   7.118  70.521  1.00  0.00    -0.301 OA 
HETATM   30  C   UNL     1     -11.309   7.835  72.771  1.00  0.00    -0.446 C  
ENDBRANCH  13  26
ENDBRANCH   2   3
TORSDOF 5
ENDMDL
MODEL       42
REMARK 921   NORMALIZED FREE ENERGY PREDICTED BY IDOCK:   -4.71 KCAL/MOL
REMARK 922        TOTAL FREE ENERGY PREDICTED BY IDOCK:   -6.78 KCAL/MOL
REMARK 923 INTER-LIGAND FREE ENERGY PREDICTED BY IDOCK:   -6.35 KCAL/MOL
REMARK 924 INTRA-LIGAND FREE ENERGY PREDICTED BY IDOCK:   -0.42 KCAL/MOL
REMARK 927      BINDING AFFINITY PREDICTED BY RF-SCORE:    0.00 PKD
ROOT
HETATM    1  C   UNL     1     -10.468   7.117  73.532  1.00  0.00    -0.380 C  
HETATM    2  O   UNL     1     -11.426   7.059  72.471  1.00  0.00    -0.266 OA 
ENDROOT
BRANCH   2   3
HETATM    3  C   UNL     1     -10.992   7.463  71.233  1.00  0.00    -0.242 A  
HETATM    4  C   UNL     1     -11.059   8.793  70.871  1.00  0.00    -0.320 A  
HETATM    5  C   UNL     1     -10.601   9.286  69.628  1.00  0.00    -0.241 A  
HETATM    6  C   UNL     1     -10.052   8.418  68.659  1.00  0.00    -0.210 A  
HETATM    7  C   UNL     1     -10.097   7.009  68.996  1.00  0.00    -0.180 A  
HETATM    8  C   UNL     1      -9.354   8.932  67.367  1.00  0.00    -0.165 C  
HETATM    9  C   UNL     1     -10.554   6.535  70.284  1.00  0.00    -0.228 A  
HETATM   10  C   UNL     1      -8.163   8.327  67.108  1.00  0.00    -0.119 C  
HETATM   11  C   UNL     1      -9.922  11.485  68.601  1.00  0.00    -0.207 C  
HETATM   12  C   UNL     1     -10.846  10.764  69.532  1.00  0.00    -0.288 C  
HETATM   13  C   UNL     1     -10.486  11.277  67.196  1.00  0.00    -0.222 C  
HETATM   14  C   UNL     1      -7.364   8.612  65.919  1.00  0.00    -0.084 C  
HETATM   15  C   UNL     1      -9.775  10.123  66.489  1.00  0.00    -0.252 C  
HETATM   16  C   UNL     1      -7.953   8.288  64.750  1.00  0.00    -0.146 C  
HETATM   17  C   UNL     1      -8.785   9.392  64.193  1.00  0.00    -0.198 C  
HETATM   18  O   UNL     1      -8.847   9.618  62.987  1.00  0.00    -0.219 OA 
HETATM   19  C   UNL     1      -9.551  10.247  65.156  1.00  0.00    -0.337 C  
BRANCH   7  20
HETATM   20  O   UNL     1      -9.723   6.144  67.974  1.00  0.00    -0.118 OA 
HETATM   21  C   UNL     1     -10.687   5.845  66.964  1.00  0.00    -0.318 C  
ENDBRANCH   7  20
BRANCH   9  22
HETATM   22  O   UNL     1     -10.634   5.182  70.474  1.00  0.00    -0.242 OA 
HETATM   23  C   UNL     1      -9.479   4.505  70.959  1.00  0.00    -0.161 C  
ENDBRANCH   9  22
BRANCH  16  24
HETATM   24  O   UNL     1      -8.237   7.031  64.267  1.00  0.00    -0.074 OA 
HETATM   25  C   UNL     1      -7.158   6.325  63.671  1.00  0.00    -0.050 C  
ENDBRANCH  16  24
BRANCH  13  26
HETATM   26  N   UNL     1     -10.460  12.593  66.543  1.00  0.00    -0.245 N  
HETATM   27  C   UNL     1     -11.372  13.532  67.022  1.00  0.00    -0.324 C  
HETATM   28  H   UNL     1      -9.812  12.808  65.785  1.00  0.00     0.000 HD 
HETATM   29  O   UNL     1     -12.317  13.230  67.750  1.00  0.00    -0.191 OA 
HETATM   30  C   UNL     1     -11.122  14.973  66.669  1.00  0.00    -0.326 C  
ENDBRANCH  13  26
ENDBRANCH   2   3
TORSDOF 5
ENDMDL
MODEL       43
REMARK 921   NORMALIZED FREE ENERGY PREDICTED BY IDOCK:   -4.61 KCAL/MOL
REMARK 922        TOTAL FREE ENERGY PREDICTED BY IDOCK:   -6.64 KCAL/MOL
REMARK 923 INTER-LIGAND FREE ENERGY PREDICTED BY IDOCK:   -5.85 KCAL/MOL
REMARK 924 INTRA-LIGAND FREE ENERGY PREDICTED BY IDOCK:   -0.78 KCAL/MOL
REMARK 927      BINDING AFFINITY PREDICTED BY RF-SCORE:    0.00 PKD
ROOT
HETATM    1  C   UNL     1     -12.402  11.916  63.385  1.00  0.00    -0.462 C  
HETATM    2  O   UNL     1     -12.682  12.109  64.774  1.00  0.00    -0.502 OA 
ENDROOT
BRANCH   2   3
HETATM    3  C   UNL     1     -11.631  12.511  65.560  1.00  0.00    -0.386 A  
HETATM    4  C   UNL     1     -10.752  11.581  66.077  1.00  0.00    -0.332 A  
HETATM    5  C   UNL     1      -9.630  11.924  66.864  1.00  0.00    -0.208 A  
HETATM    6  C   UNL     1      -9.352  13.270  67.187  1.00  0.00    -0.240 A  
HETATM    7  C   UNL     1     -10.345  14.229  66.745  1.00  0.00    -0.274 A  
HETATM    8  C   UNL     1      -8.030  13.715  67.875  1.00  0.00    -0.161 C  
HETATM    9  C   UNL     1     -11.474  13.852  65.923  1.00  0.00    -0.325 A  
HETATM   10  C   UNL     1      -7.443  14.796  67.292  1.00  0.00    -0.173 C  
HETATM   11  C   UNL     1      -7.448  10.897  67.594  1.00  0.00    -0.095 C  
HETATM   12  C   UNL     1      -8.899  10.686  67.297  1.00  0.00    -0.137 C  
HETATM   13  C   UNL     1      -7.381  11.459  69.014  1.00  0.00    -0.108 C  
HETATM   14  C   UNL     1      -6.226  15.419  67.807  1.00  0.00    -0.180 C  
HETATM   15  C   UNL     1      -7.265  12.982  68.991  1.00  0.00     0.014 C  
HETATM   16  C   UNL     1      -6.343  15.959  69.037  1.00  0.00    -0.133 C  
HETATM   17  C   UNL     1      -6.049  14.987  70.127  1.00  0.00    -0.156 C  
HETATM   18  O   UNL     1      -5.461  15.317  71.154  1.00  0.00    -0.110 OA 
HETATM   19  C   UNL     1      -6.484  13.565  69.937  1.00  0.00    -0.013 C  
BRANCH   7  20
HETATM   20  O   UNL     1     -10.165  15.526  67.213  1.00  0.00    -0.251 OA 
HETATM   21  C   UNL     1     -10.918  15.935  68.355  1.00  0.00    -0.331 C  
ENDBRANCH   7  20
BRANCH   9  22
HETATM   22  O   UNL     1     -12.397  14.817  65.626  1.00  0.00    -0.186 OA 
HETATM   23  C   UNL     1     -12.210  15.580  64.438  1.00  0.00    -0.079 C  
ENDBRANCH   9  22
BRANCH  16  24
HETATM   24  O   UNL     1      -7.074  17.063  69.409  1.00  0.00    -0.225 OA 
HETATM   25  C   UNL     1      -7.095  18.146  68.489  1.00  0.00    -0.257 C  
ENDBRANCH  16  24
BRANCH  13  26
HETATM   26  N   UNL     1      -6.324  10.707  69.705  1.00  0.00    -0.083 N  
HETATM   27  C   UNL     1      -6.754   9.700  70.569  1.00  0.00    -0.119 C  
HETATM   28  H   UNL     1      -5.335  10.908  69.561  1.00  0.00     0.000 HD 
HETATM   29  O   UNL     1      -7.921   9.602  70.947  1.00  0.00    -0.307 OA 
HETATM   30  C   UNL     1      -5.739   8.671  70.982  1.00  0.00    -0.035 C  
ENDBRANCH  13  26
ENDBRANCH   2   3
TORSDOF 5
ENDMDL
MODEL       44
REMARK 921   NORMALIZED FREE ENERGY PREDICTED BY IDOCK:   -4.60 KCAL/MOL
REMARK 922        TOTAL FREE ENERGY PREDICTED BY IDOCK:   -6.64 KCAL/MOL
REMARK 923 INTER-LIGAND FREE ENERGY PREDICTED BY IDOCK:   -5.97 KCAL/MOL
REMARK 924 INTRA-LIGAND FREE ENERGY PREDICTED BY IDOCK:   -0.67 KCAL/MOL
REMARK 927      BINDING AFFINITY PREDICTED BY RF-SCORE:    0.00 PKD
ROOT
HETATM    1  C   UNL     1     -13.079   9.500  72.371  1.00  0.00    -0.349 C  
HETATM    2  O   UNL     1     -12.322  10.673  72.059  1.00  0.00    -0.120 OA 
ENDROOT
BRANCH   2   3
HETATM    3  C   UNL     1     -11.886  10.793  70.763  1.00  0.00    -0.339 A  
HETATM    4  C   UNL     1     -11.426   9.687  70.078  1.00  0.00    -0.191 A  
HETATM    5  C   UNL     1     -10.994   9.729  68.732  1.00  0.00    -0.185 A  
HETATM    6  C   UNL     1     -10.993  10.940  68.006  1.00  0.00    -0.317 A  
HETATM    7  C   UNL     1     -11.360  12.117  68.767  1.00  0.00    -0.288 A  
HETATM    8  C   UNL     1     -10.720  11.003  66.476  1.00  0.00    -0.298 C  
HETATM    9  C   UNL     1     -11.818  12.042  70.138  1.00  0.00    -0.301 A  
HETATM   10  C   UNL     1     -11.608  11.773  65.791  1.00  0.00    -0.194 C  
HETATM   11  C   UNL     1     -10.613   8.134  66.819  1.00  0.00    -0.223 C  
HETATM   12  C   UNL     1     -10.525   8.371  68.294  1.00  0.00    -0.214 C  
HETATM   13  C   UNL     1      -9.373   8.784  66.208  1.00  0.00    -0.222 C  
HETATM   14  C   UNL     1     -11.509  12.021  64.354  1.00  0.00    -0.413 C  
HETATM   15  C   UNL     1      -9.697  10.180  65.675  1.00  0.00    -0.322 C  
HETATM   16  C   UNL     1     -10.404  12.691  63.970  1.00  0.00    -0.389 C  
HETATM   17  C   UNL     1      -9.253  11.791  63.676  1.00  0.00     0.138 C  
HETATM   18  O   UNL     1      -8.466  12.016  62.760  1.00  0.00     0.317 OA 
HETATM   19  C   UNL     1      -9.078  10.573  64.532  1.00  0.00    -0.251 C  
BRANCH   7  20
HETATM   20  O   UNL     1     -11.189  13.327  68.106  1.00  0.00    -0.245 OA 
HETATM   21  C   UNL     1      -9.923  13.977  68.216  1.00  0.00    -0.236 C  
ENDBRANCH   7  20
BRANCH   9  22
HETATM   22  O   UNL     1     -12.063  13.217  70.793  1.00  0.00    -0.341 OA 
HETATM   23  C   UNL     1     -13.388  13.739  70.758  1.00  0.00     0.072 C  
ENDBRANCH   9  22
BRANCH  16  24
HETATM   24  O   UNL     1     -10.080  14.003  64.226  1.00  0.00    -0.151 OA 
HETATM   25  C   UNL     1     -11.161  14.874  64.524  1.00  0.00    -0.264 C  
ENDBRANCH  16  24
BRANCH  13  26
HETATM   26  N   UNL     1      -8.819   7.806  65.261  1.00  0.00    -0.378 N  
HETATM   27  C   UNL     1      -7.793   6.997  65.746  1.00  0.00    -0.109 C  
HETATM   28  H   UNL     1      -9.166   7.724  64.305  1.00  0.00     0.000 HD 
HETATM   29  O   UNL     1      -7.195   7.238  66.794  1.00  0.00    -0.079 OA 
HETATM   30  C   UNL     1      -7.475   5.751  64.967  1.00  0.00    -0.079 C  
ENDBRANCH  13  26
ENDBRANCH   2   3
TORSDOF 5
ENDMDL
MODEL       45
REMARK 921   NORMALIZED FREE ENERGY PREDICTED BY IDOCK:   -4.60 KCAL/MOL
REMARK 922        TOTAL FREE ENERGY PREDICTED BY IDOCK:   -6.63 KCAL/MOL
REMARK 923 INTER-LIGAND FREE ENERGY PREDICTED BY IDOCK:   -7.08 KCAL/MOL
REMARK 924 INTRA-LIGAND FREE ENERGY PREDICTED BY IDOCK:    0.45 KCAL/MOL
REMARK 927      BINDING AFFINITY PREDICTED BY RF-SCORE:    0.00 PKD
ROOT
HETATM    1  C   UNL     1     -10.853  16.797  67.808  1.00  0.00    -0.285 C  
HETATM    2  O   UNL     1     -11.770  15.939  68.493  1.00  0.00    -0.383 OA 
ENDROOT
BRANCH   2   3
HETATM    3  C   UNL     1     -11.513  14.592  68.427  1.00  0.00    -0.311 A  
HETATM    4  C   UNL     1     -10.948  14.046  67.293  1.00  0.00    -0.303 A  
HETATM    5  C   UNL     1     -10.625  12.675  67.167  1.00  0.00    -0.252 A  
HETATM    6  C   UNL     1     -10.887  11.767  68.216  1.00  0.00    -0.259 A  
HETATM    7  C   UNL     1     -11.592  12.324  69.354  1.00  0.00    -0.314 A  
HETATM    8  C   UNL     1     -10.372  10.299  68.207  1.00  0.00    -0.209 C  
HETATM    9  C   UNL     1     -11.892  13.735  69.464  1.00  0.00    -0.339 A  
HETATM   10  C   UNL     1      -9.797   9.912  69.378  1.00  0.00    -0.231 C  
HETATM   11  C   UNL     1      -9.159  11.202  65.742  1.00  0.00    -0.222 C  
HETATM   12  C   UNL     1     -10.058  12.397  65.805  1.00  0.00    -0.273 C  
HETATM   13  C   UNL     1     -10.077   9.984  65.634  1.00  0.00    -0.251 C  
HETATM   14  C   UNL     1      -9.297   8.559  69.613  1.00  0.00    -0.157 C  
HETATM   15  C   UNL     1     -10.295   9.344  67.004  1.00  0.00    -0.322 C  
HETATM   16  C   UNL     1     -10.238   7.594  69.583  1.00  0.00    -0.204 C  
HETATM   17  C   UNL     1     -10.459   7.043  68.216  1.00  0.00    -0.202 C  
HETATM   18  O   UNL     1     -10.690   5.852  68.022  1.00  0.00    -0.250 OA 
HETATM   19  C   UNL     1     -10.381   7.990  67.056  1.00  0.00    -0.414 C  
BRANCH   7  20
HETATM   20  O   UNL     1     -12.007  11.399  70.304  1.00  0.00    -0.327 OA 
HETATM   21  C   UNL     1     -13.267  10.758  70.108  1.00  0.00     0.314 C  
ENDBRANCH   7  20
BRANCH   9  22
HETATM   22  O   UNL     1     -12.631  14.147  70.539  1.00  0.00    -0.333 OA 
HETATM   23  C   UNL     1     -11.943  14.736  71.638  1.00  0.00    -0.345 C  
ENDBRANCH   9  22
BRANCH  16  24
HETATM   24  O   UNL     1     -11.258   7.380  70.480  1.00  0.00    -0.267 OA 
HETATM   25  C   UNL     1     -10.924   7.496  71.855  1.00  0.00    -0.235 C  
ENDBRANCH  16  24
BRANCH  13  26
HETATM   26  N   UNL     1      -9.516   9.140  64.570  1.00  0.00    -0.327 N  
HETATM   27  C   UNL     1      -8.194   8.733  64.744  1.00  0.00    -0.162 C  
HETATM   28  H   UNL     1     -10.061   8.866  63.753  1.00  0.00     0.000 HD 
HETATM   29  O   UNL     1      -7.446   9.243  65.578  1.00  0.00    -0.088 OA 
HETATM   30  C   UNL     1      -7.715   7.578  63.909  1.00  0.00    -0.125 C  
ENDBRANCH  13  26
ENDBRANCH   2   3
TORSDOF 5
ENDMDL
MODEL       46
REMARK 921   NORMALIZED FREE ENERGY PREDICTED BY IDOCK:   -4.59 KCAL/MOL
REMARK 922        TOTAL FREE ENERGY PREDICTED BY IDOCK:   -6.61 KCAL/MOL
REMARK 923 INTER-LIGAND FREE ENERGY PREDICTED BY IDOCK:   -6.29 KCAL/MOL
REMARK 924 INTRA-LIGAND FREE ENERGY PREDICTED BY IDOCK:   -0.32 KCAL/MOL
REMARK 927      BINDING AFFINITY PREDICTED BY RF-SCORE:    0.00 PKD
ROOT
HETATM    1  C   UNL     1     -10.628  17.758  68.526  1.00  0.00    -0.255 C  
HETATM    2  O   UNL     1     -10.436  16.869  67.423  1.00  0.00    -0.311 OA 
ENDROOT
BRANCH   2   3
HETATM    3  C   UNL     1     -10.091  15.577  67.731  1.00  0.00    -0.232 A  
HETATM    4  C   UNL     1     -11.051  14.681  68.154  1.00  0.00    -0.285 A  
HETATM    5  C   UNL     1     -10.774  13.328  68.456  1.00  0.00    -0.280 A  
HETATM    6  C   UNL     1      -9.463  12.814  68.354  1.00  0.00    -0.162 A  
HETATM    7  C   UNL     1      -8.440  13.788  68.028  1.00  0.00    -0.176 A  
HETATM    8  C   UNL     1      -9.142  11.297  68.479  1.00  0.00    -0.173 C  
HETATM    9  C   UNL     1      -8.755  15.162  67.705  1.00  0.00    -0.170 A  
HETATM   10  C   UNL     1      -8.310  10.829  67.509  1.00  0.00    -0.115 C  
HETATM   11  C   UNL     1     -12.022  11.152  68.698  1.00  0.00    -0.289 C  
HETATM   12  C   UNL     1     -12.021  12.633  68.919  1.00  0.00    -0.284 C  
HETATM   13  C   UNL     1     -11.228  10.549  69.856  1.00  0.00    -0.307 C  
HETATM   14  C   UNL     1      -7.830   9.450  67.464  1.00  0.00    -0.099 C  
HETATM   15  C   UNL     1      -9.781  10.283  69.445  1.00  0.00    -0.242 C  
HETATM   16  C   UNL     1      -7.060   9.085  68.509  1.00  0.00    -0.072 C  
HETATM   17  C   UNL     1      -7.850   8.546  69.652  1.00  0.00    -0.095 C  
HETATM   18  O   UNL     1      -7.447   7.613  70.342  1.00  0.00    -0.076 OA 
HETATM   19  C   UNL     1      -9.182   9.171  69.941  1.00  0.00    -0.194 C  
BRANCH   7  20
HETATM   20  O   UNL     1      -7.133  13.322  68.102  1.00  0.00    -0.086 OA 
HETATM   21  C   UNL     1      -6.418  13.526  69.321  1.00  0.00    -0.111 C  
ENDBRANCH   7  20
BRANCH   9  22
HETATM   22  O   UNL     1      -7.713  16.022  67.490  1.00  0.00    -0.133 OA 
HETATM   23  C   UNL     1      -7.690  16.754  66.269  1.00  0.00    -0.275 C  
ENDBRANCH   9  22
BRANCH  16  24
HETATM   24  O   UNL     1      -5.793   9.523  68.820  1.00  0.00    -0.040 OA 
HETATM   25  C   UNL     1      -5.668  10.303  70.000  1.00  0.00    -0.052 C  
ENDBRANCH  16  24
BRANCH  13  26
HETATM   26  N   UNL     1     -12.016   9.408  70.345  1.00  0.00    -0.469 N  
HETATM   27  C   UNL     1     -12.936   9.687  71.354  1.00  0.00    -0.385 C  
HETATM   28  H   UNL     1     -11.897   8.468  69.967  1.00  0.00     0.000 HD 
HETATM   29  O   UNL     1     -12.924  10.739  71.992  1.00  0.00    -0.463 OA 
HETATM   30  C   UNL     1     -14.012   8.666  71.602  1.00  0.00    -0.459 C  
ENDBRANCH  13  26
ENDBRANCH   2   3
TORSDOF 5
ENDMDL
MODEL       47
REMARK 921   NORMALIZED FREE ENERGY PREDICTED BY IDOCK:   -4.56 KCAL/MOL
REMARK 922        TOTAL FREE ENERGY PREDICTED BY IDOCK:   -6.57 KCAL/MOL
REMARK 923 INTER-LIGAND FREE ENERGY PREDICTED BY IDOCK:   -6.43 KCAL/MOL
REMARK 924 INTRA-LIGAND FREE ENERGY PREDICTED BY IDOCK:   -0.14 KCAL/MOL
REMARK 927      BINDING AFFINITY PREDICTED BY RF-SCORE:    0.00 PKD
ROOT
HETATM    1  C   UNL     1      -8.678  15.479  66.436  1.00  0.00    -0.298 C  
HETATM    2  O   UNL     1      -9.864  14.717  66.197  1.00  0.00    -0.279 OA 
ENDROOT
BRANCH   2   3
HETATM    3  C   UNL     1      -9.958  13.512  66.847  1.00  0.00    -0.256 A  
HETATM    4  C   UNL     1      -9.037  12.515  66.603  1.00  0.00    -0.203 A  
HETATM    5  C   UNL     1      -9.052  11.263  67.261  1.00  0.00    -0.156 A  
HETATM    6  C   UNL     1     -10.047  10.953  68.213  1.00  0.00    -0.189 A  
HETATM    7  C   UNL     1     -11.081  11.957  68.375  1.00  0.00    -0.244 A  
HETATM    8  C   UNL     1      -9.992   9.680  69.104  1.00  0.00    -0.189 C  
HETATM    9  C   UNL     1     -11.029  13.237  67.704  1.00  0.00    -0.262 A  
HETATM   10  C   UNL     1     -10.243   9.918  70.420  1.00  0.00    -0.299 C  
HETATM   11  C   UNL     1      -7.479   9.347  67.714  1.00  0.00    -0.087 C  
HETATM   12  C   UNL     1      -7.941  10.393  66.747  1.00  0.00    -0.117 C  
HETATM   13  C   UNL     1      -8.470   8.190  67.596  1.00  0.00    -0.131 C  
HETATM   14  C   UNL     1     -10.301   8.861  71.427  1.00  0.00    -0.377 C  
HETATM   15  C   UNL     1      -9.533   8.271  68.692  1.00  0.00    -0.147 C  
HETATM   16  C   UNL     1     -11.289   7.962  71.248  1.00  0.00    -0.260 C  
HETATM   17  C   UNL     1     -10.883   6.819  70.382  1.00  0.00    -0.262 C  
HETATM   18  O   UNL     1     -11.266   5.671  70.595  1.00  0.00    -0.210 OA 
HETATM   19  C   UNL     1      -9.969   7.102  69.228  1.00  0.00    -0.168 C  
BRANCH   7  20
HETATM   20  O   UNL     1     -12.152  11.580  69.176  1.00  0.00    -0.325 OA 
HETATM   21  C   UNL     1     -12.282  12.200  70.455  1.00  0.00    -0.294 C  
ENDBRANCH   7  20
BRANCH   9  22
HETATM   22  O   UNL     1     -12.094  14.082  67.859  1.00  0.00    -0.363 OA 
HETATM   23  C   UNL     1     -11.922  15.231  68.683  1.00  0.00    -0.235 C  
ENDBRANCH   9  22
BRANCH  16  24
HETATM   24  O   UNL     1     -12.645   8.161  71.369  1.00  0.00    -0.310 OA 
HETATM   25  C   UNL     1     -13.074   8.917  72.492  1.00  0.00    -0.364 C  
ENDBRANCH  16  24
BRANCH  13  26
HETATM   26  N   UNL     1      -7.664   6.964  67.520  1.00  0.00    -0.109 N  
HETATM   27  C   UNL     1      -7.801   6.214  66.353  1.00  0.00    -0.104 C  
HETATM   28  H   UNL     1      -7.042   6.679  68.275  1.00  0.00     0.000 HD 
HETATM   29  O   UNL     1      -8.713   6.396  65.548  1.00  0.00    -0.141 OA 
HETATM   30  C   UNL     1      -6.734   5.194  66.064  1.00  0.00    -0.053 C  
ENDBRANCH  13  26
ENDBRANCH   2   3
TORSDOF 5
ENDMDL
MODEL       48
REMARK 921   NORMALIZED FREE ENERGY PREDICTED BY IDOCK:   -4.55 KCAL/MOL
REMARK 922        TOTAL FREE ENERGY PREDICTED BY IDOCK:   -6.56 KCAL/MOL
REMARK 923 INTER-LIGAND FREE ENERGY PREDICTED BY IDOCK:   -7.26 KCAL/MOL
REMARK 924 INTRA-LIGAND FREE ENERGY PREDICTED BY IDOCK:    0.70 KCAL/MOL
REMARK 927      BINDING AFFINITY PREDICTED BY RF-SCORE:    0.00 PKD
ROOT
HETATM    1  C   UNL     1      -7.241  19.705  69.123  1.00  0.00    -0.327 C  
HETATM    2  O   UNL     1      -8.617  19.367  68.929  1.00  0.00    -0.369 OA 
ENDROOT
BRANCH   2   3
HETATM    3  C   UNL     1      -8.876  18.106  68.452  1.00  0.00    -0.293 A  
HETATM    4  C   UNL     1      -7.992  17.075  68.693  1.00  0.00    -0.258 A  
HETATM    5  C   UNL     1      -8.210  15.746  68.263  1.00  0.00    -0.143 A  
HETATM    6  C   UNL     1      -9.365  15.399  67.528  1.00  0.00    -0.204 A  
HETATM    7  C   UNL     1     -10.227  16.509  67.172  1.00  0.00    -0.284 A  
HETATM    8  C   UNL     1      -9.747  13.926  67.207  1.00  0.00    -0.245 C  
HETATM    9  C   UNL     1      -9.990  17.856  67.644  1.00  0.00    -0.324 A  
HETATM   10  C   UNL     1     -11.053  13.632  67.452  1.00  0.00    -0.299 C  
HETATM   11  C   UNL     1      -7.389  13.426  68.803  1.00  0.00    -0.076 C  
HETATM   12  C   UNL     1      -7.050  14.876  68.653  1.00  0.00    -0.111 C  
HETATM   13  C   UNL     1      -7.383  12.839  67.392  1.00  0.00    -0.134 C  
HETATM   14  C   UNL     1     -11.644  12.326  67.169  1.00  0.00    -0.423 C  
HETATM   15  C   UNL     1      -8.799  12.778  66.822  1.00  0.00    -0.161 C  
HETATM   16  C   UNL     1     -11.657  11.981  65.866  1.00  0.00    -0.300 C  
HETATM   17  C   UNL     1     -10.416  11.272  65.442  1.00  0.00    -0.268 C  
HETATM   18  O   UNL     1     -10.438  10.346  64.635  1.00  0.00    -0.259 OA 
HETATM   19  C   UNL     1      -9.116  11.711  66.044  1.00  0.00    -0.188 C  
BRANCH   7  20
HETATM   20  O   UNL     1     -11.265  16.198  66.302  1.00  0.00    -0.000 OA 
HETATM   21  C   UNL     1     -11.024  16.324  64.901  1.00  0.00    -0.307 C  
ENDBRANCH   7  20
BRANCH   9  22
HETATM   22  O   UNL     1     -10.816  18.847  67.186  1.00  0.00    -0.444 OA 
HETATM   23  C   UNL     1     -10.301  19.751  66.214  1.00  0.00    -0.519 C  
ENDBRANCH   9  22
BRANCH  16  24
HETATM   24  O   UNL     1     -12.394  12.543  64.849  1.00  0.00    -0.466 OA 
HETATM   25  C   UNL     1     -11.687  12.863  63.660  1.00  0.00    -0.508 C  
ENDBRANCH  16  24
BRANCH  13  26
HETATM   26  N   UNL     1      -6.627  11.581  67.473  1.00  0.00    -0.078 N  
HETATM   27  C   UNL     1      -7.110  10.634  68.374  1.00  0.00    -0.078 C  
HETATM   28  H   UNL     1      -5.799  11.411  66.902  1.00  0.00     0.000 HD 
HETATM   29  O   UNL     1      -7.942  10.903  69.240  1.00  0.00    -0.138 OA 
HETATM   30  C   UNL     1      -6.623   9.220  68.211  1.00  0.00    -0.059 C  
ENDBRANCH  13  26
ENDBRANCH   2   3
TORSDOF 5
ENDMDL
MODEL       49
REMARK 921   NORMALIZED FREE ENERGY PREDICTED BY IDOCK:   -4.52 KCAL/MOL
REMARK 922        TOTAL FREE ENERGY PREDICTED BY IDOCK:   -6.52 KCAL/MOL
REMARK 923 INTER-LIGAND FREE ENERGY PREDICTED BY IDOCK:   -6.19 KCAL/MOL
REMARK 924 INTRA-LIGAND FREE ENERGY PREDICTED BY IDOCK:   -0.33 KCAL/MOL
REMARK 927      BINDING AFFINITY PREDICTED BY RF-SCORE:    0.00 PKD
ROOT
HETATM    1  C   UNL     1      -6.014   8.978  66.239  1.00  0.00    -0.059 C  
HETATM    2  O   UNL     1      -7.437   9.033  66.116  1.00  0.00    -0.089 OA 
ENDROOT
BRANCH   2   3
HETATM    3  C   UNL     1      -8.072  10.038  66.802  1.00  0.00    -0.118 A  
HETATM    4  C   UNL     1      -7.610  11.336  66.722  1.00  0.00    -0.151 A  
HETATM    5  C   UNL     1      -8.233  12.425  67.373  1.00  0.00    -0.180 A  
HETATM    6  C   UNL     1      -9.380  12.235  68.174  1.00  0.00    -0.205 A  
HETATM    7  C   UNL     1      -9.787  10.855  68.353  1.00  0.00    -0.177 A  
HETATM    8  C   UNL     1     -10.214  13.417  68.744  1.00  0.00    -0.128 C  
HETATM    9  C   UNL     1      -9.143   9.761  67.658  1.00  0.00    -0.131 A  
HETATM   10  C   UNL     1     -11.557  13.275  68.573  1.00  0.00    -0.368 C  
HETATM   11  C   UNL     1      -8.289  14.939  67.216  1.00  0.00    -0.233 C  
HETATM   12  C   UNL     1      -7.469  13.691  67.114  1.00  0.00     0.085 C  
HETATM   13  C   UNL     1      -8.378  15.270  68.705  1.00  0.00    -0.179 C  
HETATM   14  C   UNL     1     -12.533  14.236  69.081  1.00  0.00    -0.011 C  
HETATM   15  C   UNL     1      -9.686  14.750  69.301  1.00  0.00    -0.098 C  
HETATM   16  C   UNL     1     -12.566  14.354  70.424  1.00  0.00    -0.345 C  
HETATM   17  C   UNL     1     -11.612  15.376  70.940  1.00  0.00    -0.358 C  
HETATM   18  O   UNL     1     -11.886  16.102  71.892  1.00  0.00    -0.480 OA 
HETATM   19  C   UNL     1     -10.287  15.510  70.252  1.00  0.00    -0.217 C  
BRANCH   7  20
HETATM   20  O   UNL     1     -10.802  10.652  69.280  1.00  0.00    -0.208 OA 
HETATM   21  C   UNL     1     -10.522   9.823  70.408  1.00  0.00    -0.297 C  
ENDBRANCH   7  20
BRANCH   9  22
HETATM   22  O   UNL     1      -9.548   8.489  67.956  1.00  0.00    -0.145 OA 
HETATM   23  C   UNL     1     -10.422   7.834  67.043  1.00  0.00    -0.349 C  
ENDBRANCH   9  22
BRANCH  16  24
HETATM   24  O   UNL     1     -12.992  13.423  71.344  1.00  0.00    -0.352 OA 
HETATM   25  C   UNL     1     -14.141  13.768  72.104  1.00  0.00    -0.511 C  
ENDBRANCH  16  24
BRANCH  13  26
HETATM   26  N   UNL     1      -8.102  16.709  68.824  1.00  0.00    -0.238 N  
HETATM   27  C   UNL     1      -6.820  17.052  69.254  1.00  0.00    -0.219 C  
HETATM   28  H   UNL     1      -8.805  17.414  68.606  1.00  0.00     0.000 HD 
HETATM   29  O   UNL     1      -6.046  16.238  69.756  1.00  0.00    -0.185 OA 
HETATM   30  C   UNL     1      -6.375  18.469  69.017  1.00  0.00    -0.248 C  
ENDBRANCH  13  26
ENDBRANCH   2   3
TORSDOF 5
ENDMDL
MODEL       50
REMARK 921   NORMALIZED FREE ENERGY PREDICTED BY IDOCK:   -4.49 KCAL/MOL
REMARK 922        TOTAL FREE ENERGY PREDICTED BY IDOCK:   -6.49 KCAL/MOL
REMARK 923 INTER-LIGAND FREE ENERGY PREDICTED BY IDOCK:   -5.77 KCAL/MOL
REMARK 924 INTRA-LIGAND FREE ENERGY PREDICTED BY IDOCK:   -0.71 KCAL/MOL
REMARK 927      BINDING AFFINITY PREDICTED BY RF-SCORE:    0.00 PKD
ROOT
HETATM    1  C   UNL     1     -10.661   3.722  73.020  1.00  0.00    -0.167 C  
HETATM    2  O   UNL     1     -10.103   3.379  71.748  1.00  0.00    -0.158 OA 
ENDROOT
BRANCH   2   3
HETATM    3  C   UNL     1      -9.910   4.413  70.866  1.00  0.00    -0.196 A  
HETATM    4  C   UNL     1     -10.093   5.719  71.272  1.00  0.00    -0.253 A  
HETATM    5  C   UNL     1      -9.879   6.834  70.429  1.00  0.00    -0.186 A  
HETATM    6  C   UNL     1      -9.474   6.664  69.087  1.00  0.00    -0.136 A  
HETATM    7  C   UNL     1      -9.402   5.289  68.633  1.00  0.00    -0.121 A  
HETATM    8  C   UNL     1      -9.034   7.852  68.184  1.00  0.00    -0.131 C  
HETATM    9  C   UNL     1      -9.607   4.168  69.523  1.00  0.00    -0.204 A  
HETATM   10  C   UNL     1      -7.883   7.622  67.496  1.00  0.00    -0.119 C  
HETATM   11  C   UNL     1      -9.480   9.313  70.639  1.00  0.00    -0.333 C  
HETATM   12  C   UNL     1     -10.197   8.106  71.159  1.00  0.00    -0.234 C  
HETATM   13  C   UNL     1     -10.272   9.787  69.421  1.00  0.00    -0.210 C  
HETATM   14  C   UNL     1      -7.317   8.575  66.545  1.00  0.00    -0.084 C  
HETATM   15  C   UNL     1      -9.650   9.260  68.129  1.00  0.00    -0.159 C  
HETATM   16  C   UNL     1      -8.087   8.826  65.467  1.00  0.00    -0.115 C  
HETATM   17  C   UNL     1      -9.048   9.944  65.688  1.00  0.00    -0.178 C  
HETATM   18  O   UNL     1      -9.329  10.747  64.802  1.00  0.00    -0.202 OA 
HETATM   19  C   UNL     1      -9.668  10.079  67.045  1.00  0.00    -0.227 C  
BRANCH   7  20
HETATM   20  O   UNL     1      -9.178   5.127  67.271  1.00  0.00    -0.112 OA 
HETATM   21  C   UNL     1     -10.313   4.977  66.419  1.00  0.00    -0.294 C  
ENDBRANCH   7  20
BRANCH   9  22
HETATM   22  O   UNL     1      -9.597   2.912  68.979  1.00  0.00    -0.141 OA 
HETATM   23  C   UNL     1      -8.357   2.214  68.930  1.00  0.00    -0.056 C  
ENDBRANCH   9  22
BRANCH  16  24
HETATM   24  O   UNL     1      -8.400   7.972  64.435  1.00  0.00    -0.122 OA 
HETATM   25  C   UNL     1      -7.305   7.418  63.720  1.00  0.00    -0.089 C  
ENDBRANCH  16  24
BRANCH  13  26
HETATM   26  N   UNL     1     -10.414  11.243  69.564  1.00  0.00    -0.442 N  
HETATM   27  C   UNL     1     -11.706  11.748  69.425  1.00  0.00    -0.341 C  
HETATM   28  H   UNL     1      -9.615  11.847  69.753  1.00  0.00     0.000 HD 
HETATM   29  O   UNL     1     -12.632  11.087  68.956  1.00  0.00    -0.378 OA 
HETATM   30  C   UNL     1     -11.957  13.139  69.940  1.00  0.00    -0.387 C  
ENDBRANCH  13  26
ENDBRANCH   2   3
TORSDOF 5
ENDMDL
MODEL       51
REMARK 921   NORMALIZED FREE ENERGY PREDICTED BY IDOCK:   -4.46 KCAL/MOL
REMARK 922        TOTAL FREE ENERGY PREDICTED BY IDOCK:   -6.45 KCAL/MOL
REMARK 923 INTER-LIGAND FREE ENERGY PREDICTED BY IDOCK:   -5.65 KCAL/MOL
REMARK 924 INTRA-LIGAND FREE ENERGY PREDICTED BY IDOCK:   -0.80 KCAL/MOL
REMARK 927      BINDING AFFINITY PREDICTED BY RF-SCORE:    0.00 PKD
ROOT
HETATM    1  C   UNL     1      -6.115   6.162  64.667  1.00  0.00    -0.029 C  
HETATM    2  O   UNL     1      -5.730   6.674  65.946  1.00  0.00    -0.024 OA 
ENDROOT
BRANCH   2   3
HETATM    3  C   UNL     1      -6.748   6.981  66.814  1.00  0.00    -0.060 A  
HETATM    4  C   UNL     1      -7.533   8.095  66.600  1.00  0.00    -0.089 A  
HETATM    5  C   UNL     1      -8.619   8.453  67.432  1.00  0.00    -0.124 A  
HETATM    6  C   UNL     1      -8.953   7.680  68.565  1.00  0.00    -0.129 A  
HETATM    7  C   UNL     1      -8.051   6.582  68.852  1.00  0.00    -0.115 A  
HETATM    8  C   UNL     1     -10.250   7.915  69.391  1.00  0.00    -0.206 C  
HETATM    9  C   UNL     1      -6.959   6.227  67.972  1.00  0.00    -0.080 A  
HETATM   10  C   UNL     1     -10.938   6.774  69.671  1.00  0.00    -0.336 C  
HETATM   11  C   UNL     1     -10.682   9.896  67.330  1.00  0.00    -0.323 C  
HETATM   12  C   UNL     1      -9.244   9.731  66.950  1.00  0.00    -0.174 C  
HETATM   13  C   UNL     1     -10.686  10.411  68.769  1.00  0.00    -0.225 C  
HETATM   14  C   UNL     1     -12.152   6.752  70.483  1.00  0.00    -0.332 C  
HETATM   15  C   UNL     1     -10.893   9.263  69.757  1.00  0.00    -0.239 C  
HETATM   16  C   UNL     1     -11.985   7.142  71.763  1.00  0.00    -0.313 C  
HETATM   17  C   UNL     1     -12.146   8.612  71.946  1.00  0.00    -0.356 C  
HETATM   18  O   UNL     1     -12.682   9.090  72.943  1.00  0.00    -0.276 OA 
HETATM   19  C   UNL     1     -11.642   9.515  70.862  1.00  0.00    -0.398 C  
BRANCH   7  20
HETATM   20  O   UNL     1      -8.275   5.932  70.060  1.00  0.00    -0.116 OA 
HETATM   21  C   UNL     1      -7.559   6.388  71.208  1.00  0.00    -0.094 C  
ENDBRANCH   7  20
BRANCH   9  22
HETATM   22  O   UNL     1      -6.117   5.226  68.374  1.00  0.00    -0.024 OA 
HETATM   23  C   UNL     1      -6.402   3.899  67.945  1.00  0.00    -0.037 C  
ENDBRANCH   9  22
BRANCH  16  24
HETATM   24  O   UNL     1     -11.296   6.492  72.761  1.00  0.00    -0.250 OA 
HETATM   25  C   UNL     1     -11.592   5.115  72.938  1.00  0.00    -0.205 C  
ENDBRANCH  16  24
BRANCH  13  26
HETATM   26  N   UNL     1     -11.647  11.522  68.806  1.00  0.00    -0.287 N  
HETATM   27  C   UNL     1     -11.129  12.789  68.542  1.00  0.00    -0.266 C  
HETATM   28  H   UNL     1     -12.635  11.375  69.013  1.00  0.00     0.000 HD 
HETATM   29  O   UNL     1      -9.922  13.026  68.538  1.00  0.00    -0.227 OA 
HETATM   30  C   UNL     1     -12.111  13.871  68.187  1.00  0.00    -0.317 C  
ENDBRANCH  13  26
ENDBRANCH   2   3
TORSDOF 5
ENDMDL
MODEL       52
REMARK 921   NORMALIZED FREE ENERGY PREDICTED BY IDOCK:   -4.45 KCAL/MOL
REMARK 922        TOTAL FREE ENERGY PREDICTED BY IDOCK:   -6.44 KCAL/MOL
REMARK 923 INTER-LIGAND FREE ENERGY PREDICTED BY IDOCK:   -5.87 KCAL/MOL
REMARK 924 INTRA-LIGAND FREE ENERGY PREDICTED BY IDOCK:   -0.56 KCAL/MOL
REMARK 927      BINDING AFFINITY PREDICTED BY RF-SCORE:    0.00 PKD
ROOT
HETATM    1  C   UNL     1      -6.814   8.652  62.936  1.00  0.00    -0.090 C  
HETATM    2  O   UNL     1      -7.498   7.487  63.407  1.00  0.00    -0.087 OA 
ENDROOT
BRANCH   2   3
HETATM    3  C   UNL     1      -8.042   7.564  64.664  1.00  0.00    -0.101 A  
HETATM    4  C   UNL     1      -8.715   8.700  65.064  1.00  0.00    -0.154 A  
HETATM    5  C   UNL     1      -9.330   8.836  66.329  1.00  0.00    -0.283 A  
HETATM    6  C   UNL     1      -9.270   7.797  67.283  1.00  0.00    -0.162 A  
HETATM    7  C   UNL     1      -8.459   6.657  66.904  1.00  0.00    -0.115 A  
HETATM    8  C   UNL     1     -10.094   7.816  68.603  1.00  0.00    -0.211 C  
HETATM    9  C   UNL     1      -7.858   6.535  65.594  1.00  0.00    -0.100 A  
HETATM   10  C   UNL     1     -10.737   6.647  68.866  1.00  0.00    -0.304 C  
HETATM   11  C   UNL     1     -11.084  10.269  67.434  1.00  0.00    -0.261 C  
HETATM   12  C   UNL     1      -9.946  10.199  66.465  1.00  0.00    -0.283 C  
HETATM   13  C   UNL     1     -10.455  10.391  68.822  1.00  0.00    -0.199 C  
HETATM   14  C   UNL     1     -11.520   6.421  70.079  1.00  0.00    -0.496 C  
HETATM   15  C   UNL     1     -10.379   9.027  69.507  1.00  0.00    -0.211 C  
HETATM   16  C   UNL     1     -10.813   6.464  71.226  1.00  0.00    -0.257 C  
HETATM   17  C   UNL     1     -10.719   7.836  71.799  1.00  0.00    -0.223 C  
HETATM   18  O   UNL     1     -10.755   8.042  73.010  1.00  0.00    -0.361 OA 
HETATM   19  C   UNL     1     -10.591   8.987  70.848  1.00  0.00    -0.316 C  
BRANCH   7  20
HETATM   20  O   UNL     1      -8.255   5.716  67.906  1.00  0.00    -0.101 OA 
HETATM   21  C   UNL     1      -7.111   5.871  68.746  1.00  0.00    -0.081 C  
ENDBRANCH   7  20
BRANCH   9  22
HETATM   22  O   UNL     1      -7.045   5.459  65.362  1.00  0.00    -0.063 OA 
HETATM   23  C   UNL     1      -7.630   4.285  64.810  1.00  0.00    -0.077 C  
ENDBRANCH   9  22
BRANCH  16  24
HETATM   24  O   UNL     1      -9.862   5.572  71.666  1.00  0.00    -0.165 OA 
HETATM   25  C   UNL     1     -10.015   4.226  71.242  1.00  0.00    -0.160 C  
ENDBRANCH  16  24
BRANCH  13  26
HETATM   26  N   UNL     1     -11.188  11.460  69.514  1.00  0.00    -0.335 N  
HETATM   27  C   UNL     1     -10.864  12.764  69.143  1.00  0.00    -0.075 C  
HETATM   28  H   UNL     1     -11.893  11.260  70.223  1.00  0.00     0.000 HD 
HETATM   29  O   UNL     1      -9.861  13.039  68.485  1.00  0.00    -0.218 OA 
HETATM   30  C   UNL     1     -11.837  13.847  69.521  1.00  0.00    -0.383 C  
ENDBRANCH  13  26
ENDBRANCH   2   3
TORSDOF 5
ENDMDL
MODEL       53
REMARK 921   NORMALIZED FREE ENERGY PREDICTED BY IDOCK:   -4.34 KCAL/MOL
REMARK 922        TOTAL FREE ENERGY PREDICTED BY IDOCK:   -6.29 KCAL/MOL
REMARK 923 INTER-LIGAND FREE ENERGY PREDICTED BY IDOCK:   -6.80 KCAL/MOL
REMARK 924 INTRA-LIGAND FREE ENERGY PREDICTED BY IDOCK:    0.51 KCAL/MOL
REMARK 927      BINDING AFFINITY PREDICTED BY RF-SCORE:    0.00 PKD
ROOT
HETATM    1  C   UNL     1      -5.830  19.703  66.918  1.00  0.00    -0.173 C  
HETATM    2  O   UNL     1      -7.215  19.443  66.672  1.00  0.00    -0.210 OA 
ENDROOT
BRANCH   2   3
HETATM    3  C   UNL     1      -7.625  18.140  66.805  1.00  0.00    -0.223 A  
HETATM    4  C   UNL     1      -6.726  17.161  67.177  1.00  0.00    -0.210 A  
HETATM    5  C   UNL     1      -7.084  15.807  67.367  1.00  0.00    -0.236 A  
HETATM    6  C   UNL     1      -8.411  15.370  67.162  1.00  0.00    -0.241 A  
HETATM    7  C   UNL     1      -9.322  16.377  66.654  1.00  0.00    -0.259 A  
HETATM    8  C   UNL     1      -8.897  13.943  67.548  1.00  0.00    -0.196 C  
HETATM    9  C   UNL     1      -8.933  17.760  66.488  1.00  0.00    -0.261 A  
HETATM   10  C   UNL     1     -10.074  13.929  68.229  1.00  0.00    -0.241 C  
HETATM   11  C   UNL     1      -6.178  13.755  68.515  1.00  0.00    -0.092 C  
HETATM   12  C   UNL     1      -5.876  14.995  67.734  1.00  0.00    -0.125 C  
HETATM   13  C   UNL     1      -6.603  12.701  67.492  1.00  0.00    -0.156 C  
HETATM   14  C   UNL     1     -10.745  12.698  68.641  1.00  0.00    -0.269 C  
HETATM   15  C   UNL     1      -8.126  12.621  67.394  1.00  0.00    -0.182 C  
HETATM   16  C   UNL     1     -11.151  11.908  67.626  1.00  0.00    -0.257 C  
HETATM   17  C   UNL     1     -10.105  10.940  67.190  1.00  0.00    -0.198 C  
HETATM   18  O   UNL     1     -10.382   9.795  66.839  1.00  0.00    -0.233 OA 
HETATM   19  C   UNL     1      -8.678  11.395  67.202  1.00  0.00    -0.155 C  
BRANCH   7  20
HETATM   20  O   UNL     1     -10.577  15.908  66.285  1.00  0.00    -0.305 OA 
HETATM   21  C   UNL     1     -10.841  15.726  64.894  1.00  0.00    -0.413 C  
ENDBRANCH   7  20
BRANCH   9  22
HETATM   22  O   UNL     1      -9.841  18.615  65.926  1.00  0.00    -0.510 OA 
HETATM   23  C   UNL     1     -10.646  19.403  66.797  1.00  0.00    -0.472 C  
ENDBRANCH   9  22
BRANCH  16  24
HETATM   24  O   UNL     1     -12.148  12.154  66.710  1.00  0.00    -0.609 OA 
HETATM   25  C   UNL     1     -11.733  12.380  65.371  1.00  0.00    -0.402 C  
ENDBRANCH  16  24
BRANCH  13  26
HETATM   26  N   UNL     1      -5.878  11.471  67.844  1.00  0.00    -0.044 N  
HETATM   27  C   UNL     1      -6.120  10.962  69.119  1.00  0.00    -0.044 C  
HETATM   28  H   UNL     1      -5.237  11.017  67.193  1.00  0.00     0.000 HD 
HETATM   29  O   UNL     1      -6.684  11.612  69.999  1.00  0.00    -0.050 OA 
HETATM   30  C   UNL     1      -5.723   9.534  69.373  1.00  0.00    -0.034 C  
ENDBRANCH  13  26
ENDBRANCH   2   3
TORSDOF 5
ENDMDL
MODEL       54
REMARK 921   NORMALIZED FREE ENERGY PREDICTED BY IDOCK:   -4.33 KCAL/MOL
REMARK 922        TOTAL FREE ENERGY PREDICTED BY IDOCK:   -6.29 KCAL/MOL
REMARK 923 INTER-LIGAND FREE ENERGY PREDICTED BY IDOCK:   -5.62 KCAL/MOL
REMARK 924 INTRA-LIGAND FREE ENERGY PREDICTED BY IDOCK:   -0.67 KCAL/MOL
REMARK 927      BINDING AFFINITY PREDICTED BY RF-SCORE:    0.00 PKD
ROOT
HETATM    1  C   UNL     1     -10.371  12.457  64.466  1.00  0.00    -0.325 C  
HETATM    2  O   UNL     1      -9.836  12.611  65.783  1.00  0.00    -0.264 OA 
ENDROOT
BRANCH   2   3
HETATM    3  C   UNL     1      -9.800  11.483  66.564  1.00  0.00    -0.202 A  
HETATM    4  C   UNL     1      -9.479  10.262  66.010  1.00  0.00    -0.234 A  
HETATM    5  C   UNL     1      -9.390   9.066  66.759  1.00  0.00    -0.213 A  
HETATM    6  C   UNL     1      -9.650   9.056  68.147  1.00  0.00    -0.164 A  
HETATM    7  C   UNL     1     -10.106  10.316  68.699  1.00  0.00    -0.174 A  
HETATM    8  C   UNL     1      -9.373   7.817  69.046  1.00  0.00    -0.150 C  
HETATM    9  C   UNL     1     -10.168  11.529  67.913  1.00  0.00    -0.184 A  
HETATM   10  C   UNL     1      -8.717   8.113  70.201  1.00  0.00    -0.130 C  
HETATM   11  C   UNL     1      -8.367   6.773  66.544  1.00  0.00    -0.121 C  
HETATM   12  C   UNL     1      -9.055   7.912  65.859  1.00  0.00    -0.139 C  
HETATM   13  C   UNL     1      -9.468   5.956  67.220  1.00  0.00    -0.114 C  
HETATM   14  C   UNL     1      -8.405   7.114  71.221  1.00  0.00    -0.113 C  
HETATM   15  C   UNL     1      -9.602   6.337  68.694  1.00  0.00    -0.128 C  
HETATM   16  C   UNL     1      -9.479   6.542  71.802  1.00  0.00    -0.152 C  
HETATM   17  C   UNL     1      -9.959   5.335  71.072  1.00  0.00    -0.201 C  
HETATM   18  O   UNL     1     -10.393   4.348  71.660  1.00  0.00    -0.151 OA 
HETATM   19  C   UNL     1      -9.888   5.345  69.575  1.00  0.00    -0.264 C  
BRANCH   7  20
HETATM   20  O   UNL     1     -10.531  10.264  70.021  1.00  0.00    -0.268 OA 
HETATM   21  C   UNL     1     -11.925  10.085  70.269  1.00  0.00    -0.187 C  
ENDBRANCH   7  20
BRANCH   9  22
HETATM   22  O   UNL     1     -10.689  12.647  68.506  1.00  0.00    -0.236 OA 
HETATM   23  C   UNL     1     -11.994  13.064  68.117  1.00  0.00    -0.280 C  
ENDBRANCH   9  22
BRANCH  16  24
HETATM   24  O   UNL     1     -10.395   7.128  72.645  1.00  0.00    -0.193 OA 
HETATM   25  C   UNL     1     -10.256   6.835  74.028  1.00  0.00    -0.369 C  
ENDBRANCH  16  24
BRANCH  13  26
HETATM   26  N   UNL     1      -9.187   4.548  66.905  1.00  0.00    -0.125 N  
HETATM   27  C   UNL     1      -9.905   4.004  65.841  1.00  0.00    -0.171 C  
HETATM   28  H   UNL     1      -8.507   4.001  67.434  1.00  0.00     0.000 HD 
HETATM   29  O   UNL     1     -10.893   4.553  65.355  1.00  0.00    -0.271 OA 
HETATM   30  C   UNL     1      -9.382   2.726  65.243  1.00  0.00    -0.097 C  
ENDBRANCH  13  26
ENDBRANCH   2   3
TORSDOF 5
ENDMDL
MODEL       55
REMARK 921   NORMALIZED FREE ENERGY PREDICTED BY IDOCK:   -4.29 KCAL/MOL
REMARK 922        TOTAL FREE ENERGY PREDICTED BY IDOCK:   -6.23 KCAL/MOL
REMARK 923 INTER-LIGAND FREE ENERGY PREDICTED BY IDOCK:   -5.52 KCAL/MOL
REMARK 924 INTRA-LIGAND FREE ENERGY PREDICTED BY IDOCK:   -0.71 KCAL/MOL
REMARK 927      BINDING AFFINITY PREDICTED BY RF-SCORE:    0.00 PKD
ROOT
HETATM    1  C   UNL     1      -9.239   4.281  63.738  1.00  0.00    -0.139 C  
HETATM    2  O   UNL     1      -9.807   3.638  64.883  1.00  0.00    -0.175 OA 
ENDROOT
BRANCH   2   3
HETATM    3  C   UNL     1      -9.807   4.358  66.051  1.00  0.00    -0.230 A  
HETATM    4  C   UNL     1      -9.872   5.736  66.020  1.00  0.00    -0.019 A  
HETATM    5  C   UNL     1      -9.911   6.539  67.183  1.00  0.00    -0.187 A  
HETATM    6  C   UNL     1      -9.866   5.960  68.470  1.00  0.00    -0.166 A  
HETATM    7  C   UNL     1      -9.676   4.523  68.494  1.00  0.00    -0.130 A  
HETATM    8  C   UNL     1     -10.107   6.778  69.770  1.00  0.00    -0.198 C  
HETATM    9  C   UNL     1      -9.659   3.723  67.289  1.00  0.00    -0.169 A  
HETATM   10  C   UNL     1     -10.966   6.184  70.643  1.00  0.00    -0.376 C  
HETATM   11  C   UNL     1     -10.567   8.882  67.840  1.00  0.00    -0.244 C  
HETATM   12  C   UNL     1      -9.944   7.993  66.809  1.00  0.00    -0.344 C  
HETATM   13  C   UNL     1      -9.482   9.151  68.882  1.00  0.00    -0.151 C  
HETATM   14  C   UNL     1     -11.292   6.746  71.951  1.00  0.00    -0.306 C  
HETATM   15  C   UNL     1      -9.628   8.208  70.076  1.00  0.00    -0.171 C  
HETATM   16  C   UNL     1     -10.251   6.836  72.804  1.00  0.00    -0.189 C  
HETATM   17  C   UNL     1      -9.506   8.120  72.677  1.00  0.00    -0.276 C  
HETATM   18  O   UNL     1      -9.036   8.701  73.652  1.00  0.00    -0.170 OA 
HETATM   19  C   UNL     1      -9.348   8.707  71.307  1.00  0.00    -0.288 C  
BRANCH   7  20
HETATM   20  O   UNL     1      -9.454   3.976  69.752  1.00  0.00    -0.162 OA 
HETATM   21  C   UNL     1      -8.116   3.961  70.250  1.00  0.00    -0.050 C  
ENDBRANCH   7  20
BRANCH   9  22
HETATM   22  O   UNL     1      -9.392   2.387  67.413  1.00  0.00    -0.158 OA 
HETATM   23  C   UNL     1      -8.062   1.945  67.166  1.00  0.00    -0.068 C  
ENDBRANCH   9  22
BRANCH  16  24
HETATM   24  O   UNL     1      -9.563   5.809  73.409  1.00  0.00    -0.142 OA 
HETATM   25  C   UNL     1     -10.339   4.879  74.149  1.00  0.00    -0.264 C  
ENDBRANCH  16  24
BRANCH  13  26
HETATM   26  N   UNL     1      -9.518  10.596  69.149  1.00  0.00    -0.297 N  
HETATM   27  C   UNL     1      -8.735  11.392  68.314  1.00  0.00    -0.160 C  
HETATM   28  H   UNL     1     -10.082  10.993  69.900  1.00  0.00     0.000 HD 
HETATM   29  O   UNL     1      -7.867  10.928  67.575  1.00  0.00    -0.110 OA 
HETATM   30  C   UNL     1      -9.036  12.865  68.291  1.00  0.00    -0.180 C  
ENDBRANCH  13  26
ENDBRANCH   2   3
TORSDOF 5
ENDMDL
MODEL       56
REMARK 921   NORMALIZED FREE ENERGY PREDICTED BY IDOCK:   -4.26 KCAL/MOL
REMARK 922        TOTAL FREE ENERGY PREDICTED BY IDOCK:   -6.19 KCAL/MOL
REMARK 923 INTER-LIGAND FREE ENERGY PREDICTED BY IDOCK:   -5.49 KCAL/MOL
REMARK 924 INTRA-LIGAND FREE ENERGY PREDICTED BY IDOCK:   -0.70 KCAL/MOL
REMARK 927      BINDING AFFINITY PREDICTED BY RF-SCORE:    0.00 PKD
ROOT
HETATM    1  C   UNL     1     -10.338   4.200  65.235  1.00  0.00    -0.168 C  
HETATM    2  O   UNL     1      -9.479   3.571  66.190  1.00  0.00    -0.175 OA 
ENDROOT
BRANCH   2   3
HETATM    3  C   UNL     1      -9.273   4.247  67.366  1.00  0.00    -0.150 A  
HETATM    4  C   UNL     1     -10.257   5.066  67.880  1.00  0.00    -0.147 A  
HETATM    5  C   UNL     1     -10.128   5.766  69.102  1.00  0.00    -0.257 A  
HETATM    6  C   UNL     1      -8.947   5.675  69.871  1.00  0.00    -0.142 A  
HETATM    7  C   UNL     1      -7.873   4.913  69.265  1.00  0.00    -0.075 A  
HETATM    8  C   UNL     1      -8.831   6.259  71.308  1.00  0.00    -0.139 C  
HETATM    9  C   UNL     1      -8.040   4.190  68.023  1.00  0.00    -0.089 A  
HETATM   10  C   UNL     1      -8.271   5.403  72.205  1.00  0.00    -0.115 C  
HETATM   11  C   UNL     1     -11.610   6.881  70.807  1.00  0.00    -0.397 C  
HETATM   12  C   UNL     1     -11.355   6.591  69.361  1.00  0.00    -0.395 C  
HETATM   13  C   UNL     1     -10.711   8.063  71.170  1.00  0.00    -0.220 C  
HETATM   14  C   UNL     1      -8.012   5.762  73.597  1.00  0.00    -0.108 C  
HETATM   15  C   UNL     1      -9.419   7.582  71.829  1.00  0.00    -0.170 C  
HETATM   16  C   UNL     1      -7.122   6.761  73.769  1.00  0.00    -0.078 C  
HETATM   17  C   UNL     1      -7.756   8.110  73.763  1.00  0.00    -0.180 C  
HETATM   18  O   UNL     1      -7.371   9.015  74.499  1.00  0.00    -0.423 OA 
HETATM   19  C   UNL     1      -8.906   8.341  72.830  1.00  0.00    -0.302 C  
BRANCH   7  20
HETATM   20  O   UNL     1      -6.656   4.970  69.934  1.00  0.00    -0.034 OA 
HETATM   21  C   UNL     1      -5.632   5.803  69.390  1.00  0.00    -0.008 C  
ENDBRANCH   7  20
BRANCH   9  22
HETATM   22  O   UNL     1      -6.942   3.568  67.495  1.00  0.00    -0.052 OA 
HETATM   23  C   UNL     1      -6.719   2.203  67.835  1.00  0.00    -0.035 C  
ENDBRANCH   9  22
BRANCH  16  24
HETATM   24  O   UNL     1      -5.770   6.741  73.515  1.00  0.00    -0.049 OA 
HETATM   25  C   UNL     1      -5.307   7.613  72.494  1.00  0.00    -0.036 C  
ENDBRANCH  16  24
BRANCH  13  26
HETATM   26  N   UNL     1     -11.551   9.002  71.926  1.00  0.00    -0.365 N  
HETATM   27  C   UNL     1     -12.068  10.078  71.206  1.00  0.00    -0.394 C  
HETATM   28  H   UNL     1     -11.745   8.874  72.919  1.00  0.00     0.000 HD 
HETATM   29  O   UNL     1     -11.656  10.390  70.089  1.00  0.00    -0.267 OA 
HETATM   30  C   UNL     1     -13.221  10.824  71.820  1.00  0.00    -0.523 C  
ENDBRANCH  13  26
ENDBRANCH   2   3
TORSDOF 5
ENDMDL
MODEL       57
REMARK 921   NORMALIZED FREE ENERGY PREDICTED BY IDOCK:   -4.26 KCAL/MOL
REMARK 922        TOTAL FREE ENERGY PREDICTED BY IDOCK:   -6.19 KCAL/MOL
REMARK 923 INTER-LIGAND FREE ENERGY PREDICTED BY IDOCK:   -7.04 KCAL/MOL
REMARK 924 INTRA-LIGAND FREE ENERGY PREDICTED BY IDOCK:    0.84 KCAL/MOL
REMARK 927      BINDING AFFINITY PREDICTED BY RF-SCORE:    0.00 PKD
ROOT
HETATM    1  C   UNL     1      -9.371  19.270  69.074  1.00  0.00    -0.301 C  
HETATM    2  O   UNL     1     -10.648  18.709  68.757  1.00  0.00    -0.112 OA 
ENDROOT
BRANCH   2   3
HETATM    3  C   UNL     1     -10.647  17.432  68.253  1.00  0.00    -0.366 A  
HETATM    4  C   UNL     1     -10.825  16.352  69.093  1.00  0.00    -0.329 A  
HETATM    5  C   UNL     1     -10.869  15.013  68.641  1.00  0.00    -0.249 A  
HETATM    6  C   UNL     1     -10.711  14.702  67.272  1.00  0.00    -0.290 A  
HETATM    7  C   UNL     1     -10.403  15.829  66.414  1.00  0.00    -0.299 A  
HETATM    8  C   UNL     1     -10.951  13.276  66.701  1.00  0.00    -0.297 C  
HETATM    9  C   UNL     1     -10.384  17.191  66.901  1.00  0.00    -0.308 A  
HETATM   10  C   UNL     1     -11.712  13.256  65.573  1.00  0.00    -0.376 C  
HETATM   11  C   UNL     1     -11.679  12.770  69.453  1.00  0.00    -0.380 C  
HETATM   12  C   UNL     1     -11.040  14.077  69.802  1.00  0.00    -0.101 C  
HETATM   13  C   UNL     1     -10.568  11.892  68.880  1.00  0.00    -0.173 C  
HETATM   14  C   UNL     1     -12.014  12.032  64.834  1.00  0.00    -0.286 C  
HETATM   15  C   UNL     1     -10.575  11.933  67.352  1.00  0.00    -0.257 C  
HETATM   16  C   UNL     1     -10.942  11.413  64.301  1.00  0.00    -0.321 C  
HETATM   17  C   UNL     1     -10.311  10.438  65.235  1.00  0.00    -0.197 C  
HETATM   18  O   UNL     1      -9.840   9.372  64.846  1.00  0.00    -0.052 OA 
HETATM   19  C   UNL     1     -10.273  10.786  66.692  1.00  0.00    -0.283 C  
BRANCH   7  20
HETATM   20  O   UNL     1     -10.074  15.503  65.104  1.00  0.00    -0.328 OA 
HETATM   21  C   UNL     1     -11.074  15.675  64.100  1.00  0.00     0.255 C  
ENDBRANCH   7  20
BRANCH   9  22
HETATM   22  O   UNL     1     -10.003  18.175  66.029  1.00  0.00    -0.499 OA 
HETATM   23  C   UNL     1     -10.968  19.156  65.665  1.00  0.00     0.029 C  
ENDBRANCH   9  22
BRANCH  16  24
HETATM   24  O   UNL     1     -10.142  11.847  63.269  1.00  0.00    -0.428 OA 
HETATM   25  C   UNL     1      -9.515  10.838  62.489  1.00  0.00    -0.244 C  
ENDBRANCH  16  24
BRANCH  13  26
HETATM   26  N   UNL     1     -10.707  10.578  69.524  1.00  0.00    -0.240 N  
HETATM   27  C   UNL     1      -9.528   9.996  69.988  1.00  0.00    -0.136 C  
HETATM   28  H   UNL     1     -11.612  10.120  69.627  1.00  0.00     0.000 HD 
HETATM   29  O   UNL     1      -8.413  10.402  69.661  1.00  0.00    -0.145 OA 
HETATM   30  C   UNL     1      -9.662   8.873  70.979  1.00  0.00    -0.320 C  
ENDBRANCH  13  26
ENDBRANCH   2   3
TORSDOF 5
ENDMDL
MODEL       58
REMARK 921   NORMALIZED FREE ENERGY PREDICTED BY IDOCK:   -4.23 KCAL/MOL
REMARK 922        TOTAL FREE ENERGY PREDICTED BY IDOCK:   -6.15 KCAL/MOL
REMARK 923 INTER-LIGAND FREE ENERGY PREDICTED BY IDOCK:   -5.35 KCAL/MOL
REMARK 924 INTRA-LIGAND FREE ENERGY PREDICTED BY IDOCK:   -0.80 KCAL/MOL
REMARK 927      BINDING AFFINITY PREDICTED BY RF-SCORE:    0.00 PKD
ROOT
HETATM    1  C   UNL     1     -11.755  12.300  66.309  1.00  0.00    -0.366 C  
HETATM    2  O   UNL     1     -10.395  11.917  66.532  1.00  0.00    -0.210 OA 
ENDROOT
BRANCH   2   3
HETATM    3  C   UNL     1     -10.164  10.583  66.751  1.00  0.00    -0.234 A  
HETATM    4  C   UNL     1     -10.545   9.995  67.941  1.00  0.00    -0.298 A  
HETATM    5  C   UNL     1     -10.369   8.621  68.222  1.00  0.00    -0.252 A  
HETATM    6  C   UNL     1      -9.762   7.758  67.283  1.00  0.00    -0.224 A  
HETATM    7  C   UNL     1      -9.255   8.404  66.088  1.00  0.00    -0.205 A  
HETATM    8  C   UNL     1      -9.728   6.213  67.459  1.00  0.00    -0.126 C  
HETATM    9  C   UNL     1      -9.467   9.809  65.818  1.00  0.00    -0.240 A  
HETATM   10  C   UNL     1     -10.083   5.524  66.340  1.00  0.00    -0.220 C  
HETATM   11  C   UNL     1     -11.276   6.885  69.807  1.00  0.00    -0.315 C  
HETATM   12  C   UNL     1     -10.854   8.307  69.607  1.00  0.00    -0.154 C  
HETATM   13  C   UNL     1      -9.994   6.091  70.052  1.00  0.00    -0.177 C  
HETATM   14  C   UNL     1     -10.065   4.066  66.261  1.00  0.00    -0.040 C  
HETATM   15  C   UNL     1      -9.510   5.427  68.763  1.00  0.00    -0.168 C  
HETATM   16  C   UNL     1      -8.846   3.505  66.400  1.00  0.00    -0.132 C  
HETATM   17  C   UNL     1      -8.499   3.218  67.821  1.00  0.00    -0.088 C  
HETATM   18  O   UNL     1      -7.871   2.214  68.149  1.00  0.00    -0.057 OA 
HETATM   19  C   UNL     1      -8.951   4.194  68.865  1.00  0.00    -0.162 C  
BRANCH   7  20
HETATM   20  O   UNL     1      -8.504   7.590  65.248  1.00  0.00    -0.132 OA 
HETATM   21  C   UNL     1      -7.087   7.580  65.418  1.00  0.00    -0.063 C  
ENDBRANCH   7  20
BRANCH   9  22
HETATM   22  O   UNL     1      -8.879  10.340  64.702  1.00  0.00    -0.173 OA 
HETATM   23  C   UNL     1      -9.650  10.407  63.507  1.00  0.00    -0.310 C  
ENDBRANCH   9  22
BRANCH  16  24
HETATM   24  O   UNL     1      -7.781   3.573  65.532  1.00  0.00    -0.080 OA 
HETATM   25  C   UNL     1      -7.817   2.690  64.420  1.00  0.00    -0.077 C  
ENDBRANCH  16  24
BRANCH  13  26
HETATM   26  N   UNL     1     -10.262   5.221  71.205  1.00  0.00    -0.215 N  
HETATM   27  C   UNL     1      -9.963   5.755  72.458  1.00  0.00    -0.170 C  
HETATM   28  H   UNL     1     -10.646   4.282  71.096  1.00  0.00     0.000 HD 
HETATM   29  O   UNL     1      -9.279   6.768  72.603  1.00  0.00    -0.140 OA 
HETATM   30  C   UNL     1     -10.572   5.079  73.655  1.00  0.00    -0.321 C  
ENDBRANCH  13  26
ENDBRANCH   2   3
TORSDOF 5
ENDMDL
MODEL       59
REMARK 921   NORMALIZED FREE ENERGY PREDICTED BY IDOCK:   -4.21 KCAL/MOL
REMARK 922        TOTAL FREE ENERGY PREDICTED BY IDOCK:   -6.13 KCAL/MOL
REMARK 923 INTER-LIGAND FREE ENERGY PREDICTED BY IDOCK:   -5.31 KCAL/MOL
REMARK 924 INTRA-LIGAND FREE ENERGY PREDICTED BY IDOCK:   -0.82 KCAL/MOL
REMARK 927      BINDING AFFINITY PREDICTED BY RF-SCORE:    0.00 PKD
ROOT
HETATM    1  C   UNL     1      -7.705   4.723  63.003  1.00  0.00    -0.065 C  
HETATM    2  O   UNL     1      -6.907   5.284  64.049  1.00  0.00    -0.045 OA 
ENDROOT
BRANCH   2   3
HETATM    3  C   UNL     1      -7.581   5.728  65.160  1.00  0.00    -0.086 A  
HETATM    4  C   UNL     1      -8.182   6.970  65.160  1.00  0.00    -0.113 A  
HETATM    5  C   UNL     1      -8.920   7.477  66.254  1.00  0.00    -0.199 A  
HETATM    6  C   UNL     1      -9.069   6.727  67.442  1.00  0.00    -0.117 A  
HETATM    7  C   UNL     1      -8.334   5.478  67.480  1.00  0.00    -0.100 A  
HETATM    8  C   UNL     1     -10.031   7.149  68.589  1.00  0.00    -0.161 C  
HETATM    9  C   UNL     1      -7.603   4.975  66.338  1.00  0.00    -0.088 A  
HETATM   10  C   UNL     1     -10.809   6.135  69.055  1.00  0.00    -0.416 C  
HETATM   11  C   UNL     1     -10.642   9.259  66.709  1.00  0.00    -0.207 C  
HETATM   12  C   UNL     1      -9.414   8.862  65.952  1.00  0.00    -0.303 C  
HETATM   13  C   UNL     1     -10.165   9.707  68.090  1.00  0.00    -0.190 C  
HETATM   14  C   UNL     1     -11.743   6.291  70.168  1.00  0.00    -0.274 C  
HETATM   15  C   UNL     1     -10.299   8.573  69.106  1.00  0.00    -0.227 C  
HETATM   16  C   UNL     1     -11.169   6.593  71.351  1.00  0.00    -0.274 C  
HETATM   17  C   UNL     1     -11.009   8.060  71.560  1.00  0.00    -0.234 C  
HETATM   18  O   UNL     1     -11.161   8.582  72.661  1.00  0.00    -0.323 OA 
HETATM   19  C   UNL     1     -10.663   8.905  70.371  1.00  0.00    -0.261 C  
BRANCH   7  20
HETATM   20  O   UNL     1      -8.335   4.827  68.708  1.00  0.00    -0.082 OA 
HETATM   21  C   UNL     1      -7.269   5.107  69.615  1.00  0.00    -0.056 C  
ENDBRANCH   7  20
BRANCH   9  22
HETATM   22  O   UNL     1      -6.876   3.827  66.502  1.00  0.00    -0.055 OA 
HETATM   23  C   UNL     1      -7.500   2.588  66.181  1.00  0.00    -0.067 C  
ENDBRANCH   9  22
BRANCH  16  24
HETATM   24  O   UNL     1     -10.363   5.793  72.128  1.00  0.00    -0.194 OA 
HETATM   25  C   UNL     1     -11.020   4.993  73.101  1.00  0.00    -0.309 C  
ENDBRANCH  16  24
BRANCH  13  26
HETATM   26  N   UNL     1     -10.866  10.966  68.380  1.00  0.00    -0.204 N  
HETATM   27  C   UNL     1     -10.118  12.132  68.225  1.00  0.00    -0.210 C  
HETATM   28  H   UNL     1     -11.841  10.985  68.676  1.00  0.00     0.000 HD 
HETATM   29  O   UNL     1      -8.893  12.127  68.114  1.00  0.00    -0.176 OA 
HETATM   30  C   UNL     1     -10.879  13.426  68.126  1.00  0.00    -0.273 C  
ENDBRANCH  13  26
ENDBRANCH   2   3
TORSDOF 5
ENDMDL
MODEL       60
REMARK 921   NORMALIZED FREE ENERGY PREDICTED BY IDOCK:   -4.19 KCAL/MOL
REMARK 922        TOTAL FREE ENERGY PREDICTED BY IDOCK:   -6.10 KCAL/MOL
REMARK 923 INTER-LIGAND FREE ENERGY PREDICTED BY IDOCK:   -5.43 KCAL/MOL
REMARK 924 INTRA-LIGAND FREE ENERGY PREDICTED BY IDOCK:   -0.67 KCAL/MOL
REMARK 927      BINDING AFFINITY PREDICTED BY RF-SCORE:    0.00 PKD
ROOT
HETATM    1  C   UNL     1      -7.644   6.909  64.562  1.00  0.00    -0.107 C  
HETATM    2  O   UNL     1      -7.026   7.675  65.600  1.00  0.00    -0.058 OA 
ENDROOT
BRANCH   2   3
HETATM    3  C   UNL     1      -7.849   8.504  66.321  1.00  0.00    -0.098 A  
HETATM    4  C   UNL     1      -8.177   9.753  65.836  1.00  0.00    -0.117 A  
HETATM    5  C   UNL     1      -9.045  10.645  66.507  1.00  0.00    -0.179 A  
HETATM    6  C   UNL     1      -9.622  10.303  67.750  1.00  0.00    -0.171 A  
HETATM    7  C   UNL     1      -9.177   9.042  68.311  1.00  0.00    -0.136 A  
HETATM    8  C   UNL     1     -10.731  11.157  68.426  1.00  0.00    -0.234 C  
HETATM    9  C   UNL     1      -8.303   8.140  67.592  1.00  0.00    -0.127 A  
HETATM   10  C   UNL     1     -11.783  10.427  68.888  1.00  0.00    -0.138 C  
HETATM   11  C   UNL     1     -10.442  12.676  65.983  1.00  0.00    -0.288 C  
HETATM   12  C   UNL     1      -9.169  11.928  65.737  1.00  0.00    -0.110 C  
HETATM   13  C   UNL     1     -10.237  13.450  67.284  1.00  0.00    -0.241 C  
HETATM   14  C   UNL     1     -12.909  11.015  69.608  1.00  0.00     0.248 C  
HETATM   15  C   UNL     1     -10.833  12.692  68.469  1.00  0.00    -0.279 C  
HETATM   16  C   UNL     1     -12.592  11.581  70.790  1.00  0.00    -0.298 C  
HETATM   17  C   UNL     1     -12.204  13.014  70.661  1.00  0.00    -0.307 C  
HETATM   18  O   UNL     1     -12.514  13.853  71.504  1.00  0.00    -0.339 OA 
HETATM   19  C   UNL     1     -11.422  13.423  69.450  1.00  0.00    -0.333 C  
BRANCH   7  20
HETATM   20  O   UNL     1      -9.604   8.788  69.608  1.00  0.00    -0.167 OA 
HETATM   21  C   UNL     1      -8.735   9.150  70.682  1.00  0.00    -0.229 C  
ENDBRANCH   7  20
BRANCH   9  22
HETATM   22  O   UNL     1      -7.877   7.014  68.241  1.00  0.00    -0.114 OA 
HETATM   23  C   UNL     1      -8.625   5.815  68.063  1.00  0.00    -0.105 C  
ENDBRANCH   9  22
BRANCH  16  24
HETATM   24  O   UNL     1     -12.173  10.956  71.942  1.00  0.00    -0.035 OA 
HETATM   25  C   UNL     1     -12.420   9.560  72.027  1.00  0.00    -0.349 C  
ENDBRANCH  16  24
BRANCH  13  26
HETATM   26  N   UNL     1     -10.727  14.813  67.034  1.00  0.00    -0.294 N  
HETATM   27  C   UNL     1      -9.780  15.730  66.577  1.00  0.00    -0.265 C  
HETATM   28  H   UNL     1     -11.701  15.073  67.184  1.00  0.00     0.000 HD 
HETATM   29  O   UNL     1      -8.570  15.515  66.625  1.00  0.00    -0.249 OA 
HETATM   30  C   UNL     1     -10.298  16.993  65.946  1.00  0.00    -0.310 C  
ENDBRANCH  13  26
ENDBRANCH   2   3
TORSDOF 5
ENDMDL
MODEL       61
REMARK 921   NORMALIZED FREE ENERGY PREDICTED BY IDOCK:   -4.16 KCAL/MOL
REMARK 922        TOTAL FREE ENERGY PREDICTED BY IDOCK:   -6.06 KCAL/MOL
REMARK 923 INTER-LIGAND FREE ENERGY PREDICTED BY IDOCK:   -6.55 KCAL/MOL
REMARK 924 INTRA-LIGAND FREE ENERGY PREDICTED BY IDOCK:    0.49 KCAL/MOL
REMARK 927      BINDING AFFINITY PREDICTED BY RF-SCORE:    0.00 PKD
ROOT
HETATM    1  C   UNL     1     -12.818  11.762  63.332  1.00  0.00    -0.176 C  
HETATM    2  O   UNL     1     -11.536  11.304  63.769  1.00  0.00    -0.276 OA 
ENDROOT
BRANCH   2   3
HETATM    3  C   UNL     1     -10.834  12.146  64.594  1.00  0.00    -0.306 A  
HETATM    4  C   UNL     1     -10.972  13.514  64.474  1.00  0.00    -0.405 A  
HETATM    5  C   UNL     1     -10.308  14.440  65.310  1.00  0.00    -0.427 A  
HETATM    6  C   UNL     1      -9.431  14.003  66.327  1.00  0.00    -0.249 A  
HETATM    7  C   UNL     1      -9.196  12.573  66.368  1.00  0.00    -0.177 A  
HETATM    8  C   UNL     1      -8.836  14.964  67.396  1.00  0.00    -0.204 C  
HETATM    9  C   UNL     1      -9.905  11.647  65.513  1.00  0.00    -0.234 A  
HETATM   10  C   UNL     1      -8.918  14.489  68.668  1.00  0.00    -0.181 C  
HETATM   11  C   UNL     1     -10.517  16.855  65.997  1.00  0.00    -0.297 C  
HETATM   12  C   UNL     1     -10.642  15.845  64.900  1.00  0.00    -0.281 C  
HETATM   13  C   UNL     1      -9.033  17.210  66.082  1.00  0.00    -0.182 C  
HETATM   14  C   UNL     1      -8.371  15.198  69.823  1.00  0.00     0.041 C  
HETATM   15  C   UNL     1      -8.344  16.406  67.184  1.00  0.00    -0.214 C  
HETATM   16  C   UNL     1      -7.032  15.355  69.809  1.00  0.00    -0.152 C  
HETATM   17  C   UNL     1      -6.600  16.599  69.111  1.00  0.00    -0.207 C  
HETATM   18  O   UNL     1      -5.650  17.271  69.503  1.00  0.00    -0.177 OA 
HETATM   19  C   UNL     1      -7.374  17.029  67.901  1.00  0.00    -0.177 C  
BRANCH   7  20
HETATM   20  O   UNL     1      -8.202  12.161  67.248  1.00  0.00    -0.164 OA 
HETATM   21  C   UNL     1      -6.868  12.063  66.751  1.00  0.00     0.050 C  
ENDBRANCH   7  20
BRANCH   9  22
HETATM   22  O   UNL     1      -9.553  10.326  65.573  1.00  0.00    -0.204 OA 
HETATM   23  C   UNL     1      -8.738   9.803  64.529  1.00  0.00    -0.198 C  
ENDBRANCH   9  22
BRANCH  16  24
HETATM   24  O   UNL     1      -6.066  14.383  69.939  1.00  0.00    -0.119 OA 
HETATM   25  C   UNL     1      -5.882  13.847  71.241  1.00  0.00    -0.187 C  
ENDBRANCH  16  24
BRANCH  13  26
HETATM   26  N   UNL     1      -8.964  18.675  66.165  1.00  0.00    -0.207 N  
HETATM   27  C   UNL     1      -9.772  19.272  67.131  1.00  0.00    -0.330 C  
HETATM   28  H   UNL     1      -8.360  19.223  65.552  1.00  0.00     0.000 HD 
HETATM   29  O   UNL     1     -10.680  18.670  67.703  1.00  0.00    -0.427 OA 
HETATM   30  C   UNL     1      -9.450  20.691  67.513  1.00  0.00    -0.479 C  
ENDBRANCH  13  26
ENDBRANCH   2   3
TORSDOF 5
ENDMDL
MODEL       62
REMARK 921   NORMALIZED FREE ENERGY PREDICTED BY IDOCK:   -4.14 KCAL/MOL
REMARK 922        TOTAL FREE ENERGY PREDICTED BY IDOCK:   -6.03 KCAL/MOL
REMARK 923 INTER-LIGAND FREE ENERGY PREDICTED BY IDOCK:   -5.40 KCAL/MOL
REMARK 924 INTRA-LIGAND FREE ENERGY PREDICTED BY IDOCK:   -0.63 KCAL/MOL
REMARK 927      BINDING AFFINITY PREDICTED BY RF-SCORE:    0.00 PKD
ROOT
HETATM    1  C   UNL     1      -9.961   4.250  71.586  1.00  0.00    -0.180 C  
HETATM    2  O   UNL     1      -8.716   4.536  70.942  1.00  0.00    -0.097 OA 
ENDROOT
BRANCH   2   3
HETATM    3  C   UNL     1      -8.764   5.391  69.870  1.00  0.00    -0.121 A  
HETATM    4  C   UNL     1      -9.182   6.695  70.037  1.00  0.00    -0.158 A  
HETATM    5  C   UNL     1      -9.224   7.639  68.986  1.00  0.00    -0.140 A  
HETATM    6  C   UNL     1      -8.848   7.283  67.672  1.00  0.00    -0.123 A  
HETATM    7  C   UNL     1      -8.527   5.883  67.479  1.00  0.00    -0.103 A  
HETATM    8  C   UNL     1      -8.685   8.328  66.531  1.00  0.00    -0.157 C  
HETATM    9  C   UNL     1      -8.473   4.943  68.577  1.00  0.00    -0.094 A  
HETATM   10  C   UNL     1      -7.540   8.181  65.811  1.00  0.00    -0.082 C  
HETATM   11  C   UNL     1      -9.309  10.141  68.695  1.00  0.00    -0.161 C  
HETATM   12  C   UNL     1      -9.756   8.951  69.486  1.00  0.00    -0.173 C  
HETATM   13  C   UNL     1     -10.227  10.209  67.475  1.00  0.00    -0.211 C  
HETATM   14  C   UNL     1      -7.210   9.014  64.657  1.00  0.00    -0.097 C  
HETATM   15  C   UNL     1      -9.566   9.559  66.259  1.00  0.00    -0.287 C  
HETATM   16  C   UNL     1      -8.057   8.899  63.614  1.00  0.00    -0.167 C  
HETATM   17  C   UNL     1      -9.207   9.842  63.695  1.00  0.00    -0.240 C  
HETATM   18  O   UNL     1      -9.675  10.388  62.698  1.00  0.00    -0.298 OA 
HETATM   19  C   UNL     1      -9.787  10.128  65.047  1.00  0.00    -0.392 C  
BRANCH   7  20
HETATM   20  O   UNL     1      -8.330   5.496  66.159  1.00  0.00    -0.113 OA 
HETATM   21  C   UNL     1      -9.440   4.945  65.451  1.00  0.00    -0.123 C  
ENDBRANCH   7  20
BRANCH   9  22
HETATM   22  O   UNL     1      -8.240   3.627  68.280  1.00  0.00    -0.080 OA 
HETATM   23  C   UNL     1      -9.355   2.742  68.243  1.00  0.00    -0.200 C  
ENDBRANCH   9  22
BRANCH  16  24
HETATM   24  O   UNL     1      -8.238   7.813  62.788  1.00  0.00    -0.140 OA 
HETATM   25  C   UNL     1      -7.067   7.100  62.417  1.00  0.00    -0.073 C  
ENDBRANCH  16  24
BRANCH  13  26
HETATM   26  N   UNL     1     -10.644  11.613  67.352  1.00  0.00    -0.212 N  
HETATM   27  C   UNL     1     -11.716  12.005  68.153  1.00  0.00    -0.333 C  
HETATM   28  H   UNL     1     -10.178  12.262  66.718  1.00  0.00     0.000 HD 
HETATM   29  O   UNL     1     -12.445  11.199  68.729  1.00  0.00    -0.468 OA 
HETATM   30  C   UNL     1     -11.918  13.482  68.352  1.00  0.00    -0.378 C  
ENDBRANCH  13  26
ENDBRANCH   2   3
TORSDOF 5
ENDMDL
MODEL       63
REMARK 921   NORMALIZED FREE ENERGY PREDICTED BY IDOCK:   -4.11 KCAL/MOL
REMARK 922        TOTAL FREE ENERGY PREDICTED BY IDOCK:   -5.99 KCAL/MOL
REMARK 923 INTER-LIGAND FREE ENERGY PREDICTED BY IDOCK:   -5.37 KCAL/MOL
REMARK 924 INTRA-LIGAND FREE ENERGY PREDICTED BY IDOCK:   -0.62 KCAL/MOL
REMARK 927      BINDING AFFINITY PREDICTED BY RF-SCORE:    0.00 PKD
ROOT
HETATM    1  C   UNL     1      -5.958   4.999  67.503  1.00  0.00    -0.023 C  
HETATM    2  O   UNL     1      -5.392   6.299  67.688  1.00  0.00    -0.004 OA 
ENDROOT
BRANCH   2   3
HETATM    3  C   UNL     1      -6.278   7.342  67.795  1.00  0.00    -0.044 A  
HETATM    4  C   UNL     1      -7.211   7.362  68.812  1.00  0.00    -0.090 A  
HETATM    5  C   UNL     1      -8.130   8.419  69.004  1.00  0.00    -0.116 A  
HETATM    6  C   UNL     1      -8.156   9.529  68.132  1.00  0.00    -0.102 A  
HETATM    7  C   UNL     1      -7.258   9.443  66.997  1.00  0.00    -0.087 A  
HETATM    8  C   UNL     1      -9.004  10.802  68.414  1.00  0.00    -0.153 C  
HETATM    9  C   UNL     1      -6.313   8.360  66.836  1.00  0.00    -0.056 A  
HETATM   10  C   UNL     1      -8.323  11.967  68.238  1.00  0.00    -0.159 C  
HETATM   11  C   UNL     1      -9.600   9.336  70.834  1.00  0.00    -0.339 C  
HETATM   12  C   UNL     1      -9.027   8.122  70.171  1.00  0.00    -0.146 C  
HETATM   13  C   UNL     1     -10.802   9.755  69.988  1.00  0.00    -0.278 C  
HETATM   14  C   UNL     1      -8.938  13.283  68.391  1.00  0.00    -0.124 C  
HETATM   15  C   UNL     1     -10.420  10.867  69.012  1.00  0.00    -0.244 C  
HETATM   16  C   UNL     1      -9.924  13.553  67.511  1.00  0.00    -0.230 C  
HETATM   17  C   UNL     1     -11.264  13.109  67.988  1.00  0.00    -0.277 C  
HETATM   18  O   UNL     1     -12.283  13.759  67.769  1.00  0.00    -0.329 OA 
HETATM   19  C   UNL     1     -11.344  11.831  68.767  1.00  0.00    -0.325 C  
BRANCH   7  20
HETATM   20  O   UNL     1      -7.408  10.446  66.046  1.00  0.00    -0.122 OA 
HETATM   21  C   UNL     1      -8.360  10.242  65.003  1.00  0.00    -0.168 C  
ENDBRANCH   7  20
BRANCH   9  22
HETATM   22  O   UNL     1      -5.567   8.329  65.690  1.00  0.00    -0.038 OA 
HETATM   23  C   UNL     1      -6.027   7.517  64.614  1.00  0.00    -0.038 C  
ENDBRANCH   9  22
BRANCH  16  24
HETATM   24  O   UNL     1      -9.814  13.754  66.154  1.00  0.00    -0.294 OA 
HETATM   25  C   UNL     1      -9.927  15.096  65.704  1.00  0.00    -0.354 C  
ENDBRANCH  16  24
BRANCH  13  26
HETATM   26  N   UNL     1     -11.896  10.026  70.932  1.00  0.00    -0.339 N  
HETATM   27  C   UNL     1     -12.577   8.910  71.416  1.00  0.00    -0.300 C  
HETATM   28  H   UNL     1     -12.141  10.974  71.217  1.00  0.00     0.000 HD 
HETATM   29  O   UNL     1     -12.470   7.794  70.909  1.00  0.00    -0.200 OA 
HETATM   30  C   UNL     1     -13.415   9.100  72.651  1.00  0.00    -0.395 C  
ENDBRANCH  13  26
ENDBRANCH   2   3
TORSDOF 5
ENDMDL
MODEL       64
REMARK 921   NORMALIZED FREE ENERGY PREDICTED BY IDOCK:   -4.10 KCAL/MOL
REMARK 922        TOTAL FREE ENERGY PREDICTED BY IDOCK:   -5.99 KCAL/MOL
REMARK 923 INTER-LIGAND FREE ENERGY PREDICTED BY IDOCK:   -5.57 KCAL/MOL
REMARK 924 INTRA-LIGAND FREE ENERGY PREDICTED BY IDOCK:   -0.42 KCAL/MOL
REMARK 927      BINDING AFFINITY PREDICTED BY RF-SCORE:    0.00 PKD
ROOT
HETATM    1  C   UNL     1      -9.203   5.520  67.360  1.00  0.00    -0.110 C  
HETATM    2  O   UNL     1      -8.969   6.219  68.586  1.00  0.00    -0.128 OA 
ENDROOT
BRANCH   2   3
HETATM    3  C   UNL     1      -9.260   7.561  68.589  1.00  0.00    -0.144 A  
HETATM    4  C   UNL     1      -8.373   8.467  68.044  1.00  0.00    -0.127 A  
HETATM    5  C   UNL     1      -8.621   9.858  67.982  1.00  0.00    -0.121 A  
HETATM    6  C   UNL     1      -9.812  10.409  68.505  1.00  0.00    -0.176 A  
HETATM    7  C   UNL     1     -10.681   9.468  69.184  1.00  0.00    -0.210 A  
HETATM    8  C   UNL     1     -10.220  11.893  68.283  1.00  0.00    -0.207 C  
HETATM    9  C   UNL     1     -10.412   8.047  69.214  1.00  0.00    -0.215 A  
HETATM   10  C   UNL     1     -11.515  12.055  67.897  1.00  0.00    -0.396 C  
HETATM   11  C   UNL     1      -7.793  11.870  66.712  1.00  0.00    -0.070 C  
HETATM   12  C   UNL     1      -7.451  10.568  67.365  1.00  0.00    -0.094 C  
HETATM   13  C   UNL     1      -7.857  12.905  67.834  1.00  0.00    -0.151 C  
HETATM   14  C   UNL     1     -12.129  13.364  67.690  1.00  0.00    -0.311 C  
HETATM   15  C   UNL     1      -9.300  13.126  68.289  1.00  0.00    -0.201 C  
HETATM   16  C   UNL     1     -12.205  14.136  68.793  1.00  0.00    -0.199 C  
HETATM   17  C   UNL     1     -10.991  14.976  68.998  1.00  0.00    -0.249 C  
HETATM   18  O   UNL     1     -11.057  16.121  69.437  1.00  0.00    -0.296 OA 
HETATM   19  C   UNL     1      -9.661  14.387  68.639  1.00  0.00    -0.208 C  
BRANCH   7  20
HETATM   20  O   UNL     1     -11.761  10.035  69.850  1.00  0.00    -0.213 OA 
HETATM   21  C   UNL     1     -11.673  10.178  71.267  1.00  0.00    -0.341 C  
ENDBRANCH   7  20
BRANCH   9  22
HETATM   22  O   UNL     1     -11.251   7.255  69.950  1.00  0.00    -0.244 OA 
HETATM   23  C   UNL     1     -10.778   6.755  71.196  1.00  0.00    -0.229 C  
ENDBRANCH   9  22
BRANCH  16  24
HETATM   24  O   UNL     1     -12.985  13.939  69.909  1.00  0.00     0.013 OA 
HETATM   25  C   UNL     1     -12.295  13.685  71.124  1.00  0.00    -0.318 C  
ENDBRANCH  16  24
BRANCH  13  26
HETATM   26  N   UNL     1      -7.109  14.076  67.358  1.00  0.00    -0.286 N  
HETATM   27  C   UNL     1      -6.233  14.658  68.274  1.00  0.00    -0.122 C  
HETATM   28  H   UNL     1      -7.222  14.442  66.412  1.00  0.00     0.000 HD 
HETATM   29  O   UNL     1      -6.260  14.398  69.476  1.00  0.00    -0.105 OA 
HETATM   30  C   UNL     1      -5.183  15.584  67.726  1.00  0.00    -0.111 C  
ENDBRANCH  13  26
ENDBRANCH   2   3
TORSDOF 5
ENDMDL
MODEL       65
REMARK 921   NORMALIZED FREE ENERGY PREDICTED BY IDOCK:   -4.10 KCAL/MOL
REMARK 922        TOTAL FREE ENERGY PREDICTED BY IDOCK:   -5.99 KCAL/MOL
REMARK 923 INTER-LIGAND FREE ENERGY PREDICTED BY IDOCK:   -5.55 KCAL/MOL
REMARK 924 INTRA-LIGAND FREE ENERGY PREDICTED BY IDOCK:   -0.44 KCAL/MOL
REMARK 927      BINDING AFFINITY PREDICTED BY RF-SCORE:    0.00 PKD
ROOT
HETATM    1  C   UNL     1      -5.161   3.487  67.597  1.00  0.00    -0.008 C  
HETATM    2  O   UNL     1      -6.547   3.136  67.591  1.00  0.00    -0.036 OA 
ENDROOT
BRANCH   2   3
HETATM    3  C   UNL     1      -7.412   4.052  68.137  1.00  0.00    -0.067 A  
HETATM    4  C   UNL     1      -7.974   5.035  67.349  1.00  0.00    -0.096 A  
HETATM    5  C   UNL     1      -8.897   5.989  67.835  1.00  0.00    -0.110 A  
HETATM    6  C   UNL     1      -9.289   5.997  69.192  1.00  0.00    -0.136 A  
HETATM    7  C   UNL     1      -8.603   5.041  70.038  1.00  0.00    -0.098 A  
HETATM    8  C   UNL     1     -10.444   6.890  69.730  1.00  0.00    -0.240 C  
HETATM    9  C   UNL     1      -7.677   4.063  69.510  1.00  0.00    -0.053 A  
HETATM   10  C   UNL     1     -11.320   6.229  70.534  1.00  0.00    -0.428 C  
HETATM   11  C   UNL     1     -10.634   7.572  66.926  1.00  0.00    -0.367 C  
HETATM   12  C   UNL     1      -9.292   6.937  66.739  1.00  0.00    -0.190 C  
HETATM   13  C   UNL     1     -10.422   8.740  67.890  1.00  0.00    -0.216 C  
HETATM   14  C   UNL     1     -12.446   6.883  71.196  1.00  0.00    -0.398 C  
HETATM   15  C   UNL     1     -10.774   8.335  69.321  1.00  0.00    -0.140 C  
HETATM   16  C   UNL     1     -12.104   7.829  72.094  1.00  0.00    -0.304 C  
HETATM   17  C   UNL     1     -11.955   9.181  71.484  1.00  0.00    -0.352 C  
HETATM   18  O   UNL     1     -12.305  10.203  72.069  1.00  0.00    -0.307 OA 
HETATM   19  C   UNL     1     -11.368   9.269  70.108  1.00  0.00    -0.193 C  
BRANCH   7  20
HETATM   20  O   UNL     1      -8.855   5.167  71.399  1.00  0.00    -0.129 OA 
HETATM   21  C   UNL     1      -7.767   5.524  72.251  1.00  0.00    -0.102 C  
ENDBRANCH   7  20
BRANCH   9  22
HETATM   22  O   UNL     1      -7.021   3.259  70.402  1.00  0.00    -0.033 OA 
HETATM   23  C   UNL     1      -7.533   1.949  70.623  1.00  0.00    -0.033 C  
ENDBRANCH   9  22
BRANCH  16  24
HETATM   24  O   UNL     1     -11.482   7.656  73.309  1.00  0.00    -0.263 OA 
HETATM   25  C   UNL     1     -10.073   7.833  73.327  1.00  0.00    -0.310 C  
ENDBRANCH  16  24
BRANCH  13  26
HETATM   26  N   UNL     1     -11.137   9.886  67.311  1.00  0.00    -0.286 N  
HETATM   27  C   UNL     1     -10.402  10.691  66.442  1.00  0.00    -0.231 C  
HETATM   28  H   UNL     1     -12.114  10.081  67.532  1.00  0.00     0.000 HD 
HETATM   29  O   UNL     1      -9.176  10.628  66.354  1.00  0.00    -0.162 OA 
HETATM   30  C   UNL     1     -11.177  11.615  65.543  1.00  0.00    -0.267 C  
ENDBRANCH  13  26
ENDBRANCH   2   3
TORSDOF 5
ENDMDL
MODEL       66
REMARK 921   NORMALIZED FREE ENERGY PREDICTED BY IDOCK:   -4.09 KCAL/MOL
REMARK 922        TOTAL FREE ENERGY PREDICTED BY IDOCK:   -5.97 KCAL/MOL
REMARK 923 INTER-LIGAND FREE ENERGY PREDICTED BY IDOCK:   -6.70 KCAL/MOL
REMARK 924 INTRA-LIGAND FREE ENERGY PREDICTED BY IDOCK:    0.73 KCAL/MOL
REMARK 927      BINDING AFFINITY PREDICTED BY RF-SCORE:    0.00 PKD
ROOT
HETATM    1  C   UNL     1     -11.881  13.300  63.285  1.00  0.00    -0.229 C  
HETATM    2  O   UNL     1     -10.695  13.271  64.085  1.00  0.00    -0.405 OA 
ENDROOT
BRANCH   2   3
HETATM    3  C   UNL     1     -10.577  12.223  64.964  1.00  0.00    -0.287 A  
HETATM    4  C   UNL     1     -11.131  12.304  66.225  1.00  0.00    -0.342 A  
HETATM    5  C   UNL     1     -11.077  11.253  67.168  1.00  0.00    -0.364 A  
HETATM    6  C   UNL     1     -10.421  10.039  66.868  1.00  0.00    -0.284 A  
HETATM    7  C   UNL     1      -9.737  10.006  65.590  1.00  0.00    -0.272 A  
HETATM    8  C   UNL     1     -10.506   8.787  67.787  1.00  0.00    -0.292 C  
HETATM    9  C   UNL     1      -9.826  11.089  64.636  1.00  0.00    -0.285 A  
HETATM   10  C   UNL     1     -10.771   7.631  67.119  1.00  0.00    -0.361 C  
HETATM   11  C   UNL     1     -12.272  10.534  69.267  1.00  0.00    -0.021 C  
HETATM   12  C   UNL     1     -11.740  11.669  68.449  1.00  0.00    -0.374 C  
HETATM   13  C   UNL     1     -11.081   9.971  70.040  1.00  0.00    -0.295 C  
HETATM   14  C   UNL     1     -10.837   6.327  67.773  1.00  0.00    -0.424 C  
HETATM   15  C   UNL     1     -10.493   8.755  69.325  1.00  0.00    -0.228 C  
HETATM   16  C   UNL     1      -9.682   5.914  68.332  1.00  0.00    -0.129 C  
HETATM   17  C   UNL     1      -9.522   6.373  69.740  1.00  0.00    -0.152 C  
HETATM   18  O   UNL     1      -9.002   5.668  70.602  1.00  0.00    -0.142 OA 
HETATM   19  C   UNL     1     -10.029   7.738  70.096  1.00  0.00    -0.186 C  
BRANCH   7  20
HETATM   20  O   UNL     1      -8.947   8.884  65.371  1.00  0.00    -0.195 OA 
HETATM   21  C   UNL     1      -7.537   9.012  65.557  1.00  0.00    -0.090 C  
ENDBRANCH   7  20
BRANCH   9  22
HETATM   22  O   UNL     1      -9.079  10.995  63.494  1.00  0.00    -0.203 OA 
HETATM   23  C   UNL     1      -9.649  10.324  62.375  1.00  0.00    -0.132 C  
ENDBRANCH   9  22
BRANCH  16  24
HETATM   24  O   UNL     1      -8.520   5.543  67.694  1.00  0.00    -0.104 OA 
HETATM   25  C   UNL     1      -8.641   4.543  66.693  1.00  0.00    -0.111 C  
ENDBRANCH  16  24
BRANCH  13  26
HETATM   26  N   UNL     1     -11.537   9.790  71.425  1.00  0.00    -0.382 N  
HETATM   27  C   UNL     1     -12.876   9.437  71.587  1.00  0.00    -0.378 C  
HETATM   28  H   UNL     1     -10.912   9.915  72.221  1.00  0.00     0.000 HD 
HETATM   29  O   UNL     1     -13.701   9.523  70.678  1.00  0.00    -0.014 OA 
HETATM   30  C   UNL     1     -13.280   8.868  72.920  1.00  0.00    -0.018 C  
ENDBRANCH  13  26
ENDBRANCH   2   3
TORSDOF 5
ENDMDL
MODEL       67
REMARK 921   NORMALIZED FREE ENERGY PREDICTED BY IDOCK:   -4.05 KCAL/MOL
REMARK 922        TOTAL FREE ENERGY PREDICTED BY IDOCK:   -5.92 KCAL/MOL
REMARK 923 INTER-LIGAND FREE ENERGY PREDICTED BY IDOCK:   -5.28 KCAL/MOL
REMARK 924 INTRA-LIGAND FREE ENERGY PREDICTED BY IDOCK:   -0.64 KCAL/MOL
REMARK 927      BINDING AFFINITY PREDICTED BY RF-SCORE:    0.00 PKD
ROOT
HETATM    1  C   UNL     1      -7.491   6.088  63.812  1.00  0.00    -0.073 C  
HETATM    2  O   UNL     1      -6.836   7.080  64.607  1.00  0.00    -0.047 OA 
ENDROOT
BRANCH   2   3
HETATM    3  C   UNL     1      -7.647   7.900  65.352  1.00  0.00    -0.084 A  
HETATM    4  C   UNL     1      -8.191   9.038  64.791  1.00  0.00    -0.161 A  
HETATM    5  C   UNL     1      -9.060   9.909  65.487  1.00  0.00    -0.232 A  
HETATM    6  C   UNL     1      -9.412   9.664  66.832  1.00  0.00    -0.198 A  
HETATM    7  C   UNL     1      -8.742   8.538  67.451  1.00  0.00    -0.134 A  
HETATM    8  C   UNL     1     -10.514  10.473  67.575  1.00  0.00    -0.284 C  
HETATM    9  C   UNL     1      -7.872   7.651  66.709  1.00  0.00    -0.107 A  
HETATM   10  C   UNL     1     -11.393   9.698  68.266  1.00  0.00     0.122 C  
HETATM   11  C   UNL     1     -10.756  11.699  64.967  1.00  0.00    -0.351 C  
HETATM   12  C   UNL     1      -9.447  11.066  64.612  1.00  0.00    -0.270 C  
HETATM   13  C   UNL     1     -10.469  12.647  66.131  1.00  0.00    -0.258 C  
HETATM   14  C   UNL     1     -12.473  10.248  69.082  1.00  0.00     0.712 C  
HETATM   15  C   UNL     1     -10.797  11.982  67.467  1.00  0.00    -0.284 C  
HETATM   16  C   UNL     1     -12.067  10.988  70.134  1.00  0.00    -0.356 C  
HETATM   17  C   UNL     1     -11.880  12.426  69.795  1.00  0.00    -0.317 C  
HETATM   18  O   UNL     1     -12.171  13.325  70.580  1.00  0.00    -0.354 OA 
HETATM   19  C   UNL     1     -11.330  12.763  68.442  1.00  0.00    -0.331 C  
BRANCH   7  20
HETATM   20  O   UNL     1      -8.951   8.402  68.818  1.00  0.00    -0.140 OA 
HETATM   21  C   UNL     1      -8.075   9.103  69.701  1.00  0.00    -0.106 C  
ENDBRANCH   7  20
BRANCH   9  22
HETATM   22  O   UNL     1      -7.225   6.665  67.403  1.00  0.00    -0.081 OA 
HETATM   23  C   UNL     1      -7.835   5.381  67.467  1.00  0.00    -0.100 C  
ENDBRANCH   9  22
BRANCH  16  24
HETATM   24  O   UNL     1     -11.418  10.558  71.269  1.00  0.00    -0.203 OA 
HETATM   25  C   UNL     1     -11.457   9.162  71.527  1.00  0.00    -0.367 C  
ENDBRANCH  16  24
BRANCH  13  26
HETATM   26  N   UNL     1     -11.153  13.908  65.813  1.00  0.00    -0.292 N  
HETATM   27  C   UNL     1     -10.333  15.022  65.640  1.00  0.00    -0.353 C  
HETATM   28  H   UNL     1     -12.167  13.965  65.724  1.00  0.00     0.000 HD 
HETATM   29  O   UNL     1      -9.151  15.037  65.981  1.00  0.00    -0.264 OA 
HETATM   30  C   UNL     1     -10.932  16.213  64.943  1.00  0.00    -0.364 C  
ENDBRANCH  13  26
ENDBRANCH   2   3
TORSDOF 5
ENDMDL
MODEL       68
REMARK 921   NORMALIZED FREE ENERGY PREDICTED BY IDOCK:   -4.02 KCAL/MOL
REMARK 922        TOTAL FREE ENERGY PREDICTED BY IDOCK:   -5.88 KCAL/MOL
REMARK 923 INTER-LIGAND FREE ENERGY PREDICTED BY IDOCK:   -5.19 KCAL/MOL
REMARK 924 INTRA-LIGAND FREE ENERGY PREDICTED BY IDOCK:   -0.69 KCAL/MOL
REMARK 927      BINDING AFFINITY PREDICTED BY RF-SCORE:    0.00 PKD
ROOT
HETATM    1  C   UNL     1      -8.911   3.026  72.765  1.00  0.00    -0.087 C  
HETATM    2  O   UNL     1     -10.063   3.774  72.367  1.00  0.00    -0.161 OA 
ENDROOT
BRANCH   2   3
HETATM    3  C   UNL     1      -9.888   4.668  71.341  1.00  0.00    -0.194 A  
HETATM    4  C   UNL     1      -9.901   4.235  70.030  1.00  0.00    -0.275 A  
HETATM    5  C   UNL     1      -9.761   5.102  68.923  1.00  0.00    -0.220 A  
HETATM    6  C   UNL     1      -9.577   6.491  69.104  1.00  0.00    -0.137 A  
HETATM    7  C   UNL     1      -9.442   6.921  70.482  1.00  0.00    -0.169 A  
HETATM    8  C   UNL     1      -9.619   7.506  67.927  1.00  0.00    -0.161 C  
HETATM    9  C   UNL     1      -9.610   6.014  71.597  1.00  0.00    -0.151 A  
HETATM   10  C   UNL     1     -10.384   8.604  68.175  1.00  0.00    -0.267 C  
HETATM   11  C   UNL     1     -10.235   5.099  66.448  1.00  0.00    -0.303 C  
HETATM   12  C   UNL     1      -9.783   4.318  67.642  1.00  0.00    -0.186 C  
HETATM   13  C   UNL     1      -9.017   5.889  65.970  1.00  0.00    -0.151 C  
HETATM   14  C   UNL     1     -10.519   9.713  67.233  1.00  0.00    -0.323 C  
HETATM   15  C   UNL     1      -9.049   7.318  66.510  1.00  0.00    -0.186 C  
HETATM   16  C   UNL     1      -9.377  10.382  66.978  1.00  0.00    -0.154 C  
HETATM   17  C   UNL     1      -8.603   9.797  65.847  1.00  0.00    -0.137 C  
HETATM   18  O   UNL     1      -7.991  10.498  65.044  1.00  0.00    -0.147 OA 
HETATM   19  C   UNL     1      -8.596   8.306  65.697  1.00  0.00    -0.189 C  
BRANCH   7  20
HETATM   20  O   UNL     1      -9.086   8.253  70.654  1.00  0.00    -0.145 OA 
HETATM   21  C   UNL     1      -7.723   8.547  70.960  1.00  0.00    -0.097 C  
ENDBRANCH   7  20
BRANCH   9  22
HETATM   22  O   UNL     1      -9.383   6.502  72.855  1.00  0.00    -0.137 OA 
HETATM   23  C   UNL     1     -10.485   7.059  73.565  1.00  0.00    -0.375 C  
ENDBRANCH   9  22
BRANCH  16  24
HETATM   24  O   UNL     1      -8.659  11.186  67.833  1.00  0.00    -0.128 OA 
HETATM   25  C   UNL     1      -7.378  10.711  68.221  1.00  0.00    -0.089 C  
ENDBRANCH  16  24
BRANCH  13  26
HETATM   26  N   UNL     1      -8.961   5.715  64.511  1.00  0.00    -0.356 N  
HETATM   27  C   UNL     1      -8.224   4.624  64.053  1.00  0.00    -0.114 C  
HETATM   28  H   UNL     1      -9.434   6.355  63.872  1.00  0.00     0.000 HD 
HETATM   29  O   UNL     1      -7.451   3.994  64.773  1.00  0.00    -0.070 OA 
HETATM   30  C   UNL     1      -8.458   4.186  62.633  1.00  0.00    -0.087 C  
ENDBRANCH  13  26
ENDBRANCH   2   3
TORSDOF 5
ENDMDL
MODEL       69
REMARK 921   NORMALIZED FREE ENERGY PREDICTED BY IDOCK:   -4.02 KCAL/MOL
REMARK 922        TOTAL FREE ENERGY PREDICTED BY IDOCK:   -5.88 KCAL/MOL
REMARK 923 INTER-LIGAND FREE ENERGY PREDICTED BY IDOCK:   -5.72 KCAL/MOL
REMARK 924 INTRA-LIGAND FREE ENERGY PREDICTED BY IDOCK:   -0.16 KCAL/MOL
REMARK 927      BINDING AFFINITY PREDICTED BY RF-SCORE:    0.00 PKD
ROOT
HETATM    1  C   UNL     1     -12.496  12.689  64.346  1.00  0.00    -0.428 C  
HETATM    2  O   UNL     1     -12.191  13.357  65.573  1.00  0.00    -0.400 OA 
ENDROOT
BRANCH   2   3
HETATM    3  C   UNL     1     -11.263  12.753  66.385  1.00  0.00    -0.299 A  
HETATM    4  C   UNL     1     -11.222  11.377  66.492  1.00  0.00    -0.276 A  
HETATM    5  C   UNL     1     -10.274  10.686  67.280  1.00  0.00    -0.250 A  
HETATM    6  C   UNL     1      -9.306  11.385  68.034  1.00  0.00    -0.171 A  
HETATM    7  C   UNL     1      -9.432  12.829  68.013  1.00  0.00    -0.213 A  
HETATM    8  C   UNL     1      -8.124  10.674  68.752  1.00  0.00    -0.139 C  
HETATM    9  C   UNL     1     -10.399  13.511  67.181  1.00  0.00    -0.250 A  
HETATM   10  C   UNL     1      -6.918  11.269  68.547  1.00  0.00    -0.078 C  
HETATM   11  C   UNL     1      -9.309   8.367  67.475  1.00  0.00    -0.172 C  
HETATM   12  C   UNL     1     -10.519   9.207  67.210  1.00  0.00    -0.335 C  
HETATM   13  C   UNL     1      -9.165   8.294  68.994  1.00  0.00    -0.147 C  
HETATM   14  C   UNL     1      -5.681  10.806  69.172  1.00  0.00    -0.040 C  
HETATM   15  C   UNL     1      -8.157   9.328  69.496  1.00  0.00    -0.111 C  
HETATM   16  C   UNL     1      -5.661  10.889  70.518  1.00  0.00    -0.116 C  
HETATM   17  C   UNL     1      -6.201   9.670  71.182  1.00  0.00    -0.046 C  
HETATM   18  O   UNL     1      -5.721   9.226  72.223  1.00  0.00    -0.114 OA 
HETATM   19  C   UNL     1      -7.360   8.973  70.536  1.00  0.00    -0.086 C  
BRANCH   7  20
HETATM   20  O   UNL     1      -8.596  13.509  68.891  1.00  0.00     0.027 OA 
HETATM   21  C   UNL     1      -7.771  14.547  68.360  1.00  0.00    -0.128 C  
ENDBRANCH   7  20
BRANCH   9  22
HETATM   22  O   UNL     1     -10.492  14.871  67.295  1.00  0.00    -0.257 OA 
HETATM   23  C   UNL     1     -11.362  15.402  68.289  1.00  0.00    -0.348 C  
ENDBRANCH   9  22
BRANCH  16  24
HETATM   24  O   UNL     1      -5.635  12.025  71.293  1.00  0.00    -0.371 OA 
HETATM   25  C   UNL     1      -5.174  13.210  70.662  1.00  0.00    -0.135 C  
ENDBRANCH  16  24
BRANCH  13  26
HETATM   26  N   UNL     1      -8.908   6.883  69.316  1.00  0.00    -0.138 N  
HETATM   27  C   UNL     1      -9.823   6.274  70.174  1.00  0.00    -0.170 C  
HETATM   28  H   UNL     1      -8.108   6.379  68.934  1.00  0.00     0.000 HD 
HETATM   29  O   UNL     1     -10.639   6.913  70.837  1.00  0.00    -0.214 OA 
HETATM   30  C   UNL     1      -9.828   4.771  70.216  1.00  0.00    -0.313 C  
ENDBRANCH  13  26
ENDBRANCH   2   3
TORSDOF 5
ENDMDL
MODEL       70
REMARK 921   NORMALIZED FREE ENERGY PREDICTED BY IDOCK:   -4.00 KCAL/MOL
REMARK 922        TOTAL FREE ENERGY PREDICTED BY IDOCK:   -5.85 KCAL/MOL
REMARK 923 INTER-LIGAND FREE ENERGY PREDICTED BY IDOCK:   -5.12 KCAL/MOL
REMARK 924 INTRA-LIGAND FREE ENERGY PREDICTED BY IDOCK:   -0.73 KCAL/MOL
REMARK 927      BINDING AFFINITY PREDICTED BY RF-SCORE:    0.00 PKD
ROOT
HETATM    1  C   UNL     1     -10.413   3.190  63.708  1.00  0.00    -0.218 C  
HETATM    2  O   UNL     1      -9.307   3.915  64.254  1.00  0.00    -0.136 OA 
ENDROOT
BRANCH   2   3
HETATM    3  C   UNL     1      -9.276   4.046  65.620  1.00  0.00    -0.150 A  
HETATM    4  C   UNL     1     -10.021   5.026  66.243  1.00  0.00    -0.247 A  
HETATM    5  C   UNL     1     -10.065   5.198  67.645  1.00  0.00    -0.204 A  
HETATM    6  C   UNL     1      -9.315   4.365  68.504  1.00  0.00    -0.203 A  
HETATM    7  C   UNL     1      -8.441   3.418  67.839  1.00  0.00    -0.090 A  
HETATM    8  C   UNL     1      -9.482   4.381  70.050  1.00  0.00    -0.251 C  
HETATM    9  C   UNL     1      -8.432   3.251  66.402  1.00  0.00    -0.108 A  
HETATM   10  C   UNL     1      -9.587   3.143  70.605  1.00  0.00    -0.212 C  
HETATM   11  C   UNL     1     -11.534   6.301  69.370  1.00  0.00    -0.348 C  
HETATM   12  C   UNL     1     -10.936   6.369  67.999  1.00  0.00    -0.400 C  
HETATM   13  C   UNL     1     -10.451   6.788  70.332  1.00  0.00    -0.206 C  
HETATM   14  C   UNL     1      -9.692   2.919  72.045  1.00  0.00    -0.230 C  
HETATM   15  C   UNL     1      -9.705   5.607  70.953  1.00  0.00    -0.223 C  
HETATM   16  C   UNL     1      -8.619   3.312  72.760  1.00  0.00    -0.085 C  
HETATM   17  C   UNL     1      -8.699   4.736  73.192  1.00  0.00    -0.109 C  
HETATM   18  O   UNL     1      -8.286   5.109  74.288  1.00  0.00    -0.105 OA 
HETATM   19  C   UNL     1      -9.318   5.722  72.249  1.00  0.00    -0.155 C  
BRANCH   7  20
HETATM   20  O   UNL     1      -7.575   2.723  68.674  1.00  0.00    -0.048 OA 
HETATM   21  C   UNL     1      -6.339   3.346  69.023  1.00  0.00    -0.029 C  
ENDBRANCH   7  20
BRANCH   9  22
HETATM   22  O   UNL     1      -7.515   2.388  65.866  1.00  0.00    -0.065 OA 
HETATM   23  C   UNL     1      -6.303   2.934  65.354  1.00  0.00    -0.028 C  
ENDBRANCH   9  22
BRANCH  16  24
HETATM   24  O   UNL     1      -7.357   2.763  72.760  1.00  0.00    -0.039 OA 
HETATM   25  C   UNL     1      -7.227   1.478  73.349  1.00  0.00    -0.027 C  
ENDBRANCH  16  24
BRANCH  13  26
HETATM   26  N   UNL     1     -11.107   7.734  71.245  1.00  0.00    -0.243 N  
HETATM   27  C   UNL     1     -11.083   9.073  70.860  1.00  0.00    -0.280 C  
HETATM   28  H   UNL     1     -11.553   7.428  72.110  1.00  0.00     0.000 HD 
HETATM   29  O   UNL     1     -10.350   9.495  69.967  1.00  0.00    -0.212 OA 
HETATM   30  C   UNL     1     -12.055   9.999  71.538  1.00  0.00    -0.475 C  
ENDBRANCH  13  26
ENDBRANCH   2   3
TORSDOF 5
ENDMDL
MODEL       71
REMARK 921   NORMALIZED FREE ENERGY PREDICTED BY IDOCK:   -3.94 KCAL/MOL
REMARK 922        TOTAL FREE ENERGY PREDICTED BY IDOCK:   -5.77 KCAL/MOL
REMARK 923 INTER-LIGAND FREE ENERGY PREDICTED BY IDOCK:   -5.09 KCAL/MOL
REMARK 924 INTRA-LIGAND FREE ENERGY PREDICTED BY IDOCK:   -0.69 KCAL/MOL
REMARK 927      BINDING AFFINITY PREDICTED BY RF-SCORE:    0.00 PKD
ROOT
HETATM    1  C   UNL     1     -13.355  11.025  72.024  1.00  0.00    -0.288 C  
HETATM    2  O   UNL     1     -12.805  11.434  70.769  1.00  0.00    -0.265 OA 
ENDROOT
BRANCH   2   3
HETATM    3  C   UNL     1     -11.939  10.556  70.166  1.00  0.00    -0.316 A  
HETATM    4  C   UNL     1     -11.467   9.458  70.856  1.00  0.00    -0.382 A  
HETATM    5  C   UNL     1     -10.601   8.496  70.288  1.00  0.00    -0.238 A  
HETATM    6  C   UNL     1     -10.147   8.620  68.957  1.00  0.00    -0.207 A  
HETATM    7  C   UNL     1     -10.548   9.837  68.279  1.00  0.00    -0.229 A  
HETATM    8  C   UNL     1      -9.362   7.493  68.226  1.00  0.00    -0.141 C  
HETATM    9  C   UNL     1     -11.451  10.796  68.878  1.00  0.00    -0.293 A  
HETATM   10  C   UNL     1      -9.820   7.229  66.972  1.00  0.00    -0.265 C  
HETATM   11  C   UNL     1      -9.866   6.125  70.723  1.00  0.00    -0.220 C  
HETATM   12  C   UNL     1     -10.247   7.450  71.306  1.00  0.00    -0.197 C  
HETATM   13  C   UNL     1      -8.400   6.249  70.308  1.00  0.00    -0.126 C  
HETATM   14  C   UNL     1      -9.196   6.251  66.084  1.00  0.00    -0.143 C  
HETATM   15  C   UNL     1      -8.282   6.572  68.819  1.00  0.00    -0.119 C  
HETATM   16  C   UNL     1      -7.930   6.541  65.722  1.00  0.00    -0.115 C  
HETATM   17  C   UNL     1      -6.918   6.002  66.674  1.00  0.00    -0.067 C  
HETATM   18  O   UNL     1      -5.839   5.552  66.294  1.00  0.00    -0.017 OA 
HETATM   19  C   UNL     1      -7.254   6.009  68.135  1.00  0.00    -0.080 C  
BRANCH   7  20
HETATM   20  O   UNL     1      -9.959  10.045  67.037  1.00  0.00    -0.186 OA 
HETATM   21  C   UNL     1      -8.734  10.776  66.992  1.00  0.00    -0.136 C  
ENDBRANCH   7  20
BRANCH   9  22
HETATM   22  O   UNL     1     -11.703  11.951  68.189  1.00  0.00    -0.330 OA 
HETATM   23  C   UNL     1     -10.943  13.108  68.522  1.00  0.00    -0.263 C  
ENDBRANCH   9  22
BRANCH  16  24
HETATM   24  O   UNL     1      -7.495   7.564  64.912  1.00  0.00    -0.077 OA 
HETATM   25  C   UNL     1      -7.908   7.513  63.554  1.00  0.00    -0.112 C  
ENDBRANCH  16  24
BRANCH  13  26
HETATM   26  N   UNL     1      -7.731   5.034  70.794  1.00  0.00    -0.077 N  
HETATM   27  C   UNL     1      -7.237   5.088  72.097  1.00  0.00    -0.088 C  
HETATM   28  H   UNL     1      -7.634   4.201  70.214  1.00  0.00     0.000 HD 
HETATM   29  O   UNL     1      -7.119   6.142  72.721  1.00  0.00    -0.075 OA 
HETATM   30  C   UNL     1      -6.907   3.778  72.760  1.00  0.00    -0.039 C  
ENDBRANCH  13  26
ENDBRANCH   2   3
TORSDOF 5
ENDMDL
MODEL       72
REMARK 921   NORMALIZED FREE ENERGY PREDICTED BY IDOCK:   -3.88 KCAL/MOL
REMARK 922        TOTAL FREE ENERGY PREDICTED BY IDOCK:   -5.70 KCAL/MOL
REMARK 923 INTER-LIGAND FREE ENERGY PREDICTED BY IDOCK:   -5.12 KCAL/MOL
REMARK 924 INTRA-LIGAND FREE ENERGY PREDICTED BY IDOCK:   -0.58 KCAL/MOL
REMARK 927      BINDING AFFINITY PREDICTED BY RF-SCORE:    0.00 PKD
ROOT
HETATM    1  C   UNL     1      -6.006   4.037  65.559  1.00  0.00    -0.023 C  
HETATM    2  O   UNL     1      -5.676   5.189  66.339  1.00  0.00    -0.017 OA 
ENDROOT
BRANCH   2   3
HETATM    3  C   UNL     1      -6.629   5.619  67.228  1.00  0.00    -0.057 A  
HETATM    4  C   UNL     1      -6.952   4.852  68.329  1.00  0.00    -0.057 A  
HETATM    5  C   UNL     1      -7.898   5.247  69.302  1.00  0.00    -0.088 A  
HETATM    6  C   UNL     1      -8.593   6.471  69.187  1.00  0.00    -0.129 A  
HETATM    7  C   UNL     1      -8.339   7.213  67.968  1.00  0.00    -0.119 A  
HETATM    8  C   UNL     1      -9.488   7.041  70.325  1.00  0.00    -0.165 C  
HETATM    9  C   UNL     1      -7.351   6.795  66.998  1.00  0.00    -0.082 A  
HETATM   10  C   UNL     1      -9.269   8.358  70.588  1.00  0.00    -0.177 C  
HETATM   11  C   UNL     1      -8.514   4.679  71.679  1.00  0.00    -0.117 C  
HETATM   12  C   UNL     1      -8.045   4.180  70.348  1.00  0.00    -0.060 C  
HETATM   13  C   UNL     1     -10.032   4.815  71.572  1.00  0.00    -0.194 C  
HETATM   14  C   UNL     1     -10.036   9.113  71.576  1.00  0.00    -0.381 C  
HETATM   15  C   UNL     1     -10.429   6.256  71.255  1.00  0.00    -0.264 C  
HETATM   16  C   UNL     1     -11.351   9.233  71.301  1.00  0.00    -0.353 C  
HETATM   17  C   UNL     1     -12.162   8.108  71.847  1.00  0.00    -0.331 C  
HETATM   18  O   UNL     1     -13.288   8.280  72.309  1.00  0.00    -0.286 OA 
HETATM   19  C   UNL     1     -11.560   6.736  71.831  1.00  0.00    -0.330 C  
BRANCH   7  20
HETATM   20  O   UNL     1      -9.151   8.324  67.771  1.00  0.00    -0.132 OA 
HETATM   21  C   UNL     1     -10.398   8.131  67.103  1.00  0.00    -0.321 C  
ENDBRANCH   7  20
BRANCH   9  22
HETATM   22  O   UNL     1      -7.244   7.520  65.843  1.00  0.00    -0.064 OA 
HETATM   23  C   UNL     1      -7.955   7.063  64.697  1.00  0.00    -0.114 C  
ENDBRANCH   9  22
BRANCH  16  24
HETATM   24  O   UNL     1     -11.940   9.949  70.285  1.00  0.00    -0.228 OA 
HETATM   25  C   UNL     1     -12.267  11.301  70.573  1.00  0.00    -0.383 C  
ENDBRANCH  16  24
BRANCH  13  26
HETATM   26  N   UNL     1     -10.586   4.210  72.792  1.00  0.00    -0.171 N  
HETATM   27  C   UNL     1     -10.574   2.817  72.844  1.00  0.00    -0.129 C  
HETATM   28  H   UNL     1     -10.957   4.776  73.555  1.00  0.00     0.000 HD 
HETATM   29  O   UNL     1     -10.368   2.116  71.854  1.00  0.00    -0.126 OA 
HETATM   30  C   UNL     1     -10.757   2.180  74.194  1.00  0.00    -0.224 C  
ENDBRANCH  13  26
ENDBRANCH   2   3
TORSDOF 5
ENDMDL
MODEL       73
REMARK 921   NORMALIZED FREE ENERGY PREDICTED BY IDOCK:   -3.83 KCAL/MOL
REMARK 922        TOTAL FREE ENERGY PREDICTED BY IDOCK:   -5.63 KCAL/MOL
REMARK 923 INTER-LIGAND FREE ENERGY PREDICTED BY IDOCK:   -5.12 KCAL/MOL
REMARK 924 INTRA-LIGAND FREE ENERGY PREDICTED BY IDOCK:   -0.51 KCAL/MOL
REMARK 927      BINDING AFFINITY PREDICTED BY RF-SCORE:    0.00 PKD
ROOT
HETATM    1  C   UNL     1     -11.936  14.387  65.667  1.00  0.00    -0.354 C  
HETATM    2  O   UNL     1     -12.421  13.042  65.711  1.00  0.00    -0.470 OA 
ENDROOT
BRANCH   2   3
HETATM    3  C   UNL     1     -11.522  12.082  66.103  1.00  0.00    -0.339 A  
HETATM    4  C   UNL     1     -10.822  11.356  65.161  1.00  0.00    -0.302 A  
HETATM    5  C   UNL     1      -9.858  10.377  65.492  1.00  0.00    -0.332 A  
HETATM    6  C   UNL     1      -9.566  10.068  66.839  1.00  0.00    -0.219 A  
HETATM    7  C   UNL     1     -10.391  10.745  67.820  1.00  0.00    -0.193 A  
HETATM    8  C   UNL     1      -8.381   9.151  67.255  1.00  0.00    -0.121 C  
HETATM    9  C   UNL     1     -11.357  11.758  67.454  1.00  0.00    -0.311 A  
HETATM   10  C   UNL     1      -7.625   9.655  68.268  1.00  0.00    -0.078 C  
HETATM   11  C   UNL     1      -7.930   9.178  64.399  1.00  0.00    -0.137 C  
HETATM   12  C   UNL     1      -9.305   9.749  64.245  1.00  0.00    -0.253 C  
HETATM   13  C   UNL     1      -8.110   7.801  65.038  1.00  0.00    -0.139 C  
HETATM   14  C   UNL     1      -6.497   8.937  68.857  1.00  0.00    -0.048 C  
HETATM   15  C   UNL     1      -7.898   7.872  66.550  1.00  0.00    -0.098 C  
HETATM   16  C   UNL     1      -6.821   7.782  69.474  1.00  0.00    -0.047 C  
HETATM   17  C   UNL     1      -6.809   6.610  68.553  1.00  0.00    -0.070 C  
HETATM   18  O   UNL     1      -6.416   5.503  68.911  1.00  0.00    -0.039 OA 
HETATM   19  C   UNL     1      -7.285   6.818  67.147  1.00  0.00    -0.085 C  
BRANCH   7  20
HETATM   20  O   UNL     1     -10.228  10.313  69.131  1.00  0.00    -0.193 OA 
HETATM   21  C   UNL     1     -11.028   9.219  69.579  1.00  0.00    -0.151 C  
ENDBRANCH   7  20
BRANCH   9  22
HETATM   22  O   UNL     1     -12.143  12.279  68.446  1.00  0.00    -0.321 OA 
HETATM   23  C   UNL     1     -11.690  13.454  69.110  1.00  0.00    -0.326 C  
ENDBRANCH   9  22
BRANCH  16  24
HETATM   24  O   UNL     1      -7.542   7.617  70.634  1.00  0.00    -0.077 OA 
HETATM   25  C   UNL     1      -7.624   8.745  71.492  1.00  0.00    -0.096 C  
ENDBRANCH  16  24
BRANCH  13  26
HETATM   26  N   UNL     1      -7.259   6.878  64.275  1.00  0.00    -0.062 N  
HETATM   27  C   UNL     1      -7.843   5.664  63.914  1.00  0.00    -0.112 C  
HETATM   28  H   UNL     1      -6.299   7.111  64.023  1.00  0.00     0.000 HD 
HETATM   29  O   UNL     1      -8.894   5.258  64.409  1.00  0.00    -0.104 OA 
HETATM   30  C   UNL     1      -7.168   4.876  62.825  1.00  0.00    -0.042 C  
ENDBRANCH  13  26
ENDBRANCH   2   3
TORSDOF 5
ENDMDL
MODEL       74
REMARK 921   NORMALIZED FREE ENERGY PREDICTED BY IDOCK:   -3.70 KCAL/MOL
REMARK 922        TOTAL FREE ENERGY PREDICTED BY IDOCK:   -5.47 KCAL/MOL
REMARK 923 INTER-LIGAND FREE ENERGY PREDICTED BY IDOCK:   -5.92 KCAL/MOL
REMARK 924 INTRA-LIGAND FREE ENERGY PREDICTED BY IDOCK:    0.45 KCAL/MOL
REMARK 927      BINDING AFFINITY PREDICTED BY RF-SCORE:    0.00 PKD
ROOT
HETATM    1  C   UNL     1      -8.269   6.893  70.612  1.00  0.00    -0.120 C  
HETATM    2  O   UNL     1      -7.859   7.359  69.324  1.00  0.00    -0.111 OA 
ENDROOT
BRANCH   2   3
HETATM    3  C   UNL     1      -8.182   8.655  69.011  1.00  0.00    -0.122 A  
HETATM    4  C   UNL     1      -7.290   9.677  69.267  1.00  0.00    -0.079 A  
HETATM    5  C   UNL     1      -7.541  11.029  68.941  1.00  0.00    -0.134 A  
HETATM    6  C   UNL     1      -8.756  11.419  68.336  1.00  0.00    -0.157 A  
HETATM    7  C   UNL     1      -9.736  10.361  68.182  1.00  0.00    -0.151 A  
HETATM    8  C   UNL     1      -8.998  12.850  67.778  1.00  0.00    -0.191 C  
HETATM    9  C   UNL     1      -9.444   8.982  68.506  1.00  0.00    -0.143 A  
HETATM   10  C   UNL     1      -9.549  12.869  66.534  1.00  0.00    -0.259 C  
HETATM   11  C   UNL     1      -6.245  13.164  68.605  1.00  0.00    -0.083 C  
HETATM   12  C   UNL     1      -6.393  11.892  69.379  1.00  0.00    -0.115 C  
HETATM   13  C   UNL     1      -7.245  14.149  69.209  1.00  0.00    -0.049 C  
HETATM   14  C   UNL     1      -9.915  14.102  65.841  1.00  0.00    -0.331 C  
HETATM   15  C   UNL     1      -8.537  14.183  68.393  1.00  0.00    -0.176 C  
HETATM   16  C   UNL     1     -10.881  14.825  66.443  1.00  0.00    -0.322 C  
HETATM   17  C   UNL     1     -10.345  15.796  67.437  1.00  0.00    -0.282 C  
HETATM   18  O   UNL     1     -10.836  16.912  67.590  1.00  0.00    -0.325 OA 
HETATM   19  C   UNL     1      -9.161  15.380  68.257  1.00  0.00    -0.187 C  
BRANCH   7  20
HETATM   20  O   UNL     1     -10.991  10.775  67.753  1.00  0.00    -0.252 OA 
HETATM   21  C   UNL     1     -11.941  11.166  68.744  1.00  0.00    -0.268 C  
ENDBRANCH   7  20
BRANCH   9  22
HETATM   22  O   UNL     1     -10.462   8.073  68.401  1.00  0.00    -0.206 OA 
HETATM   23  C   UNL     1     -10.619   7.384  67.165  1.00  0.00    -0.342 C  
ENDBRANCH   9  22
BRANCH  16  24
HETATM   24  O   UNL     1     -12.211  14.503  66.587  1.00  0.00    -0.379 OA 
HETATM   25  C   UNL     1     -12.866  13.995  65.434  1.00  0.00    -0.410 C  
ENDBRANCH  16  24
BRANCH  13  26
HETATM   26  N   UNL     1      -6.520  15.415  69.387  1.00  0.00    -0.137 N  
HETATM   27  C   UNL     1      -5.918  15.940  68.244  1.00  0.00    -0.108 C  
HETATM   28  H   UNL     1      -6.461  15.882  70.292  1.00  0.00     0.000 HD 
HETATM   29  O   UNL     1      -5.762  15.286  67.214  1.00  0.00    -0.332 OA 
HETATM   30  C   UNL     1      -5.515  17.389  68.286  1.00  0.00    -0.144 C  
ENDBRANCH  13  26
ENDBRANCH   2   3
TORSDOF 5
ENDMDL
MODEL       75
REMARK 921   NORMALIZED FREE ENERGY PREDICTED BY IDOCK:   -3.70 KCAL/MOL
REMARK 922        TOTAL FREE ENERGY PREDICTED BY IDOCK:   -5.46 KCAL/MOL
REMARK 923 INTER-LIGAND FREE ENERGY PREDICTED BY IDOCK:   -4.87 KCAL/MOL
REMARK 924 INTRA-LIGAND FREE ENERGY PREDICTED BY IDOCK:   -0.59 KCAL/MOL
REMARK 927      BINDING AFFINITY PREDICTED BY RF-SCORE:    0.00 PKD
ROOT
HETATM    1  C   UNL     1     -10.643   3.819  63.697  1.00  0.00    -0.246 C  
HETATM    2  O   UNL     1      -9.893   3.601  64.896  1.00  0.00    -0.175 OA 
ENDROOT
BRANCH   2   3
HETATM    3  C   UNL     1      -9.466   4.722  65.562  1.00  0.00    -0.163 A  
HETATM    4  C   UNL     1     -10.234   5.269  66.570  1.00  0.00    -0.293 A  
HETATM    5  C   UNL     1      -9.842   6.400  67.321  1.00  0.00    -0.169 A  
HETATM    6  C   UNL     1      -8.620   7.059  67.061  1.00  0.00    -0.122 A  
HETATM    7  C   UNL     1      -7.877   6.555  65.923  1.00  0.00    -0.106 A  
HETATM    8  C   UNL     1      -8.053   8.176  67.983  1.00  0.00    -0.128 C  
HETATM    9  C   UNL     1      -8.292   5.382  65.184  1.00  0.00    -0.144 A  
HETATM   10  C   UNL     1      -6.736   8.022  68.286  1.00  0.00    -0.067 C  
HETATM   11  C   UNL     1     -10.413   7.504  69.513  1.00  0.00    -0.227 C  
HETATM   12  C   UNL     1     -10.910   6.762  68.312  1.00  0.00    -0.290 C  
HETATM   13  C   UNL     1     -10.282   8.965  69.087  1.00  0.00    -0.206 C  
HETATM   14  C   UNL     1      -5.983   8.983  69.089  1.00  0.00    -0.042 C  
HETATM   15  C   UNL     1      -8.841   9.290  68.692  1.00  0.00    -0.132 C  
HETATM   16  C   UNL     1      -5.867  10.210  68.542  1.00  0.00    -0.041 C  
HETATM   17  C   UNL     1      -6.994  11.115  68.904  1.00  0.00    -0.095 C  
HETATM   18  O   UNL     1      -6.826  12.313  69.117  1.00  0.00    -0.102 OA 
HETATM   19  C   UNL     1      -8.365  10.520  69.016  1.00  0.00    -0.154 C  
BRANCH   7  20
HETATM   20  O   UNL     1      -6.769   7.309  65.558  1.00  0.00    -0.050 OA 
HETATM   21  C   UNL     1      -6.919   8.247  64.493  1.00  0.00    -0.073 C  
ENDBRANCH   7  20
BRANCH   9  22
HETATM   22  O   UNL     1      -7.566   5.035  64.078  1.00  0.00    -0.062 OA 
HETATM   23  C   UNL     1      -6.532   4.068  64.232  1.00  0.00    -0.041 C  
ENDBRANCH   9  22
BRANCH  16  24
HETATM   24  O   UNL     1      -5.152  10.572  67.424  1.00  0.00    -0.037 OA 
HETATM   25  C   UNL     1      -5.910  10.970  66.291  1.00  0.00    -0.148 C  
ENDBRANCH  16  24
BRANCH  13  26
HETATM   26  N   UNL     1     -10.888   9.763  70.162  1.00  0.00    -0.268 N  
HETATM   27  C   UNL     1     -11.874  10.668  69.771  1.00  0.00    -0.304 C  
HETATM   28  H   UNL     1     -10.605   9.661  71.137  1.00  0.00     0.000 HD 
HETATM   29  O   UNL     1     -12.056  10.987  68.596  1.00  0.00    -0.551 OA 
HETATM   30  C   UNL     1     -12.777  11.206  70.847  1.00  0.00    -0.438 C  
ENDBRANCH  13  26
ENDBRANCH   2   3
TORSDOF 5
ENDMDL
MODEL       76
REMARK 921   NORMALIZED FREE ENERGY PREDICTED BY IDOCK:   -3.68 KCAL/MOL
REMARK 922        TOTAL FREE ENERGY PREDICTED BY IDOCK:   -5.44 KCAL/MOL
REMARK 923 INTER-LIGAND FREE ENERGY PREDICTED BY IDOCK:   -5.86 KCAL/MOL
REMARK 924 INTRA-LIGAND FREE ENERGY PREDICTED BY IDOCK:    0.43 KCAL/MOL
REMARK 927      BINDING AFFINITY PREDICTED BY RF-SCORE:    0.00 PKD
ROOT
HETATM    1  C   UNL     1      -7.195  20.426  67.594  1.00  0.00    -0.308 C  
HETATM    2  O   UNL     1      -6.262  19.347  67.487  1.00  0.00    -0.194 OA 
ENDROOT
BRANCH   2   3
HETATM    3  C   UNL     1      -6.789  18.080  67.502  1.00  0.00    -0.190 A  
HETATM    4  C   UNL     1      -7.921  17.787  66.769  1.00  0.00    -0.265 A  
HETATM    5  C   UNL     1      -8.499  16.498  66.710  1.00  0.00    -0.273 A  
HETATM    6  C   UNL     1      -7.943  15.419  67.431  1.00  0.00    -0.213 A  
HETATM    7  C   UNL     1      -6.829  15.760  68.293  1.00  0.00    -0.118 A  
HETATM    8  C   UNL     1      -8.417  13.949  67.243  1.00  0.00    -0.212 C  
HETATM    9  C   UNL     1      -6.246  17.083  68.319  1.00  0.00    -0.135 A  
HETATM   10  C   UNL     1      -7.399  13.057  67.105  1.00  0.00     0.031 C  
HETATM   11  C   UNL     1     -10.083  15.203  65.240  1.00  0.00    -0.365 C  
HETATM   12  C   UNL     1      -9.735  16.521  65.858  1.00  0.00    -0.303 C  
HETATM   13  C   UNL     1     -10.814  14.406  66.320  1.00  0.00    -0.313 C  
HETATM   14  C   UNL     1      -7.610  11.617  66.975  1.00  0.00    -0.154 C  
HETATM   15  C   UNL     1      -9.858  13.452  67.034  1.00  0.00    -0.250 C  
HETATM   16  C   UNL     1      -8.179  11.029  68.047  1.00  0.00    -0.123 C  
HETATM   17  C   UNL     1      -9.668  11.036  67.990  1.00  0.00    -0.172 C  
HETATM   18  O   UNL     1     -10.341  10.091  68.396  1.00  0.00    -0.173 OA 
HETATM   19  C   UNL     1     -10.343  12.239  67.405  1.00  0.00    -0.219 C  
BRANCH   7  20
HETATM   20  O   UNL     1      -6.397  14.740  69.134  1.00  0.00    -0.099 OA 
HETATM   21  C   UNL     1      -6.966  14.665  70.441  1.00  0.00     0.216 C  
ENDBRANCH   7  20
BRANCH   9  22
HETATM   22  O   UNL     1      -5.250  17.324  69.226  1.00  0.00    -0.151 OA 
HETATM   23  C   UNL     1      -5.584  18.035  70.413  1.00  0.00    -0.221 C  
ENDBRANCH   9  22
BRANCH  16  24
HETATM   24  O   UNL     1      -7.635  10.844  69.298  1.00  0.00    -0.130 OA 
HETATM   25  C   UNL     1      -6.469  10.036  69.365  1.00  0.00    -0.048 C  
ENDBRANCH  16  24
BRANCH  13  26
HETATM   26  N   UNL     1     -11.998  13.824  65.672  1.00  0.00    -0.366 N  
HETATM   27  C   UNL     1     -11.753  13.028  64.553  1.00  0.00    -0.369 C  
HETATM   28  H   UNL     1     -12.942  13.991  66.019  1.00  0.00     0.000 HD 
HETATM   29  O   UNL     1     -10.668  13.012  63.973  1.00  0.00    -0.400 OA 
HETATM   30  C   UNL     1     -12.861  12.115  64.106  1.00  0.00    -0.344 C  
ENDBRANCH  13  26
ENDBRANCH   2   3
TORSDOF 5
ENDMDL
MODEL       77
REMARK 921   NORMALIZED FREE ENERGY PREDICTED BY IDOCK:   -3.66 KCAL/MOL
REMARK 922        TOTAL FREE ENERGY PREDICTED BY IDOCK:   -5.41 KCAL/MOL
REMARK 923 INTER-LIGAND FREE ENERGY PREDICTED BY IDOCK:   -5.93 KCAL/MOL
REMARK 924 INTRA-LIGAND FREE ENERGY PREDICTED BY IDOCK:    0.52 KCAL/MOL
REMARK 927      BINDING AFFINITY PREDICTED BY RF-SCORE:    0.00 PKD
ROOT
HETATM    1  C   UNL     1     -12.455  14.788  64.111  1.00  0.00    -0.111 C  
HETATM    2  O   UNL     1     -12.250  13.438  63.684  1.00  0.00    -0.616 OA 
ENDROOT
BRANCH   2   3
HETATM    3  C   UNL     1     -11.412  12.673  64.457  1.00  0.00    -0.339 A  
HETATM    4  C   UNL     1     -10.632  11.694  63.879  1.00  0.00    -0.446 A  
HETATM    5  C   UNL     1      -9.723  10.892  64.607  1.00  0.00    -0.333 A  
HETATM    6  C   UNL     1      -9.575  11.044  66.003  1.00  0.00    -0.249 A  
HETATM    7  C   UNL     1     -10.485  11.988  66.621  1.00  0.00    -0.215 A  
HETATM    8  C   UNL     1      -8.454  10.333  66.813  1.00  0.00    -0.123 C  
HETATM    9  C   UNL     1     -11.391  12.809  65.849  1.00  0.00    -0.324 A  
HETATM   10  C   UNL     1      -7.797  11.152  67.679  1.00  0.00    -0.115 C  
HETATM   11  C   UNL     1      -7.714   9.437  64.166  1.00  0.00    -0.117 C  
HETATM   12  C   UNL     1      -9.056   9.903  63.695  1.00  0.00    -0.294 C  
HETATM   13  C   UNL     1      -7.981   8.340  65.196  1.00  0.00    -0.128 C  
HETATM   14  C   UNL     1      -6.748  10.684  68.581  1.00  0.00    -0.057 C  
HETATM   15  C   UNL     1      -7.923   8.902  66.616  1.00  0.00    -0.103 C  
HETATM   16  C   UNL     1      -7.152   9.787  69.503  1.00  0.00    -0.075 C  
HETATM   17  C   UNL     1      -7.065   8.380  69.020  1.00  0.00    -0.069 C  
HETATM   18  O   UNL     1      -6.730   7.457  69.757  1.00  0.00    -0.042 OA 
HETATM   19  C   UNL     1      -7.392   8.110  67.582  1.00  0.00    -0.093 C  
BRANCH   7  20
HETATM   20  O   UNL     1     -10.464  12.008  68.011  1.00  0.00    -0.195 OA 
HETATM   21  C   UNL     1     -11.498  11.312  68.706  1.00  0.00    -0.293 C  
ENDBRANCH   7  20
BRANCH   9  22
HETATM   22  O   UNL     1     -12.265  13.610  66.532  1.00  0.00    -0.419 OA 
HETATM   23  C   UNL     1     -11.734  14.715  67.256  1.00  0.00    -0.385 C  
ENDBRANCH   9  22
BRANCH  16  24
HETATM   24  O   UNL     1      -7.990   9.995  70.574  1.00  0.00    -0.224 OA 
HETATM   25  C   UNL     1      -9.225   9.294  70.554  1.00  0.00    -0.261 C  
ENDBRANCH  16  24
BRANCH  13  26
HETATM   26  N   UNL     1      -7.072   7.234  64.865  1.00  0.00    -0.061 N  
HETATM   27  C   UNL     1      -7.671   5.994  64.646  1.00  0.00    -0.099 C  
HETATM   28  H   UNL     1      -6.063   7.365  64.800  1.00  0.00     0.000 HD 
HETATM   29  O   UNL     1      -8.837   5.754  64.958  1.00  0.00    -0.094 OA 
HETATM   30  C   UNL     1      -6.850   4.952  63.936  1.00  0.00    -0.047 C  
ENDBRANCH  13  26
ENDBRANCH   2   3
TORSDOF 5
ENDMDL
MODEL       78
REMARK 921   NORMALIZED FREE ENERGY PREDICTED BY IDOCK:   -3.57 KCAL/MOL
REMARK 922        TOTAL FREE ENERGY PREDICTED BY IDOCK:   -5.30 KCAL/MOL
REMARK 923 INTER-LIGAND FREE ENERGY PREDICTED BY IDOCK:   -4.62 KCAL/MOL
REMARK 924 INTRA-LIGAND FREE ENERGY PREDICTED BY IDOCK:   -0.68 KCAL/MOL
REMARK 927      BINDING AFFINITY PREDICTED BY RF-SCORE:    0.00 PKD
ROOT
HETATM    1  C   UNL     1      -8.348  10.077  63.463  1.00  0.00    -0.171 C  
HETATM    2  O   UNL     1      -7.363   9.096  63.800  1.00  0.00    -0.098 OA 
ENDROOT
BRANCH   2   3
HETATM    3  C   UNL     1      -7.717   8.178  64.757  1.00  0.00    -0.123 A  
HETATM    4  C   UNL     1      -8.839   8.378  65.534  1.00  0.00    -0.172 A  
HETATM    5  C   UNL     1      -9.283   7.460  66.513  1.00  0.00    -0.206 A  
HETATM    6  C   UNL     1      -8.571   6.267  66.767  1.00  0.00    -0.116 A  
HETATM    7  C   UNL     1      -7.328   6.121  66.035  1.00  0.00    -0.080 A  
HETATM    8  C   UNL     1      -9.122   5.138  67.684  1.00  0.00    -0.117 C  
HETATM    9  C   UNL     1      -6.909   7.067  65.024  1.00  0.00    -0.051 A  
HETATM   10  C   UNL     1      -9.011   3.892  67.149  1.00  0.00    -0.152 C  
HETATM   11  C   UNL     1     -11.389   6.929  67.790  1.00  0.00     0.042 C  
HETATM   12  C   UNL     1     -10.508   7.987  67.204  1.00  0.00    -0.408 C  
HETATM   13  C   UNL     1     -10.767   6.553  69.134  1.00  0.00    -0.275 C  
HETATM   14  C   UNL     1      -9.410   2.679  67.858  1.00  0.00    -0.244 C  
HETATM   15  C   UNL     1      -9.901   5.300  69.001  1.00  0.00    -0.235 C  
HETATM   16  C   UNL     1      -8.707   2.421  68.980  1.00  0.00    -0.083 C  
HETATM   17  C   UNL     1      -9.291   3.064  70.191  1.00  0.00    -0.158 C  
HETATM   18  O   UNL     1      -9.291   2.511  71.287  1.00  0.00    -0.111 OA 
HETATM   19  C   UNL     1      -9.903   4.424  70.038  1.00  0.00    -0.294 C  
BRANCH   7  20
HETATM   20  O   UNL     1      -6.542   5.039  66.413  1.00  0.00    -0.046 OA 
HETATM   21  C   UNL     1      -5.467   5.278  67.321  1.00  0.00    -0.012 C  
ENDBRANCH   7  20
BRANCH   9  22
HETATM   22  O   UNL     1      -5.682   6.883  64.448  1.00  0.00    -0.031 OA 
HETATM   23  C   UNL     1      -5.620   6.166  63.220  1.00  0.00    -0.018 C  
ENDBRANCH   9  22
BRANCH  16  24
HETATM   24  O   UNL     1      -7.384   2.056  69.083  1.00  0.00    -0.043 OA 
HETATM   25  C   UNL     1      -6.535   2.952  69.785  1.00  0.00    -0.029 C  
ENDBRANCH  16  24
BRANCH  13  26
HETATM   26  N   UNL     1     -11.871   6.516  70.103  1.00  0.00    -0.567 N  
HETATM   27  C   UNL     1     -12.080   7.682  70.837  1.00  0.00    -0.202 C  
HETATM   28  H   UNL     1     -12.450   5.686  70.231  1.00  0.00     0.000 HD 
HETATM   29  O   UNL     1     -11.256   8.595  70.884  1.00  0.00    -0.254 OA 
HETATM   30  C   UNL     1     -13.405   7.826  71.534  1.00  0.00    -0.365 C  
ENDBRANCH  13  26
ENDBRANCH   2   3
TORSDOF 5
ENDMDL
MODEL       79
REMARK 921   NORMALIZED FREE ENERGY PREDICTED BY IDOCK:   -3.55 KCAL/MOL
REMARK 922        TOTAL FREE ENERGY PREDICTED BY IDOCK:   -5.27 KCAL/MOL
REMARK 923 INTER-LIGAND FREE ENERGY PREDICTED BY IDOCK:   -6.41 KCAL/MOL
REMARK 924 INTRA-LIGAND FREE ENERGY PREDICTED BY IDOCK:    1.14 KCAL/MOL
REMARK 927      BINDING AFFINITY PREDICTED BY RF-SCORE:    0.00 PKD
ROOT
HETATM    1  C   UNL     1     -10.224  17.139  68.765  1.00  0.00    -0.332 C  
HETATM    2  O   UNL     1     -10.875  16.276  67.829  1.00  0.00    -0.328 OA 
ENDROOT
BRANCH   2   3
HETATM    3  C   UNL     1     -10.756  14.927  68.056  1.00  0.00    -0.253 A  
HETATM    4  C   UNL     1     -11.492  14.321  69.054  1.00  0.00    -0.318 A  
HETATM    5  C   UNL     1     -11.446  12.934  69.321  1.00  0.00    -0.341 A  
HETATM    6  C   UNL     1     -10.610  12.076  68.574  1.00  0.00    -0.252 A  
HETATM    7  C   UNL     1      -9.750  12.736  67.612  1.00  0.00    -0.205 A  
HETATM    8  C   UNL     1     -10.672  10.526  68.694  1.00  0.00    -0.247 C  
HETATM    9  C   UNL     1      -9.833  14.155  67.345  1.00  0.00    -0.239 A  
HETATM   10  C   UNL     1     -10.693   9.883  67.494  1.00  0.00    -0.333 C  
HETATM   11  C   UNL     1     -12.834  11.189  70.495  1.00  0.00    -0.213 C  
HETATM   12  C   UNL     1     -12.333  12.599  70.486  1.00  0.00    -0.350 C  
HETATM   13  C   UNL     1     -11.706  10.340  71.082  1.00  0.00    -0.341 C  
HETATM   14  C   UNL     1     -10.692   8.428  67.368  1.00  0.00    -0.225 C  
HETATM   15  C   UNL     1     -10.876   9.695  69.972  1.00  0.00    -0.302 C  
HETATM   16  C   UNL     1      -9.587   7.819  67.843  1.00  0.00    -0.146 C  
HETATM   17  C   UNL     1      -9.690   7.479  69.291  1.00  0.00    -0.163 C  
HETATM   18  O   UNL     1      -9.217   6.443  69.752  1.00  0.00    -0.143 OA 
HETATM   19  C   UNL     1     -10.407   8.440  70.189  1.00  0.00    -0.214 C  
BRANCH   7  20
HETATM   20  O   UNL     1      -8.804  11.919  67.004  1.00  0.00    -0.176 OA 
HETATM   21  C   UNL     1      -8.957  11.638  65.613  1.00  0.00    -0.015 C  
ENDBRANCH   7  20
BRANCH   9  22
HETATM   22  O   UNL     1      -8.923  14.695  66.477  1.00  0.00    -0.255 OA 
HETATM   23  C   UNL     1      -7.708  15.207  67.014  1.00  0.00    -0.123 C  
ENDBRANCH   9  22
BRANCH  16  24
HETATM   24  O   UNL     1      -8.309   7.871  67.336  1.00  0.00    -0.121 OA 
HETATM   25  C   UNL     1      -7.971   6.882  66.375  1.00  0.00    -0.106 C  
ENDBRANCH  16  24
BRANCH  13  26
HETATM   26  N   UNL     1     -12.332   9.448  72.068  1.00  0.00    -0.363 N  
HETATM   27  C   UNL     1     -13.600   8.969  71.742  1.00  0.00    -0.413 C  
HETATM   28  H   UNL     1     -11.866   9.195  72.939  1.00  0.00     0.000 HD 
HETATM   29  O   UNL     1     -14.278   9.447  70.834  1.00  0.00    -0.008 OA 
HETATM   30  C   UNL     1     -14.100   7.775  72.508  1.00  0.00     0.113 C  
ENDBRANCH  13  26
ENDBRANCH   2   3
TORSDOF 5
ENDMDL
MODEL       80
REMARK 921   NORMALIZED FREE ENERGY PREDICTED BY IDOCK:   -3.52 KCAL/MOL
REMARK 922        TOTAL FREE ENERGY PREDICTED BY IDOCK:   -5.24 KCAL/MOL
REMARK 923 INTER-LIGAND FREE ENERGY PREDICTED BY IDOCK:   -4.77 KCAL/MOL
REMARK 924 INTRA-LIGAND FREE ENERGY PREDICTED BY IDOCK:   -0.47 KCAL/MOL
REMARK 927      BINDING AFFINITY PREDICTED BY RF-SCORE:    0.00 PKD
ROOT
HETATM    1  C   UNL     1      -8.208   2.447  71.575  1.00  0.00    -0.055 C  
HETATM    2  O   UNL     1      -8.659   2.605  70.227  1.00  0.00    -0.051 OA 
ENDROOT
BRANCH   2   3
HETATM    3  C   UNL     1      -8.722   3.891  69.750  1.00  0.00    -0.076 A  
HETATM    4  C   UNL     1      -9.406   4.862  70.453  1.00  0.00    -0.213 A  
HETATM    5  C   UNL     1      -9.483   6.212  70.040  1.00  0.00    -0.172 A  
HETATM    6  C   UNL     1      -8.865   6.645  68.846  1.00  0.00    -0.131 A  
HETATM    7  C   UNL     1      -8.253   5.597  68.053  1.00  0.00    -0.100 A  
HETATM    8  C   UNL     1      -8.750   8.145  68.454  1.00  0.00    -0.134 C  
HETATM    9  C   UNL     1      -8.171   4.227  68.510  1.00  0.00    -0.084 A  
HETATM   10  C   UNL     1      -7.509   8.510  68.032  1.00  0.00    -0.097 C  
HETATM   11  C   UNL     1     -10.013   8.465  71.035  1.00  0.00    -0.235 C  
HETATM   12  C   UNL     1     -10.325   7.002  71.000  1.00  0.00    -0.216 C  
HETATM   13  C   UNL     1     -10.746   9.086  69.847  1.00  0.00    -0.229 C  
HETATM   14  C   UNL     1      -7.189   9.855  67.559  1.00  0.00    -0.089 C  
HETATM   15  C   UNL     1      -9.808   9.245  68.651  1.00  0.00    -0.173 C  
HETATM   16  C   UNL     1      -7.843  10.233  66.442  1.00  0.00    -0.119 C  
HETATM   17  C   UNL     1      -9.155  10.879  66.729  1.00  0.00    -0.152 C  
HETATM   18  O   UNL     1      -9.576  11.824  66.067  1.00  0.00    -0.222 OA 
HETATM   19  C   UNL     1      -9.963  10.348  67.875  1.00  0.00    -0.192 C  
BRANCH   7  20
HETATM   20  O   UNL     1      -7.802   5.991  66.799  1.00  0.00    -0.099 OA 
HETATM   21  C   UNL     1      -8.702   5.875  65.697  1.00  0.00    -0.146 C  
ENDBRANCH   7  20
BRANCH   9  22
HETATM   22  O   UNL     1      -7.647   3.299  67.652  1.00  0.00    -0.061 OA 
HETATM   23  C   UNL     1      -8.551   2.526  66.869  1.00  0.00    -0.111 C  
ENDBRANCH   9  22
BRANCH  16  24
HETATM   24  O   UNL     1      -7.691   9.741  65.167  1.00  0.00    -0.113 OA 
HETATM   25  C   UNL     1      -8.856   9.208  64.554  1.00  0.00    -0.125 C  
ENDBRANCH  16  24
BRANCH  13  26
HETATM   26  N   UNL     1     -11.408  10.295  70.357  1.00  0.00    -0.311 N  
HETATM   27  C   UNL     1     -12.617  10.096  71.022  1.00  0.00    -0.381 C  
HETATM   28  H   UNL     1     -11.007  11.224  70.232  1.00  0.00     0.000 HD 
HETATM   29  O   UNL     1     -13.239   9.036  70.969  1.00  0.00    -0.170 OA 
HETATM   30  C   UNL     1     -13.119  11.222  71.883  1.00  0.00    -0.510 C  
ENDBRANCH  13  26
ENDBRANCH   2   3
TORSDOF 5
ENDMDL
MODEL       81
REMARK 921   NORMALIZED FREE ENERGY PREDICTED BY IDOCK:   -3.48 KCAL/MOL
REMARK 922        TOTAL FREE ENERGY PREDICTED BY IDOCK:   -5.19 KCAL/MOL
REMARK 923 INTER-LIGAND FREE ENERGY PREDICTED BY IDOCK:   -6.05 KCAL/MOL
REMARK 924 INTRA-LIGAND FREE ENERGY PREDICTED BY IDOCK:    0.86 KCAL/MOL
REMARK 927      BINDING AFFINITY PREDICTED BY RF-SCORE:    0.00 PKD
ROOT
HETATM    1  C   UNL     1      -8.429   5.536  71.580  1.00  0.00    -0.131 C  
HETATM    2  O   UNL     1      -9.005   5.213  70.312  1.00  0.00    -0.119 OA 
ENDROOT
BRANCH   2   3
HETATM    3  C   UNL     1      -9.254   6.266  69.467  1.00  0.00    -0.139 A  
HETATM    4  C   UNL     1      -9.780   7.443  69.958  1.00  0.00    -0.175 A  
HETATM    5  C   UNL     1     -10.030   8.579  69.154  1.00  0.00    -0.194 A  
HETATM    6  C   UNL     1      -9.765   8.561  67.767  1.00  0.00    -0.199 A  
HETATM    7  C   UNL     1      -9.328   7.284  67.238  1.00  0.00    -0.132 A  
HETATM    8  C   UNL     1      -9.832   9.838  66.881  1.00  0.00    -0.256 C  
HETATM    9  C   UNL     1      -9.062   6.144  68.087  1.00  0.00    -0.111 A  
HETATM   10  C   UNL     1      -8.763   9.989  66.053  1.00  0.00    -0.152 C  
HETATM   11  C   UNL     1     -10.397  11.055  69.442  1.00  0.00    -0.134 C  
HETATM   12  C   UNL     1     -10.633   9.678  69.980  1.00  0.00    -0.300 C  
HETATM   13  C   UNL     1     -11.443  11.271  68.350  1.00  0.00    -0.307 C  
HETATM   14  C   UNL     1      -8.645  11.084  65.093  1.00  0.00    -0.015 C  
HETATM   15  C   UNL     1     -10.856  10.982  66.969  1.00  0.00    -0.334 C  
HETATM   16  C   UNL     1      -9.584  11.093  64.125  1.00  0.00    -0.255 C  
HETATM   17  C   UNL     1     -10.808  11.850  64.513  1.00  0.00    -0.316 C  
HETATM   18  O   UNL     1     -11.433  12.535  63.707  1.00  0.00    -0.394 OA 
HETATM   19  C   UNL     1     -11.263  11.767  65.938  1.00  0.00    -0.345 C  
BRANCH   7  20
HETATM   20  O   UNL     1      -9.238   7.217  65.853  1.00  0.00    -0.084 OA 
HETATM   21  C   UNL     1      -7.971   6.894  65.280  1.00  0.00    -0.127 C  
ENDBRANCH   7  20
BRANCH   9  22
HETATM   22  O   UNL     1      -8.732   4.962  67.483  1.00  0.00    -0.104 OA 
HETATM   23  C   UNL     1      -9.790   4.135  67.009  1.00  0.00    -0.151 C  
ENDBRANCH   9  22
BRANCH  16  24
HETATM   24  O   UNL     1      -9.744  10.196  63.094  1.00  0.00    -0.261 OA 
HETATM   25  C   UNL     1      -8.579   9.880  62.347  1.00  0.00    -0.185 C  
ENDBRANCH  16  24
BRANCH  13  26
HETATM   26  N   UNL     1     -12.010  12.607  68.582  1.00  0.00    -0.282 N  
HETATM   27  C   UNL     1     -11.108  13.670  68.543  1.00  0.00    -0.275 C  
HETATM   28  H   UNL     1     -13.004  12.749  68.760  1.00  0.00     0.000 HD 
HETATM   29  O   UNL     1      -9.889  13.509  68.580  1.00  0.00    -0.232 OA 
HETATM   30  C   UNL     1     -11.682  15.051  68.384  1.00  0.00    -0.341 C  
ENDBRANCH  13  26
ENDBRANCH   2   3
TORSDOF 5
ENDMDL
MODEL       82
REMARK 921   NORMALIZED FREE ENERGY PREDICTED BY IDOCK:   -3.47 KCAL/MOL
REMARK 922        TOTAL FREE ENERGY PREDICTED BY IDOCK:   -5.18 KCAL/MOL
REMARK 923 INTER-LIGAND FREE ENERGY PREDICTED BY IDOCK:   -5.12 KCAL/MOL
REMARK 924 INTRA-LIGAND FREE ENERGY PREDICTED BY IDOCK:   -0.05 KCAL/MOL
REMARK 927      BINDING AFFINITY PREDICTED BY RF-SCORE:    0.00 PKD
ROOT
HETATM    1  C   UNL     1      -7.901   7.211  71.591  1.00  0.00    -0.097 C  
HETATM    2  O   UNL     1      -7.335   7.461  70.301  1.00  0.00    -0.074 OA 
ENDROOT
BRANCH   2   3
HETATM    3  C   UNL     1      -7.655   8.661  69.715  1.00  0.00    -0.079 A  
HETATM    4  C   UNL     1      -8.832   8.799  69.009  1.00  0.00    -0.137 A  
HETATM    5  C   UNL     1      -9.242  10.012  68.409  1.00  0.00    -0.131 A  
HETATM    6  C   UNL     1      -8.438  11.170  68.487  1.00  0.00    -0.156 A  
HETATM    7  C   UNL     1      -7.149  10.986  69.123  1.00  0.00    -0.116 A  
HETATM    8  C   UNL     1      -8.932  12.570  68.021  1.00  0.00    -0.192 C  
HETATM    9  C   UNL     1      -6.764   9.738  69.747  1.00  0.00    -0.069 A  
HETATM   10  C   UNL     1      -8.676  13.567  68.911  1.00  0.00     0.216 C  
HETATM   11  C   UNL     1     -11.358  11.071  67.542  1.00  0.00    -0.332 C  
HETATM   12  C   UNL     1     -10.547   9.822  67.691  1.00  0.00    -0.333 C  
HETATM   13  C   UNL     1     -10.778  11.814  66.339  1.00  0.00    -0.266 C  
HETATM   14  C   UNL     1      -9.000  14.968  68.655  1.00  0.00    -0.186 C  
HETATM   15  C   UNL     1      -9.794  12.893  66.789  1.00  0.00    -0.241 C  
HETATM   16  C   UNL     1      -8.339  15.522  67.619  1.00  0.00    -0.155 C  
HETATM   17  C   UNL     1      -9.046  15.344  66.319  1.00  0.00    -0.320 C  
HETATM   18  O   UNL     1      -9.055  16.219  65.456  1.00  0.00    -0.374 OA 
HETATM   19  C   UNL     1      -9.772  14.054  66.085  1.00  0.00    -0.300 C  
BRANCH   7  20
HETATM   20  O   UNL     1      -6.288  12.074  69.043  1.00  0.00    -0.071 OA 
HETATM   21  C   UNL     1      -6.012  12.798  70.242  1.00  0.00    -0.127 C  
ENDBRANCH   7  20
BRANCH   9  22
HETATM   22  O   UNL     1      -5.495   9.641  70.249  1.00  0.00    -0.037 OA 
HETATM   23  C   UNL     1      -5.321   9.765  71.657  1.00  0.00    -0.074 C  
ENDBRANCH   9  22
BRANCH  16  24
HETATM   24  O   UNL     1      -6.996  15.808  67.528  1.00  0.00    -0.152 OA 
HETATM   25  C   UNL     1      -6.439  16.565  68.592  1.00  0.00    -0.142 C  
ENDBRANCH  16  24
BRANCH  13  26
HETATM   26  N   UNL     1     -11.926  12.237  65.525  1.00  0.00    -0.386 N  
HETATM   27  C   UNL     1     -11.855  11.938  64.165  1.00  0.00    -0.318 C  
HETATM   28  H   UNL     1     -12.727  12.721  65.931  1.00  0.00     0.000 HD 
HETATM   29  O   UNL     1     -10.812  11.587  63.615  1.00  0.00    -0.374 OA 
HETATM   30  C   UNL     1     -13.139  11.993  63.383  1.00  0.00    -0.101 C  
ENDBRANCH  13  26
ENDBRANCH   2   3
TORSDOF 5
ENDMDL
MODEL       83
REMARK 921   NORMALIZED FREE ENERGY PREDICTED BY IDOCK:   -3.46 KCAL/MOL
REMARK 922        TOTAL FREE ENERGY PREDICTED BY IDOCK:   -5.16 KCAL/MOL
REMARK 923 INTER-LIGAND FREE ENERGY PREDICTED BY IDOCK:   -4.47 KCAL/MOL
REMARK 924 INTRA-LIGAND FREE ENERGY PREDICTED BY IDOCK:   -0.69 KCAL/MOL
REMARK 927      BINDING AFFINITY PREDICTED BY RF-SCORE:    0.00 PKD
ROOT
HETATM    1  C   UNL     1     -11.208   5.830  72.868  1.00  0.00    -0.276 C  
HETATM    2  O   UNL     1     -11.488   7.161  72.424  1.00  0.00    -0.262 OA 
ENDROOT
BRANCH   2   3
HETATM    3  C   UNL     1     -10.761   7.612  71.350  1.00  0.00    -0.222 A  
HETATM    4  C   UNL     1     -10.868   6.988  70.125  1.00  0.00    -0.285 A  
HETATM    5  C   UNL     1     -10.177   7.418  68.969  1.00  0.00    -0.201 A  
HETATM    6  C   UNL     1      -9.305   8.528  69.014  1.00  0.00    -0.146 A  
HETATM    7  C   UNL     1      -9.104   9.103  70.329  1.00  0.00    -0.218 A  
HETATM    8  C   UNL     1      -8.682   9.160  67.737  1.00  0.00    -0.121 C  
HETATM    9  C   UNL     1      -9.839   8.654  71.491  1.00  0.00    -0.272 A  
HETATM   10  C   UNL     1      -8.768  10.518  67.698  1.00  0.00    -0.121 C  
HETATM   11  C   UNL     1     -10.326   7.149  66.468  1.00  0.00    -0.104 C  
HETATM   12  C   UNL     1     -10.481   6.510  67.813  1.00  0.00    -0.279 C  
HETATM   13  C   UNL     1      -8.833   7.100  66.143  1.00  0.00    -0.150 C  
HETATM   14  C   UNL     1      -8.197  11.324  66.621  1.00  0.00    -0.164 C  
HETATM   15  C   UNL     1      -8.157   8.425  66.491  1.00  0.00    -0.101 C  
HETATM   16  C   UNL     1      -6.855  11.257  66.513  1.00  0.00    -0.101 C  
HETATM   17  C   UNL     1      -6.398  10.145  65.632  1.00  0.00    -0.102 C  
HETATM   18  O   UNL     1      -5.430  10.260  64.885  1.00  0.00    -0.091 OA 
HETATM   19  C   UNL     1      -7.169   8.860  65.668  1.00  0.00    -0.085 C  
BRANCH   7  20
HETATM   20  O   UNL     1      -8.115  10.076  70.405  1.00  0.00    -0.187 OA 
HETATM   21  C   UNL     1      -6.817   9.679  70.848  1.00  0.00    -0.047 C  
ENDBRANCH   7  20
BRANCH   9  22
HETATM   22  O   UNL     1      -9.518   9.206  72.701  1.00  0.00     0.038 OA 
HETATM   23  C   UNL     1      -8.708   8.444  73.590  1.00  0.00    -0.067 C  
ENDBRANCH   9  22
BRANCH  16  24
HETATM   24  O   UNL     1      -5.912  11.745  67.388  1.00  0.00    -0.075 OA 
HETATM   25  C   UNL     1      -5.942  13.143  67.634  1.00  0.00    -0.134 C  
ENDBRANCH  16  24
BRANCH  13  26
HETATM   26  N   UNL     1      -8.729   6.628  64.755  1.00  0.00    -0.339 N  
HETATM   27  C   UNL     1      -8.363   5.293  64.589  1.00  0.00    -0.141 C  
HETATM   28  H   UNL     1      -8.915   7.240  63.961  1.00  0.00     0.000 HD 
HETATM   29  O   UNL     1      -7.897   4.612  65.502  1.00  0.00    -0.092 OA 
HETATM   30  C   UNL     1      -8.622   4.673  63.243  1.00  0.00    -0.123 C  
ENDBRANCH  13  26
ENDBRANCH   2   3
TORSDOF 5
ENDMDL
MODEL       84
REMARK 921   NORMALIZED FREE ENERGY PREDICTED BY IDOCK:   -3.44 KCAL/MOL
REMARK 922        TOTAL FREE ENERGY PREDICTED BY IDOCK:   -5.13 KCAL/MOL
REMARK 923 INTER-LIGAND FREE ENERGY PREDICTED BY IDOCK:   -6.48 KCAL/MOL
REMARK 924 INTRA-LIGAND FREE ENERGY PREDICTED BY IDOCK:    1.34 KCAL/MOL
REMARK 927      BINDING AFFINITY PREDICTED BY RF-SCORE:    0.00 PKD
ROOT
HETATM    1  C   UNL     1     -12.084  13.341  63.557  1.00  0.00    -0.482 C  
HETATM    2  O   UNL     1     -10.718  12.958  63.736  1.00  0.00    -0.397 OA 
ENDROOT
BRANCH   2   3
HETATM    3  C   UNL     1     -10.490  11.852  64.516  1.00  0.00    -0.296 A  
HETATM    4  C   UNL     1      -9.674  10.836  64.064  1.00  0.00    -0.367 A  
HETATM    5  C   UNL     1      -9.368   9.686  64.827  1.00  0.00    -0.286 A  
HETATM    6  C   UNL     1      -9.910   9.503  66.118  1.00  0.00    -0.343 A  
HETATM    7  C   UNL     1     -10.861  10.513  66.537  1.00  0.00    -0.058 A  
HETATM    8  C   UNL     1      -9.450   8.363  67.070  1.00  0.00    -0.225 C  
HETATM    9  C   UNL     1     -11.140  11.691  65.744  1.00  0.00    -0.256 A  
HETATM   10  C   UNL     1      -9.198   8.777  68.342  1.00  0.00    -0.137 C  
HETATM   11  C   UNL     1      -7.634   7.858  64.877  1.00  0.00    -0.104 C  
HETATM   12  C   UNL     1      -8.486   8.759  64.040  1.00  0.00    -0.121 C  
HETATM   13  C   UNL     1      -8.529   6.690  65.292  1.00  0.00    -0.073 C  
HETATM   14  C   UNL     1      -8.810   7.867  69.417  1.00  0.00    -0.145 C  
HETATM   15  C   UNL     1      -9.101   6.913  66.691  1.00  0.00    -0.172 C  
HETATM   16  C   UNL     1      -9.740   6.946  69.742  1.00  0.00    -0.164 C  
HETATM   17  C   UNL     1      -9.627   5.698  68.935  1.00  0.00    -0.131 C  
HETATM   18  O   UNL     1      -9.835   4.587  69.418  1.00  0.00    -0.199 OA 
HETATM   19  C   UNL     1      -9.235   5.826  67.494  1.00  0.00    -0.108 C  
BRANCH   7  20
HETATM   20  O   UNL     1     -11.527  10.243  67.726  1.00  0.00    -0.351 OA 
HETATM   21  C   UNL     1     -11.097  10.927  68.903  1.00  0.00    -0.252 C  
ENDBRANCH   7  20
BRANCH   9  22
HETATM   22  O   UNL     1     -12.114  12.543  66.189  1.00  0.00    -0.571 OA 
HETATM   23  C   UNL     1     -11.706  13.743  66.839  1.00  0.00    -0.395 C  
ENDBRANCH   9  22
BRANCH  16  24
HETATM   24  O   UNL     1     -10.958   7.152  70.346  1.00  0.00    -0.249 OA 
HETATM   25  C   UNL     1     -11.444   6.097  71.164  1.00  0.00    -0.248 C  
ENDBRANCH  16  24
BRANCH  13  26
HETATM   26  N   UNL     1      -7.743   5.469  65.065  1.00  0.00    -0.088 N  
HETATM   27  C   UNL     1      -8.224   4.605  64.083  1.00  0.00    -0.114 C  
HETATM   28  H   UNL     1      -6.895   5.266  65.595  1.00  0.00     0.000 HD 
HETATM   29  O   UNL     1      -9.357   4.698  63.612  1.00  0.00    -0.098 OA 
HETATM   30  C   UNL     1      -7.270   3.570  63.552  1.00  0.00    -0.050 C  
ENDBRANCH  13  26
ENDBRANCH   2   3
TORSDOF 5
ENDMDL
MODEL       85
REMARK 921   NORMALIZED FREE ENERGY PREDICTED BY IDOCK:   -3.44 KCAL/MOL
REMARK 922        TOTAL FREE ENERGY PREDICTED BY IDOCK:   -5.13 KCAL/MOL
REMARK 923 INTER-LIGAND FREE ENERGY PREDICTED BY IDOCK:   -4.40 KCAL/MOL
REMARK 924 INTRA-LIGAND FREE ENERGY PREDICTED BY IDOCK:   -0.73 KCAL/MOL
REMARK 927      BINDING AFFINITY PREDICTED BY RF-SCORE:    0.00 PKD
ROOT
HETATM    1  C   UNL     1      -7.073  13.269  67.921  1.00  0.00    -0.133 C  
HETATM    2  O   UNL     1      -6.873  12.306  66.882  1.00  0.00    -0.083 OA 
ENDROOT
BRANCH   2   3
HETATM    3  C   UNL     1      -7.337  11.038  67.126  1.00  0.00    -0.116 A  
HETATM    4  C   UNL     1      -7.915  10.729  68.340  1.00  0.00    -0.124 A  
HETATM    5  C   UNL     1      -8.444   9.455  68.649  1.00  0.00    -0.119 A  
HETATM    6  C   UNL     1      -8.391   8.398  67.713  1.00  0.00    -0.130 A  
HETATM    7  C   UNL     1      -7.674   8.694  66.488  1.00  0.00    -0.095 A  
HETATM    8  C   UNL     1      -9.132   7.047  67.925  1.00  0.00    -0.127 C  
HETATM    9  C   UNL     1      -7.160  10.013  66.191  1.00  0.00    -0.108 A  
HETATM   10  C   UNL     1      -9.828   6.625  66.835  1.00  0.00    -0.222 C  
HETATM   11  C   UNL     1     -10.040   8.420  70.302  1.00  0.00    -0.196 C  
HETATM   12  C   UNL     1      -8.968   9.435  70.056  1.00  0.00    -0.234 C  
HETATM   13  C   UNL     1      -9.323   7.090  70.527  1.00  0.00    -0.159 C  
HETATM   14  C   UNL     1     -10.549   5.355  66.790  1.00  0.00    -0.339 C  
HETATM   15  C   UNL     1      -9.289   6.265  69.241  1.00  0.00    -0.139 C  
HETATM   16  C   UNL     1      -9.774   4.258  66.906  1.00  0.00    -0.214 C  
HETATM   17  C   UNL     1      -9.564   3.843  68.322  1.00  0.00    -0.114 C  
HETATM   18  O   UNL     1      -9.515   2.662  68.655  1.00  0.00    -0.189 OA 
HETATM   19  C   UNL     1      -9.423   4.919  69.355  1.00  0.00    -0.218 C  
BRANCH   7  20
HETATM   20  O   UNL     1      -7.467   7.608  65.646  1.00  0.00    -0.074 OA 
HETATM   21  C   UNL     1      -6.247   6.879  65.781  1.00  0.00    -0.039 C  
ENDBRANCH   7  20
BRANCH   9  22
HETATM   22  O   UNL     1      -6.428  10.169  65.045  1.00  0.00    -0.114 OA 
HETATM   23  C   UNL     1      -7.133  10.328  63.818  1.00  0.00    -0.056 C  
ENDBRANCH   9  22
BRANCH  16  24
HETATM   24  O   UNL     1      -8.854   3.775  66.004  1.00  0.00    -0.117 OA 
HETATM   25  C   UNL     1      -9.343   3.469  64.707  1.00  0.00    -0.152 C  
ENDBRANCH  16  24
BRANCH  13  26
HETATM   26  N   UNL     1      -9.948   6.480  71.709  1.00  0.00    -0.177 N  
HETATM   27  C   UNL     1      -9.325   6.732  72.930  1.00  0.00    -0.135 C  
HETATM   28  H   UNL     1     -10.789   5.907  71.640  1.00  0.00     0.000 HD 
HETATM   29  O   UNL     1      -8.191   7.202  73.013  1.00  0.00    -0.104 OA 
HETATM   30  C   UNL     1     -10.125   6.470  74.176  1.00  0.00    -0.374 C  
ENDBRANCH  13  26
ENDBRANCH   2   3
TORSDOF 5
ENDMDL
MODEL       86
REMARK 921   NORMALIZED FREE ENERGY PREDICTED BY IDOCK:   -3.41 KCAL/MOL
REMARK 922        TOTAL FREE ENERGY PREDICTED BY IDOCK:   -5.09 KCAL/MOL
REMARK 923 INTER-LIGAND FREE ENERGY PREDICTED BY IDOCK:   -5.70 KCAL/MOL
REMARK 924 INTRA-LIGAND FREE ENERGY PREDICTED BY IDOCK:    0.61 KCAL/MOL
REMARK 927      BINDING AFFINITY PREDICTED BY RF-SCORE:    0.00 PKD
ROOT
HETATM    1  C   UNL     1      -7.493   5.939  67.643  1.00  0.00    -0.078 C  
HETATM    2  O   UNL     1      -8.646   6.472  66.985  1.00  0.00    -0.112 OA 
ENDROOT
BRANCH   2   3
HETATM    3  C   UNL     1      -9.066   7.713  67.395  1.00  0.00    -0.126 A  
HETATM    4  C   UNL     1      -8.697   8.841  66.693  1.00  0.00    -0.138 A  
HETATM    5  C   UNL     1      -9.119  10.146  67.037  1.00  0.00    -0.155 A  
HETATM    6  C   UNL     1      -9.949  10.370  68.158  1.00  0.00    -0.170 A  
HETATM    7  C   UNL     1     -10.232   9.196  68.961  1.00  0.00    -0.207 A  
HETATM    8  C   UNL     1     -10.601  11.749  68.461  1.00  0.00    -0.242 C  
HETATM    9  C   UNL     1      -9.803   7.870  68.574  1.00  0.00    -0.177 A  
HETATM   10  C   UNL     1     -11.923  11.675  68.772  1.00  0.00    -0.326 C  
HETATM   11  C   UNL     1      -9.306  12.417  65.963  1.00  0.00    -0.116 C  
HETATM   12  C   UNL     1      -8.518  11.152  66.099  1.00  0.00    -0.156 C  
HETATM   13  C   UNL     1      -8.933  13.283  67.166  1.00  0.00    -0.229 C  
HETATM   14  C   UNL     1     -12.722  12.839  69.148  1.00  0.00     0.884 C  
HETATM   15  C   UNL     1      -9.969  13.140  68.281  1.00  0.00    -0.236 C  
HETATM   16  C   UNL     1     -12.335  13.448  70.287  1.00  0.00    -0.284 C  
HETATM   17  C   UNL     1     -11.301  14.498  70.060  1.00  0.00    -0.224 C  
HETATM   18  O   UNL     1     -11.287  15.547  70.700  1.00  0.00    -0.283 OA 
HETATM   19  C   UNL     1     -10.266  14.249  69.006  1.00  0.00    -0.156 C  
BRANCH   7  20
HETATM   20  O   UNL     1     -10.897   9.443  70.156  1.00  0.00    -0.225 OA 
HETATM   21  C   UNL     1     -10.170   9.273  71.373  1.00  0.00    -0.301 C  
ENDBRANCH   7  20
BRANCH   9  22
HETATM   22  O   UNL     1     -10.051   6.841  69.440  1.00  0.00    -0.164 OA 
HETATM   23  C   UNL     1     -11.259   6.106  69.277  1.00  0.00    -0.367 C  
ENDBRANCH   9  22
BRANCH  16  24
HETATM   24  O   UNL     1     -12.418  12.967  71.573  1.00  0.00    -0.232 OA 
HETATM   25  C   UNL     1     -13.632  13.223  72.264  1.00  0.00    -0.605 C  
ENDBRANCH  16  24
BRANCH  13  26
HETATM   26  N   UNL     1      -8.682  14.632  66.640  1.00  0.00    -0.424 N  
HETATM   27  C   UNL     1      -9.727  15.215  65.926  1.00  0.00    -0.350 C  
HETATM   28  H   UNL     1      -7.795  15.114  66.790  1.00  0.00     0.000 HD 
HETATM   29  O   UNL     1     -10.696  14.573  65.522  1.00  0.00    -0.304 OA 
HETATM   30  C   UNL     1      -9.668  16.703  65.715  1.00  0.00    -0.194 C  
ENDBRANCH  13  26
ENDBRANCH   2   3
TORSDOF 5
ENDMDL
MODEL       87
REMARK 921   NORMALIZED FREE ENERGY PREDICTED BY IDOCK:   -3.33 KCAL/MOL
REMARK 922        TOTAL FREE ENERGY PREDICTED BY IDOCK:   -4.99 KCAL/MOL
REMARK 923 INTER-LIGAND FREE ENERGY PREDICTED BY IDOCK:   -4.30 KCAL/MOL
REMARK 924 INTRA-LIGAND FREE ENERGY PREDICTED BY IDOCK:   -0.69 KCAL/MOL
REMARK 927      BINDING AFFINITY PREDICTED BY RF-SCORE:    0.00 PKD
ROOT
HETATM    1  C   UNL     1      -6.927  20.293  70.100  1.00  0.00     0.224 C  
HETATM    2  O   UNL     1      -6.457  19.429  69.061  1.00  0.00    -0.270 OA 
ENDROOT
BRANCH   2   3
HETATM    3  C   UNL     1      -7.273  18.377  68.725  1.00  0.00    -0.284 A  
HETATM    4  C   UNL     1      -8.471  18.188  69.381  1.00  0.00     0.449 A  
HETATM    5  C   UNL     1      -9.376  17.148  69.065  1.00  0.00    -0.143 A  
HETATM    6  C   UNL     1      -9.084  16.214  68.047  1.00  0.00    -0.190 A  
HETATM    7  C   UNL     1      -7.771  16.345  67.447  1.00  0.00    -0.154 A  
HETATM    8  C   UNL     1     -10.125  15.182  67.528  1.00  0.00    -0.232 C  
HETATM    9  C   UNL     1      -6.874  17.431  67.775  1.00  0.00    -0.166 A  
HETATM   10  C   UNL     1     -10.197  15.108  66.172  1.00  0.00    -0.310 C  
HETATM   11  C   UNL     1     -11.808  16.589  69.412  1.00  0.00     0.334 C  
HETATM   12  C   UNL     1     -10.564  17.196  69.982  1.00  0.00     0.304 C  
HETATM   13  C   UNL     1     -11.680  15.080  69.622  1.00  0.00    -0.321 C  
HETATM   14  C   UNL     1     -11.064  14.166  65.467  1.00  0.00    -0.310 C  
HETATM   15  C   UNL     1     -11.157  14.398  68.358  1.00  0.00    -0.272 C  
HETATM   16  C   UNL     1     -10.772  12.866  65.672  1.00  0.00    -0.274 C  
HETATM   17  C   UNL     1     -11.472  12.293  66.856  1.00  0.00    -0.356 C  
HETATM   18  O   UNL     1     -11.902  11.142  66.866  1.00  0.00    -0.339 OA 
HETATM   19  C   UNL     1     -11.656  13.172  68.056  1.00  0.00    -0.371 C  
BRANCH   7  20
HETATM   20  O   UNL     1      -7.414  15.324  66.574  1.00  0.00     0.101 OA 
HETATM   21  C   UNL     1      -6.682  14.219  67.103  1.00  0.00     0.525 C  
ENDBRANCH   7  20
BRANCH   9  22
HETATM   22  O   UNL     1      -5.626  17.420  67.213  1.00  0.00    -0.115 OA 
HETATM   23  C   UNL     1      -5.351  18.359  66.178  1.00  0.00    -0.154 C  
ENDBRANCH   9  22
BRANCH  16  24
HETATM   24  O   UNL     1      -9.661  12.172  65.248  1.00  0.00    -0.230 OA 
HETATM   25  C   UNL     1      -9.755  11.548  63.976  1.00  0.00    -0.223 C  
ENDBRANCH  16  24
BRANCH  13  26
HETATM   26  N   UNL     1     -12.972  14.627  70.154  1.00  0.00    -0.559 N  
HETATM   27  C   UNL     1     -12.991  14.281  71.504  1.00  0.00    -0.340 C  
HETATM   28  H   UNL     1     -13.807  14.569  69.570  1.00  0.00     0.000 HD 
HETATM   29  O   UNL     1     -11.965  14.105  72.160  1.00  0.00    -0.020 OA 
HETATM   30  C   UNL     1     -14.337  14.195  72.171  1.00  0.00    -0.606 C  
ENDBRANCH  13  26
ENDBRANCH   2   3
TORSDOF 5
ENDMDL
MODEL       88
REMARK 921   NORMALIZED FREE ENERGY PREDICTED BY IDOCK:   -3.29 KCAL/MOL
REMARK 922        TOTAL FREE ENERGY PREDICTED BY IDOCK:   -4.94 KCAL/MOL
REMARK 923 INTER-LIGAND FREE ENERGY PREDICTED BY IDOCK:   -6.32 KCAL/MOL
REMARK 924 INTRA-LIGAND FREE ENERGY PREDICTED BY IDOCK:    1.38 KCAL/MOL
REMARK 927      BINDING AFFINITY PREDICTED BY RF-SCORE:    0.00 PKD
ROOT
HETATM    1  C   UNL     1     -11.120   5.250  72.785  1.00  0.00    -0.286 C  
HETATM    2  O   UNL     1     -12.155   5.996  72.137  1.00  0.00    -0.304 OA 
ENDROOT
BRANCH   2   3
HETATM    3  C   UNL     1     -11.754   7.080  71.396  1.00  0.00    -0.306 A  
HETATM    4  C   UNL     1     -10.871   6.919  70.348  1.00  0.00    -0.297 A  
HETATM    5  C   UNL     1     -10.442   7.983  69.521  1.00  0.00    -0.226 A  
HETATM    6  C   UNL     1     -10.893   9.303  69.741  1.00  0.00    -0.239 A  
HETATM    7  C   UNL     1     -11.723   9.484  70.916  1.00  0.00    -0.317 A  
HETATM    8  C   UNL     1     -10.613  10.465  68.746  1.00  0.00    -0.232 C  
HETATM    9  C   UNL     1     -12.162   8.374  71.733  1.00  0.00    -0.330 A  
HETATM   10  C   UNL     1     -11.708  11.221  68.462  1.00  0.00    -0.378 C  
HETATM   11  C   UNL     1      -9.394   8.309  67.253  1.00  0.00    -0.181 C  
HETATM   12  C   UNL     1      -9.460   7.485  68.501  1.00  0.00    -0.146 C  
HETATM   13  C   UNL     1      -8.490   9.499  67.576  1.00  0.00    -0.126 C  
HETATM   14  C   UNL     1     -11.663  12.398  67.598  1.00  0.00    -0.412 C  
HETATM   15  C   UNL     1      -9.320  10.725  67.955  1.00  0.00    -0.154 C  
HETATM   16  C   UNL     1     -10.900  13.410  68.058  1.00  0.00    -0.247 C  
HETATM   17  C   UNL     1      -9.477  13.305  67.626  1.00  0.00    -0.211 C  
HETATM   18  O   UNL     1      -8.810  14.293  67.330  1.00  0.00    -0.192 OA 
HETATM   19  C   UNL     1      -8.866  11.938  67.548  1.00  0.00    -0.169 C  
BRANCH   7  20
HETATM   20  O   UNL     1     -12.020  10.804  71.233  1.00  0.00    -0.304 OA 
HETATM   21  C   UNL     1     -13.394  11.189  71.275  1.00  0.00     0.047 C  
ENDBRANCH   7  20
BRANCH   9  22
HETATM   22  O   UNL     1     -12.876   8.659  72.866  1.00  0.00    -0.284 OA 
HETATM   23  C   UNL     1     -14.288   8.485  72.828  1.00  0.00     0.042 C  
ENDBRANCH   9  22
BRANCH  16  24
HETATM   24  O   UNL     1     -11.129  14.212  69.152  1.00  0.00    -0.251 OA 
HETATM   25  C   UNL     1     -11.110  15.613  68.921  1.00  0.00    -0.290 C  
ENDBRANCH  16  24
BRANCH  13  26
HETATM   26  N   UNL     1      -7.562   9.629  66.444  1.00  0.00    -0.100 N  
HETATM   27  C   UNL     1      -8.146   9.808  65.191  1.00  0.00    -0.132 C  
HETATM   28  H   UNL     1      -6.551   9.591  66.568  1.00  0.00     0.000 HD 
HETATM   29  O   UNL     1      -9.343   9.610  64.980  1.00  0.00    -0.242 OA 
HETATM   30  C   UNL     1      -7.263  10.329  64.091  1.00  0.00    -0.057 C  
ENDBRANCH  13  26
ENDBRANCH   2   3
TORSDOF 5
ENDMDL
MODEL       89
REMARK 921   NORMALIZED FREE ENERGY PREDICTED BY IDOCK:   -3.21 KCAL/MOL
REMARK 922        TOTAL FREE ENERGY PREDICTED BY IDOCK:   -4.84 KCAL/MOL
REMARK 923 INTER-LIGAND FREE ENERGY PREDICTED BY IDOCK:   -4.69 KCAL/MOL
REMARK 924 INTRA-LIGAND FREE ENERGY PREDICTED BY IDOCK:   -0.15 KCAL/MOL
REMARK 927      BINDING AFFINITY PREDICTED BY RF-SCORE:    0.00 PKD
ROOT
HETATM    1  C   UNL     1      -5.219   3.673  65.587  1.00  0.00    -0.009 C  
HETATM    2  O   UNL     1      -5.635   4.719  64.705  1.00  0.00    -0.013 OA 
ENDROOT
BRANCH   2   3
HETATM    3  C   UNL     1      -6.456   5.680  65.239  1.00  0.00    -0.039 A  
HETATM    4  C   UNL     1      -6.788   5.647  66.578  1.00  0.00    -0.059 A  
HETATM    5  C   UNL     1      -7.599   6.621  67.203  1.00  0.00    -0.096 A  
HETATM    6  C   UNL     1      -8.142   7.698  66.468  1.00  0.00    -0.119 A  
HETATM    7  C   UNL     1      -7.890   7.659  65.040  1.00  0.00    -0.126 A  
HETATM    8  C   UNL     1      -8.868   8.896  67.142  1.00  0.00    -0.133 C  
HETATM    9  C   UNL     1      -7.039   6.661  64.431  1.00  0.00    -0.057 A  
HETATM   10  C   UNL     1      -8.466  10.112  66.681  1.00  0.00    -0.127 C  
HETATM   11  C   UNL     1      -8.098   7.456  69.528  1.00  0.00    -0.129 C  
HETATM   12  C   UNL     1      -7.799   6.280  68.652  1.00  0.00    -0.102 C  
HETATM   13  C   UNL     1      -9.591   7.739  69.366  1.00  0.00    -0.156 C  
HETATM   14  C   UNL     1      -9.054  11.371  67.131  1.00  0.00    -0.164 C  
HETATM   15  C   UNL     1      -9.827   8.851  68.344  1.00  0.00    -0.191 C  
HETATM   16  C   UNL     1     -10.361  11.525  66.833  1.00  0.00    -0.223 C  
HETATM   17  C   UNL     1     -11.263  10.975  67.884  1.00  0.00    -0.310 C  
HETATM   18  O   UNL     1     -12.319  11.524  68.189  1.00  0.00    -0.473 OA 
HETATM   19  C   UNL     1     -10.841   9.720  68.586  1.00  0.00    -0.223 C  
BRANCH   7  20
HETATM   20  O   UNL     1      -8.568   8.615  64.294  1.00  0.00    -0.134 OA 
HETATM   21  C   UNL     1      -7.809   9.424  63.396  1.00  0.00    -0.132 C  
ENDBRANCH   7  20
BRANCH   9  22
HETATM   22  O   UNL     1      -6.930   6.663  63.066  1.00  0.00    -0.044 OA 
HETATM   23  C   UNL     1      -7.562   5.611  62.344  1.00  0.00    -0.062 C  
ENDBRANCH   9  22
BRANCH  16  24
HETATM   24  O   UNL     1     -10.930  11.693  65.592  1.00  0.00    -0.290 OA 
HETATM   25  C   UNL     1     -11.015  13.027  65.113  1.00  0.00    -0.295 C  
ENDBRANCH  16  24
BRANCH  13  26
HETATM   26  N   UNL     1     -10.122   7.938  70.721  1.00  0.00    -0.192 N  
HETATM   27  C   UNL     1     -10.546   6.789  71.388  1.00  0.00    -0.221 C  
HETATM   28  H   UNL     1     -10.177   8.862  71.150  1.00  0.00     0.000 HD 
HETATM   29  O   UNL     1     -10.722   5.715  70.814  1.00  0.00    -0.260 OA 
HETATM   30  C   UNL     1     -10.721   6.886  72.878  1.00  0.00    -0.308 C  
ENDBRANCH  13  26
ENDBRANCH   2   3
TORSDOF 5
ENDMDL
MODEL       90
REMARK 921   NORMALIZED FREE ENERGY PREDICTED BY IDOCK:   -3.21 KCAL/MOL
REMARK 922        TOTAL FREE ENERGY PREDICTED BY IDOCK:   -4.84 KCAL/MOL
REMARK 923 INTER-LIGAND FREE ENERGY PREDICTED BY IDOCK:   -4.36 KCAL/MOL
REMARK 924 INTRA-LIGAND FREE ENERGY PREDICTED BY IDOCK:   -0.48 KCAL/MOL
REMARK 927      BINDING AFFINITY PREDICTED BY RF-SCORE:    0.00 PKD
ROOT
HETATM    1  C   UNL     1     -10.326   4.798  73.469  1.00  0.00    -0.198 C  
HETATM    2  O   UNL     1     -10.998   5.145  72.255  1.00  0.00    -0.211 OA 
ENDROOT
BRANCH   2   3
HETATM    3  C   UNL     1     -10.330   5.992  71.407  1.00  0.00    -0.220 A  
HETATM    4  C   UNL     1     -10.809   7.265  71.173  1.00  0.00    -0.260 A  
HETATM    5  C   UNL     1     -10.156   8.202  70.340  1.00  0.00    -0.196 A  
HETATM    6  C   UNL     1      -8.957   7.870  69.672  1.00  0.00    -0.146 A  
HETATM    7  C   UNL     1      -8.525   6.494  69.825  1.00  0.00    -0.131 A  
HETATM    8  C   UNL     1      -8.099   8.920  68.910  1.00  0.00    -0.112 C  
HETATM    9  C   UNL     1      -9.202   5.563  70.700  1.00  0.00    -0.150 A  
HETATM   10  C   UNL     1      -6.770   8.852  69.191  1.00  0.00    -0.051 C  
HETATM   11  C   UNL     1     -10.137  10.691  69.947  1.00  0.00     0.053 C  
HETATM   12  C   UNL     1     -10.949   9.475  70.267  1.00  0.00    -0.317 C  
HETATM   13  C   UNL     1      -9.953  10.692  68.429  1.00  0.00    -0.163 C  
HETATM   14  C   UNL     1      -5.772   9.703  68.548  1.00  0.00    -0.039 C  
HETATM   15  C   UNL     1      -8.604  10.087  68.044  1.00  0.00    -0.121 C  
HETATM   16  C   UNL     1      -5.651   9.527  67.216  1.00  0.00    -0.040 C  
HETATM   17  C   UNL     1      -6.580  10.389  66.431  1.00  0.00    -0.099 C  
HETATM   18  O   UNL     1      -6.251  10.898  65.362  1.00  0.00    -0.064 OA 
HETATM   19  C   UNL     1      -7.949  10.637  66.989  1.00  0.00    -0.121 C  
BRANCH   7  20
HETATM   20  O   UNL     1      -7.449   6.120  69.029  1.00  0.00    -0.083 OA 
HETATM   21  C   UNL     1      -7.728   5.505  67.772  1.00  0.00    -0.092 C  
ENDBRANCH   7  20
BRANCH   9  22
HETATM   22  O   UNL     1      -8.765   4.266  70.713  1.00  0.00    -0.084 OA 
HETATM   23  C   UNL     1      -9.523   3.297  69.996  1.00  0.00    -0.161 C  
ENDBRANCH   9  22
BRANCH  16  24
HETATM   24  O   UNL     1      -5.156   8.430  66.550  1.00  0.00    -0.027 OA 
HETATM   25  C   UNL     1      -6.065   7.743  65.702  1.00  0.00    -0.038 C  
ENDBRANCH  16  24
BRANCH  13  26
HETATM   26  N   UNL     1     -10.236  12.063  67.982  1.00  0.00    -0.192 N  
HETATM   27  C   UNL     1     -11.346  12.220  67.153  1.00  0.00    -0.335 C  
HETATM   28  H   UNL     1      -9.655  12.854  68.262  1.00  0.00     0.000 HD 
HETATM   29  O   UNL     1     -11.906  11.271  66.606  1.00  0.00    -0.311 OA 
HETATM   30  C   UNL     1     -11.894  13.612  66.996  1.00  0.00    -0.448 C  
ENDBRANCH  13  26
ENDBRANCH   2   3
TORSDOF 5
ENDMDL
MODEL       91
REMARK 921   NORMALIZED FREE ENERGY PREDICTED BY IDOCK:   -3.17 KCAL/MOL
REMARK 922        TOTAL FREE ENERGY PREDICTED BY IDOCK:   -4.79 KCAL/MOL
REMARK 923 INTER-LIGAND FREE ENERGY PREDICTED BY IDOCK:   -4.90 KCAL/MOL
REMARK 924 INTRA-LIGAND FREE ENERGY PREDICTED BY IDOCK:    0.11 KCAL/MOL
REMARK 927      BINDING AFFINITY PREDICTED BY RF-SCORE:    0.00 PKD
ROOT
HETATM    1  C   UNL     1     -13.122  10.676  72.076  1.00  0.00    -0.396 C  
HETATM    2  O   UNL     1     -12.989  11.369  70.832  1.00  0.00    -0.259 OA 
ENDROOT
BRANCH   2   3
HETATM    3  C   UNL     1     -12.032  10.897  69.969  1.00  0.00    -0.350 A  
HETATM    4  C   UNL     1     -11.320   9.755  70.274  1.00  0.00    -0.333 A  
HETATM    5  C   UNL     1     -10.346   9.193  69.418  1.00  0.00    -0.220 A  
HETATM    6  C   UNL     1     -10.027   9.797  68.182  1.00  0.00    -0.179 A  
HETATM    7  C   UNL     1     -10.689  11.061  67.924  1.00  0.00    -0.219 A  
HETATM    8  C   UNL     1      -9.116   9.115  67.122  1.00  0.00    -0.146 C  
HETATM    9  C   UNL     1     -11.697  11.602  68.808  1.00  0.00    -0.330 A  
HETATM   10  C   UNL     1      -9.617   9.157  65.858  1.00  0.00    -0.343 C  
HETATM   11  C   UNL     1      -9.171   6.989  69.081  1.00  0.00    -0.138 C  
HETATM   12  C   UNL     1      -9.733   7.978  70.054  1.00  0.00    -0.173 C  
HETATM   13  C   UNL     1      -7.787   7.512  68.695  1.00  0.00    -0.121 C  
HETATM   14  C   UNL     1      -8.902   8.631  64.697  1.00  0.00     0.006 C  
HETATM   15  C   UNL     1      -7.846   8.285  67.378  1.00  0.00    -0.106 C  
HETATM   16  C   UNL     1      -7.739   9.254  64.417  1.00  0.00    -0.118 C  
HETATM   17  C   UNL     1      -6.576   8.659  65.134  1.00  0.00    -0.064 C  
HETATM   18  O   UNL     1      -5.468   8.561  64.612  1.00  0.00    -0.043 OA 
HETATM   19  C   UNL     1      -6.792   8.162  66.532  1.00  0.00    -0.067 C  
BRANCH   7  20
HETATM   20  O   UNL     1     -10.246  11.741  66.796  1.00  0.00    -0.206 OA 
HETATM   21  C   UNL     1      -9.148  12.641  66.945  1.00  0.00    -0.218 C  
ENDBRANCH   7  20
BRANCH   9  22
HETATM   22  O   UNL     1     -12.203  12.840  68.517  1.00  0.00    -0.182 OA 
HETATM   23  C   UNL     1     -11.546  13.977  69.066  1.00  0.00    -0.306 C  
ENDBRANCH   9  22
BRANCH  16  24
HETATM   24  O   UNL     1      -7.558  10.537  63.956  1.00  0.00    -0.063 OA 
HETATM   25  C   UNL     1      -7.688  10.728  62.555  1.00  0.00    -0.089 C  
ENDBRANCH  16  24
BRANCH  13  26
HETATM   26  N   UNL     1      -6.877   6.360  68.767  1.00  0.00    -0.071 N  
HETATM   27  C   UNL     1      -6.870   5.661  69.973  1.00  0.00    -0.060 C  
HETATM   28  H   UNL     1      -6.287   6.088  67.982  1.00  0.00     0.000 HD 
HETATM   29  O   UNL     1      -7.374   6.106  71.004  1.00  0.00    -0.079 OA 
HETATM   30  C   UNL     1      -6.271   4.281  69.963  1.00  0.00    -0.026 C  
ENDBRANCH  13  26
ENDBRANCH   2   3
TORSDOF 5
ENDMDL
MODEL       92
REMARK 921   NORMALIZED FREE ENERGY PREDICTED BY IDOCK:   -3.13 KCAL/MOL
REMARK 922        TOTAL FREE ENERGY PREDICTED BY IDOCK:   -4.73 KCAL/MOL
REMARK 923 INTER-LIGAND FREE ENERGY PREDICTED BY IDOCK:   -6.29 KCAL/MOL
REMARK 924 INTRA-LIGAND FREE ENERGY PREDICTED BY IDOCK:    1.56 KCAL/MOL
REMARK 927      BINDING AFFINITY PREDICTED BY RF-SCORE:    0.00 PKD
ROOT
HETATM    1  C   UNL     1      -8.557   7.525  67.194  1.00  0.00    -0.121 C  
HETATM    2  O   UNL     1      -9.850   8.080  66.937  1.00  0.00    -0.203 OA 
ENDROOT
BRANCH   2   3
HETATM    3  C   UNL     1     -10.009   9.414  67.218  1.00  0.00    -0.196 A  
HETATM    4  C   UNL     1     -10.867   9.817  68.221  1.00  0.00    -0.256 A  
HETATM    5  C   UNL     1     -11.055  11.170  68.588  1.00  0.00    -0.293 A  
HETATM    6  C   UNL     1     -10.371  12.207  67.917  1.00  0.00    -0.216 A  
HETATM    7  C   UNL     1      -9.567  11.787  66.786  1.00  0.00    -0.200 A  
HETATM    8  C   UNL     1     -10.389  13.683  68.410  1.00  0.00    -0.248 C  
HETATM    9  C   UNL     1      -9.377  10.394  66.446  1.00  0.00    -0.164 A  
HETATM   10  C   UNL     1      -9.160  14.268  68.436  1.00  0.00    -0.194 C  
HETATM   11  C   UNL     1     -11.936  12.493  70.543  1.00  0.00    -0.277 C  
HETATM   12  C   UNL     1     -12.074  11.274  69.685  1.00  0.00    -0.391 C  
HETATM   13  C   UNL     1     -12.610  13.631  69.778  1.00  0.00    -0.001 C  
HETATM   14  C   UNL     1      -8.949  15.664  68.810  1.00  0.00    -0.205 C  
HETATM   15  C   UNL     1     -11.578  14.454  69.007  1.00  0.00    -0.330 C  
HETATM   16  C   UNL     1      -9.524  16.564  67.986  1.00  0.00    -0.222 C  
HETATM   17  C   UNL     1     -10.923  16.895  68.377  1.00  0.00    -0.296 C  
HETATM   18  O   UNL     1     -11.379  18.031  68.269  1.00  0.00     0.320 OA 
HETATM   19  C   UNL     1     -11.778  15.794  68.927  1.00  0.00    -0.404 C  
BRANCH   7  20
HETATM   20  O   UNL     1      -9.038  12.819  66.020  1.00  0.00    -0.041 OA 
HETATM   21  C   UNL     1      -9.919  13.522  65.145  1.00  0.00    -0.176 C  
ENDBRANCH   7  20
BRANCH   9  22
HETATM   22  O   UNL     1      -8.666  10.106  65.313  1.00  0.00    -0.149 OA 
HETATM   23  C   UNL     1      -7.257  10.312  65.336  1.00  0.00    -0.143 C  
ENDBRANCH   9  22
BRANCH  16  24
HETATM   24  O   UNL     1      -9.188  16.853  66.684  1.00  0.00    -0.232 OA 
HETATM   25  C   UNL     1     -10.180  17.509  65.907  1.00  0.00    -0.242 C  
ENDBRANCH  16  24
BRANCH  13  26
HETATM   26  N   UNL     1     -13.453  14.339  70.752  1.00  0.00    -0.350 N  
HETATM   27  C   UNL     1     -12.789  14.905  71.839  1.00  0.00    -0.328 C  
HETATM   28  H   UNL     1     -14.464  14.411  70.639  1.00  0.00     0.000 HD 
HETATM   29  O   UNL     1     -11.626  14.625  72.127  1.00  0.00    -0.181 OA 
HETATM   30  C   UNL     1     -13.532  15.947  72.629  1.00  0.00    -0.554 C  
ENDBRANCH  13  26
ENDBRANCH   2   3
TORSDOF 5
ENDMDL
MODEL       93
REMARK 921   NORMALIZED FREE ENERGY PREDICTED BY IDOCK:   -3.10 KCAL/MOL
REMARK 922        TOTAL FREE ENERGY PREDICTED BY IDOCK:   -4.69 KCAL/MOL
REMARK 923 INTER-LIGAND FREE ENERGY PREDICTED BY IDOCK:   -4.72 KCAL/MOL
REMARK 924 INTRA-LIGAND FREE ENERGY PREDICTED BY IDOCK:    0.03 KCAL/MOL
REMARK 927      BINDING AFFINITY PREDICTED BY RF-SCORE:    0.00 PKD
ROOT
HETATM    1  C   UNL     1      -9.970  20.167  69.239  1.00  0.00    -0.011 C  
HETATM    2  O   UNL     1     -10.077  19.527  67.965  1.00  0.00    -0.370 OA 
ENDROOT
BRANCH   2   3
HETATM    3  C   UNL     1      -9.914  18.164  67.949  1.00  0.00    -0.333 A  
HETATM    4  C   UNL     1     -10.856  17.343  68.534  1.00  0.00    -0.190 A  
HETATM    5  C   UNL     1     -10.770  15.932  68.526  1.00  0.00    -0.274 A  
HETATM    6  C   UNL     1      -9.679  15.272  67.918  1.00  0.00    -0.211 A  
HETATM    7  C   UNL     1      -8.635  16.142  67.414  1.00  0.00    -0.180 A  
HETATM    8  C   UNL     1      -9.639  13.732  67.707  1.00  0.00    -0.219 C  
HETATM    9  C   UNL     1      -8.758  17.583  67.418  1.00  0.00    -0.228 A  
HETATM   10  C   UNL     1      -9.250  13.358  66.457  1.00  0.00    -0.182 C  
HETATM   11  C   UNL     1     -12.285  13.945  68.853  1.00  0.00    -0.257 C  
HETATM   12  C   UNL     1     -11.928  15.336  69.273  1.00  0.00    -0.327 C  
HETATM   13  C   UNL     1     -11.311  13.018  69.578  1.00  0.00    -0.155 C  
HETATM   14  C   UNL     1      -9.086  11.964  66.055  1.00  0.00    -0.120 C  
HETATM   15  C   UNL     1     -10.139  12.643  68.672  1.00  0.00    -0.131 C  
HETATM   16  C   UNL     1      -8.121  11.293  66.717  1.00  0.00    -0.159 C  
HETATM   17  C   UNL     1      -8.616  10.650  67.968  1.00  0.00    -0.122 C  
HETATM   18  O   UNL     1      -8.212   9.551  68.340  1.00  0.00    -0.111 OA 
HETATM   19  C   UNL     1      -9.647  11.382  68.773  1.00  0.00    -0.139 C  
BRANCH   7  20
HETATM   20  O   UNL     1      -7.485  15.495  66.978  1.00  0.00    -0.215 OA 
HETATM   21  C   UNL     1      -6.429  15.300  67.919  1.00  0.00    -0.156 C  
ENDBRANCH   7  20
BRANCH   9  22
HETATM   22  O   UNL     1      -7.683  18.316  66.993  1.00  0.00    -0.210 OA 
HETATM   23  C   UNL     1      -7.110  17.993  65.731  1.00  0.00    -0.207 C  
ENDBRANCH   9  22
BRANCH  16  24
HETATM   24  O   UNL     1      -6.760  11.482  66.647  1.00  0.00    -0.133 OA 
HETATM   25  C   UNL     1      -6.149  12.096  67.772  1.00  0.00    -0.090 C  
ENDBRANCH  16  24
BRANCH  13  26
HETATM   26  N   UNL     1     -12.120  11.922  70.131  1.00  0.00    -0.319 N  
HETATM   27  C   UNL     1     -12.607  12.112  71.423  1.00  0.00    -0.209 C  
HETATM   28  H   UNL     1     -12.314  11.073  69.600  1.00  0.00     0.000 HD 
HETATM   29  O   UNL     1     -12.188  12.998  72.168  1.00  0.00     0.445 OA 
HETATM   30  C   UNL     1     -13.734  11.222  71.869  1.00  0.00     0.095 C  
ENDBRANCH  13  26
ENDBRANCH   2   3
TORSDOF 5
ENDMDL
MODEL       94
REMARK 921   NORMALIZED FREE ENERGY PREDICTED BY IDOCK:   -3.09 KCAL/MOL
REMARK 922        TOTAL FREE ENERGY PREDICTED BY IDOCK:   -4.68 KCAL/MOL
REMARK 923 INTER-LIGAND FREE ENERGY PREDICTED BY IDOCK:   -4.14 KCAL/MOL
REMARK 924 INTRA-LIGAND FREE ENERGY PREDICTED BY IDOCK:   -0.54 KCAL/MOL
REMARK 927      BINDING AFFINITY PREDICTED BY RF-SCORE:    0.00 PKD
ROOT
HETATM    1  C   UNL     1     -13.057  11.969  63.168  1.00  0.00     0.287 C  
HETATM    2  O   UNL     1     -12.639  12.817  64.242  1.00  0.00    -0.597 OA 
ENDROOT
BRANCH   2   3
HETATM    3  C   UNL     1     -11.553  12.394  64.967  1.00  0.00    -0.345 A  
HETATM    4  C   UNL     1     -10.851  11.270  64.580  1.00  0.00    -0.335 A  
HETATM    5  C   UNL     1      -9.705  10.797  65.258  1.00  0.00    -0.308 A  
HETATM    6  C   UNL     1      -9.216  11.455  66.408  1.00  0.00    -0.209 A  
HETATM    7  C   UNL     1     -10.027  12.560  66.879  1.00  0.00    -0.224 A  
HETATM    8  C   UNL     1      -7.854  11.096  67.068  1.00  0.00    -0.142 C  
HETATM    9  C   UNL     1     -11.185  13.036  66.154  1.00  0.00    -0.291 A  
HETATM   10  C   UNL     1      -7.084  12.179  67.364  1.00  0.00    -0.146 C  
HETATM   11  C   UNL     1      -7.738   9.284  64.818  1.00  0.00    -0.111 C  
HETATM   12  C   UNL     1      -9.198   9.541  64.610  1.00  0.00    -0.247 C  
HETATM   13  C   UNL     1      -7.611   8.647  66.201  1.00  0.00    -0.093 C  
HETATM   14  C   UNL     1      -5.793  12.081  68.040  1.00  0.00    -0.055 C  
HETATM   15  C   UNL     1      -7.245   9.696  67.251  1.00  0.00    -0.087 C  
HETATM   16  C   UNL     1      -5.846  11.589  69.294  1.00  0.00    -0.059 C  
HETATM   17  C   UNL     1      -5.741  10.103  69.339  1.00  0.00    -0.037 C  
HETATM   18  O   UNL     1      -5.129   9.519  70.230  1.00  0.00    -0.027 OA 
HETATM   19  C   UNL     1      -6.400   9.319  68.245  1.00  0.00    -0.054 C  
BRANCH   7  20
HETATM   20  O   UNL     1      -9.647  13.094  68.105  1.00  0.00    -0.217 OA 
HETATM   21  C   UNL     1     -10.429  12.761  69.251  1.00  0.00     0.246 C  
ENDBRANCH   7  20
BRANCH   9  22
HETATM   22  O   UNL     1     -11.930  14.032  66.724  1.00  0.00    -0.402 OA 
HETATM   23  C   UNL     1     -11.380  15.345  66.753  1.00  0.00    -0.125 C  
ENDBRANCH   9  22
BRANCH  16  24
HETATM   24  O   UNL     1      -6.393  12.177  70.410  1.00  0.00    -0.146 OA 
HETATM   25  C   UNL     1      -5.884  13.455  70.764  1.00  0.00    -0.148 C  
ENDBRANCH  16  24
BRANCH  13  26
HETATM   26  N   UNL     1      -6.708   7.498  66.044  1.00  0.00    -0.049 N  
HETATM   27  C   UNL     1      -7.253   6.248  66.330  1.00  0.00    -0.069 C  
HETATM   28  H   UNL     1      -5.740   7.610  65.742  1.00  0.00     0.000 HD 
HETATM   29  O   UNL     1      -8.321   6.108  66.925  1.00  0.00    -0.106 OA 
HETATM   30  C   UNL     1      -6.513   5.043  65.818  1.00  0.00    -0.040 C  
ENDBRANCH  13  26
ENDBRANCH   2   3
TORSDOF 5
ENDMDL
MODEL       95
REMARK 921   NORMALIZED FREE ENERGY PREDICTED BY IDOCK:   -3.08 KCAL/MOL
REMARK 922        TOTAL FREE ENERGY PREDICTED BY IDOCK:   -4.66 KCAL/MOL
REMARK 923 INTER-LIGAND FREE ENERGY PREDICTED BY IDOCK:   -5.31 KCAL/MOL
REMARK 924 INTRA-LIGAND FREE ENERGY PREDICTED BY IDOCK:    0.65 KCAL/MOL
REMARK 927      BINDING AFFINITY PREDICTED BY RF-SCORE:    0.00 PKD
ROOT
HETATM    1  C   UNL     1      -8.184  20.822  66.641  1.00  0.00     0.121 C  
HETATM    2  O   UNL     1      -9.536  20.497  66.976  1.00  0.00    -0.423 OA 
ENDROOT
BRANCH   2   3
HETATM    3  C   UNL     1      -9.840  19.162  67.066  1.00  0.00    -0.336 A  
HETATM    4  C   UNL     1     -10.348  18.488  65.974  1.00  0.00    -0.423 A  
HETATM    5  C   UNL     1     -10.651  17.107  65.984  1.00  0.00    -0.205 A  
HETATM    6  C   UNL     1     -10.462  16.329  67.146  1.00  0.00    -0.297 A  
HETATM    7  C   UNL     1     -10.045  17.066  68.323  1.00  0.00    -0.306 A  
HETATM    8  C   UNL     1     -10.589  14.779  67.151  1.00  0.00    -0.285 C  
HETATM    9  C   UNL     1      -9.722  18.476  68.279  1.00  0.00    -0.356 A  
HETATM   10  C   UNL     1      -9.568  14.146  67.790  1.00  0.00    -0.219 C  
HETATM   11  C   UNL     1     -11.022  15.242  64.330  1.00  0.00    -0.049 C  
HETATM   12  C   UNL     1     -11.217  16.690  64.657  1.00  0.00    -0.023 C  
HETATM   13  C   UNL     1     -12.129  14.487  65.065  1.00  0.00    -0.389 C  
HETATM   14  C   UNL     1      -9.511  12.697  67.967  1.00  0.00    -0.209 C  
HETATM   15  C   UNL     1     -11.616  13.923  66.390  1.00  0.00    -0.382 C  
HETATM   16  C   UNL     1     -10.502  12.178  68.720  1.00  0.00    -0.176 C  
HETATM   17  C   UNL     1     -11.709  11.819  67.923  1.00  0.00    -0.276 C  
HETATM   18  O   UNL     1     -12.383  10.823  68.173  1.00  0.00    -0.174 OA 
HETATM   19  C   UNL     1     -12.085  12.710  66.778  1.00  0.00    -0.236 C  
BRANCH   7  20
HETATM   20  O   UNL     1     -10.030  16.336  69.505  1.00  0.00    -0.244 OA 
HETATM   21  C   UNL     1     -11.216  16.324  70.299  1.00  0.00    -0.333 C  
ENDBRANCH   7  20
BRANCH   9  22
HETATM   22  O   UNL     1      -9.416  19.097  69.459  1.00  0.00    -0.049 OA 
HETATM   23  C   UNL     1      -8.042  19.258  69.793  1.00  0.00     0.565 C  
ENDBRANCH   9  22
BRANCH  16  24
HETATM   24  O   UNL     1     -10.711  12.342  70.070  1.00  0.00     0.564 OA 
HETATM   25  C   UNL     1     -11.977  12.856  70.455  1.00  0.00    -0.249 C  
ENDBRANCH  16  24
BRANCH  13  26
HETATM   26  N   UNL     1     -12.693  13.538  64.095  1.00  0.00    -0.651 N  
HETATM   27  C   UNL     1     -11.818  12.568  63.608  1.00  0.00    -0.530 C  
HETATM   28  H   UNL     1     -13.667  13.586  63.796  1.00  0.00     0.000 HD 
HETATM   29  O   UNL     1     -10.598  12.638  63.756  1.00  0.00    -0.417 OA 
HETATM   30  C   UNL     1     -12.429  11.367  62.939  1.00  0.00     0.679 C  
ENDBRANCH  13  26
ENDBRANCH   2   3
TORSDOF 5
ENDMDL
MODEL       96
REMARK 921   NORMALIZED FREE ENERGY PREDICTED BY IDOCK:   -3.05 KCAL/MOL
REMARK 922        TOTAL FREE ENERGY PREDICTED BY IDOCK:   -4.62 KCAL/MOL
REMARK 923 INTER-LIGAND FREE ENERGY PREDICTED BY IDOCK:   -3.87 KCAL/MOL
REMARK 924 INTRA-LIGAND FREE ENERGY PREDICTED BY IDOCK:   -0.75 KCAL/MOL
REMARK 927      BINDING AFFINITY PREDICTED BY RF-SCORE:    0.00 PKD
ROOT
HETATM    1  C   UNL     1      -9.785   1.975  63.878  1.00  0.00    -0.134 C  
HETATM    2  O   UNL     1      -9.450   3.337  63.597  1.00  0.00    -0.108 OA 
ENDROOT
BRANCH   2   3
HETATM    3  C   UNL     1      -9.096   4.114  64.672  1.00  0.00    -0.146 A  
HETATM    4  C   UNL     1      -9.369   3.690  65.957  1.00  0.00    -0.171 A  
HETATM    5  C   UNL     1      -9.004   4.421  67.111  1.00  0.00    -0.127 A  
HETATM    6  C   UNL     1      -8.340   5.663  67.006  1.00  0.00    -0.107 A  
HETATM    7  C   UNL     1      -8.167   6.159  65.655  1.00  0.00    -0.141 A  
HETATM    8  C   UNL     1      -7.743   6.405  68.236  1.00  0.00    -0.104 C  
HETATM    9  C   UNL     1      -8.532   5.381  64.492  1.00  0.00    -0.117 A  
HETATM   10  C   UNL     1      -6.477   6.863  68.040  1.00  0.00    -0.050 C  
HETATM   11  C   UNL     1      -8.678   4.020  69.577  1.00  0.00    -0.124 C  
HETATM   12  C   UNL     1      -9.472   3.709  68.347  1.00  0.00    -0.214 C  
HETATM   13  C   UNL     1      -9.219   5.347  70.109  1.00  0.00    -0.140 C  
HETATM   14  C   UNL     1      -5.743   7.637  69.038  1.00  0.00    -0.026 C  
HETATM   15  C   UNL     1      -8.349   6.515  69.646  1.00  0.00    -0.131 C  
HETATM   16  C   UNL     1      -6.289   8.833  69.340  1.00  0.00    -0.041 C  
HETATM   17  C   UNL     1      -7.284   8.754  70.446  1.00  0.00    -0.050 C  
HETATM   18  O   UNL     1      -7.393   9.639  71.291  1.00  0.00    -0.322 OA 
HETATM   19  C   UNL     1      -8.161   7.540  70.515  1.00  0.00    -0.118 C  
BRANCH   7  20
HETATM   20  O   UNL     1      -7.677   7.456  65.558  1.00  0.00    -0.094 OA 
HETATM   21  C   UNL     1      -8.621   8.521  65.445  1.00  0.00    -0.176 C  
ENDBRANCH   7  20
BRANCH   9  22
HETATM   22  O   UNL     1      -8.404   5.970  63.264  1.00  0.00    -0.073 OA 
HETATM   23  C   UNL     1      -7.194   5.758  62.543  1.00  0.00    -0.049 C  
ENDBRANCH   9  22
BRANCH  16  24
HETATM   24  O   UNL     1      -6.384   9.946  68.536  1.00  0.00    -0.049 OA 
HETATM   25  C   UNL     1      -5.175  10.406  67.951  1.00  0.00    -0.037 C  
ENDBRANCH  16  24
BRANCH  13  26
HETATM   26  N   UNL     1      -9.400   5.167  71.557  1.00  0.00    -0.145 N  
HETATM   27  C   UNL     1     -10.679   5.420  72.050  1.00  0.00    -0.220 C  
HETATM   28  H   UNL     1      -8.635   4.873  72.164  1.00  0.00     0.000 HD 
HETATM   29  O   UNL     1     -11.540   6.006  71.395  1.00  0.00    -0.262 OA 
HETATM   30  C   UNL     1     -11.006   4.883  73.416  1.00  0.00    -0.394 C  
ENDBRANCH  13  26
ENDBRANCH   2   3
TORSDOF 5
ENDMDL
MODEL       97
REMARK 921   NORMALIZED FREE ENERGY PREDICTED BY IDOCK:   -2.91 KCAL/MOL
REMARK 922        TOTAL FREE ENERGY PREDICTED BY IDOCK:   -4.45 KCAL/MOL
REMARK 923 INTER-LIGAND FREE ENERGY PREDICTED BY IDOCK:   -4.76 KCAL/MOL
REMARK 924 INTRA-LIGAND FREE ENERGY PREDICTED BY IDOCK:    0.31 KCAL/MOL
REMARK 927      BINDING AFFINITY PREDICTED BY RF-SCORE:    0.00 PKD
ROOT
HETATM    1  C   UNL     1     -14.062   8.708  72.810  1.00  0.00    -0.071 C  
HETATM    2  O   UNL     1     -13.249   9.857  72.558  1.00  0.00    -0.303 OA 
ENDROOT
BRANCH   2   3
HETATM    3  C   UNL     1     -12.479   9.825  71.422  1.00  0.00    -0.387 A  
HETATM    4  C   UNL     1     -12.000   8.625  70.939  1.00  0.00    -0.220 A  
HETATM    5  C   UNL     1     -11.231   8.512  69.758  1.00  0.00     0.023 A  
HETATM    6  C   UNL     1     -10.888   9.654  69.001  1.00  0.00    -0.206 A  
HETATM    7  C   UNL     1     -11.290  10.922  69.579  1.00  0.00    -0.283 A  
HETATM    8  C   UNL     1     -10.221   9.565  67.599  1.00  0.00    -0.273 C  
HETATM    9  C   UNL     1     -12.094  11.006  70.779  1.00  0.00    -0.366 A  
HETATM   10  C   UNL     1     -10.797  10.370  66.665  1.00  0.00    -0.140 C  
HETATM   11  C   UNL     1     -10.569   6.738  68.096  1.00  0.00    -0.279 C  
HETATM   12  C   UNL     1     -10.838   7.082  69.527  1.00  0.00    -0.265 C  
HETATM   13  C   UNL     1      -9.141   7.200  67.809  1.00  0.00    -0.127 C  
HETATM   14  C   UNL     1     -10.297  10.491  65.297  1.00  0.00    -0.300 C  
HETATM   15  C   UNL     1      -9.137   8.575  67.142  1.00  0.00    -0.164 C  
HETATM   16  C   UNL     1      -9.055  11.005  65.191  1.00  0.00    -0.181 C  
HETATM   17  C   UNL     1      -7.990   9.965  65.260  1.00  0.00    -0.137 C  
HETATM   18  O   UNL     1      -6.970  10.029  64.579  1.00  0.00    -0.130 OA 
HETATM   19  C   UNL     1      -8.198   8.807  66.189  1.00  0.00    -0.117 C  
BRANCH   7  20
HETATM   20  O   UNL     1     -10.802  12.050  68.930  1.00  0.00    -0.220 OA 
HETATM   21  C   UNL     1     -11.748  12.987  68.417  1.00  0.00    -0.351 C  
ENDBRANCH   7  20
BRANCH   9  22
HETATM   22  O   UNL     1     -12.352  12.249  71.288  1.00  0.00    -0.247 OA 
HETATM   23  C   UNL     1     -13.591  12.454  71.959  1.00  0.00    -0.252 C  
ENDBRANCH   9  22
BRANCH  16  24
HETATM   24  O   UNL     1      -8.646  12.290  65.462  1.00  0.00     0.519 OA 
HETATM   25  C   UNL     1      -8.068  12.512  66.739  1.00  0.00     0.050 C  
ENDBRANCH  16  24
BRANCH  13  26
HETATM   26  N   UNL     1      -8.487   6.095  67.092  1.00  0.00    -0.105 N  
HETATM   27  C   UNL     1      -7.719   5.231  67.870  1.00  0.00    -0.088 C  
HETATM   28  H   UNL     1      -8.590   5.968  66.086  1.00  0.00     0.000 HD 
HETATM   29  O   UNL     1      -7.378   5.498  69.022  1.00  0.00    -0.074 OA 
HETATM   30  C   UNL     1      -7.365   3.898  67.270  1.00  0.00    -0.068 C  
ENDBRANCH  13  26
ENDBRANCH   2   3
TORSDOF 5
ENDMDL
MODEL       98
REMARK 921   NORMALIZED FREE ENERGY PREDICTED BY IDOCK:   -2.71 KCAL/MOL
REMARK 922        TOTAL FREE ENERGY PREDICTED BY IDOCK:   -4.19 KCAL/MOL
REMARK 923 INTER-LIGAND FREE ENERGY PREDICTED BY IDOCK:   -4.04 KCAL/MOL
REMARK 924 INTRA-LIGAND FREE ENERGY PREDICTED BY IDOCK:   -0.15 KCAL/MOL
REMARK 927      BINDING AFFINITY PREDICTED BY RF-SCORE:    0.00 PKD
ROOT
HETATM    1  C   UNL     1      -9.642   4.646  73.769  1.00  0.00    -0.124 C  
HETATM    2  O   UNL     1      -8.504   5.452  73.452  1.00  0.00    -0.116 OA 
ENDROOT
BRANCH   2   3
HETATM    3  C   UNL     1      -8.449   5.957  72.177  1.00  0.00    -0.125 A  
HETATM    4  C   UNL     1      -9.212   5.398  71.172  1.00  0.00    -0.175 A  
HETATM    5  C   UNL     1      -9.231   5.887  69.846  1.00  0.00    -0.163 A  
HETATM    6  C   UNL     1      -8.436   6.990  69.465  1.00  0.00    -0.134 A  
HETATM    7  C   UNL     1      -7.547   7.495  70.493  1.00  0.00    -0.085 A  
HETATM    8  C   UNL     1      -8.571   7.687  68.081  1.00  0.00    -0.123 C  
HETATM    9  C   UNL     1      -7.563   6.988  71.848  1.00  0.00    -0.092 A  
HETATM   10  C   UNL     1      -8.624   9.045  68.153  1.00  0.00    -0.130 C  
HETATM   11  C   UNL     1     -10.698   5.749  67.802  1.00  0.00    -0.306 C  
HETATM   12  C   UNL     1     -10.132   5.041  68.993  1.00  0.00    -0.238 C  
HETATM   13  C   UNL     1      -9.611   5.713  66.729  1.00  0.00    -0.146 C  
HETATM   14  C   UNL     1      -8.691   9.905  66.973  1.00  0.00    -0.137 C  
HETATM   15  C   UNL     1      -8.814   7.017  66.718  1.00  0.00    -0.130 C  
HETATM   16  C   UNL     1      -7.616   9.840  66.163  1.00  0.00    -0.101 C  
HETATM   17  C   UNL     1      -7.733   8.775  65.127  1.00  0.00    -0.103 C  
HETATM   18  O   UNL     1      -7.309   8.926  63.984  1.00  0.00    -0.097 OA 
HETATM   19  C   UNL     1      -8.404   7.491  65.514  1.00  0.00    -0.137 C  
BRANCH   7  20
HETATM   20  O   UNL     1      -6.641   8.460  70.071  1.00  0.00    -0.038 OA 
HETATM   21  C   UNL     1      -5.322   8.036  69.727  1.00  0.00    -0.023 C  
ENDBRANCH   7  20
BRANCH   9  22
HETATM   22  O   UNL     1      -6.630   7.475  72.722  1.00  0.00    -0.058 OA 
HETATM   23  C   UNL     1      -7.050   8.442  73.679  1.00  0.00    -0.084 C  
ENDBRANCH   9  22
BRANCH  16  24
HETATM   24  O   UNL     1      -6.337  10.279  66.418  1.00  0.00    -0.074 OA 
HETATM   25  C   UNL     1      -5.579  10.702  65.295  1.00  0.00    -0.137 C  
ENDBRANCH  16  24
BRANCH  13  26
HETATM   26  N   UNL     1     -10.278   5.314  65.481  1.00  0.00    -0.405 N  
HETATM   27  C   UNL     1      -9.873   4.097  64.933  1.00  0.00    -0.197 C  
HETATM   28  H   UNL     1     -10.994   5.892  65.042  1.00  0.00     0.000 HD 
HETATM   29  O   UNL     1      -8.855   3.510  65.297  1.00  0.00    -0.115 OA 
HETATM   30  C   UNL     1     -10.778   3.473  63.906  1.00  0.00    -0.248 C  
ENDBRANCH  13  26
ENDBRANCH   2   3
TORSDOF 5
ENDMDL
MODEL       99
REMARK 921   NORMALIZED FREE ENERGY PREDICTED BY IDOCK:   -2.71 KCAL/MOL
REMARK 922        TOTAL FREE ENERGY PREDICTED BY IDOCK:   -4.18 KCAL/MOL
REMARK 923 INTER-LIGAND FREE ENERGY PREDICTED BY IDOCK:   -4.58 KCAL/MOL
REMARK 924 INTRA-LIGAND FREE ENERGY PREDICTED BY IDOCK:    0.40 KCAL/MOL
REMARK 927      BINDING AFFINITY PREDICTED BY RF-SCORE:    0.00 PKD
ROOT
HETATM    1  C   UNL     1     -11.280  13.359  68.587  1.00  0.00    -0.269 C  
HETATM    2  O   UNL     1     -12.050  12.175  68.809  1.00  0.00    -0.274 OA 
ENDROOT
BRANCH   2   3
HETATM    3  C   UNL     1     -11.344  11.025  69.063  1.00  0.00    -0.277 A  
HETATM    4  C   UNL     1     -10.227  10.714  68.316  1.00  0.00    -0.187 A  
HETATM    5  C   UNL     1      -9.433   9.567  68.544  1.00  0.00    -0.146 A  
HETATM    6  C   UNL     1      -9.760   8.646  69.564  1.00  0.00    -0.179 A  
HETATM    7  C   UNL     1     -11.002   8.914  70.263  1.00  0.00    -0.241 A  
HETATM    8  C   UNL     1      -8.815   7.484  69.984  1.00  0.00    -0.144 C  
HETATM    9  C   UNL     1     -11.784  10.107  70.022  1.00  0.00    -0.223 A  
HETATM   10  C   UNL     1      -8.656   7.365  71.330  1.00  0.00    -0.118 C  
HETATM   11  C   UNL     1      -7.116   8.734  68.007  1.00  0.00    -0.079 C  
HETATM   12  C   UNL     1      -8.316   9.500  67.543  1.00  0.00    -0.125 C  
HETATM   13  C   UNL     1      -7.439   7.258  67.779  1.00  0.00    -0.102 C  
HETATM   14  C   UNL     1      -7.860   6.309  71.950  1.00  0.00    -0.101 C  
HETATM   15  C   UNL     1      -7.947   6.608  69.065  1.00  0.00    -0.112 C  
HETATM   16  C   UNL     1      -8.319   5.058  71.744  1.00  0.00    -0.116 C  
HETATM   17  C   UNL     1      -7.779   4.440  70.500  1.00  0.00    -0.053 C  
HETATM   18  O   UNL     1      -7.491   3.247  70.436  1.00  0.00    -0.040 OA 
HETATM   19  C   UNL     1      -7.578   5.324  69.307  1.00  0.00    -0.073 C  
BRANCH   7  20
HETATM   20  O   UNL     1     -11.415   7.918  71.140  1.00  0.00    -0.266 OA 
HETATM   21  C   UNL     1     -11.317   8.178  72.540  1.00  0.00    -0.401 C  
ENDBRANCH   7  20
BRANCH   9  22
HETATM   22  O   UNL     1     -12.980  10.227  70.675  1.00  0.00    -0.354 OA 
HETATM   23  C   UNL     1     -13.077  11.188  71.722  1.00  0.00    -0.431 C  
ENDBRANCH   9  22
BRANCH  16  24
HETATM   24  O   UNL     1      -9.471   4.489  72.236  1.00  0.00    -0.128 OA 
HETATM   25  C   UNL     1     -10.111   3.535  71.400  1.00  0.00     0.031 C  
ENDBRANCH  16  24
BRANCH  13  26
HETATM   26  N   UNL     1      -6.251   6.670  67.144  1.00  0.00    -0.035 N  
HETATM   27  C   UNL     1      -6.419   6.209  65.839  1.00  0.00    -0.046 C  
HETATM   28  H   UNL     1      -5.356   6.604  67.629  1.00  0.00     0.000 HD 
HETATM   29  O   UNL     1      -7.527   6.049  65.328  1.00  0.00    -0.077 OA 
HETATM   30  C   UNL     1      -5.174   5.971  65.030  1.00  0.00    -0.013 C  
ENDBRANCH  13  26
ENDBRANCH   2   3
TORSDOF 5
ENDMDL
MODEL      100
REMARK 921   NORMALIZED FREE ENERGY PREDICTED BY IDOCK:   -2.60 KCAL/MOL
REMARK 922        TOTAL FREE ENERGY PREDICTED BY IDOCK:   -4.04 KCAL/MOL
REMARK 923 INTER-LIGAND FREE ENERGY PREDICTED BY IDOCK:   -4.63 KCAL/MOL
REMARK 924 INTRA-LIGAND FREE ENERGY PREDICTED BY IDOCK:    0.59 KCAL/MOL
REMARK 927      BINDING AFFINITY PREDICTED BY RF-SCORE:    0.00 PKD
ROOT
HETATM    1  C   UNL     1      -7.022   2.426  64.610  1.00  0.00    -0.048 C  
HETATM    2  O   UNL     1      -6.258   3.626  64.753  1.00  0.00    -0.022 OA 
ENDROOT
BRANCH   2   3
HETATM    3  C   UNL     1      -6.847   4.646  65.459  1.00  0.00    -0.061 A  
HETATM    4  C   UNL     1      -7.905   4.386  66.306  1.00  0.00    -0.095 A  
HETATM    5  C   UNL     1      -8.537   5.379  67.089  1.00  0.00    -0.108 A  
HETATM    6  C   UNL     1      -8.120   6.727  67.030  1.00  0.00    -0.109 A  
HETATM    7  C   UNL     1      -7.092   7.013  66.049  1.00  0.00    -0.073 A  
HETATM    8  C   UNL     1      -8.644   7.814  68.011  1.00  0.00    -0.123 C  
HETATM    9  C   UNL     1      -6.448   5.973  65.276  1.00  0.00    -0.042 A  
HETATM   10  C   UNL     1      -7.664   8.594  68.542  1.00  0.00    -0.100 C  
HETATM   11  C   UNL     1     -10.015   5.524  69.125  1.00  0.00    -0.256 C  
HETATM   12  C   UNL     1      -9.670   4.781  67.872  1.00  0.00    -0.200 C  
HETATM   13  C   UNL     1     -10.899   6.694  68.696  1.00  0.00    -0.262 C  
HETATM   14  C   UNL     1      -7.932   9.713  69.441  1.00  0.00    -0.111 C  
HETATM   15  C   UNL     1     -10.077   7.974  68.549  1.00  0.00    -0.218 C  
HETATM   16  C   UNL     1      -8.644  10.720  68.896  1.00  0.00    -0.153 C  
HETATM   17  C   UNL     1     -10.116  10.532  69.037  1.00  0.00    -0.217 C  
HETATM   18  O   UNL     1     -10.876  11.474  69.251  1.00  0.00    -0.220 OA 
HETATM   19  C   UNL     1     -10.660   9.141  68.924  1.00  0.00    -0.214 C  
BRANCH   7  20
HETATM   20  O   UNL     1      -6.807   8.361  65.865  1.00  0.00    -0.062 OA 
HETATM   21  C   UNL     1      -7.455   9.041  64.791  1.00  0.00    -0.102 C  
ENDBRANCH   7  20
BRANCH   9  22
HETATM   22  O   UNL     1      -5.547   6.355  64.319  1.00  0.00    -0.024 OA 
HETATM   23  C   UNL     1      -5.980   6.379  62.963  1.00  0.00    -0.026 C  
ENDBRANCH   9  22
BRANCH  16  24
HETATM   24  O   UNL     1      -8.251  11.597  67.911  1.00  0.00    -0.127 OA 
HETATM   25  C   UNL     1      -8.966  11.530  66.686  1.00  0.00    -0.185 C  
ENDBRANCH  16  24
BRANCH  13  26
HETATM   26  N   UNL     1     -12.032   6.718  69.632  1.00  0.00    -0.605 N  
HETATM   27  C   UNL     1     -11.709   6.852  70.981  1.00  0.00    -0.345 C  
HETATM   28  H   UNL     1     -12.998   6.641  69.313  1.00  0.00     0.000 HD 
HETATM   29  O   UNL     1     -10.566   6.698  71.410  1.00  0.00    -0.219 OA 
HETATM   30  C   UNL     1     -12.813   7.270  71.913  1.00  0.00    -0.299 C  
ENDBRANCH  13  26
ENDBRANCH   2   3
TORSDOF 5
ENDMDL
MODEL      101
REMARK 921   NORMALIZED FREE ENERGY PREDICTED BY IDOCK:   -2.59 KCAL/MOL
REMARK 922        TOTAL FREE ENERGY PREDICTED BY IDOCK:   -4.03 KCAL/MOL
REMARK 923 INTER-LIGAND FREE ENERGY PREDICTED BY IDOCK:   -4.89 KCAL/MOL
REMARK 924 INTRA-LIGAND FREE ENERGY PREDICTED BY IDOCK:    0.86 KCAL/MOL
REMARK 927      BINDING AFFINITY PREDICTED BY RF-SCORE:    0.00 PKD
ROOT
HETATM    1  C   UNL     1      -5.205  14.397  71.231  1.00  0.00    -0.150 C  
HETATM    2  O   UNL     1      -6.455  14.833  70.689  1.00  0.00    -0.123 OA 
ENDROOT
BRANCH   2   3
HETATM    3  C   UNL     1      -6.958  14.097  69.645  1.00  0.00    -0.011 A  
HETATM    4  C   UNL     1      -6.560  12.790  69.458  1.00  0.00    -0.031 A  
HETATM    5  C   UNL     1      -7.061  11.963  68.426  1.00  0.00    -0.086 A  
HETATM    6  C   UNL     1      -8.007  12.451  67.497  1.00  0.00    -0.173 A  
HETATM    7  C   UNL     1      -8.328  13.859  67.625  1.00  0.00    -0.181 A  
HETATM    8  C   UNL     1      -8.735  11.532  66.475  1.00  0.00    -0.183 C  
HETATM    9  C   UNL     1      -7.815  14.676  68.703  1.00  0.00    -0.138 A  
HETATM   10  C   UNL     1     -10.078  11.736  66.412  1.00  0.00    -0.239 C  
HETATM   11  C   UNL     1      -7.219   9.509  67.879  1.00  0.00    -0.082 C  
HETATM   12  C   UNL     1      -6.404  10.614  68.475  1.00  0.00    -0.054 C  
HETATM   13  C   UNL     1      -7.000   9.585  66.368  1.00  0.00    -0.088 C  
HETATM   14  C   UNL     1     -10.952  11.026  65.481  1.00  0.00    -0.086 C  
HETATM   15  C   UNL     1      -8.138  10.350  65.692  1.00  0.00    -0.156 C  
HETATM   16  C   UNL     1     -10.703  11.265  64.177  1.00  0.00    -0.369 C  
HETATM   17  C   UNL     1      -9.690  10.337  63.600  1.00  0.00    -0.213 C  
HETATM   18  O   UNL     1      -9.777   9.908  62.452  1.00  0.00    -0.150 OA 
HETATM   19  C   UNL     1      -8.545   9.917  64.471  1.00  0.00    -0.198 C  
BRANCH   7  20
HETATM   20  O   UNL     1      -9.119  14.381  66.608  1.00  0.00    -0.260 OA 
HETATM   21  C   UNL     1     -10.313  15.070  66.976  1.00  0.00    -0.269 C  
ENDBRANCH   7  20
BRANCH   9  22
HETATM   22  O   UNL     1      -8.113  16.011  68.688  1.00  0.00    -0.165 OA 
HETATM   23  C   UNL     1      -7.188  16.896  68.065  1.00  0.00    -0.162 C  
ENDBRANCH   9  22
BRANCH  16  24
HETATM   24  O   UNL     1     -10.899  12.435  63.480  1.00  0.00    -0.437 OA 
HETATM   25  C   UNL     1     -12.148  13.083  63.673  1.00  0.00    -0.531 C  
ENDBRANCH  16  24
BRANCH  13  26
HETATM   26  N   UNL     1      -6.745   8.209  65.919  1.00  0.00    -0.049 N  
HETATM   27  C   UNL     1      -7.682   7.254  66.311  1.00  0.00    -0.097 C  
HETATM   28  H   UNL     1      -5.931   7.968  65.354  1.00  0.00     0.000 HD 
HETATM   29  O   UNL     1      -8.521   7.465  67.185  1.00  0.00    -0.116 OA 
HETATM   30  C   UNL     1      -7.680   5.947  65.567  1.00  0.00    -0.091 C  
ENDBRANCH  13  26
ENDBRANCH   2   3
TORSDOF 5
ENDMDL
MODEL      102
REMARK 921   NORMALIZED FREE ENERGY PREDICTED BY IDOCK:   -2.57 KCAL/MOL
REMARK 922        TOTAL FREE ENERGY PREDICTED BY IDOCK:   -4.01 KCAL/MOL
REMARK 923 INTER-LIGAND FREE ENERGY PREDICTED BY IDOCK:   -4.72 KCAL/MOL
REMARK 924 INTRA-LIGAND FREE ENERGY PREDICTED BY IDOCK:    0.71 KCAL/MOL
REMARK 927      BINDING AFFINITY PREDICTED BY RF-SCORE:    0.00 PKD
ROOT
HETATM    1  C   UNL     1      -7.883   8.031  68.335  1.00  0.00    -0.122 C  
HETATM    2  O   UNL     1      -7.913   8.808  67.134  1.00  0.00    -0.096 OA 
ENDROOT
BRANCH   2   3
HETATM    3  C   UNL     1      -8.056  10.165  67.287  1.00  0.00    -0.114 A  
HETATM    4  C   UNL     1      -7.257  10.854  68.176  1.00  0.00    -0.083 A  
HETATM    5  C   UNL     1      -7.325  12.253  68.361  1.00  0.00    -0.109 A  
HETATM    6  C   UNL     1      -8.251  13.038  67.638  1.00  0.00    -0.171 A  
HETATM    7  C   UNL     1      -9.168  12.294  66.797  1.00  0.00    -0.210 A  
HETATM    8  C   UNL     1      -8.229  14.594  67.655  1.00  0.00    -0.182 C  
HETATM    9  C   UNL     1      -9.062  10.864  66.612  1.00  0.00    -0.162 A  
HETATM   10  C   UNL     1      -8.332  15.158  66.421  1.00  0.00     0.077 C  
HETATM   11  C   UNL     1      -5.900  14.108  69.298  1.00  0.00    -0.089 C  
HETATM   12  C   UNL     1      -6.353  12.687  69.420  1.00  0.00    -0.112 C  
HETATM   13  C   UNL     1      -7.001  14.961  69.927  1.00  0.00    -0.143 C  
HETATM   14  C   UNL     1      -8.391  16.602  66.205  1.00  0.00    -0.360 C  
HETATM   15  C   UNL     1      -7.943  15.510  68.857  1.00  0.00    -0.187 C  
HETATM   16  C   UNL     1      -9.471  17.210  66.737  1.00  0.00    -0.267 C  
HETATM   17  C   UNL     1      -9.256  17.646  68.146  1.00  0.00    -0.282 C  
HETATM   18  O   UNL     1      -9.720  18.696  68.583  1.00  0.00    -0.346 OA 
HETATM   19  C   UNL     1      -8.433  16.764  69.036  1.00  0.00    -0.156 C  
BRANCH   7  20
HETATM   20  O   UNL     1     -10.188  13.045  66.225  1.00  0.00    -0.274 OA 
HETATM   21  C   UNL     1     -11.428  13.131  66.927  1.00  0.00    -0.341 C  
ENDBRANCH   7  20
BRANCH   9  22
HETATM   22  O   UNL     1     -10.025  10.245  65.862  1.00  0.00    -0.229 OA 
HETATM   23  C   UNL     1      -9.924  10.326  64.445  1.00  0.00    -0.261 C  
ENDBRANCH   9  22
BRANCH  16  24
HETATM   24  O   UNL     1     -10.785  17.091  66.348  1.00  0.00    -0.214 OA 
HETATM   25  C   UNL     1     -11.012  16.745  64.990  1.00  0.00    -0.108 C  
ENDBRANCH  16  24
BRANCH  13  26
HETATM   26  N   UNL     1      -6.322  15.932  70.798  1.00  0.00     0.444 N  
HETATM   27  C   UNL     1      -5.552  16.899  70.153  1.00  0.00    -0.222 C  
HETATM   28  H   UNL     1      -6.409  15.900  71.813  1.00  0.00     0.000 HD 
HETATM   29  O   UNL     1      -5.231  16.812  68.968  1.00  0.00    -0.125 OA 
HETATM   30  C   UNL     1      -5.172  18.116  70.950  1.00  0.00    -0.275 C  
ENDBRANCH  13  26
ENDBRANCH   2   3
TORSDOF 5
ENDMDL
MODEL      103
REMARK 921   NORMALIZED FREE ENERGY PREDICTED BY IDOCK:   -2.57 KCAL/MOL
REMARK 922        TOTAL FREE ENERGY PREDICTED BY IDOCK:   -4.01 KCAL/MOL
REMARK 923 INTER-LIGAND FREE ENERGY PREDICTED BY IDOCK:   -5.18 KCAL/MOL
REMARK 924 INTRA-LIGAND FREE ENERGY PREDICTED BY IDOCK:    1.16 KCAL/MOL
REMARK 927      BINDING AFFINITY PREDICTED BY RF-SCORE:    0.00 PKD
ROOT
HETATM    1  C   UNL     1     -13.949   9.047  72.254  1.00  0.00    -0.455 C  
HETATM    2  O   UNL     1     -12.844   9.911  71.972  1.00  0.00    -0.402 OA 
ENDROOT
BRANCH   2   3
HETATM    3  C   UNL     1     -12.008   9.522  70.955  1.00  0.00    -0.328 A  
HETATM    4  C   UNL     1     -11.768   8.183  70.723  1.00  0.00    -0.211 A  
HETATM    5  C   UNL     1     -10.947   7.710  69.674  1.00  0.00    -0.145 A  
HETATM    6  C   UNL     1     -10.298   8.606  68.797  1.00  0.00    -0.228 A  
HETATM    7  C   UNL     1     -10.455  10.010  69.121  1.00  0.00    -0.219 A  
HETATM    8  C   UNL     1      -9.552   8.137  67.515  1.00  0.00    -0.196 C  
HETATM    9  C   UNL     1     -11.318  10.467  70.189  1.00  0.00    -0.323 A  
HETATM   10  C   UNL     1      -9.854   8.866  66.406  1.00  0.00    -0.353 C  
HETATM   11  C   UNL     1     -10.559   5.574  68.395  1.00  0.00    -0.210 C  
HETATM   12  C   UNL     1     -10.865   6.211  69.714  1.00  0.00    -0.421 C  
HETATM   13  C   UNL     1      -9.045   5.675  68.214  1.00  0.00    -0.110 C  
HETATM   14  C   UNL     1      -9.227   8.639  65.106  1.00  0.00     0.046 C  
HETATM   15  C   UNL     1      -8.680   6.881  67.349  1.00  0.00    -0.119 C  
HETATM   16  C   UNL     1      -7.898   8.860  65.072  1.00  0.00    -0.112 C  
HETATM   17  C   UNL     1      -7.100   7.652  65.427  1.00  0.00    -0.063 C  
HETATM   18  O   UNL     1      -6.037   7.386  64.870  1.00  0.00    -0.037 OA 
HETATM   19  C   UNL     1      -7.637   6.744  66.491  1.00  0.00    -0.089 C  
BRANCH   7  20
HETATM   20  O   UNL     1      -9.676  10.882  68.370  1.00  0.00    -0.162 OA 
HETATM   21  C   UNL     1      -8.398  11.253  68.888  1.00  0.00    -0.071 C  
ENDBRANCH   7  20
BRANCH   9  22
HETATM   22  O   UNL     1     -11.334  11.807  70.466  1.00  0.00     0.096 OA 
HETATM   23  C   UNL     1     -12.573  12.395  70.849  1.00  0.00    -0.246 C  
ENDBRANCH   9  22
BRANCH  16  24
HETATM   24  O   UNL     1      -7.237  10.061  65.189  1.00  0.00    -0.127 OA 
HETATM   25  C   UNL     1      -6.356  10.192  66.294  1.00  0.00    -0.084 C  
ENDBRANCH  16  24
BRANCH  13  26
HETATM   26  N   UNL     1      -8.596   4.351  67.759  1.00  0.00    -0.102 N  
HETATM   27  C   UNL     1      -9.220   3.852  66.616  1.00  0.00    -0.169 C  
HETATM   28  H   UNL     1      -7.871   3.829  68.250  1.00  0.00     0.000 HD 
HETATM   29  O   UNL     1     -10.253   4.338  66.157  1.00  0.00    -0.221 OA 
HETATM   30  C   UNL     1      -8.539   2.717  65.903  1.00  0.00    -0.114 C  
ENDBRANCH  13  26
ENDBRANCH   2   3
TORSDOF 5
ENDMDL
MODEL      104
REMARK 921   NORMALIZED FREE ENERGY PREDICTED BY IDOCK:   -2.54 KCAL/MOL
REMARK 922        TOTAL FREE ENERGY PREDICTED BY IDOCK:   -3.97 KCAL/MOL
REMARK 923 INTER-LIGAND FREE ENERGY PREDICTED BY IDOCK:   -4.96 KCAL/MOL
REMARK 924 INTRA-LIGAND FREE ENERGY PREDICTED BY IDOCK:    1.00 KCAL/MOL
REMARK 927      BINDING AFFINITY PREDICTED BY RF-SCORE:    0.00 PKD
ROOT
HETATM    1  C   UNL     1      -9.458   1.747  64.508  1.00  0.00    -0.109 C  
HETATM    2  O   UNL     1      -8.389   2.637  64.840  1.00  0.00    -0.086 OA 
ENDROOT
BRANCH   2   3
HETATM    3  C   UNL     1      -8.666   3.604  65.774  1.00  0.00    -0.118 A  
HETATM    4  C   UNL     1      -8.941   3.252  67.080  1.00  0.00    -0.178 A  
HETATM    5  C   UNL     1      -9.201   4.195  68.101  1.00  0.00    -0.194 A  
HETATM    6  C   UNL     1      -9.211   5.580  67.828  1.00  0.00    -0.110 A  
HETATM    7  C   UNL     1      -9.043   5.936  66.432  1.00  0.00    -0.149 A  
HETATM    8  C   UNL     1      -9.292   6.658  68.946  1.00  0.00    -0.128 C  
HETATM    9  C   UNL     1      -8.759   4.951  65.411  1.00  0.00    -0.143 A  
HETATM   10  C   UNL     1      -8.392   7.668  68.802  1.00  0.00    -0.129 C  
HETATM   11  C   UNL     1      -9.201   4.301  70.619  1.00  0.00    -0.193 C  
HETATM   12  C   UNL     1      -9.496   3.492  69.395  1.00  0.00    -0.234 C  
HETATM   13  C   UNL     1     -10.404   5.222  70.819  1.00  0.00    -0.239 C  
HETATM   14  C   UNL     1      -8.328   8.816  69.703  1.00  0.00    -0.126 C  
HETATM   15  C   UNL     1     -10.133   6.607  70.233  1.00  0.00    -0.201 C  
HETATM   16  C   UNL     1      -9.427   9.597  69.704  1.00  0.00    -0.210 C  
HETATM   17  C   UNL     1     -10.453   9.152  70.690  1.00  0.00    -0.245 C  
HETATM   18  O   UNL     1     -11.133   9.951  71.329  1.00  0.00    -0.351 OA 
HETATM   19  C   UNL     1     -10.632   7.679  70.900  1.00  0.00    -0.219 C  
BRANCH   7  20
HETATM   20  O   UNL     1      -9.230   7.281  66.137  1.00  0.00    -0.160 OA 
HETATM   21  C   UNL     1      -8.135   7.999  65.569  1.00  0.00    -0.128 C  
ENDBRANCH   7  20
BRANCH   9  22
HETATM   22  O   UNL     1      -8.697   5.379  64.113  1.00  0.00    -0.091 OA 
HETATM   23  C   UNL     1      -7.429   5.372  63.465  1.00  0.00    -0.056 C  
ENDBRANCH   9  22
BRANCH  16  24
HETATM   24  O   UNL     1      -9.890  10.407  68.693  1.00  0.00    -0.163 OA 
HETATM   25  C   UNL     1     -10.963   9.895  67.916  1.00  0.00    -0.223 C  
ENDBRANCH  16  24
BRANCH  13  26
HETATM   26  N   UNL     1     -10.749   5.143  72.246  1.00  0.00    -0.218 N  
HETATM   27  C   UNL     1      -9.706   5.374  73.141  1.00  0.00    -0.149 C  
HETATM   28  H   UNL     1     -11.696   4.933  72.562  1.00  0.00     0.000 HD 
HETATM   29  O   UNL     1      -8.524   5.382  72.798  1.00  0.00    -0.116 OA 
HETATM   30  C   UNL     1     -10.080   5.689  74.564  1.00  0.00    -0.296 C  
ENDBRANCH  13  26
ENDBRANCH   2   3
TORSDOF 5
ENDMDL
MODEL      105
REMARK 921   NORMALIZED FREE ENERGY PREDICTED BY IDOCK:   -2.50 KCAL/MOL
REMARK 922        TOTAL FREE ENERGY PREDICTED BY IDOCK:   -3.91 KCAL/MOL
REMARK 923 INTER-LIGAND FREE ENERGY PREDICTED BY IDOCK:   -4.88 KCAL/MOL
REMARK 924 INTRA-LIGAND FREE ENERGY PREDICTED BY IDOCK:    0.96 KCAL/MOL
REMARK 927      BINDING AFFINITY PREDICTED BY RF-SCORE:    0.00 PKD
ROOT
HETATM    1  C   UNL     1      -8.821  18.317  68.623  1.00  0.00    -0.275 C  
HETATM    2  O   UNL     1      -9.939  17.447  68.427  1.00  0.00    -0.291 OA 
ENDROOT
BRANCH   2   3
HETATM    3  C   UNL     1      -9.662  16.196  67.937  1.00  0.00    -0.225 A  
HETATM    4  C   UNL     1      -8.685  15.418  68.524  1.00  0.00    -0.178 A  
HETATM    5  C   UNL     1      -8.370  14.108  68.095  1.00  0.00    -0.161 A  
HETATM    6  C   UNL     1      -9.044  13.519  67.003  1.00  0.00    -0.248 A  
HETATM    7  C   UNL     1      -9.981  14.385  66.315  1.00  0.00    -0.306 A  
HETATM    8  C   UNL     1      -8.877  12.020  66.621  1.00  0.00    -0.191 C  
HETATM    9  C   UNL     1     -10.298  15.714  66.789  1.00  0.00    -0.287 A  
HETATM   10  C   UNL     1     -10.054  11.379  66.384  1.00  0.00    -0.255 C  
HETATM   11  C   UNL     1      -7.215  12.054  68.987  1.00  0.00    -0.053 C  
HETATM   12  C   UNL     1      -7.244  13.549  68.916  1.00  0.00    -0.070 C  
HETATM   13  C   UNL     1      -6.542  11.580  67.699  1.00  0.00    -0.078 C  
HETATM   14  C   UNL     1     -10.133   9.985  65.955  1.00  0.00    -0.319 C  
HETATM   15  C   UNL     1      -7.585  11.186  66.653  1.00  0.00    -0.147 C  
HETATM   16  C   UNL     1      -9.580   9.731  64.751  1.00  0.00    -0.214 C  
HETATM   17  C   UNL     1      -8.130   9.399  64.837  1.00  0.00    -0.128 C  
HETATM   18  O   UNL     1      -7.610   8.553  64.114  1.00  0.00    -0.109 OA 
HETATM   19  C   UNL     1      -7.303  10.125  65.855  1.00  0.00    -0.121 C  
BRANCH   7  20
HETATM   20  O   UNL     1     -10.511  13.868  65.139  1.00  0.00    -0.346 OA 
HETATM   21  C   UNL     1     -11.880  13.465  65.142  1.00  0.00    -0.350 C  
ENDBRANCH   7  20
BRANCH   9  22
HETATM   22  O   UNL     1     -11.134  16.481  66.023  1.00  0.00    -0.009 OA 
HETATM   23  C   UNL     1     -10.563  17.546  65.270  1.00  0.00     0.132 C  
ENDBRANCH   9  22
BRANCH  16  24
HETATM   24  O   UNL     1     -10.020  10.145  63.515  1.00  0.00    -0.123 OA 
HETATM   25  C   UNL     1      -9.347  11.257  62.944  1.00  0.00    -0.352 C  
ENDBRANCH  16  24
BRANCH  13  26
HETATM   26  N   UNL     1      -5.562  10.560  68.098  1.00  0.00    -0.037 N  
HETATM   27  C   UNL     1      -6.076   9.434  68.738  1.00  0.00    -0.043 C  
HETATM   28  H   UNL     1      -4.564  10.670  67.917  1.00  0.00     0.000 HD 
HETATM   29  O   UNL     1      -7.221   9.388  69.186  1.00  0.00    -0.064 OA 
HETATM   30  C   UNL     1      -5.190   8.220  68.807  1.00  0.00    -0.028 C  
ENDBRANCH  13  26
ENDBRANCH   2   3
TORSDOF 5
ENDMDL
MODEL      106
REMARK 921   NORMALIZED FREE ENERGY PREDICTED BY IDOCK:   -2.31 KCAL/MOL
REMARK 922        TOTAL FREE ENERGY PREDICTED BY IDOCK:   -3.68 KCAL/MOL
REMARK 923 INTER-LIGAND FREE ENERGY PREDICTED BY IDOCK:   -3.63 KCAL/MOL
REMARK 924 INTRA-LIGAND FREE ENERGY PREDICTED BY IDOCK:   -0.05 KCAL/MOL
REMARK 927      BINDING AFFINITY PREDICTED BY RF-SCORE:    0.00 PKD
ROOT
HETATM    1  C   UNL     1      -7.875   4.651  62.554  1.00  0.00    -0.066 C  
HETATM    2  O   UNL     1      -6.925   5.469  63.241  1.00  0.00    -0.036 OA 
ENDROOT
BRANCH   2   3
HETATM    3  C   UNL     1      -7.335   6.016  64.431  1.00  0.00    -0.068 A  
HETATM    4  C   UNL     1      -7.191   5.310  65.608  1.00  0.00    -0.068 A  
HETATM    5  C   UNL     1      -7.560   5.823  66.873  1.00  0.00    -0.099 A  
HETATM    6  C   UNL     1      -8.126   7.111  66.999  1.00  0.00    -0.117 A  
HETATM    7  C   UNL     1      -8.387   7.796  65.749  1.00  0.00    -0.137 A  
HETATM    8  C   UNL     1      -8.361   7.795  68.376  1.00  0.00    -0.125 C  
HETATM    9  C   UNL     1      -7.981   7.256  64.470  1.00  0.00    -0.112 A  
HETATM   10  C   UNL     1      -7.937   9.087  68.426  1.00  0.00    -0.104 C  
HETATM   11  C   UNL     1      -7.084   5.374  69.306  1.00  0.00    -0.060 C  
HETATM   12  C   UNL     1      -7.309   4.800  67.942  1.00  0.00    -0.070 C  
HETATM   13  C   UNL     1      -8.470   5.666  69.879  1.00  0.00    -0.121 C  
HETATM   14  C   UNL     1      -8.110   9.940  69.600  1.00  0.00    -0.171 C  
HETATM   15  C   UNL     1      -8.844   7.133  69.678  1.00  0.00    -0.141 C  
HETATM   16  C   UNL     1      -9.392  10.191  69.934  1.00  0.00    -0.093 C  
HETATM   17  C   UNL     1      -9.962   9.170  70.857  1.00  0.00    -0.288 C  
HETATM   18  O   UNL     1     -10.739   9.469  71.760  1.00  0.00    -0.264 OA 
HETATM   19  C   UNL     1      -9.550   7.742  70.665  1.00  0.00    -0.166 C  
BRANCH   7  20
HETATM   20  O   UNL     1      -9.104   8.981  65.862  1.00  0.00    -0.182 OA 
HETATM   21  C   UNL     1      -8.427  10.203  65.565  1.00  0.00    -0.153 C  
ENDBRANCH   7  20
BRANCH   9  22
HETATM   22  O   UNL     1      -8.346   7.941  63.343  1.00  0.00    -0.067 OA 
HETATM   23  C   UNL     1      -7.315   8.523  62.552  1.00  0.00    -0.100 C  
ENDBRANCH   9  22
BRANCH  16  24
HETATM   24  O   UNL     1     -10.313  10.944  69.242  1.00  0.00    -0.220 OA 
HETATM   25  C   UNL     1     -11.211  10.229  68.406  1.00  0.00    -0.224 C  
ENDBRANCH  16  24
BRANCH  13  26
HETATM   26  N   UNL     1      -8.463   5.148  71.255  1.00  0.00    -0.121 N  
HETATM   27  C   UNL     1      -9.579   4.403  71.634  1.00  0.00    -0.162 C  
HETATM   28  H   UNL     1      -7.689   5.324  71.895  1.00  0.00     0.000 HD 
HETATM   29  O   UNL     1     -10.621   4.386  70.980  1.00  0.00     0.064 OA 
HETATM   30  C   UNL     1      -9.445   3.544  72.861  1.00  0.00    -0.152 C  
ENDBRANCH  13  26
ENDBRANCH   2   3
TORSDOF 5
ENDMDL
MODEL      107
REMARK 921   NORMALIZED FREE ENERGY PREDICTED BY IDOCK:   -2.30 KCAL/MOL
REMARK 922        TOTAL FREE ENERGY PREDICTED BY IDOCK:   -3.66 KCAL/MOL
REMARK 923 INTER-LIGAND FREE ENERGY PREDICTED BY IDOCK:   -4.40 KCAL/MOL
REMARK 924 INTRA-LIGAND FREE ENERGY PREDICTED BY IDOCK:    0.74 KCAL/MOL
REMARK 927      BINDING AFFINITY PREDICTED BY RF-SCORE:    0.00 PKD
ROOT
HETATM    1  C   UNL     1     -11.125  13.631  68.000  1.00  0.00    -0.262 C  
HETATM    2  O   UNL     1     -11.851  12.399  67.996  1.00  0.00    -0.348 OA 
ENDROOT
BRANCH   2   3
HETATM    3  C   UNL     1     -11.109  11.252  68.126  1.00  0.00    -0.259 A  
HETATM    4  C   UNL     1     -10.737  10.532  67.009  1.00  0.00    -0.310 A  
HETATM    5  C   UNL     1      -9.946   9.362  67.065  1.00  0.00    -0.282 A  
HETATM    6  C   UNL     1      -9.499   8.844  68.301  1.00  0.00    -0.150 A  
HETATM    7  C   UNL     1      -9.995   9.534  69.475  1.00  0.00    -0.194 A  
HETATM    8  C   UNL     1      -8.468   7.684  68.404  1.00  0.00    -0.125 C  
HETATM    9  C   UNL     1     -10.787  10.741  69.388  1.00  0.00    -0.244 A  
HETATM   10  C   UNL     1      -7.467   7.916  69.295  1.00  0.00    -0.092 C  
HETATM   11  C   UNL     1      -8.510   7.976  65.527  1.00  0.00    -0.159 C  
HETATM   12  C   UNL     1      -9.748   8.801  65.687  1.00  0.00    -0.016 C  
HETATM   13  C   UNL     1      -8.851   6.588  66.067  1.00  0.00    -0.143 C  
HETATM   14  C   UNL     1      -6.422   6.940  69.596  1.00  0.00    -0.044 C  
HETATM   15  C   UNL     1      -8.376   6.434  67.512  1.00  0.00    -0.117 C  
HETATM   16  C   UNL     1      -6.861   5.796  70.160  1.00  0.00    -0.053 C  
HETATM   17  C   UNL     1      -7.239   4.763  69.155  1.00  0.00    -0.053 C  
HETATM   18  O   UNL     1      -7.020   3.567  69.335  1.00  0.00    -0.041 OA 
HETATM   19  C   UNL     1      -7.894   5.222  67.888  1.00  0.00    -0.092 C  
BRANCH   7  20
HETATM   20  O   UNL     1      -9.702   8.923  70.689  1.00  0.00    -0.182 OA 
HETATM   21  C   UNL     1     -10.671   8.032  71.240  1.00  0.00    -0.229 C  
ENDBRANCH   7  20
BRANCH   9  22
HETATM   22  O   UNL     1     -11.273  11.271  70.552  1.00  0.00    -0.033 OA 
HETATM   23  C   UNL     1     -12.351  12.197  70.467  1.00  0.00    -0.272 C  
ENDBRANCH   9  22
BRANCH  16  24
HETATM   24  O   UNL     1      -7.394   5.624  71.416  1.00  0.00    -0.078 OA 
HETATM   25  C   UNL     1      -6.916   6.496  72.430  1.00  0.00    -0.069 C  
ENDBRANCH  16  24
BRANCH  13  26
HETATM   26  N   UNL     1      -8.342   5.626  65.079  1.00  0.00    -0.144 N  
HETATM   27  C   UNL     1      -9.263   4.693  64.603  1.00  0.00    -0.118 C  
HETATM   28  H   UNL     1      -7.374   5.640  64.760  1.00  0.00     0.000 HD 
HETATM   29  O   UNL     1     -10.350   4.496  65.144  1.00  0.00    -0.188 OA 
HETATM   30  C   UNL     1      -8.908   3.964  63.336  1.00  0.00    -0.105 C  
ENDBRANCH  13  26
ENDBRANCH   2   3
TORSDOF 5
ENDMDL
MODEL      108
REMARK 921   NORMALIZED FREE ENERGY PREDICTED BY IDOCK:   -2.24 KCAL/MOL
REMARK 922        TOTAL FREE ENERGY PREDICTED BY IDOCK:   -3.58 KCAL/MOL
REMARK 923 INTER-LIGAND FREE ENERGY PREDICTED BY IDOCK:   -4.88 KCAL/MOL
REMARK 924 INTRA-LIGAND FREE ENERGY PREDICTED BY IDOCK:    1.30 KCAL/MOL
REMARK 927      BINDING AFFINITY PREDICTED BY RF-SCORE:    0.00 PKD
ROOT
HETATM    1  C   UNL     1      -8.783   4.567  70.710  1.00  0.00    -0.093 C  
HETATM    2  O   UNL     1      -8.023   5.396  69.827  1.00  0.00    -0.085 OA 
ENDROOT
BRANCH   2   3
HETATM    3  C   UNL     1      -8.564   6.619  69.520  1.00  0.00    -0.132 A  
HETATM    4  C   UNL     1      -9.524   7.182  70.336  1.00  0.00    -0.162 A  
HETATM    5  C   UNL     1     -10.100   8.451  70.100  1.00  0.00    -0.193 A  
HETATM    6  C   UNL     1      -9.727   9.222  68.978  1.00  0.00    -0.162 A  
HETATM    7  C   UNL     1      -8.811   8.574  68.060  1.00  0.00    -0.142 A  
HETATM    8  C   UNL     1     -10.178  10.698  68.783  1.00  0.00    -0.204 C  
HETATM    9  C   UNL     1      -8.221   7.282  68.337  1.00  0.00    -0.125 A  
HETATM   10  C   UNL     1      -9.170  11.537  68.421  1.00  0.00    -0.190 C  
HETATM   11  C   UNL     1     -11.368  10.217  71.374  1.00  0.00     0.018 C  
HETATM   12  C   UNL     1     -11.132   8.757  71.148  1.00  0.00    -0.340 C  
HETATM   13  C   UNL     1     -12.322  10.670  70.270  1.00  0.00    -0.325 C  
HETATM   14  C   UNL     1      -9.376  12.954  68.129  1.00  0.00    -0.214 C  
HETATM   15  C   UNL     1     -11.552  11.306  69.112  1.00  0.00    -0.387 C  
HETATM   16  C   UNL     1     -10.166  13.203  67.065  1.00  0.00    -0.250 C  
HETATM   17  C   UNL     1     -11.611  13.288  67.422  1.00  0.00    -0.353 C  
HETATM   18  O   UNL     1     -12.370  14.089  66.884  1.00  0.00    -0.418 OA 
HETATM   19  C   UNL     1     -12.126  12.363  68.483  1.00  0.00    -0.126 C  
BRANCH   7  20
HETATM   20  O   UNL     1      -8.582   9.256  66.871  1.00  0.00    -0.125 OA 
HETATM   21  C   UNL     1      -9.474   9.020  65.782  1.00  0.00    -0.236 C  
ENDBRANCH   7  20
BRANCH   9  22
HETATM   22  O   UNL     1      -7.432   6.721  67.370  1.00  0.00    -0.092 OA 
HETATM   23  C   UNL     1      -8.022   5.764  66.497  1.00  0.00    -0.102 C  
ENDBRANCH   9  22
BRANCH  16  24
HETATM   24  O   UNL     1      -9.898  12.961  65.737  1.00  0.00    -0.264 OA 
HETATM   25  C   UNL     1     -10.212  14.006  64.829  1.00  0.00    -0.301 C  
ENDBRANCH  16  24
BRANCH  13  26
HETATM   26  N   UNL     1     -13.355  11.484  70.927  1.00  0.00     0.284 N  
HETATM   27  C   UNL     1     -12.980  12.779  71.283  1.00  0.00    -0.220 C  
HETATM   28  H   UNL     1     -14.291  11.123  71.111  1.00  0.00     0.000 HD 
HETATM   29  O   UNL     1     -11.807  13.150  71.300  1.00  0.00     0.234 OA 
HETATM   30  C   UNL     1     -14.084  13.753  71.587  1.00  0.00    -0.181 C  
ENDBRANCH  13  26
ENDBRANCH   2   3
TORSDOF 5
ENDMDL
MODEL      109
REMARK 921   NORMALIZED FREE ENERGY PREDICTED BY IDOCK:   -2.09 KCAL/MOL
REMARK 922        TOTAL FREE ENERGY PREDICTED BY IDOCK:   -3.39 KCAL/MOL
REMARK 923 INTER-LIGAND FREE ENERGY PREDICTED BY IDOCK:   -2.72 KCAL/MOL
REMARK 924 INTRA-LIGAND FREE ENERGY PREDICTED BY IDOCK:   -0.67 KCAL/MOL
REMARK 927      BINDING AFFINITY PREDICTED BY RF-SCORE:    0.00 PKD
ROOT
HETATM    1  C   UNL     1      -7.190  12.343  68.692  1.00  0.00    -0.104 C  
HETATM    2  O   UNL     1      -6.627  11.566  67.632  1.00  0.00    -0.067 OA 
ENDROOT
BRANCH   2   3
HETATM    3  C   UNL     1      -7.046  10.262  67.540  1.00  0.00    -0.086 A  
HETATM    4  C   UNL     1      -6.956   9.422  68.631  1.00  0.00    -0.065 A  
HETATM    5  C   UNL     1      -7.400   8.080  68.619  1.00  0.00    -0.089 A  
HETATM    6  C   UNL     1      -7.956   7.508  67.454  1.00  0.00    -0.116 A  
HETATM    7  C   UNL     1      -7.936   8.357  66.279  1.00  0.00    -0.099 A  
HETATM    8  C   UNL     1      -8.638   6.110  67.446  1.00  0.00    -0.106 C  
HETATM    9  C   UNL     1      -7.494   9.733  66.325  1.00  0.00    -0.100 A  
HETATM   10  C   UNL     1      -9.838   6.088  66.804  1.00  0.00    -0.198 C  
HETATM   11  C   UNL     1      -8.037   6.286  70.269  1.00  0.00    -0.116 C  
HETATM   12  C   UNL     1      -7.129   7.431  69.946  1.00  0.00    -0.065 C  
HETATM   13  C   UNL     1      -7.468   5.072  69.534  1.00  0.00    -0.057 C  
HETATM   14  C   UNL     1     -10.625   4.870  66.624  1.00  0.00    -0.200 C  
HETATM   15  C   UNL     1      -8.194   4.850  68.208  1.00  0.00    -0.085 C  
HETATM   16  C   UNL     1     -10.035   3.920  65.871  1.00  0.00    -0.074 C  
HETATM   17  C   UNL     1      -9.182   2.994  66.670  1.00  0.00    -0.133 C  
HETATM   18  O   UNL     1      -9.110   1.794  66.419  1.00  0.00    -0.110 OA 
HETATM   19  C   UNL     1      -8.408   3.567  67.818  1.00  0.00    -0.097 C  
BRANCH   7  20
HETATM   20  O   UNL     1      -8.318   7.737  65.095  1.00  0.00    -0.143 OA 
HETATM   21  C   UNL     1      -7.317   7.045  64.349  1.00  0.00    -0.085 C  
ENDBRANCH   7  20
BRANCH   9  22
HETATM   22  O   UNL     1      -7.438  10.425  65.145  1.00  0.00    -0.140 OA 
HETATM   23  C   UNL     1      -8.625  11.064  64.687  1.00  0.00     0.109 C  
ENDBRANCH   9  22
BRANCH  16  24
HETATM   24  O   UNL     1      -9.769   3.955  64.522  1.00  0.00    -0.162 OA 
HETATM   25  C   UNL     1     -10.697   3.289  63.678  1.00  0.00    -0.247 C  
ENDBRANCH  16  24
BRANCH  13  26
HETATM   26  N   UNL     1      -7.470   3.967  70.503  1.00  0.00    -0.041 N  
HETATM   27  C   UNL     1      -6.259   3.296  70.669  1.00  0.00    -0.019 C  
HETATM   28  H   UNL     1      -8.307   3.706  71.024  1.00  0.00     0.000 HD 
HETATM   29  O   UNL     1      -5.316   3.423  69.887  1.00  0.00    -0.007 OA 
HETATM   30  C   UNL     1      -6.109   2.445  71.899  1.00  0.00    -0.014 C  
ENDBRANCH  13  26
ENDBRANCH   2   3
TORSDOF 5
ENDMDL
MODEL      110
REMARK 921   NORMALIZED FREE ENERGY PREDICTED BY IDOCK:   -2.03 KCAL/MOL
REMARK 922        TOTAL FREE ENERGY PREDICTED BY IDOCK:   -3.31 KCAL/MOL
REMARK 923 INTER-LIGAND FREE ENERGY PREDICTED BY IDOCK:   -4.89 KCAL/MOL
REMARK 924 INTRA-LIGAND FREE ENERGY PREDICTED BY IDOCK:    1.58 KCAL/MOL
REMARK 927      BINDING AFFINITY PREDICTED BY RF-SCORE:    0.00 PKD
ROOT
HETATM    1  C   UNL     1      -9.873  19.507  66.603  1.00  0.00    -0.394 C  
HETATM    2  O   UNL     1     -10.959  18.734  67.123  1.00  0.00    -0.380 OA 
ENDROOT
BRANCH   2   3
HETATM    3  C   UNL     1     -10.778  17.374  67.161  1.00  0.00    -0.188 A  
HETATM    4  C   UNL     1     -10.840  16.630  66.000  1.00  0.00    -0.041 A  
HETATM    5  C   UNL     1     -10.629  15.233  65.959  1.00  0.00    -0.327 A  
HETATM    6  C   UNL     1     -10.356  14.503  67.137  1.00  0.00    -0.265 A  
HETATM    7  C   UNL     1     -10.413  15.270  68.366  1.00  0.00    -0.236 A  
HETATM    8  C   UNL     1      -9.922  13.010  67.120  1.00  0.00    -0.235 C  
HETATM    9  C   UNL     1     -10.611  16.703  68.376  1.00  0.00    -0.343 A  
HETATM   10  C   UNL     1      -8.853  12.739  67.918  1.00  0.00    -0.186 C  
HETATM   11  C   UNL     1     -10.055  13.457  64.267  1.00  0.00     0.020 C  
HETATM   12  C   UNL     1     -10.800  14.722  64.558  1.00  0.00    -0.181 C  
HETATM   13  C   UNL     1     -10.919  12.320  64.810  1.00  0.00    -0.303 C  
HETATM   14  C   UNL     1      -8.313  11.394  68.101  1.00  0.00    -0.149 C  
HETATM   15  C   UNL     1     -10.448  11.895  66.201  1.00  0.00    -0.272 C  
HETATM   16  C   UNL     1      -9.157  10.518  68.681  1.00  0.00    -0.158 C  
HETATM   17  C   UNL     1     -10.020   9.806  67.697  1.00  0.00    -0.174 C  
HETATM   18  O   UNL     1     -10.326   8.623  67.833  1.00  0.00    -0.215 OA 
HETATM   19  C   UNL     1     -10.509  10.573  66.506  1.00  0.00    -0.276 C  
BRANCH   7  20
HETATM   20  O   UNL     1     -10.321  14.524  69.535  1.00  0.00    -0.142 OA 
HETATM   21  C   UNL     1     -11.532  14.057  70.128  1.00  0.00    -0.133 C  
ENDBRANCH   7  20
BRANCH   9  22
HETATM   22  O   UNL     1     -10.730  17.322  69.591  1.00  0.00    -0.164 OA 
HETATM   23  C   UNL     1     -10.025  18.543  69.792  1.00  0.00     0.623 C  
ENDBRANCH   9  22
BRANCH  16  24
HETATM   24  O   UNL     1      -9.614  10.518  69.979  1.00  0.00     0.036 OA 
HETATM   25  C   UNL     1      -9.673   9.256  70.627  1.00  0.00    -0.272 C  
ENDBRANCH  16  24
BRANCH  13  26
HETATM   26  N   UNL     1     -10.953  11.291  63.760  1.00  0.00    -0.532 N  
HETATM   27  C   UNL     1      -9.728  10.970  63.178  1.00  0.00    -0.369 C  
HETATM   28  H   UNL     1     -11.822  10.839  63.475  1.00  0.00     0.000 HD 
HETATM   29  O   UNL     1      -8.721  11.663  63.321  1.00  0.00     0.162 OA 
HETATM   30  C   UNL     1      -9.653   9.683  62.404  1.00  0.00     0.209 C  
ENDBRANCH  13  26
ENDBRANCH   2   3
TORSDOF 5
ENDMDL
MODEL      111
REMARK 921   NORMALIZED FREE ENERGY PREDICTED BY IDOCK:   -2.02 KCAL/MOL
REMARK 922        TOTAL FREE ENERGY PREDICTED BY IDOCK:   -3.29 KCAL/MOL
REMARK 923 INTER-LIGAND FREE ENERGY PREDICTED BY IDOCK:   -3.41 KCAL/MOL
REMARK 924 INTRA-LIGAND FREE ENERGY PREDICTED BY IDOCK:    0.12 KCAL/MOL
REMARK 927      BINDING AFFINITY PREDICTED BY RF-SCORE:    0.00 PKD
ROOT
HETATM    1  C   UNL     1      -5.429   2.396  64.438  1.00  0.00    -0.009 C  
HETATM    2  O   UNL     1      -6.488   1.999  65.313  1.00  0.00    -0.023 OA 
ENDROOT
BRANCH   2   3
HETATM    3  C   UNL     1      -7.026   2.981  66.107  1.00  0.00    -0.057 A  
HETATM    4  C   UNL     1      -7.140   4.273  65.637  1.00  0.00    -0.063 A  
HETATM    5  C   UNL     1      -7.714   5.326  66.385  1.00  0.00    -0.092 A  
HETATM    6  C   UNL     1      -8.197   5.109  67.694  1.00  0.00    -0.099 A  
HETATM    7  C   UNL     1      -7.964   3.781  68.227  1.00  0.00    -0.071 A  
HETATM    8  C   UNL     1      -9.013   6.176  68.478  1.00  0.00    -0.115 C  
HETATM    9  C   UNL     1      -7.392   2.717  67.431  1.00  0.00    -0.057 A  
HETATM   10  C   UNL     1     -10.133   5.683  69.075  1.00  0.00    -0.259 C  
HETATM   11  C   UNL     1      -8.704   7.608  65.985  1.00  0.00    -0.178 C  
HETATM   12  C   UNL     1      -7.656   6.609  65.608  1.00  0.00    -0.086 C  
HETATM   13  C   UNL     1      -8.187   8.317  67.236  1.00  0.00    -0.120 C  
HETATM   14  C   UNL     1     -11.016   6.494  69.909  1.00  0.00    -0.393 C  
HETATM   15  C   UNL     1      -8.784   7.697  68.499  1.00  0.00    -0.128 C  
HETATM   16  C   UNL     1     -10.448   6.976  71.033  1.00  0.00    -0.212 C  
HETATM   17  C   UNL     1      -9.785   8.295  70.828  1.00  0.00    -0.172 C  
HETATM   18  O   UNL     1      -9.809   9.177  71.683  1.00  0.00    -0.305 OA 
HETATM   19  C   UNL     1      -9.084   8.533  69.525  1.00  0.00    -0.150 C  
BRANCH   7  20
HETATM   20  O   UNL     1      -8.278   3.618  69.571  1.00  0.00    -0.053 OA 
HETATM   21  C   UNL     1      -9.246   2.628  69.916  1.00  0.00    -0.135 C  
ENDBRANCH   7  20
BRANCH   9  22
HETATM   22  O   UNL     1      -7.139   1.523  68.050  1.00  0.00    -0.038 OA 
HETATM   23  C   UNL     1      -6.173   1.504  69.096  1.00  0.00    -0.025 C  
ENDBRANCH   9  22
BRANCH  16  24
HETATM   24  O   UNL     1     -10.036   6.272  72.141  1.00  0.00    -0.167 OA 
HETATM   25  C   UNL     1     -11.040   5.552  72.841  1.00  0.00    -0.299 C  
ENDBRANCH  16  24
BRANCH  13  26
HETATM   26  N   UNL     1      -8.405   9.753  67.015  1.00  0.00    -0.117 N  
HETATM   27  C   UNL     1      -7.268  10.559  67.054  1.00  0.00    -0.098 C  
HETATM   28  H   UNL     1      -9.334  10.139  66.842  1.00  0.00     0.000 HD 
HETATM   29  O   UNL     1      -6.190  10.166  67.500  1.00  0.00    -0.057 OA 
HETATM   30  C   UNL     1      -7.380  11.935  66.458  1.00  0.00     0.170 C  
ENDBRANCH  13  26
ENDBRANCH   2   3
TORSDOF 5
ENDMDL
MODEL      112
REMARK 921   NORMALIZED FREE ENERGY PREDICTED BY IDOCK:   -1.99 KCAL/MOL
REMARK 922        TOTAL FREE ENERGY PREDICTED BY IDOCK:   -3.26 KCAL/MOL
REMARK 923 INTER-LIGAND FREE ENERGY PREDICTED BY IDOCK:   -4.12 KCAL/MOL
REMARK 924 INTRA-LIGAND FREE ENERGY PREDICTED BY IDOCK:    0.86 KCAL/MOL
REMARK 927      BINDING AFFINITY PREDICTED BY RF-SCORE:    0.00 PKD
ROOT
HETATM    1  C   UNL     1      -9.522   7.845  65.902  1.00  0.00     0.070 C  
HETATM    2  O   UNL     1      -9.662   8.372  67.225  1.00  0.00    -0.160 OA 
ENDROOT
BRANCH   2   3
HETATM    3  C   UNL     1      -9.251   9.668  67.413  1.00  0.00    -0.130 A  
HETATM    4  C   UNL     1      -9.889  10.703  66.760  1.00  0.00    -0.240 A  
HETATM    5  C   UNL     1      -9.543  12.063  66.931  1.00  0.00    -0.209 A  
HETATM    6  C   UNL     1      -8.487  12.442  67.789  1.00  0.00    -0.169 A  
HETATM    7  C   UNL     1      -7.744  11.345  68.376  1.00  0.00    -0.127 A  
HETATM    8  C   UNL     1      -8.200  13.924  68.165  1.00  0.00    -0.158 C  
HETATM    9  C   UNL     1      -8.133   9.963  68.199  1.00  0.00    -0.104 A  
HETATM   10  C   UNL     1      -7.999  14.124  69.496  1.00  0.00     0.402 C  
HETATM   11  C   UNL     1     -10.564  14.335  66.552  1.00  0.00    -0.286 C  
HETATM   12  C   UNL     1     -10.400  12.932  66.057  1.00  0.00    -0.294 C  
HETATM   13  C   UNL     1      -9.310  15.090  66.112  1.00  0.00    -0.292 C  
HETATM   14  C   UNL     1      -7.656  15.425  70.066  1.00  0.00     0.154 C  
HETATM   15  C   UNL     1      -8.288  15.155  67.246  1.00  0.00    -0.225 C  
HETATM   16  C   UNL     1      -6.473  15.927  69.659  1.00  0.00    -0.186 C  
HETATM   17  C   UNL     1      -6.584  16.741  68.416  1.00  0.00    -0.149 C  
HETATM   18  O   UNL     1      -5.917  17.757  68.239  1.00  0.00    -0.162 OA 
HETATM   19  C   UNL     1      -7.558  16.293  67.368  1.00  0.00    -0.183 C  
BRANCH   7  20
HETATM   20  O   UNL     1      -6.600  11.712  69.075  1.00  0.00    -0.076 OA 
HETATM   21  C   UNL     1      -5.363  11.748  68.362  1.00  0.00    -0.042 C  
ENDBRANCH   7  20
BRANCH   9  22
HETATM   22  O   UNL     1      -7.318   8.999  68.727  1.00  0.00    -0.074 OA 
HETATM   23  C   UNL     1      -7.644   8.479  70.013  1.00  0.00    -0.064 C  
ENDBRANCH   9  22
BRANCH  16  24
HETATM   24  O   UNL     1      -5.212  15.460  69.950  1.00  0.00    -0.097 OA 
HETATM   25  C   UNL     1      -5.139  14.339  70.819  1.00  0.00    -0.112 C  
ENDBRANCH  16  24
BRANCH  13  26
HETATM   26  N   UNL     1      -9.775  16.363  65.544  1.00  0.00    -0.109 N  
HETATM   27  C   UNL     1     -10.367  17.254  66.438  1.00  0.00    -0.316 C  
HETATM   28  H   UNL     1      -9.671  16.583  64.553  1.00  0.00     0.000 HD 
HETATM   29  O   UNL     1     -10.727  16.921  67.567  1.00  0.00    -0.329 OA 
HETATM   30  C   UNL     1     -10.495  18.686  65.998  1.00  0.00    -0.456 C  
ENDBRANCH  13  26
ENDBRANCH   2   3
TORSDOF 5
ENDMDL
MODEL      113
REMARK 921   NORMALIZED FREE ENERGY PREDICTED BY IDOCK:   -1.96 KCAL/MOL
REMARK 922        TOTAL FREE ENERGY PREDICTED BY IDOCK:   -3.21 KCAL/MOL
REMARK 923 INTER-LIGAND FREE ENERGY PREDICTED BY IDOCK:   -3.65 KCAL/MOL
REMARK 924 INTRA-LIGAND FREE ENERGY PREDICTED BY IDOCK:    0.44 KCAL/MOL
REMARK 927      BINDING AFFINITY PREDICTED BY RF-SCORE:    0.00 PKD
ROOT
HETATM    1  C   UNL     1     -10.085   4.122  72.430  1.00  0.00    -0.177 C  
HETATM    2  O   UNL     1      -8.828   4.232  71.758  1.00  0.00    -0.111 OA 
ENDROOT
BRANCH   2   3
HETATM    3  C   UNL     1      -8.763   5.136  70.727  1.00  0.00    -0.129 A  
HETATM    4  C   UNL     1      -8.629   6.484  70.988  1.00  0.00    -0.134 A  
HETATM    5  C   UNL     1      -8.522   7.466  69.978  1.00  0.00    -0.138 A  
HETATM    6  C   UNL     1      -8.566   7.112  68.611  1.00  0.00    -0.124 A  
HETATM    7  C   UNL     1      -8.829   5.712  68.344  1.00  0.00    -0.108 A  
HETATM    8  C   UNL     1      -8.253   8.122  67.470  1.00  0.00    -0.123 C  
HETATM    9  C   UNL     1      -8.915   4.725  69.398  1.00  0.00    -0.094 A  
HETATM   10  C   UNL     1      -7.407   7.635  66.522  1.00  0.00    -0.087 C  
HETATM   11  C   UNL     1      -7.732   9.846  69.731  1.00  0.00    -0.159 C  
HETATM   12  C   UNL     1      -8.423   8.834  70.590  1.00  0.00    -0.193 C  
HETATM   13  C   UNL     1      -8.777  10.344  68.734  1.00  0.00    -0.146 C  
HETATM   14  C   UNL     1      -7.022   8.389  65.331  1.00  0.00    -0.074 C  
HETATM   15  C   UNL     1      -8.652   9.606  67.401  1.00  0.00    -0.125 C  
HETATM   16  C   UNL     1      -8.037   8.675  64.491  1.00  0.00    -0.162 C  
HETATM   17  C   UNL     1      -8.718   9.959  64.821  1.00  0.00    -0.189 C  
HETATM   18  O   UNL     1      -9.135  10.719  63.950  1.00  0.00    -0.190 OA 
HETATM   19  C   UNL     1      -8.877  10.318  66.267  1.00  0.00    -0.161 C  
BRANCH   7  20
HETATM   20  O   UNL     1      -9.049   5.395  67.009  1.00  0.00    -0.113 OA 
HETATM   21  C   UNL     1     -10.384   5.482  66.511  1.00  0.00    -0.256 C  
ENDBRANCH   7  20
BRANCH   9  22
HETATM   22  O   UNL     1      -9.246   3.445  69.048  1.00  0.00    -0.134 OA 
HETATM   23  C   UNL     1      -8.199   2.570  68.641  1.00  0.00    -0.056 C  
ENDBRANCH   9  22
BRANCH  16  24
HETATM   24  O   UNL     1      -8.762   7.802  63.713  1.00  0.00     0.295 OA 
HETATM   25  C   UNL     1      -8.399   7.726  62.342  1.00  0.00    -0.081 C  
ENDBRANCH  16  24
BRANCH  13  26
HETATM   26  N   UNL     1      -8.661  11.809  68.713  1.00  0.00    -0.361 N  
HETATM   27  C   UNL     1      -7.420  12.320  68.338  1.00  0.00    -0.122 C  
HETATM   28  H   UNL     1      -9.444  12.416  68.958  1.00  0.00     0.000 HD 
HETATM   29  O   UNL     1      -6.405  11.626  68.281  1.00  0.00    -0.049 OA 
HETATM   30  C   UNL     1      -7.369  13.766  67.929  1.00  0.00    -0.155 C  
ENDBRANCH  13  26
ENDBRANCH   2   3
TORSDOF 5
ENDMDL
MODEL      114
REMARK 921   NORMALIZED FREE ENERGY PREDICTED BY IDOCK:   -1.91 KCAL/MOL
REMARK 922        TOTAL FREE ENERGY PREDICTED BY IDOCK:   -3.15 KCAL/MOL
REMARK 923 INTER-LIGAND FREE ENERGY PREDICTED BY IDOCK:   -3.68 KCAL/MOL
REMARK 924 INTRA-LIGAND FREE ENERGY PREDICTED BY IDOCK:    0.53 KCAL/MOL
REMARK 927      BINDING AFFINITY PREDICTED BY RF-SCORE:    0.00 PKD
ROOT
HETATM    1  C   UNL     1      -7.494   3.832  63.630  1.00  0.00    -0.058 C  
HETATM    2  O   UNL     1      -6.658   3.801  64.789  1.00  0.00    -0.040 OA 
ENDROOT
BRANCH   2   3
HETATM    3  C   UNL     1      -7.155   4.404  65.918  1.00  0.00    -0.071 A  
HETATM    4  C   UNL     1      -7.359   3.670  67.068  1.00  0.00    -0.068 A  
HETATM    5  C   UNL     1      -7.835   4.231  68.275  1.00  0.00    -0.075 A  
HETATM    6  C   UNL     1      -8.152   5.604  68.364  1.00  0.00    -0.103 A  
HETATM    7  C   UNL     1      -8.052   6.343  67.121  1.00  0.00    -0.113 A  
HETATM    8  C   UNL     1      -8.485   6.305  69.712  1.00  0.00    -0.126 C  
HETATM    9  C   UNL     1      -7.542   5.748  65.905  1.00  0.00    -0.086 A  
HETATM   10  C   UNL     1      -7.832   7.485  69.894  1.00  0.00    -0.107 C  
HETATM   11  C   UNL     1      -7.888   3.665  70.730  1.00  0.00    -0.050 C  
HETATM   12  C   UNL     1      -7.979   3.165  69.323  1.00  0.00    -0.058 C  
HETATM   13  C   UNL     1      -9.269   4.222  71.075  1.00  0.00    -0.140 C  
HETATM   14  C   UNL     1      -8.037   8.340  71.061  1.00  0.00    -0.118 C  
HETATM   15  C   UNL     1      -9.308   5.738  70.882  1.00  0.00    -0.185 C  
HETATM   16  C   UNL     1      -9.283   8.840  71.185  1.00  0.00    -0.237 C  
HETATM   17  C   UNL     1     -10.194   7.942  71.950  1.00  0.00    -0.202 C  
HETATM   18  O   UNL     1     -11.043   8.380  72.723  1.00  0.00    -0.327 OA 
HETATM   19  C   UNL     1     -10.042   6.463  71.764  1.00  0.00    -0.206 C  
BRANCH   7  20
HETATM   20  O   UNL     1      -8.531   7.647  67.167  1.00  0.00    -0.119 OA 
HETATM   21  C   UNL     1      -7.578   8.709  67.198  1.00  0.00    -0.092 C  
ENDBRANCH   7  20
BRANCH   9  22
HETATM   22  O   UNL     1      -7.564   6.506  64.767  1.00  0.00    -0.084 OA 
HETATM   23  C   UNL     1      -6.359   7.157  64.373  1.00  0.00    -0.037 C  
ENDBRANCH   9  22
BRANCH  16  24
HETATM   24  O   UNL     1      -9.904   9.770  70.384  1.00  0.00    -0.259 OA 
HETATM   25  C   UNL     1     -10.859   9.270  69.459  1.00  0.00    -0.195 C  
ENDBRANCH  16  24
BRANCH  13  26
HETATM   26  N   UNL     1      -9.603   3.698  72.406  1.00  0.00    -0.132 N  
HETATM   27  C   UNL     1      -9.958   2.350  72.462  1.00  0.00    -0.150 C  
HETATM   28  H   UNL     1      -9.578   4.284  73.240  1.00  0.00     0.000 HD 
HETATM   29  O   UNL     1     -10.235   1.694  71.459  1.00  0.00    -0.120 OA 
HETATM   30  C   UNL     1      -9.924   1.687  73.811  1.00  0.00    -0.121 C  
ENDBRANCH  13  26
ENDBRANCH   2   3
TORSDOF 5
ENDMDL
MODEL      115
REMARK 921   NORMALIZED FREE ENERGY PREDICTED BY IDOCK:   -1.88 KCAL/MOL
REMARK 922        TOTAL FREE ENERGY PREDICTED BY IDOCK:   -3.11 KCAL/MOL
REMARK 923 INTER-LIGAND FREE ENERGY PREDICTED BY IDOCK:   -3.80 KCAL/MOL
REMARK 924 INTRA-LIGAND FREE ENERGY PREDICTED BY IDOCK:    0.69 KCAL/MOL
REMARK 927      BINDING AFFINITY PREDICTED BY RF-SCORE:    0.00 PKD
ROOT
HETATM    1  C   UNL     1      -5.137   3.541  67.828  1.00  0.00    -0.008 C  
HETATM    2  O   UNL     1      -6.395   3.696  67.166  1.00  0.00    -0.035 OA 
ENDROOT
BRANCH   2   3
HETATM    3  C   UNL     1      -7.048   4.887  67.365  1.00  0.00    -0.066 A  
HETATM    4  C   UNL     1      -7.101   5.829  66.358  1.00  0.00    -0.072 A  
HETATM    5  C   UNL     1      -7.784   7.061  66.480  1.00  0.00    -0.104 A  
HETATM    6  C   UNL     1      -8.448   7.409  67.676  1.00  0.00    -0.120 A  
HETATM    7  C   UNL     1      -8.285   6.471  68.769  1.00  0.00    -0.119 A  
HETATM    8  C   UNL     1      -9.375   8.653  67.792  1.00  0.00    -0.157 C  
HETATM    9  C   UNL     1      -7.598   5.208  68.610  1.00  0.00    -0.078 A  
HETATM   10  C   UNL     1     -10.565   8.396  68.401  1.00  0.00    -0.155 C  
HETATM   11  C   UNL     1      -8.722   8.858  64.983  1.00  0.00    -0.200 C  
HETATM   12  C   UNL     1      -7.624   7.871  65.226  1.00  0.00    -0.090 C  
HETATM   13  C   UNL     1      -8.394  10.079  65.840  1.00  0.00    -0.127 C  
HETATM   14  C   UNL     1     -11.564   9.428  68.669  1.00  0.00     0.649 C  
HETATM   15  C   UNL     1      -9.161  10.040  67.161  1.00  0.00    -0.161 C  
HETATM   16  C   UNL     1     -11.166  10.394  69.521  1.00  0.00    -0.269 C  
HETATM   17  C   UNL     1     -10.490  11.531  68.834  1.00  0.00    -0.187 C  
HETATM   18  O   UNL     1     -10.642  12.695  69.196  1.00  0.00    -0.106 OA 
HETATM   19  C   UNL     1      -9.611  11.219  67.661  1.00  0.00    -0.180 C  
BRANCH   7  20
HETATM   20  O   UNL     1      -8.786   6.896  69.994  1.00  0.00    -0.141 OA 
HETATM   21  C   UNL     1      -7.865   7.428  70.946  1.00  0.00    -0.096 C  
ENDBRANCH   7  20
BRANCH   9  22
HETATM   22  O   UNL     1      -7.427   4.430  69.723  1.00  0.00    -0.050 OA 
HETATM   23  C   UNL     1      -8.476   3.537  70.081  1.00  0.00    -0.059 C  
ENDBRANCH   9  22
BRANCH  16  24
HETATM   24  O   UNL     1     -10.912  10.281  70.868  1.00  0.00    -0.281 OA 
HETATM   25  C   UNL     1     -11.942   9.705  71.658  1.00  0.00    -0.394 C  
ENDBRANCH  16  24
BRANCH  13  26
HETATM   26  N   UNL     1      -8.588  11.253  64.977  1.00  0.00    -0.377 N  
HETATM   27  C   UNL     1      -9.887  11.466  64.518  1.00  0.00    -0.260 C  
HETATM   28  H   UNL     1      -7.818  11.874  64.728  1.00  0.00     0.000 HD 
HETATM   29  O   UNL     1     -10.768  10.611  64.593  1.00  0.00    -0.234 OA 
HETATM   30  C   UNL     1     -10.206  12.832  63.974  1.00  0.00    -0.323 C  
ENDBRANCH  13  26
ENDBRANCH   2   3
TORSDOF 5
ENDMDL
MODEL      116
REMARK 921   NORMALIZED FREE ENERGY PREDICTED BY IDOCK:   -1.71 KCAL/MOL
REMARK 922        TOTAL FREE ENERGY PREDICTED BY IDOCK:   -2.90 KCAL/MOL
REMARK 923 INTER-LIGAND FREE ENERGY PREDICTED BY IDOCK:   -4.55 KCAL/MOL
REMARK 924 INTRA-LIGAND FREE ENERGY PREDICTED BY IDOCK:    1.66 KCAL/MOL
REMARK 927      BINDING AFFINITY PREDICTED BY RF-SCORE:    0.00 PKD
ROOT
HETATM    1  C   UNL     1     -11.361  10.149  69.614  1.00  0.00    -0.235 C  
HETATM    2  O   UNL     1     -12.247  11.271  69.622  1.00  0.00    -0.309 OA 
ENDROOT
BRANCH   2   3
HETATM    3  C   UNL     1     -11.677  12.503  69.421  1.00  0.00    -0.322 A  
HETATM    4  C   UNL     1     -10.500  12.618  68.710  1.00  0.00    -0.167 A  
HETATM    5  C   UNL     1      -9.874  13.855  68.435  1.00  0.00    -0.229 A  
HETATM    6  C   UNL     1     -10.425  15.069  68.903  1.00  0.00    -0.241 A  
HETATM    7  C   UNL     1     -11.592  14.931  69.752  1.00  0.00    -0.303 A  
HETATM    8  C   UNL     1      -9.890  16.461  68.461  1.00  0.00    -0.231 C  
HETATM    9  C   UNL     1     -12.223  13.653  69.999  1.00  0.00    -0.329 A  
HETATM   10  C   UNL     1     -10.867  17.335  68.098  1.00  0.00    -0.294 C  
HETATM   11  C   UNL     1      -8.173  14.799  66.834  1.00  0.00    -0.144 C  
HETATM   12  C   UNL     1      -8.599  13.636  67.674  1.00  0.00    -0.185 C  
HETATM   13  C   UNL     1      -7.468  15.772  67.778  1.00  0.00    -0.144 C  
HETATM   14  C   UNL     1     -10.598  18.717  67.705  1.00  0.00    -0.458 C  
HETATM   15  C   UNL     1      -8.424  16.871  68.240  1.00  0.00    -0.229 C  
HETATM   16  C   UNL     1     -10.062  19.487  68.673  1.00  0.00    -0.442 C  
HETATM   17  C   UNL     1      -8.573  19.431  68.701  1.00  0.00    -0.358 C  
HETATM   18  O   UNL     1      -7.888  20.419  68.954  1.00  0.00     0.181 OA 
HETATM   19  C   UNL     1      -7.914  18.120  68.397  1.00  0.00    -0.312 C  
BRANCH   7  20
HETATM   20  O   UNL     1     -12.028  16.105  70.354  1.00  0.00    -0.280 OA 
HETATM   21  C   UNL     1     -11.901  16.216  71.772  1.00  0.00    -0.506 C  
ENDBRANCH   7  20
BRANCH   9  22
HETATM   22  O   UNL     1     -13.271  13.619  70.879  1.00  0.00    -0.184 OA 
HETATM   23  C   UNL     1     -13.126  12.839  72.061  1.00  0.00    -0.369 C  
ENDBRANCH   9  22
BRANCH  16  24
HETATM   24  O   UNL     1     -10.660  19.926  69.832  1.00  0.00     0.240 OA 
HETATM   25  C   UNL     1     -10.005  19.590  71.046  1.00  0.00     2.116 C  
ENDBRANCH  16  24
BRANCH  13  26
HETATM   26  N   UNL     1      -6.234  16.186  67.096  1.00  0.00    -0.152 N  
HETATM   27  C   UNL     1      -6.374  17.177  66.126  1.00  0.00     0.003 C  
HETATM   28  H   UNL     1      -5.328  15.773  67.320  1.00  0.00     0.000 HD 
HETATM   29  O   UNL     1      -7.467  17.509  65.667  1.00  0.00    -0.462 OA 
HETATM   30  C   UNL     1      -5.125  17.896  65.695  1.00  0.00    -0.209 C  
ENDBRANCH  13  26
ENDBRANCH   2   3
TORSDOF 5
ENDMDL
MODEL      117
REMARK 921   NORMALIZED FREE ENERGY PREDICTED BY IDOCK:   -1.70 KCAL/MOL
REMARK 922        TOTAL FREE ENERGY PREDICTED BY IDOCK:   -2.88 KCAL/MOL
REMARK 923 INTER-LIGAND FREE ENERGY PREDICTED BY IDOCK:   -3.70 KCAL/MOL
REMARK 924 INTRA-LIGAND FREE ENERGY PREDICTED BY IDOCK:    0.82 KCAL/MOL
REMARK 927      BINDING AFFINITY PREDICTED BY RF-SCORE:    0.00 PKD
ROOT
HETATM    1  C   UNL     1      -9.370   2.357  65.431  1.00  0.00    -0.022 C  
HETATM    2  O   UNL     1      -9.757   3.713  65.192  1.00  0.00    -0.172 OA 
ENDROOT
BRANCH   2   3
HETATM    3  C   UNL     1      -9.343   4.639  66.117  1.00  0.00    -0.153 A  
HETATM    4  C   UNL     1      -9.917   5.893  66.152  1.00  0.00    -0.039 A  
HETATM    5  C   UNL     1      -9.565   6.884  67.097  1.00  0.00    -0.182 A  
HETATM    6  C   UNL     1      -8.569   6.642  68.068  1.00  0.00    -0.118 A  
HETATM    7  C   UNL     1      -7.886   5.369  67.948  1.00  0.00    -0.092 A  
HETATM    8  C   UNL     1      -8.288   7.617  69.247  1.00  0.00    -0.134 C  
HETATM    9  C   UNL     1      -8.281   4.366  66.984  1.00  0.00    -0.101 A  
HETATM   10  C   UNL     1      -8.181   7.002  70.456  1.00  0.00    -0.123 C  
HETATM   11  C   UNL     1     -10.523   9.010  68.053  1.00  0.00    -0.270 C  
HETATM   12  C   UNL     1     -10.344   8.143  66.846  1.00  0.00    -0.401 C  
HETATM   13  C   UNL     1      -9.230   9.812  68.196  1.00  0.00    -0.128 C  
HETATM   14  C   UNL     1      -7.862   7.715  71.690  1.00  0.00    -0.089 C  
HETATM   15  C   UNL     1      -8.291   9.155  69.208  1.00  0.00    -0.123 C  
HETATM   16  C   UNL     1      -6.645   8.295  71.711  1.00  0.00    -0.064 C  
HETATM   17  C   UNL     1      -6.655   9.682  71.165  1.00  0.00     0.021 C  
HETATM   18  O   UNL     1      -5.961  10.576  71.643  1.00  0.00    -0.309 OA 
HETATM   19  C   UNL     1      -7.556   9.973  70.003  1.00  0.00    -0.182 C  
BRANCH   7  20
HETATM   20  O   UNL     1      -6.790   5.203  68.788  1.00  0.00    -0.049 OA 
HETATM   21  C   UNL     1      -5.496   5.506  68.266  1.00  0.00    -0.008 C  
ENDBRANCH   7  20
BRANCH   9  22
HETATM   22  O   UNL     1      -7.521   3.231  66.897  1.00  0.00    -0.073 OA 
HETATM   23  C   UNL     1      -7.561   2.314  67.986  1.00  0.00    -0.055 C  
ENDBRANCH   9  22
BRANCH  16  24
HETATM   24  O   UNL     1      -5.416   7.679  71.741  1.00  0.00    -0.035 OA 
HETATM   25  C   UNL     1      -5.172   6.810  72.837  1.00  0.00    -0.037 C  
ENDBRANCH  16  24
BRANCH  13  26
HETATM   26  N   UNL     1      -9.634  11.202  68.447  1.00  0.00    -0.185 N  
HETATM   27  C   UNL     1      -9.143  12.153  67.553  1.00  0.00    -0.180 C  
HETATM   28  H   UNL     1     -10.238  11.457  69.228  1.00  0.00     0.000 HD 
HETATM   29  O   UNL     1      -8.227  11.916  66.766  1.00  0.00    -0.170 OA 
HETATM   30  C   UNL     1      -9.827  13.492  67.532  1.00  0.00    -0.227 C  
ENDBRANCH  13  26
ENDBRANCH   2   3
TORSDOF 5
ENDMDL
MODEL      118
REMARK 921   NORMALIZED FREE ENERGY PREDICTED BY IDOCK:   -1.63 KCAL/MOL
REMARK 922        TOTAL FREE ENERGY PREDICTED BY IDOCK:   -2.80 KCAL/MOL
REMARK 923 INTER-LIGAND FREE ENERGY PREDICTED BY IDOCK:   -3.83 KCAL/MOL
REMARK 924 INTRA-LIGAND FREE ENERGY PREDICTED BY IDOCK:    1.04 KCAL/MOL
REMARK 927      BINDING AFFINITY PREDICTED BY RF-SCORE:    0.00 PKD
ROOT
HETATM    1  C   UNL     1      -7.471   4.832  72.122  1.00  0.00    -0.083 C  
HETATM    2  O   UNL     1      -7.149   6.226  72.126  1.00  0.00    -0.076 OA 
ENDROOT
BRANCH   2   3
HETATM    3  C   UNL     1      -7.564   6.953  71.038  1.00  0.00    -0.087 A  
HETATM    4  C   UNL     1      -7.751   6.336  69.818  1.00  0.00    -0.105 A  
HETATM    5  C   UNL     1      -8.209   7.014  68.665  1.00  0.00    -0.122 A  
HETATM    6  C   UNL     1      -8.490   8.397  68.698  1.00  0.00    -0.128 A  
HETATM    7  C   UNL     1      -8.175   9.062  69.947  1.00  0.00    -0.124 A  
HETATM    8  C   UNL     1      -9.182   9.144  67.522  1.00  0.00    -0.144 C  
HETATM    9  C   UNL     1      -7.726   8.340  71.117  1.00  0.00    -0.094 A  
HETATM   10  C   UNL     1     -10.197   9.962  67.911  1.00  0.00    -0.234 C  
HETATM   11  C   UNL     1      -9.255   6.463  66.440  1.00  0.00    -0.176 C  
HETATM   12  C   UNL     1      -8.272   6.071  67.498  1.00  0.00    -0.106 C  
HETATM   13  C   UNL     1      -8.557   7.517  65.580  1.00  0.00    -0.083 C  
HETATM   14  C   UNL     1     -10.947  10.803  66.982  1.00  0.00    -0.292 C  
HETATM   15  C   UNL     1      -8.956   8.926  66.016  1.00  0.00    -0.235 C  
HETATM   16  C   UNL     1     -10.218  11.755  66.364  1.00  0.00    -0.215 C  
HETATM   17  C   UNL     1      -9.597  11.278  65.096  1.00  0.00    -0.235 C  
HETATM   18  O   UNL     1      -9.495  12.001  64.108  1.00  0.00    -0.046 OA 
HETATM   19  C   UNL     1      -9.101   9.865  65.045  1.00  0.00    -0.264 C  
BRANCH   7  20
HETATM   20  O   UNL     1      -8.283  10.447  69.924  1.00  0.00    -0.110 OA 
HETATM   21  C   UNL     1      -7.093  11.207  69.710  1.00  0.00    -0.003 C  
ENDBRANCH   7  20
BRANCH   9  22
HETATM   22  O   UNL     1      -7.379   9.068  72.222  1.00  0.00    -0.337 OA 
HETATM   23  C   UNL     1      -6.003   9.122  72.582  1.00  0.00     0.053 C  
ENDBRANCH   9  22
BRANCH  16  24
HETATM   24  O   UNL     1      -9.642  12.872  66.922  1.00  0.00    -0.226 OA 
HETATM   25  C   UNL     1      -8.721  12.647  67.979  1.00  0.00    -0.190 C  
ENDBRANCH  16  24
BRANCH  13  26
HETATM   26  N   UNL     1      -8.810   7.140  64.182  1.00  0.00     0.094 N  
HETATM   27  C   UNL     1      -7.908   6.240  63.617  1.00  0.00    -0.113 C  
HETATM   28  H   UNL     1      -9.600   7.515  63.656  1.00  0.00     0.000 HD 
HETATM   29  O   UNL     1      -6.825   5.970  64.136  1.00  0.00    -0.043 OA 
HETATM   30  C   UNL     1      -8.336   5.538  62.358  1.00  0.00    -0.110 C  
ENDBRANCH  13  26
ENDBRANCH   2   3
TORSDOF 5
ENDMDL
MODEL      119
REMARK 921   NORMALIZED FREE ENERGY PREDICTED BY IDOCK:   -1.63 KCAL/MOL
REMARK 922        TOTAL FREE ENERGY PREDICTED BY IDOCK:   -2.79 KCAL/MOL
REMARK 923 INTER-LIGAND FREE ENERGY PREDICTED BY IDOCK:   -3.33 KCAL/MOL
REMARK 924 INTRA-LIGAND FREE ENERGY PREDICTED BY IDOCK:    0.55 KCAL/MOL
REMARK 927      BINDING AFFINITY PREDICTED BY RF-SCORE:    0.00 PKD
ROOT
HETATM    1  C   UNL     1      -9.443   3.655  66.960  1.00  0.00    -0.190 C  
HETATM    2  O   UNL     1      -9.359   4.684  65.970  1.00  0.00    -0.137 OA 
ENDROOT
BRANCH   2   3
HETATM    3  C   UNL     1      -9.095   5.951  66.427  1.00  0.00    -0.149 A  
HETATM    4  C   UNL     1     -10.129   6.829  66.683  1.00  0.00    -0.205 A  
HETATM    5  C   UNL     1      -9.934   8.136  67.186  1.00  0.00    -0.304 A  
HETATM    6  C   UNL     1      -8.636   8.630  67.444  1.00  0.00    -0.134 A  
HETATM    7  C   UNL     1      -7.552   7.749  67.058  1.00  0.00    -0.100 A  
HETATM    8  C   UNL     1      -8.380   9.976  68.181  1.00  0.00    -0.113 C  
HETATM    9  C   UNL     1      -7.781   6.409  66.564  1.00  0.00    -0.099 A  
HETATM   10  C   UNL     1      -7.441   9.894  69.163  1.00  0.00    -0.087 C  
HETATM   11  C   UNL     1     -11.266   9.932  68.348  1.00  0.00    -0.134 C  
HETATM   12  C   UNL     1     -11.251   8.843  67.321  1.00  0.00     0.682 C  
HETATM   13  C   UNL     1     -10.650  11.159  67.677  1.00  0.00    -0.211 C  
HETATM   14  C   UNL     1      -7.000  11.046  69.945  1.00  0.00    -0.055 C  
HETATM   15  C   UNL     1      -9.169  11.288  68.032  1.00  0.00    -0.160 C  
HETATM   16  C   UNL     1      -6.385  12.012  69.232  1.00  0.00    -0.102 C  
HETATM   17  C   UNL     1      -7.335  13.020  68.682  1.00  0.00    -0.097 C  
HETATM   18  O   UNL     1      -7.054  14.214  68.616  1.00  0.00    -0.096 OA 
HETATM   19  C   UNL     1      -8.674  12.539  68.210  1.00  0.00    -0.171 C  
BRANCH   7  20
HETATM   20  O   UNL     1      -6.280   8.303  67.145  1.00  0.00    -0.053 OA 
HETATM   21  C   UNL     1      -5.679   8.791  65.946  1.00  0.00    -0.046 C  
ENDBRANCH   7  20
BRANCH   9  22
HETATM   22  O   UNL     1      -6.694   5.687  66.152  1.00  0.00    -0.053 OA 
HETATM   23  C   UNL     1      -6.004   4.905  67.121  1.00  0.00    -0.027 C  
ENDBRANCH   9  22
BRANCH  16  24
HETATM   24  O   UNL     1      -5.159  11.954  68.612  1.00  0.00    -0.047 OA 
HETATM   25  C   UNL     1      -5.170  11.908  67.193  1.00  0.00    -0.112 C  
ENDBRANCH  16  24
BRANCH  13  26
HETATM   26  N   UNL     1     -11.528  12.291  68.004  1.00  0.00    -0.298 N  
HETATM   27  C   UNL     1     -11.883  12.423  69.346  1.00  0.00    -0.304 C  
HETATM   28  H   UNL     1     -11.859  12.942  67.292  1.00  0.00     0.000 HD 
HETATM   29  O   UNL     1     -11.709  11.526  70.171  1.00  0.00    -0.317 OA 
HETATM   30  C   UNL     1     -12.437  13.751  69.781  1.00  0.00    -0.216 C  
ENDBRANCH  13  26
ENDBRANCH   2   3
TORSDOF 5
ENDMDL
MODEL      120
REMARK 921   NORMALIZED FREE ENERGY PREDICTED BY IDOCK:   -1.57 KCAL/MOL
REMARK 922        TOTAL FREE ENERGY PREDICTED BY IDOCK:   -2.71 KCAL/MOL
REMARK 923 INTER-LIGAND FREE ENERGY PREDICTED BY IDOCK:   -3.17 KCAL/MOL
REMARK 924 INTRA-LIGAND FREE ENERGY PREDICTED BY IDOCK:    0.45 KCAL/MOL
REMARK 927      BINDING AFFINITY PREDICTED BY RF-SCORE:    0.00 PKD
ROOT
HETATM    1  C   UNL     1      -5.738   9.887  63.539  1.00  0.00    -0.109 C  
HETATM    2  O   UNL     1      -7.093   9.478  63.744  1.00  0.00    -0.100 OA 
ENDROOT
BRANCH   2   3
HETATM    3  C   UNL     1      -7.333   8.684  64.837  1.00  0.00    -0.090 A  
HETATM    4  C   UNL     1      -7.379   9.234  66.102  1.00  0.00    -0.095 A  
HETATM    5  C   UNL     1      -7.655   8.484  67.268  1.00  0.00    -0.097 A  
HETATM    6  C   UNL     1      -7.886   7.092  67.200  1.00  0.00    -0.110 A  
HETATM    7  C   UNL     1      -7.715   6.501  65.887  1.00  0.00    -0.090 A  
HETATM    8  C   UNL     1      -8.388   6.262  68.415  1.00  0.00    -0.115 C  
HETATM    9  C   UNL     1      -7.452   7.296  64.708  1.00  0.00    -0.093 A  
HETATM   10  C   UNL     1      -9.414   5.419  68.119  1.00  0.00    -0.142 C  
HETATM   11  C   UNL     1      -8.418   8.883  69.636  1.00  0.00    -0.129 C  
HETATM   12  C   UNL     1      -7.599   9.367  68.480  1.00  0.00    -0.081 C  
HETATM   13  C   UNL     1      -7.573   7.822  70.342  1.00  0.00    -0.087 C  
HETATM   14  C   UNL     1     -10.003   4.503  69.094  1.00  0.00    -0.169 C  
HETATM   15  C   UNL     1      -7.973   6.419  69.889  1.00  0.00    -0.116 C  
HETATM   16  C   UNL     1      -9.164   3.557  69.560  1.00  0.00    -0.154 C  
HETATM   17  C   UNL     1      -8.399   4.001  70.760  1.00  0.00    -0.070 C  
HETATM   18  O   UNL     1      -8.140   3.238  71.687  1.00  0.00    -0.057 OA 
HETATM   19  C   UNL     1      -7.953   5.430  70.819  1.00  0.00    -0.099 C  
BRANCH   7  20
HETATM   20  O   UNL     1      -7.766   5.113  65.852  1.00  0.00    -0.089 OA 
HETATM   21  C   UNL     1      -6.564   4.392  66.119  1.00  0.00    -0.042 C  
ENDBRANCH   7  20
BRANCH   9  22
HETATM   22  O   UNL     1      -7.227   6.636  63.531  1.00  0.00    -0.055 OA 
HETATM   23  C   UNL     1      -5.882   6.315  63.190  1.00  0.00    -0.026 C  
ENDBRANCH   9  22
BRANCH  16  24
HETATM   24  O   UNL     1      -8.625   2.493  68.875  1.00  0.00    -0.064 OA 
HETATM   25  C   UNL     1      -9.545   1.532  68.376  1.00  0.00    -0.145 C  
ENDBRANCH  16  24
BRANCH  13  26
HETATM   26  N   UNL     1      -7.653   8.122  71.778  1.00  0.00    -0.083 N  
HETATM   27  C   UNL     1      -8.933   8.135  72.330  1.00  0.00    -0.201 C  
HETATM   28  H   UNL     1      -6.822   8.308  72.338  1.00  0.00     0.000 HD 
HETATM   29  O   UNL     1      -9.954   8.162  71.643  1.00  0.00    -0.172 OA 
HETATM   30  C   UNL     1      -9.035   8.045  73.828  1.00  0.00    -0.288 C  
ENDBRANCH  13  26
ENDBRANCH   2   3
TORSDOF 5
ENDMDL
MODEL      121
REMARK 921   NORMALIZED FREE ENERGY PREDICTED BY IDOCK:   -1.36 KCAL/MOL
REMARK 922        TOTAL FREE ENERGY PREDICTED BY IDOCK:   -2.44 KCAL/MOL
REMARK 923 INTER-LIGAND FREE ENERGY PREDICTED BY IDOCK:   -5.32 KCAL/MOL
REMARK 924 INTRA-LIGAND FREE ENERGY PREDICTED BY IDOCK:    2.87 KCAL/MOL
REMARK 927      BINDING AFFINITY PREDICTED BY RF-SCORE:    0.00 PKD
ROOT
HETATM    1  C   UNL     1      -7.938   9.986  66.210  1.00  0.00    -0.111 C  
HETATM    2  O   UNL     1      -7.969  10.595  67.503  1.00  0.00    -0.109 OA 
ENDROOT
BRANCH   2   3
HETATM    3  C   UNL     1      -8.015  11.967  67.532  1.00  0.00    -0.155 A  
HETATM    4  C   UNL     1      -7.221  12.672  68.414  1.00  0.00    -0.111 A  
HETATM    5  C   UNL     1      -7.191  14.084  68.475  1.00  0.00    -0.109 A  
HETATM    6  C   UNL     1      -8.006  14.867  67.629  1.00  0.00    -0.184 A  
HETATM    7  C   UNL     1      -8.925  14.120  66.792  1.00  0.00    -0.208 A  
HETATM    8  C   UNL     1      -7.865  16.412  67.517  1.00  0.00    -0.167 C  
HETATM    9  C   UNL     1      -8.920  12.675  66.735  1.00  0.00    -0.197 A  
HETATM   10  C   UNL     1      -7.847  16.871  66.237  1.00  0.00    -0.346 C  
HETATM   11  C   UNL     1      -5.686  15.906  69.349  1.00  0.00    -0.123 C  
HETATM   12  C   UNL     1      -6.255  14.538  69.558  1.00  0.00    -0.120 C  
HETATM   13  C   UNL     1      -6.753  16.889  69.829  1.00  0.00     0.051 C  
HETATM   14  C   UNL     1      -7.780  18.291  65.898  1.00  0.00    -0.121 C  
HETATM   15  C   UNL     1      -7.582  17.408  68.655  1.00  0.00    -0.265 C  
HETATM   16  C   UNL     1      -8.840  19.020  66.302  1.00  0.00    -0.277 C  
HETATM   17  C   UNL     1      -8.678  19.562  67.681  1.00  0.00    -0.315 C  
HETATM   18  O   UNL     1      -9.086  20.677  67.996  1.00  0.00    -0.047 OA 
HETATM   19  C   UNL     1      -7.983  18.705  68.695  1.00  0.00    -0.356 C  
BRANCH   7  20
HETATM   20  O   UNL     1      -9.847  14.889  66.092  1.00  0.00    -0.272 OA 
HETATM   21  C   UNL     1     -11.060  15.247  66.755  1.00  0.00    -0.278 C  
ENDBRANCH   7  20
BRANCH   9  22
HETATM   22  O   UNL     1      -9.880  12.063  65.976  1.00  0.00    -0.228 OA 
HETATM   23  C   UNL     1     -11.158  11.842  66.564  1.00  0.00    -0.306 C  
ENDBRANCH   9  22
BRANCH  16  24
HETATM   24  O   UNL     1     -10.133  18.962  65.836  1.00  0.00    -0.506 OA 
HETATM   25  C   UNL     1     -10.863  20.180  65.848  1.00  0.00    -0.047 C  
ENDBRANCH  16  24
BRANCH  13  26
HETATM   26  N   UNL     1      -6.056  17.881  70.660  1.00  0.00     0.298 N  
HETATM   27  C   UNL     1      -5.540  18.988  69.988  1.00  0.00    -0.230 C  
HETATM   28  H   UNL     1      -5.955  17.766  71.668  1.00  0.00     0.000 HD 
HETATM   29  O   UNL     1      -5.429  19.031  68.763  1.00  0.00    -0.194 OA 
HETATM   30  C   UNL     1      -5.178  20.188  70.820  1.00  0.00    -0.283 C  
ENDBRANCH  13  26
ENDBRANCH   2   3
TORSDOF 5
ENDMDL
MODEL      122
REMARK 921   NORMALIZED FREE ENERGY PREDICTED BY IDOCK:   -1.17 KCAL/MOL
REMARK 922        TOTAL FREE ENERGY PREDICTED BY IDOCK:   -2.19 KCAL/MOL
REMARK 923 INTER-LIGAND FREE ENERGY PREDICTED BY IDOCK:   -1.90 KCAL/MOL
REMARK 924 INTRA-LIGAND FREE ENERGY PREDICTED BY IDOCK:   -0.29 KCAL/MOL
REMARK 927      BINDING AFFINITY PREDICTED BY RF-SCORE:    0.00 PKD
ROOT
HETATM    1  C   UNL     1      -8.809   4.619  66.004  1.00  0.00    -0.121 C  
HETATM    2  O   UNL     1      -8.629   4.889  67.397  1.00  0.00    -0.105 OA 
ENDROOT
BRANCH   2   3
HETATM    3  C   UNL     1      -9.231   6.022  67.884  1.00  0.00    -0.111 A  
HETATM    4  C   UNL     1      -9.292   7.164  67.112  1.00  0.00    -0.166 A  
HETATM    5  C   UNL     1      -9.926   8.355  67.534  1.00  0.00    -0.259 A  
HETATM    6  C   UNL     1     -10.529   8.447  68.808  1.00  0.00    -0.202 A  
HETATM    7  C   UNL     1     -10.354   7.287  69.659  1.00  0.00    -0.221 A  
HETATM    8  C   UNL     1     -11.407   9.657  69.238  1.00  0.00    -0.003 C  
HETATM    9  C   UNL     1      -9.719   6.073  69.193  1.00  0.00    -0.137 A  
HETATM   10  C   UNL     1     -12.579   9.302  69.831  1.00  0.00     1.116 C  
HETATM   11  C   UNL     1     -10.861  10.462  66.516  1.00  0.00    -0.098 C  
HETATM   12  C   UNL     1      -9.788   9.419  66.483  1.00  0.00    -0.325 C  
HETATM   13  C   UNL     1     -10.455  11.455  67.604  1.00  0.00    -0.194 C  
HETATM   14  C   UNL     1     -13.530  10.273  70.366  1.00  0.00     0.294 C  
HETATM   15  C   UNL     1     -11.170  11.143  68.919  1.00  0.00    -0.317 C  
HETATM   16  C   UNL     1     -13.065  11.017  71.390  1.00  0.00    -0.341 C  
HETATM   17  C   UNL     1     -12.377  12.260  70.939  1.00  0.00    -0.267 C  
HETATM   18  O   UNL     1     -12.474  13.319  71.555  1.00  0.00    -0.263 OA 
HETATM   19  C   UNL     1     -11.558  12.194  69.686  1.00  0.00    -0.361 C  
BRANCH   7  20
HETATM   20  O   UNL     1     -10.791   7.442  70.969  1.00  0.00    -0.234 OA 
HETATM   21  C   UNL     1      -9.882   8.004  71.915  1.00  0.00    -0.191 C  
ENDBRANCH   7  20
BRANCH   9  22
HETATM   22  O   UNL     1      -9.531   5.064  70.098  1.00  0.00    -0.145 OA 
HETATM   23  C   UNL     1      -9.956   3.754  69.737  1.00  0.00     0.198 C  
ENDBRANCH   9  22
BRANCH  16  24
HETATM   24  O   UNL     1     -12.761  10.601  72.666  1.00  0.00     0.387 OA 
HETATM   25  C   UNL     1     -13.538   9.531  73.183  1.00  0.00     0.918 C  
ENDBRANCH  16  24
BRANCH  13  26
HETATM   26  N   UNL     1     -10.643  12.795  67.030  1.00  0.00    -0.240 N  
HETATM   27  C   UNL     1      -9.539  13.342  66.379  1.00  0.00    -0.254 C  
HETATM   28  H   UNL     1     -11.529  13.295  67.103  1.00  0.00     0.000 HD 
HETATM   29  O   UNL     1      -8.404  12.878  66.490  1.00  0.00     0.059 OA 
HETATM   30  C   UNL     1      -9.791  14.504  65.458  1.00  0.00    -0.320 C  
ENDBRANCH  13  26
ENDBRANCH   2   3
TORSDOF 5
ENDMDL
MODEL      123
REMARK 921   NORMALIZED FREE ENERGY PREDICTED BY IDOCK:   -1.17 KCAL/MOL
REMARK 922        TOTAL FREE ENERGY PREDICTED BY IDOCK:   -2.19 KCAL/MOL
REMARK 923 INTER-LIGAND FREE ENERGY PREDICTED BY IDOCK:   -2.91 KCAL/MOL
REMARK 924 INTRA-LIGAND FREE ENERGY PREDICTED BY IDOCK:    0.71 KCAL/MOL
REMARK 927      BINDING AFFINITY PREDICTED BY RF-SCORE:    0.00 PKD
ROOT
HETATM    1  C   UNL     1     -10.756  10.837  63.199  1.00  0.00     0.433 C  
HETATM    2  O   UNL     1     -11.053  11.013  64.587  1.00  0.00    -0.182 OA 
ENDROOT
BRANCH   2   3
HETATM    3  C   UNL     1     -10.461  12.085  65.208  1.00  0.00    -0.284 A  
HETATM    4  C   UNL     1      -9.399  11.892  66.068  1.00  0.00    -0.215 A  
HETATM    5  C   UNL     1      -8.720  12.949  66.715  1.00  0.00    -0.112 A  
HETATM    6  C   UNL     1      -9.114  14.292  66.525  1.00  0.00    -0.212 A  
HETATM    7  C   UNL     1     -10.305  14.478  65.719  1.00  0.00    -0.331 A  
HETATM    8  C   UNL     1      -8.281  15.496  67.050  1.00  0.00    -0.275 C  
HETATM    9  C   UNL     1     -10.968  13.379  65.053  1.00  0.00    -0.316 A  
HETATM   10  C   UNL     1      -8.103  16.483  66.130  1.00  0.00    -0.242 C  
HETATM   11  C   UNL     1      -6.512  13.357  67.859  1.00  0.00    -0.151 C  
HETATM   12  C   UNL     1      -7.639  12.406  67.605  1.00  0.00    -0.141 C  
HETATM   13  C   UNL     1      -6.988  14.293  68.970  1.00  0.00    -0.112 C  
HETATM   14  C   UNL     1      -7.403  17.732  66.424  1.00  0.00    -0.310 C  
HETATM   15  C   UNL     1      -7.528  15.599  68.387  1.00  0.00    -0.120 C  
HETATM   16  C   UNL     1      -7.991  18.505  67.359  1.00  0.00    -0.239 C  
HETATM   17  C   UNL     1      -7.546  18.179  68.744  1.00  0.00    -0.274 C  
HETATM   18  O   UNL     1      -7.381  19.048  69.597  1.00  0.00    -0.059 OA 
HETATM   19  C   UNL     1      -7.285  16.742  69.078  1.00  0.00    -0.225 C  
BRANCH   7  20
HETATM   20  O   UNL     1     -10.795  15.778  65.678  1.00  0.00    -0.334 OA 
HETATM   21  C   UNL     1     -11.210  16.296  64.414  1.00  0.00    -0.107 C  
ENDBRANCH   7  20
BRANCH   9  22
HETATM   22  O   UNL     1     -12.130  13.647  64.382  1.00  0.00    -0.404 OA 
HETATM   23  C   UNL     1     -13.231  12.764  64.571  1.00  0.00     0.281 C  
ENDBRANCH   9  22
BRANCH  16  24
HETATM   24  O   UNL     1      -9.182  19.186  67.265  1.00  0.00    -0.285 OA 
HETATM   25  C   UNL     1      -9.596  19.556  65.958  1.00  0.00    -0.283 C  
ENDBRANCH  16  24
BRANCH  13  26
HETATM   26  N   UNL     1      -5.880  14.386  69.932  1.00  0.00    -0.113 N  
HETATM   27  C   UNL     1      -6.231  14.302  71.279  1.00  0.00     0.086 C  
HETATM   28  H   UNL     1      -4.913  14.504  69.633  1.00  0.00     0.000 HD 
HETATM   29  O   UNL     1      -7.393  14.409  71.672  1.00  0.00     1.823 OA 
HETATM   30  C   UNL     1      -5.129  14.000  72.257  1.00  0.00    -0.204 C  
ENDBRANCH  13  26
ENDBRANCH   2   3
TORSDOF 5
ENDMDL
MODEL      124
REMARK 921   NORMALIZED FREE ENERGY PREDICTED BY IDOCK:   -1.16 KCAL/MOL
REMARK 922        TOTAL FREE ENERGY PREDICTED BY IDOCK:   -2.19 KCAL/MOL
REMARK 923 INTER-LIGAND FREE ENERGY PREDICTED BY IDOCK:   -4.23 KCAL/MOL
REMARK 924 INTRA-LIGAND FREE ENERGY PREDICTED BY IDOCK:    2.04 KCAL/MOL
REMARK 927      BINDING AFFINITY PREDICTED BY RF-SCORE:    0.00 PKD
ROOT
HETATM    1  C   UNL     1      -7.194   9.329  64.001  1.00  0.00    -0.098 C  
HETATM    2  O   UNL     1      -6.416   8.488  64.857  1.00  0.00    -0.063 OA 
ENDROOT
BRANCH   2   3
HETATM    3  C   UNL     1      -7.005   8.104  66.036  1.00  0.00    -0.058 A  
HETATM    4  C   UNL     1      -6.263   7.468  67.010  1.00  0.00    -0.052 A  
HETATM    5  C   UNL     1      -6.793   7.075  68.260  1.00  0.00    -0.074 A  
HETATM    6  C   UNL     1      -8.150   7.302  68.579  1.00  0.00    -0.125 A  
HETATM    7  C   UNL     1      -8.951   7.858  67.506  1.00  0.00    -0.127 A  
HETATM    8  C   UNL     1      -8.730   7.073  70.004  1.00  0.00    -0.142 C  
HETATM    9  C   UNL     1      -8.378   8.269  66.244  1.00  0.00    -0.124 A  
HETATM   10  C   UNL     1      -9.507   8.097  70.451  1.00  0.00    -0.163 C  
HETATM   11  C   UNL     1      -5.960   6.454  70.556  1.00  0.00    -0.023 C  
HETATM   12  C   UNL     1      -5.741   6.381  69.077  1.00  0.00    -0.020 C  
HETATM   13  C   UNL     1      -6.973   5.359  70.890  1.00  0.00    -0.053 C  
HETATM   14  C   UNL     1     -10.200   8.070  71.737  1.00  0.00    -0.260 C  
HETATM   15  C   UNL     1      -8.386   5.935  70.980  1.00  0.00    -0.123 C  
HETATM   16  C   UNL     1     -11.138   7.108  71.855  1.00  0.00    -0.236 C  
HETATM   17  C   UNL     1     -10.588   5.822  72.368  1.00  0.00    -0.220 C  
HETATM   18  O   UNL     1     -11.219   5.104  73.140  1.00  0.00    -0.298 OA 
HETATM   19  C   UNL     1      -9.215   5.418  71.922  1.00  0.00    -0.155 C  
BRANCH   7  20
HETATM   20  O   UNL     1     -10.317   7.916  67.757  1.00  0.00    -0.205 OA 
HETATM   21  C   UNL     1     -11.118   6.803  67.360  1.00  0.00    -0.295 C  
ENDBRANCH   7  20
BRANCH   9  22
HETATM   22  O   UNL     1      -9.231   8.707  65.268  1.00  0.00    -0.117 OA 
HETATM   23  C   UNL     1      -9.835   9.986  65.432  1.00  0.00    -0.314 C  
ENDBRANCH   9  22
BRANCH  16  24
HETATM   24  O   UNL     1     -12.342   7.017  71.196  1.00  0.00    -0.359 OA 
HETATM   25  C   UNL     1     -13.378   7.874  71.653  1.00  0.00    -0.337 C  
ENDBRANCH  16  24
BRANCH  13  26
HETATM   26  N   UNL     1      -6.448   4.659  72.071  1.00  0.00    -0.025 N  
HETATM   27  C   UNL     1      -6.217   5.447  73.197  1.00  0.00    -0.055 C  
HETATM   28  H   UNL     1      -6.264   3.656  72.066  1.00  0.00     0.000 HD 
HETATM   29  O   UNL     1      -6.192   6.677  73.155  1.00  0.00    -0.057 OA 
HETATM   30  C   UNL     1      -6.063   4.735  74.513  1.00  0.00    -0.051 C  
ENDBRANCH  13  26
ENDBRANCH   2   3
TORSDOF 5
ENDMDL
MODEL      125
REMARK 921   NORMALIZED FREE ENERGY PREDICTED BY IDOCK:   -0.46 KCAL/MOL
REMARK 922        TOTAL FREE ENERGY PREDICTED BY IDOCK:   -1.28 KCAL/MOL
REMARK 923 INTER-LIGAND FREE ENERGY PREDICTED BY IDOCK:   -2.50 KCAL/MOL
REMARK 924 INTRA-LIGAND FREE ENERGY PREDICTED BY IDOCK:    1.22 KCAL/MOL
REMARK 927      BINDING AFFINITY PREDICTED BY RF-SCORE:    0.00 PKD
ROOT
HETATM    1  C   UNL     1      -8.397   9.269  66.139  1.00  0.00    -0.119 C  
HETATM    2  O   UNL     1      -8.542   9.879  67.424  1.00  0.00    -0.124 OA 
ENDROOT
BRANCH   2   3
HETATM    3  C   UNL     1      -8.407  11.244  67.472  1.00  0.00    -0.131 A  
HETATM    4  C   UNL     1      -9.288  12.056  66.787  1.00  0.00    -0.206 A  
HETATM    5  C   UNL     1      -9.231  13.468  66.819  1.00  0.00    -0.248 A  
HETATM    6  C   UNL     1      -8.231  14.140  67.556  1.00  0.00    -0.196 A  
HETATM    7  C   UNL     1      -7.237  13.282  68.172  1.00  0.00    -0.112 A  
HETATM    8  C   UNL     1      -8.244  15.678  67.785  1.00  0.00    -0.155 C  
HETATM    9  C   UNL     1      -7.332  11.839  68.140  1.00  0.00    -0.094 A  
HETATM   10  C   UNL     1      -8.012  16.044  69.075  1.00  0.00    -0.224 C  
HETATM   11  C   UNL     1     -10.733  15.432  66.334  1.00  0.00    -0.311 C  
HETATM   12  C   UNL     1     -10.304  14.052  65.946  1.00  0.00    -0.327 C  
HETATM   13  C   UNL     1      -9.698  16.384  65.736  1.00  0.00    -0.236 C  
HETATM   14  C   UNL     1      -7.921  17.437  69.506  1.00  0.00     0.530 C  
HETATM   15  C   UNL     1      -8.647  16.769  66.777  1.00  0.00    -0.264 C  
HETATM   16  C   UNL     1      -6.898  18.131  68.968  1.00  0.00    -0.250 C  
HETATM   17  C   UNL     1      -7.254  18.779  67.674  1.00  0.00    -0.216 C  
HETATM   18  O   UNL     1      -6.830  19.889  67.362  1.00  0.00    -0.210 OA 
HETATM   19  C   UNL     1      -8.170  18.039  66.747  1.00  0.00    -0.272 C  
BRANCH   7  20
HETATM   20  O   UNL     1      -6.158  13.944  68.746  1.00  0.00    -0.079 OA 
HETATM   21  C   UNL     1      -6.003  13.867  70.163  1.00  0.00    -0.152 C  
ENDBRANCH   7  20
BRANCH   9  22
HETATM   22  O   UNL     1      -6.302  11.120  68.681  1.00  0.00    -0.043 OA 
HETATM   23  C   UNL     1      -5.168  10.855  67.861  1.00  0.00    -0.039 C  
ENDBRANCH   9  22
BRANCH  16  24
HETATM   24  O   UNL     1      -5.552  17.965  69.196  1.00  0.00    -0.184 OA 
HETATM   25  C   UNL     1      -5.157  17.800  70.550  1.00  0.00    -0.266 C  
ENDBRANCH  16  24
BRANCH  13  26
HETATM   26  N   UNL     1     -10.456  17.472  65.103  1.00  0.00     0.171 N  
HETATM   27  C   UNL     1     -11.036  18.399  65.968  1.00  0.00     0.225 C  
HETATM   28  H   UNL     1     -10.553  17.545  64.090  1.00  0.00     0.000 HD 
HETATM   29  O   UNL     1     -11.146  18.201  67.178  1.00  0.00    -0.151 OA 
HETATM   30  C   UNL     1     -11.473  19.711  65.376  1.00  0.00     1.179 C  
ENDBRANCH  13  26
ENDBRANCH   2   3
TORSDOF 5
ENDMDL
MODEL      126
REMARK 921   NORMALIZED FREE ENERGY PREDICTED BY IDOCK:   -0.46 KCAL/MOL
REMARK 922        TOTAL FREE ENERGY PREDICTED BY IDOCK:   -1.28 KCAL/MOL
REMARK 923 INTER-LIGAND FREE ENERGY PREDICTED BY IDOCK:   -3.36 KCAL/MOL
REMARK 924 INTRA-LIGAND FREE ENERGY PREDICTED BY IDOCK:    2.08 KCAL/MOL
REMARK 927      BINDING AFFINITY PREDICTED BY RF-SCORE:    0.00 PKD
ROOT
HETATM    1  C   UNL     1     -12.078  16.326  72.113  1.00  0.00    -0.454 C  
HETATM    2  O   UNL     1     -11.332  15.107  72.060  1.00  0.00    -0.418 OA 
ENDROOT
BRANCH   2   3
HETATM    3  C   UNL     1     -11.282  14.474  70.843  1.00  0.00     0.085 A  
HETATM    4  C   UNL     1     -11.271  13.096  70.774  1.00  0.00     1.475 A  
HETATM    5  C   UNL     1     -11.254  12.377  69.557  1.00  0.00    -0.171 A  
HETATM    6  C   UNL     1     -11.228  13.049  68.315  1.00  0.00    -0.309 A  
HETATM    7  C   UNL     1     -11.116  14.493  68.396  1.00  0.00    -0.256 A  
HETATM    8  C   UNL     1     -11.411  12.315  66.956  1.00  0.00    -0.395 C  
HETATM    9  C   UNL     1     -11.156  15.203  69.656  1.00  0.00    -0.270 A  
HETATM   10  C   UNL     1     -12.291  12.924  66.116  1.00  0.00    -0.266 C  
HETATM   11  C   UNL     1     -11.775  10.056  68.724  1.00  0.00     0.180 C  
HETATM   12  C   UNL     1     -11.212  10.900  69.825  1.00  0.00    -0.351 C  
HETATM   13  C   UNL     1     -10.666   9.922  67.681  1.00  0.00    -0.281 C  
HETATM   14  C   UNL     1     -12.572  12.441  64.766  1.00  0.00    -0.419 C  
HETATM   15  C   UNL     1     -10.851  10.939  66.556  1.00  0.00    -0.234 C  
HETATM   16  C   UNL     1     -11.520  12.469  63.924  1.00  0.00    -0.437 C  
HETATM   17  C   UNL     1     -10.707  11.221  63.970  1.00  0.00    -0.377 C  
HETATM   18  O   UNL     1     -10.196  10.738  62.963  1.00  0.00    -0.265 OA 
HETATM   19  C   UNL     1     -10.531  10.546  65.296  1.00  0.00    -0.232 C  
BRANCH   7  20
HETATM   20  O   UNL     1     -10.912  15.140  67.184  1.00  0.00    -0.315 OA 
HETATM   21  C   UNL     1     -11.775  16.227  66.852  1.00  0.00     0.878 C  
ENDBRANCH   7  20
BRANCH   9  22
HETATM   22  O   UNL     1     -10.961  16.557  69.631  1.00  0.00    -0.325 OA 
HETATM   23  C   UNL     1      -9.790  17.053  68.990  1.00  0.00    -0.240 C  
ENDBRANCH   9  22
BRANCH  16  24
HETATM   24  O   UNL     1     -10.882  13.572  63.404  1.00  0.00     0.357 OA 
HETATM   25  C   UNL     1     -10.282  14.454  64.342  1.00  0.00     0.488 C  
ENDBRANCH  16  24
BRANCH  13  26
HETATM   26  N   UNL     1     -10.620   8.500  67.311  1.00  0.00    -0.402 N  
HETATM   27  C   UNL     1      -9.629   7.739  67.930  1.00  0.00    -0.146 C  
HETATM   28  H   UNL     1     -11.274   8.094  66.642  1.00  0.00     0.000 HD 
HETATM   29  O   UNL     1      -8.686   8.243  68.538  1.00  0.00    -0.132 OA 
HETATM   30  C   UNL     1      -9.788   6.243  67.889  1.00  0.00    -0.129 C  
ENDBRANCH  13  26
ENDBRANCH   2   3
TORSDOF 5
ENDMDL
MODEL      127
REMARK 921   NORMALIZED FREE ENERGY PREDICTED BY IDOCK:   -0.38 KCAL/MOL
REMARK 922        TOTAL FREE ENERGY PREDICTED BY IDOCK:   -1.18 KCAL/MOL
REMARK 923 INTER-LIGAND FREE ENERGY PREDICTED BY IDOCK:   -1.38 KCAL/MOL
REMARK 924 INTRA-LIGAND FREE ENERGY PREDICTED BY IDOCK:    0.20 KCAL/MOL
REMARK 927      BINDING AFFINITY PREDICTED BY RF-SCORE:    0.00 PKD
ROOT
HETATM    1  C   UNL     1      -5.670   6.138  64.249  1.00  0.00    -0.022 C  
HETATM    2  O   UNL     1      -5.950   6.425  65.622  1.00  0.00    -0.027 OA 
ENDROOT
BRANCH   2   3
HETATM    3  C   UNL     1      -6.672   7.564  65.874  1.00  0.00    -0.046 A  
HETATM    4  C   UNL     1      -6.110   8.602  66.589  1.00  0.00    -0.057 A  
HETATM    5  C   UNL     1      -6.782   9.817  66.856  1.00  0.00    -0.075 A  
HETATM    6  C   UNL     1      -8.104  10.030  66.410  1.00  0.00    -0.120 A  
HETATM    7  C   UNL     1      -8.731   8.892  65.768  1.00  0.00    -0.176 A  
HETATM    8  C   UNL     1      -8.811  11.413  66.503  1.00  0.00    -0.187 C  
HETATM    9  C   UNL     1      -8.013   7.668  65.489  1.00  0.00    -0.120 A  
HETATM   10  C   UNL     1      -9.445  11.784  65.357  1.00  0.00    -0.157 C  
HETATM   11  C   UNL     1      -6.219  12.178  67.532  1.00  0.00    -0.130 C  
HETATM   12  C   UNL     1      -5.913  10.721  67.682  1.00  0.00    -0.044 C  
HETATM   13  C   UNL     1      -7.414  12.457  68.444  1.00  0.00    -0.123 C  
HETATM   14  C   UNL     1     -10.221  13.016  65.237  1.00  0.00    -0.294 C  
HETATM   15  C   UNL     1      -8.720  12.433  67.651  1.00  0.00    -0.178 C  
HETATM   16  C   UNL     1     -11.306  13.082  66.035  1.00  0.00    -0.310 C  
HETATM   17  C   UNL     1     -11.003  13.658  67.376  1.00  0.00    -0.276 C  
HETATM   18  O   UNL     1     -11.792  14.395  67.963  1.00  0.00    -0.326 OA 
HETATM   19  C   UNL     1      -9.684  13.321  68.004  1.00  0.00    -0.223 C  
BRANCH   7  20
HETATM   20  O   UNL     1     -10.084   9.041  65.488  1.00  0.00     0.024 OA 
HETATM   21  C   UNL     1     -11.015   8.295  66.273  1.00  0.00     1.693 C  
ENDBRANCH   7  20
BRANCH   9  22
HETATM   22  O   UNL     1      -8.716   6.624  64.952  1.00  0.00     0.059 OA 
HETATM   23  C   UNL     1      -9.030   5.523  65.799  1.00  0.00    -0.154 C  
ENDBRANCH   9  22
BRANCH  16  24
HETATM   24  O   UNL     1     -12.460  12.338  65.957  1.00  0.00    -0.503 OA 
HETATM   25  C   UNL     1     -12.695  11.666  64.728  1.00  0.00     1.044 C  
ENDBRANCH  16  24
BRANCH  13  26
HETATM   26  N   UNL     1      -7.090  13.686  69.182  1.00  0.00    -0.240 N  
HETATM   27  C   UNL     1      -6.054  13.588  70.110  1.00  0.00    -0.123 C  
HETATM   28  H   UNL     1      -7.593  14.559  69.025  1.00  0.00     0.000 HD 
HETATM   29  O   UNL     1      -5.606  12.508  70.494  1.00  0.00    -0.147 OA 
HETATM   30  C   UNL     1      -5.438  14.873  70.589  1.00  0.00    -0.138 C  
ENDBRANCH  13  26
ENDBRANCH   2   3
TORSDOF 5
ENDMDL
MODEL      128
REMARK 921   NORMALIZED FREE ENERGY PREDICTED BY IDOCK:   -0.02 KCAL/MOL
REMARK 922        TOTAL FREE ENERGY PREDICTED BY IDOCK:   -0.72 KCAL/MOL
REMARK 923 INTER-LIGAND FREE ENERGY PREDICTED BY IDOCK:   -2.04 KCAL/MOL
REMARK 924 INTRA-LIGAND FREE ENERGY PREDICTED BY IDOCK:    1.33 KCAL/MOL
REMARK 927      BINDING AFFINITY PREDICTED BY RF-SCORE:    0.00 PKD
ROOT
HETATM    1  C   UNL     1      -7.954   4.089  70.052  1.00  0.00    -0.051 C  
HETATM    2  O   UNL     1      -6.857   4.952  69.742  1.00  0.00    -0.048 OA 
ENDROOT
BRANCH   2   3
HETATM    3  C   UNL     1      -7.177   6.220  69.323  1.00  0.00    -0.086 A  
HETATM    4  C   UNL     1      -7.960   6.407  68.203  1.00  0.00    -0.109 A  
HETATM    5  C   UNL     1      -8.357   7.681  67.735  1.00  0.00    -0.118 A  
HETATM    6  C   UNL     1      -7.945   8.860  68.395  1.00  0.00    -0.105 A  
HETATM    7  C   UNL     1      -7.024   8.661  69.496  1.00  0.00    -0.048 A  
HETATM    8  C   UNL     1      -8.513  10.264  68.042  1.00  0.00    -0.118 C  
HETATM    9  C   UNL     1      -6.651   7.345  69.967  1.00  0.00    -0.046 A  
HETATM   10  C   UNL     1      -8.881  10.997  69.128  1.00  0.00    -0.003 C  
HETATM   11  C   UNL     1     -10.115   8.678  66.231  1.00  0.00    -0.215 C  
HETATM   12  C   UNL     1      -9.172   7.544  66.482  1.00  0.00    -0.217 C  
HETATM   13  C   UNL     1      -9.283   9.791  65.594  1.00  0.00    -0.199 C  
HETATM   14  C   UNL     1      -9.385  12.365  69.035  1.00  0.00     0.402 C  
HETATM   15  C   UNL     1      -8.846  10.812  66.644  1.00  0.00    -0.151 C  
HETATM   16  C   UNL     1      -8.506  13.260  68.543  1.00  0.00    -0.067 C  
HETATM   17  C   UNL     1      -8.559  13.368  67.057  1.00  0.00    -0.158 C  
HETATM   18  O   UNL     1      -8.416  14.441  66.476  1.00  0.00    -0.039 OA 
HETATM   19  C   UNL     1      -8.807  12.117  66.271  1.00  0.00    -0.040 C  
BRANCH   7  20
HETATM   20  O   UNL     1      -6.481   9.824  70.031  1.00  0.00    -0.056 OA 
HETATM   21  C   UNL     1      -5.571  10.570  69.224  1.00  0.00    -0.037 C  
ENDBRANCH   7  20
BRANCH   9  22
HETATM   22  O   UNL     1      -5.713   7.265  70.959  1.00  0.00    -0.031 OA 
HETATM   23  C   UNL     1      -6.019   6.481  72.108  1.00  0.00    -0.038 C  
ENDBRANCH   9  22
BRANCH  16  24
HETATM   24  O   UNL     1      -7.348  13.719  69.129  1.00  0.00    -0.082 OA 
HETATM   25  C   UNL     1      -7.470  14.873  69.948  1.00  0.00     0.015 C  
ENDBRANCH  16  24
BRANCH  13  26
HETATM   26  N   UNL     1     -10.062  10.284  64.449  1.00  0.00    -0.364 N  
HETATM   27  C   UNL     1     -11.237  10.967  64.757  1.00  0.00     0.153 C  
HETATM   28  H   UNL     1      -9.760  10.135  63.487  1.00  0.00     0.000 HD 
HETATM   29  O   UNL     1     -11.746  10.944  65.878  1.00  0.00     0.309 OA 
HETATM   30  C   UNL     1     -11.845  11.810  63.671  1.00  0.00    -0.498 C  
ENDBRANCH  13  26
ENDBRANCH   2   3
TORSDOF 5
ENDMDL
MODEL      129
REMARK 921   NORMALIZED FREE ENERGY PREDICTED BY IDOCK:    0.41 KCAL/MOL
REMARK 922        TOTAL FREE ENERGY PREDICTED BY IDOCK:   -0.15 KCAL/MOL
REMARK 923 INTER-LIGAND FREE ENERGY PREDICTED BY IDOCK:   -2.37 KCAL/MOL
REMARK 924 INTRA-LIGAND FREE ENERGY PREDICTED BY IDOCK:    2.22 KCAL/MOL
REMARK 927      BINDING AFFINITY PREDICTED BY RF-SCORE:    0.00 PKD
ROOT
HETATM    1  C   UNL     1      -6.364   8.734  71.017  1.00  0.00    -0.053 C  
HETATM    2  O   UNL     1      -7.293   8.129  70.113  1.00  0.00    -0.058 OA 
ENDROOT
BRANCH   2   3
HETATM    3  C   UNL     1      -7.946   8.973  69.250  1.00  0.00    -0.096 A  
HETATM    4  C   UNL     1      -8.272  10.255  69.643  1.00  0.00    -0.146 A  
HETATM    5  C   UNL     1      -8.912  11.189  68.797  1.00  0.00    -0.136 A  
HETATM    6  C   UNL     1      -9.278  10.845  67.478  1.00  0.00    -0.153 A  
HETATM    7  C   UNL     1      -9.043   9.461  67.113  1.00  0.00    -0.130 A  
HETATM    8  C   UNL     1      -9.798  11.889  66.449  1.00  0.00    -0.234 C  
HETATM    9  C   UNL     1      -8.368   8.533  67.992  1.00  0.00    -0.127 A  
HETATM   10  C   UNL     1      -9.208  11.797  65.226  1.00  0.00     0.023 C  
HETATM   11  C   UNL     1      -9.257  13.681  68.652  1.00  0.00    -0.045 C  
HETATM   12  C   UNL     1      -9.156  12.475  69.533  1.00  0.00     1.602 C  
HETATM   13  C   UNL     1     -10.686  13.694  68.110  1.00  0.00    -0.248 C  
HETATM   14  C   UNL     1      -9.583  12.638  64.092  1.00  0.00     0.272 C  
HETATM   15  C   UNL     1     -10.745  13.071  66.716  1.00  0.00    -0.273 C  
HETATM   16  C   UNL     1     -10.850  12.473  63.659  1.00  0.00    -0.441 C  
HETATM   17  C   UNL     1     -11.823  13.356  64.361  1.00  0.00    -0.408 C  
HETATM   18  O   UNL     1     -12.775  13.870  63.779  1.00  0.00    -0.693 OA 
HETATM   19  C   UNL     1     -11.605  13.620  65.820  1.00  0.00    -0.349 C  
BRANCH   7  20
HETATM   20  O   UNL     1      -9.563   9.077  65.882  1.00  0.00    -0.251 OA 
HETATM   21  C   UNL     1      -8.644   8.806  64.824  1.00  0.00    -0.134 C  
ENDBRANCH   7  20
BRANCH   9  22
HETATM   22  O   UNL     1      -8.267   7.229  67.587  1.00  0.00    -0.113 OA 
HETATM   23  C   UNL     1      -9.017   6.249  68.297  1.00  0.00    -0.115 C  
ENDBRANCH   9  22
BRANCH  16  24
HETATM   24  O   UNL     1     -11.392  11.374  63.033  1.00  0.00    -0.062 OA 
HETATM   25  C   UNL     1     -10.477  10.374  62.609  1.00  0.00     1.063 C  
ENDBRANCH  16  24
BRANCH  13  26
HETATM   26  N   UNL     1     -11.171  15.073  68.260  1.00  0.00    -0.285 N  
HETATM   27  C   UNL     1     -10.191  16.053  68.410  1.00  0.00    -0.236 C  
HETATM   28  H   UNL     1     -12.165  15.300  68.254  1.00  0.00     0.000 HD 
HETATM   29  O   UNL     1      -9.018  15.787  68.668  1.00  0.00    -0.184 OA 
HETATM   30  C   UNL     1     -10.606  17.480  68.174  1.00  0.00    -0.366 C  
ENDBRANCH  13  26
ENDBRANCH   2   3
TORSDOF 5
ENDMDL
MODEL      130
REMARK 921   NORMALIZED FREE ENERGY PREDICTED BY IDOCK:    0.58 KCAL/MOL
REMARK 922        TOTAL FREE ENERGY PREDICTED BY IDOCK:    0.07 KCAL/MOL
REMARK 923 INTER-LIGAND FREE ENERGY PREDICTED BY IDOCK:   -2.35 KCAL/MOL
REMARK 924 INTRA-LIGAND FREE ENERGY PREDICTED BY IDOCK:    2.42 KCAL/MOL
REMARK 927      BINDING AFFINITY PREDICTED BY RF-SCORE:    0.00 PKD
ROOT
HETATM    1  C   UNL     1      -7.270  14.029  66.839  1.00  0.00     0.822 C  
HETATM    2  O   UNL     1      -8.535  13.487  67.228  1.00  0.00    -0.187 OA 
ENDROOT
BRANCH   2   3
HETATM    3  C   UNL     1      -8.524  12.212  67.735  1.00  0.00    -0.160 A  
HETATM    4  C   UNL     1      -9.699  11.616  68.147  1.00  0.00    -0.189 A  
HETATM    5  C   UNL     1      -9.768  10.296  68.647  1.00  0.00    -0.171 A  
HETATM    6  C   UNL     1      -8.606   9.503  68.772  1.00  0.00    -0.123 A  
HETATM    7  C   UNL     1      -7.362  10.176  68.453  1.00  0.00    -0.081 A  
HETATM    8  C   UNL     1      -8.653   7.989  69.124  1.00  0.00    -0.137 C  
HETATM    9  C   UNL     1      -7.323  11.522  67.924  1.00  0.00    -0.094 A  
HETATM   10  C   UNL     1      -7.866   7.215  68.329  1.00  0.00    -0.122 C  
HETATM   11  C   UNL     1     -11.497   8.498  69.006  1.00  0.00     0.752 C  
HETATM   12  C   UNL     1     -11.178   9.960  69.038  1.00  0.00    -0.131 C  
HETATM   13  C   UNL     1     -10.972   7.919  70.319  1.00  0.00    -0.248 C  
HETATM   14  C   UNL     1      -7.712   5.774  68.516  1.00  0.00    -0.093 C  
HETATM   15  C   UNL     1      -9.592   7.292  70.123  1.00  0.00    -0.168 C  
HETATM   16  C   UNL     1      -7.145   5.412  69.685  1.00  0.00    -0.063 C  
HETATM   17  C   UNL     1      -8.138   5.232  70.781  1.00  0.00    -0.106 C  
HETATM   18  O   UNL     1      -8.024   4.348  71.626  1.00  0.00    -0.086 OA 
HETATM   19  C   UNL     1      -9.312   6.163  70.824  1.00  0.00    -0.170 C  
BRANCH   7  20
HETATM   20  O   UNL     1      -6.208   9.458  68.744  1.00  0.00    -0.044 OA 
HETATM   21  C   UNL     1      -5.616   8.691  67.696  1.00  0.00    -0.039 C  
ENDBRANCH   7  20
BRANCH   9  22
HETATM   22  O   UNL     1      -6.096  12.096  67.732  1.00  0.00    -0.067 OA 
HETATM   23  C   UNL     1      -5.263  12.292  68.871  1.00  0.00    -0.054 C  
ENDBRANCH   9  22
BRANCH  16  24
HETATM   24  O   UNL     1      -5.845   5.611  70.090  1.00  0.00    -0.021 OA 
HETATM   25  C   UNL     1      -5.345   4.711  71.068  1.00  0.00    -0.004 C  
ENDBRANCH  16  24
BRANCH  13  26
HETATM   26  N   UNL     1     -12.041   7.060  70.846  1.00  0.00    -0.427 N  
HETATM   27  C   UNL     1     -12.905   7.652  71.766  1.00  0.00    -0.330 C  
HETATM   28  H   UNL     1     -12.145   6.087  70.556  1.00  0.00     0.000 HD 
HETATM   29  O   UNL     1     -12.659   8.726  72.313  1.00  0.00    -0.370 OA 
HETATM   30  C   UNL     1     -14.213   6.956  72.025  1.00  0.00    -0.245 C  
ENDBRANCH  13  26
ENDBRANCH   2   3
TORSDOF 5
ENDMDL
MODEL      131
REMARK 921   NORMALIZED FREE ENERGY PREDICTED BY IDOCK:    1.83 KCAL/MOL
REMARK 922        TOTAL FREE ENERGY PREDICTED BY IDOCK:    1.68 KCAL/MOL
REMARK 923 INTER-LIGAND FREE ENERGY PREDICTED BY IDOCK:    0.04 KCAL/MOL
REMARK 924 INTRA-LIGAND FREE ENERGY PREDICTED BY IDOCK:    1.64 KCAL/MOL
REMARK 927      BINDING AFFINITY PREDICTED BY RF-SCORE:    0.00 PKD
ROOT
HETATM    1  C   UNL     1      -5.154  16.459  70.316  1.00  0.00    -0.178 C  
HETATM    2  O   UNL     1      -5.137  15.724  69.089  1.00  0.00    -0.100 OA 
ENDROOT
BRANCH   2   3
HETATM    3  C   UNL     1      -5.927  14.603  69.037  1.00  0.00    -0.089 A  
HETATM    4  C   UNL     1      -5.665  13.527  69.860  1.00  0.00    -0.116 A  
HETATM    5  C   UNL     1      -6.455  12.355  69.885  1.00  0.00     0.024 A  
HETATM    6  C   UNL     1      -7.573  12.213  69.034  1.00  0.00     0.081 A  
HETATM    7  C   UNL     1      -7.769  13.293  68.087  1.00  0.00    -0.143 A  
HETATM    8  C   UNL     1      -8.585  11.039  69.163  1.00  0.00    -0.009 C  
HETATM    9  C   UNL     1      -6.957  14.490  68.098  1.00  0.00    -0.122 A  
HETATM   10  C   UNL     1      -9.887  11.430  69.129  1.00  0.00     0.033 C  
HETATM   11  C   UNL     1      -6.887  10.399  71.414  1.00  0.00     1.310 C  
HETATM   12  C   UNL     1      -5.886  11.365  70.860  1.00  0.00     0.042 C  
HETATM   13  C   UNL     1      -7.048   9.303  70.361  1.00  0.00    -0.091 C  
HETATM   14  C   UNL     1     -11.005  10.491  69.175  1.00  0.00    -0.286 C  
HETATM   15  C   UNL     1      -8.272   9.567  69.484  1.00  0.00    -0.134 C  
HETATM   16  C   UNL     1     -11.077   9.644  68.128  1.00  0.00    -0.050 C  
HETATM   17  C   UNL     1     -10.296   8.393  68.340  1.00  0.00    -0.200 C  
HETATM   18  O   UNL     1     -10.692   7.301  67.939  1.00  0.00    -0.213 OA 
HETATM   19  C   UNL     1      -8.996   8.493  69.079  1.00  0.00    -0.146 C  
BRANCH   7  20
HETATM   20  O   UNL     1      -8.757  13.073  67.135  1.00  0.00    -0.196 OA 
HETATM   21  C   UNL     1      -9.858  13.980  67.092  1.00  0.00    -0.240 C  
ENDBRANCH   7  20
BRANCH   9  22
HETATM   22  O   UNL     1      -7.171  15.415  67.112  1.00  0.00    -0.204 OA 
HETATM   23  C   UNL     1      -7.788  16.646  67.473  1.00  0.00    -0.171 C  
ENDBRANCH   9  22
BRANCH  16  24
HETATM   24  O   UNL     1     -11.373   9.943  66.818  1.00  0.00     0.175 OA 
HETATM   25  C   UNL     1     -10.839   9.068  65.835  1.00  0.00     1.712 C  
ENDBRANCH  16  24
BRANCH  13  26
HETATM   26  N   UNL     1      -6.994   8.026  71.085  1.00  0.00    -0.048 N  
HETATM   27  C   UNL     1      -7.865   7.897  72.165  1.00  0.00    -0.106 C  
HETATM   28  H   UNL     1      -6.357   7.277  70.813  1.00  0.00     0.000 HD 
HETATM   29  O   UNL     1      -8.455   8.856  72.662  1.00  0.00    -0.388 OA 
HETATM   30  C   UNL     1      -8.123   6.506  72.677  1.00  0.00    -0.103 C  
ENDBRANCH  13  26
ENDBRANCH   2   3
TORSDOF 5
ENDMDL
MODEL      132
REMARK 921   NORMALIZED FREE ENERGY PREDICTED BY IDOCK:    2.28 KCAL/MOL
REMARK 922        TOTAL FREE ENERGY PREDICTED BY IDOCK:    2.26 KCAL/MOL
REMARK 923 INTER-LIGAND FREE ENERGY PREDICTED BY IDOCK:    1.07 KCAL/MOL
REMARK 924 INTRA-LIGAND FREE ENERGY PREDICTED BY IDOCK:    1.19 KCAL/MOL
REMARK 927      BINDING AFFINITY PREDICTED BY RF-SCORE:    0.00 PKD
ROOT
HETATM    1  C   UNL     1     -11.486  10.792  63.014  1.00  0.00     1.635 C  
HETATM    2  O   UNL     1     -10.686  10.232  64.059  1.00  0.00     0.411 OA 
ENDROOT
BRANCH   2   3
HETATM    3  C   UNL     1     -10.193  11.111  64.990  1.00  0.00    -0.296 A  
HETATM    4  C   UNL     1     -11.054  11.881  65.745  1.00  0.00    -0.367 A  
HETATM    5  C   UNL     1     -10.620  12.781  66.745  1.00  0.00    -0.266 A  
HETATM    6  C   UNL     1      -9.246  12.958  67.018  1.00  0.00    -0.226 A  
HETATM    7  C   UNL     1      -8.344  12.239  66.140  1.00  0.00     0.402 A  
HETATM    8  C   UNL     1      -8.728  13.779  68.234  1.00  0.00    -0.179 C  
HETATM    9  C   UNL     1      -8.817  11.309  65.138  1.00  0.00     0.029 A  
HETATM   10  C   UNL     1      -7.748  13.154  68.941  1.00  0.00     0.080 C  
HETATM   11  C   UNL     1     -11.566  13.978  68.751  1.00  0.00    -0.366 C  
HETATM   12  C   UNL     1     -11.796  13.487  67.355  1.00  0.00    -0.423 C  
HETATM   13  C   UNL     1     -10.812  15.301  68.618  1.00  0.00    -0.253 C  
HETATM   14  C   UNL     1      -7.076  13.764  70.086  1.00  0.00     0.584 C  
HETATM   15  C   UNL     1      -9.309  15.090  68.791  1.00  0.00    -0.200 C  
HETATM   16  C   UNL     1      -6.368  14.875  69.801  1.00  0.00    -0.152 C  
HETATM   17  C   UNL     1      -7.182  16.120  69.888  1.00  0.00     0.274 C  
HETATM   18  O   UNL     1      -6.721  17.173  70.322  1.00  0.00     0.447 OA 
HETATM   19  C   UNL     1      -8.610  16.058  69.437  1.00  0.00    -0.150 C  
BRANCH   7  20
HETATM   20  O   UNL     1      -6.998  12.548  66.291  1.00  0.00     0.719 OA 
HETATM   21  C   UNL     1      -6.194  11.668  67.077  1.00  0.00    -0.144 C  
ENDBRANCH   7  20
BRANCH   9  22
HETATM   22  O   UNL     1      -7.890  10.742  64.306  1.00  0.00     0.055 OA 
HETATM   23  C   UNL     1      -7.526   9.385  64.536  1.00  0.00    -0.105 C  
ENDBRANCH   9  22
BRANCH  16  24
HETATM   24  O   UNL     1      -5.212  14.974  69.061  1.00  0.00    -0.096 OA 
HETATM   25  C   UNL     1      -5.334  15.569  67.777  1.00  0.00    -0.101 C  
ENDBRANCH  16  24
BRANCH  13  26
HETATM   26  N   UNL     1     -11.475  16.245  69.528  1.00  0.00    -0.284 N  
HETATM   27  C   UNL     1     -11.646  15.812  70.842  1.00  0.00    -0.405 C  
HETATM   28  H   UNL     1     -11.792  17.164  69.217  1.00  0.00     0.000 HD 
HETATM   29  O   UNL     1     -11.504  14.637  71.178  1.00  0.00    -0.265 OA 
HETATM   30  C   UNL     1     -11.949  16.861  71.876  1.00  0.00     0.716 C  
ENDBRANCH  13  26
ENDBRANCH   2   3
TORSDOF 5
ENDMDL
MODEL      133
REMARK 921   NORMALIZED FREE ENERGY PREDICTED BY IDOCK:    3.89 KCAL/MOL
REMARK 922        TOTAL FREE ENERGY PREDICTED BY IDOCK:    4.34 KCAL/MOL
REMARK 923 INTER-LIGAND FREE ENERGY PREDICTED BY IDOCK:    3.32 KCAL/MOL
REMARK 924 INTRA-LIGAND FREE ENERGY PREDICTED BY IDOCK:    1.02 KCAL/MOL
REMARK 927      BINDING AFFINITY PREDICTED BY RF-SCORE:    0.00 PKD
ROOT
HETATM    1  C   UNL     1     -11.316  16.450  70.505  1.00  0.00    -0.191 C  
HETATM    2  O   UNL     1      -9.952  16.195  70.160  1.00  0.00    -0.010 OA 
ENDROOT
BRANCH   2   3
HETATM    3  C   UNL     1      -9.710  15.071  69.411  1.00  0.00    -0.153 A  
HETATM    4  C   UNL     1     -10.004  13.821  69.917  1.00  0.00     1.318 A  
HETATM    5  C   UNL     1      -9.814  12.623  69.190  1.00  0.00     0.437 A  
HETATM    6  C   UNL     1      -9.282  12.642  67.882  1.00  0.00    -0.201 A  
HETATM    7  C   UNL     1      -8.862  13.945  67.405  1.00  0.00    -0.207 A  
HETATM    8  C   UNL     1      -9.241  11.381  66.972  1.00  0.00    -0.174 C  
HETATM    9  C   UNL     1      -9.087  15.157  68.162  1.00  0.00    -0.176 A  
HETATM   10  C   UNL     1      -9.680  11.605  65.704  1.00  0.00    -0.262 C  
HETATM   11  C   UNL     1     -10.608  10.232  69.246  1.00  0.00    -0.254 C  
HETATM   12  C   UNL     1     -10.196  11.439  70.030  1.00  0.00     1.037 C  
HETATM   13  C   UNL     1      -9.314   9.540  68.819  1.00  0.00    -0.146 C  
HETATM   14  C   UNL     1      -9.675  10.579  64.664  1.00  0.00    -0.369 C  
HETATM   15  C   UNL     1      -8.930   9.935  67.394  1.00  0.00    -0.144 C  
HETATM   16  C   UNL     1      -8.451  10.127  64.320  1.00  0.00    -0.176 C  
HETATM   17  C   UNL     1      -8.001   8.979  65.155  1.00  0.00    -0.119 C  
HETATM   18  O   UNL     1      -7.355   8.045  64.687  1.00  0.00    -0.075 OA 
HETATM   19  C   UNL     1      -8.370   8.980  66.608  1.00  0.00    -0.118 C  
BRANCH   7  20
HETATM   20  O   UNL     1      -8.178  13.940  66.195  1.00  0.00     0.872 OA 
HETATM   21  C   UNL     1      -7.005  13.133  66.092  1.00  0.00     3.433 C  
ENDBRANCH   7  20
BRANCH   9  22
HETATM   22  O   UNL     1      -8.581  16.325  67.661  1.00  0.00    -0.171 OA 
HETATM   23  C   UNL     1      -9.082  16.790  66.412  1.00  0.00    -0.289 C  
ENDBRANCH   9  22
BRANCH  16  24
HETATM   24  O   UNL     1      -7.453  10.809  63.663  1.00  0.00     0.104 OA 
HETATM   25  C   UNL     1      -6.522  10.020  62.938  1.00  0.00    -0.128 C  
ENDBRANCH  16  24
BRANCH  13  26
HETATM   26  N   UNL     1      -9.500   8.110  69.102  1.00  0.00    -0.155 N  
HETATM   27  C   UNL     1      -8.590   7.537  69.988  1.00  0.00    -0.139 C  
HETATM   28  H   UNL     1     -10.252   7.568  68.674  1.00  0.00     0.000 HD 
HETATM   29  O   UNL     1      -7.543   8.094  70.318  1.00  0.00    -0.076 OA 
HETATM   30  C   UNL     1      -8.966   6.215  70.599  1.00  0.00    -0.148 C  
ENDBRANCH  13  26
ENDBRANCH   2   3
TORSDOF 5
ENDMDL
MODEL      134
REMARK 921   NORMALIZED FREE ENERGY PREDICTED BY IDOCK:    5.29 KCAL/MOL
REMARK 922        TOTAL FREE ENERGY PREDICTED BY IDOCK:    6.15 KCAL/MOL
REMARK 923 INTER-LIGAND FREE ENERGY PREDICTED BY IDOCK:    4.25 KCAL/MOL
REMARK 924 INTRA-LIGAND FREE ENERGY PREDICTED BY IDOCK:    1.89 KCAL/MOL
REMARK 927      BINDING AFFINITY PREDICTED BY RF-SCORE:    0.00 PKD
ROOT
HETATM    1  C   UNL     1     -10.921  10.634  72.375  1.00  0.00     5.647 C  
HETATM    2  O   UNL     1      -9.971   9.566  72.322  1.00  0.00     0.438 OA 
ENDROOT
BRANCH   2   3
HETATM    3  C   UNL     1      -9.635   9.108  71.073  1.00  0.00    -0.280 A  
HETATM    4  C   UNL     1      -9.402   9.997  70.044  1.00  0.00    -0.165 A  
HETATM    5  C   UNL     1      -9.019   9.599  68.742  1.00  0.00    -0.134 A  
HETATM    6  C   UNL     1      -8.868   8.234  68.414  1.00  0.00    -0.137 A  
HETATM    7  C   UNL     1      -9.232   7.302  69.463  1.00  0.00    -0.149 A  
HETATM    8  C   UNL     1      -8.259   7.755  67.065  1.00  0.00    -0.117 C  
HETATM    9  C   UNL     1      -9.602   7.738  70.792  1.00  0.00    -0.165 A  
HETATM   10  C   UNL     1      -7.321   6.779  67.202  1.00  0.00    -0.086 C  
HETATM   11  C   UNL     1      -7.946  10.606  66.697  1.00  0.00    -0.134 C  
HETATM   12  C   UNL     1      -8.879  10.799  67.851  1.00  0.00    -0.132 C  
HETATM   13  C   UNL     1      -8.746   9.873  65.621  1.00  0.00    -0.151 C  
HETATM   14  C   UNL     1      -6.660   6.141  66.065  1.00  0.00    -0.048 C  
HETATM   15  C   UNL     1      -8.477   8.369  65.672  1.00  0.00    -0.179 C  
HETATM   16  C   UNL     1      -7.480   5.446  65.251  1.00  0.00    -0.077 C  
HETATM   17  C   UNL     1      -8.065   6.284  64.166  1.00  0.00    -0.067 C  
HETATM   18  O   UNL     1      -8.243   5.850  63.030  1.00  0.00    -0.115 OA 
HETATM   19  C   UNL     1      -8.428   7.701  64.491  1.00  0.00     0.119 C  
BRANCH   7  20
HETATM   20  O   UNL     1      -9.254   5.965  69.086  1.00  0.00    -0.120 OA 
HETATM   21  C   UNL     1      -8.672   5.010  69.973  1.00  0.00    -0.098 C  
ENDBRANCH   7  20
BRANCH   9  22
HETATM   22  O   UNL     1     -10.005   6.785  71.687  1.00  0.00    -0.174 OA 
HETATM   23  C   UNL     1     -11.043   7.122  72.601  1.00  0.00    -0.292 C  
ENDBRANCH   9  22
BRANCH  16  24
HETATM   24  O   UNL     1      -8.153   4.278  65.525  1.00  0.00    -0.100 OA 
HETATM   25  C   UNL     1      -7.632   3.096  64.934  1.00  0.00    -0.077 C  
ENDBRANCH  16  24
BRANCH  13  26
HETATM   26  N   UNL     1      -8.472  10.570  64.357  1.00  0.00    -0.268 N  
HETATM   27  C   UNL     1      -7.144  10.934  64.134  1.00  0.00     0.611 C  
HETATM   28  H   UNL     1      -9.208  10.776  63.682  1.00  0.00     0.000 HD 
HETATM   29  O   UNL     1      -6.294  10.924  65.024  1.00  0.00     0.045 OA 
HETATM   30  C   UNL     1      -6.756  11.283  62.724  1.00  0.00     0.658 C  
ENDBRANCH  13  26
ENDBRANCH   2   3
TORSDOF 5
ENDMDL
MODEL      135
REMARK 921   NORMALIZED FREE ENERGY PREDICTED BY IDOCK:    5.50 KCAL/MOL
REMARK 922        TOTAL FREE ENERGY PREDICTED BY IDOCK:    6.42 KCAL/MOL
REMARK 923 INTER-LIGAND FREE ENERGY PREDICTED BY IDOCK:    5.64 KCAL/MOL
REMARK 924 INTRA-LIGAND FREE ENERGY PREDICTED BY IDOCK:    0.78 KCAL/MOL
REMARK 927      BINDING AFFINITY PREDICTED BY RF-SCORE:    0.00 PKD
ROOT
HETATM    1  C   UNL     1     -11.788  18.196  71.687  1.00  0.00     6.037 C  
HETATM    2  O   UNL     1     -10.926  17.085  71.950  1.00  0.00     0.840 OA 
ENDROOT
BRANCH   2   3
HETATM    3  C   UNL     1     -10.985  16.042  71.059  1.00  0.00    -0.053 A  
HETATM    4  C   UNL     1     -11.442  14.805  71.465  1.00  0.00    -0.203 A  
HETATM    5  C   UNL     1     -11.561  13.696  70.595  1.00  0.00     0.051 A  
HETATM    6  C   UNL     1     -11.192  13.794  69.236  1.00  0.00    -0.291 A  
HETATM    7  C   UNL     1     -10.599  15.058  68.847  1.00  0.00    -0.242 A  
HETATM    8  C   UNL     1     -11.490  12.673  68.200  1.00  0.00    -0.359 C  
HETATM    9  C   UNL     1     -10.508  16.183  69.752  1.00  0.00    -0.286 A  
HETATM   10  C   UNL     1     -12.027  13.129  67.036  1.00  0.00    -0.412 C  
HETATM   11  C   UNL     1     -12.768  11.486  70.506  1.00  0.00    -0.193 C  
HETATM   12  C   UNL     1     -12.053  12.494  71.350  1.00  0.00     0.450 C  
HETATM   13  C   UNL     1     -11.683  10.647  69.833  1.00  0.00    -0.317 C  
HETATM   14  C   UNL     1     -12.332  12.260  65.902  1.00  0.00     0.124 C  
HETATM   15  C   UNL     1     -11.403  11.153  68.418  1.00  0.00    -0.357 C  
HETATM   16  C   UNL     1     -11.262  11.658  65.346  1.00  0.00    -0.199 C  
HETATM   17  C   UNL     1     -10.934  10.351  65.984  1.00  0.00     0.240 C  
HETATM   18  O   UNL     1     -10.531   9.390  65.333  1.00  0.00     0.347 OA 
HETATM   19  C   UNL     1     -11.124  10.227  67.465  1.00  0.00    -0.302 C  
BRANCH   7  20
HETATM   20  O   UNL     1     -10.075  15.095  67.560  1.00  0.00    -0.230 OA 
HETATM   21  C   UNL     1     -10.157  16.325  66.839  1.00  0.00    -0.278 C  
ENDBRANCH   7  20
BRANCH   9  22
HETATM   22  O   UNL     1      -9.859  17.304  69.313  1.00  0.00    -0.202 OA 
HETATM   23  C   UNL     1      -8.903  17.907  70.180  1.00  0.00     2.560 C  
ENDBRANCH   9  22
BRANCH  16  24
HETATM   24  O   UNL     1     -10.239  12.241  64.633  1.00  0.00    -0.282 OA 
HETATM   25  C   UNL     1      -9.060  12.550  65.360  1.00  0.00     0.512 C  
ENDBRANCH  16  24
BRANCH  13  26
HETATM   26  N   UNL     1     -12.094   9.244  69.985  1.00  0.00    -0.302 N  
HETATM   27  C   UNL     1     -11.601   8.580  71.107  1.00  0.00    -0.281 C  
HETATM   28  H   UNL     1     -12.704   8.784  69.309  1.00  0.00     0.000 HD 
HETATM   29  O   UNL     1     -10.680   9.024  71.791  1.00  0.00    -0.338 OA 
HETATM   30  C   UNL     1     -12.290   7.304  71.507  1.00  0.00    -0.397 C  
ENDBRANCH  13  26
ENDBRANCH   2   3
TORSDOF 5
ENDMDL
MODEL      136
REMARK 921   NORMALIZED FREE ENERGY PREDICTED BY IDOCK:    6.62 KCAL/MOL
REMARK 922        TOTAL FREE ENERGY PREDICTED BY IDOCK:    7.87 KCAL/MOL
REMARK 923 INTER-LIGAND FREE ENERGY PREDICTED BY IDOCK:   -0.89 KCAL/MOL
REMARK 924 INTRA-LIGAND FREE ENERGY PREDICTED BY IDOCK:    8.76 KCAL/MOL
REMARK 927      BINDING AFFINITY PREDICTED BY RF-SCORE:    0.00 PKD
ROOT
HETATM    1  C   UNL     1      -5.473  14.211  72.002  1.00  0.00    -0.202 C  
HETATM    2  O   UNL     1      -5.141  13.188  71.060  1.00  0.00    -0.115 OA 
ENDROOT
BRANCH   2   3
HETATM    3  C   UNL     1      -6.133  12.814  70.188  1.00  0.00    -0.090 A  
HETATM    4  C   UNL     1      -6.646  11.533  70.225  1.00  0.00     0.232 A  
HETATM    5  C   UNL     1      -7.691  11.089  69.381  1.00  0.00    -0.026 A  
HETATM    6  C   UNL     1      -8.265  11.949  68.420  1.00  0.00    -0.160 A  
HETATM    7  C   UNL     1      -7.639  13.252  68.303  1.00  0.00    -0.139 A  
HETATM    8  C   UNL     1      -9.541  11.576  67.612  1.00  0.00    -0.176 C  
HETATM    9  C   UNL     1      -6.585  13.687  69.193  1.00  0.00    -0.109 A  
HETATM   10  C   UNL     1     -10.473  12.567  67.569  1.00  0.00    -0.231 C  
HETATM   11  C   UNL     1      -9.389   9.230  69.295  1.00  0.00    -0.160 C  
HETATM   12  C   UNL     1      -7.994   9.643  69.646  1.00  0.00    -0.137 C  
HETATM   13  C   UNL     1      -9.391   8.977  67.788  1.00  0.00    -0.140 C  
HETATM   14  C   UNL     1     -11.722  12.456  66.818  1.00  0.00    -0.430 C  
HETATM   15  C   UNL     1      -9.910  10.200  67.032  1.00  0.00    -0.238 C  
HETATM   16  C   UNL     1     -11.572  12.334  65.484  1.00  0.00    -0.371 C  
HETATM   17  C   UNL     1     -11.432  10.918  65.043  1.00  0.00     0.655 C  
HETATM   18  O   UNL     1     -11.928  10.508  63.996  1.00  0.00     2.272 OA 
HETATM   19  C   UNL     1     -10.668   9.979  65.928  1.00  0.00     0.140 C  
BRANCH   7  20
HETATM   20  O   UNL     1      -8.085  14.030  67.242  1.00  0.00    -0.183 OA 
HETATM   21  C   UNL     1      -9.426  13.842  66.792  1.00  0.00    -0.275 C  
ENDBRANCH   7  20
BRANCH   9  22
HETATM   22  O   UNL     1      -6.005  14.902  68.949  1.00  0.00    -0.084 OA 
HETATM   23  C   UNL     1      -5.924  15.832  70.024  1.00  0.00    -0.157 C  
ENDBRANCH   9  22
BRANCH  16  24
HETATM   24  O   UNL     1     -11.113  13.279  64.595  1.00  0.00    -0.324 OA 
HETATM   25  C   UNL     1     -10.931  12.848  63.254  1.00  0.00     0.171 C  
ENDBRANCH  16  24
BRANCH  13  26
HETATM   26  N   UNL     1     -10.096   7.704  67.585  1.00  0.00    -0.177 N  
HETATM   27  C   UNL     1      -9.291   6.586  67.367  1.00  0.00    -0.121 C  
HETATM   28  H   UNL     1     -11.114   7.640  67.603  1.00  0.00     0.000 HD 
HETATM   29  O   UNL     1      -8.094   6.672  67.095  1.00  0.00    -0.111 OA 
HETATM   30  C   UNL     1      -9.929   5.236  67.545  1.00  0.00    -0.206 C  
ENDBRANCH  13  26
ENDBRANCH   2   3
TORSDOF 5
ENDMDL
MODEL      137
REMARK 921   NORMALIZED FREE ENERGY PREDICTED BY IDOCK:    8.24 KCAL/MOL
REMARK 922        TOTAL FREE ENERGY PREDICTED BY IDOCK:    9.96 KCAL/MOL
REMARK 923 INTER-LIGAND FREE ENERGY PREDICTED BY IDOCK:    1.53 KCAL/MOL
REMARK 924 INTRA-LIGAND FREE ENERGY PREDICTED BY IDOCK:    8.43 KCAL/MOL
REMARK 927      BINDING AFFINITY PREDICTED BY RF-SCORE:    0.00 PKD
ROOT
HETATM    1  C   UNL     1      -9.575   3.854  69.911  1.00  0.00    -0.200 C  
HETATM    2  O   UNL     1     -10.116   5.020  70.539  1.00  0.00    -0.224 OA 
ENDROOT
BRANCH   2   3
HETATM    3  C   UNL     1      -9.826   6.223  69.945  1.00  0.00    -0.167 A  
HETATM    4  C   UNL     1     -10.471   7.373  70.352  1.00  0.00    -0.230 A  
HETATM    5  C   UNL     1     -10.199   8.651  69.810  1.00  0.00    -0.206 A  
HETATM    6  C   UNL     1      -9.243   8.818  68.785  1.00  0.00    -0.141 A  
HETATM    7  C   UNL     1      -8.659   7.592  68.279  1.00  0.00    -0.124 A  
HETATM    8  C   UNL     1      -8.766  10.217  68.299  1.00  0.00    -0.120 C  
HETATM    9  C   UNL     1      -8.940   6.300  68.866  1.00  0.00    -0.126 A  
HETATM   10  C   UNL     1      -7.414  10.327  68.184  1.00  0.00    -0.086 C  
HETATM   11  C   UNL     1     -10.535  11.072  70.421  1.00  0.00     0.912 C  
HETATM   12  C   UNL     1     -11.090   9.683  70.440  1.00  0.00    -0.346 C  
HETATM   13  C   UNL     1     -10.833  11.631  69.030  1.00  0.00    -0.203 C  
HETATM   14  C   UNL     1      -6.750  11.531  67.690  1.00  0.00    -0.079 C  
HETATM   15  C   UNL     1      -9.621  11.481  68.111  1.00  0.00    -0.187 C  
HETATM   16  C   UNL     1      -7.035  11.850  66.411  1.00  0.00     0.346 C  
HETATM   17  C   UNL     1      -8.238  12.721  66.285  1.00  0.00     0.693 C  
HETATM   18  O   UNL     1      -8.307  13.621  65.451  1.00  0.00     2.404 OA 
HETATM   19  C   UNL     1      -9.381  12.480  67.223  1.00  0.00    -0.190 C  
BRANCH   7  20
HETATM   20  O   UNL     1      -7.854   7.739  67.156  1.00  0.00    -0.109 OA 
HETATM   21  C   UNL     1      -6.622   7.018  67.117  1.00  0.00    -0.055 C  
ENDBRANCH   7  20
BRANCH   9  22
HETATM   22  O   UNL     1      -8.402   5.195  68.264  1.00  0.00    -0.096 OA 
HETATM   23  C   UNL     1      -8.501   3.948  68.944  1.00  0.00    -0.078 C  
ENDBRANCH   9  22
BRANCH  16  24
HETATM   24  O   UNL     1      -6.672  11.172  65.270  1.00  0.00     0.245 OA 
HETATM   25  C   UNL     1      -5.346  11.382  64.806  1.00  0.00     1.057 C  
ENDBRANCH  16  24
BRANCH  13  26
HETATM   26  N   UNL     1     -11.367  12.984  69.236  1.00  0.00    -0.362 N  
HETATM   27  C   UNL     1     -11.956  13.228  70.476  1.00  0.00    -0.240 C  
HETATM   28  H   UNL     1     -11.310  13.703  68.514  1.00  0.00     0.000 HD 
HETATM   29  O   UNL     1     -12.258  12.327  71.257  1.00  0.00    -0.166 OA 
HETATM   30  C   UNL     1     -12.154  14.666  70.870  1.00  0.00    -0.393 C  
ENDBRANCH  13  26
ENDBRANCH   2   3
TORSDOF 5
ENDMDL
MODEL      138
REMARK 921   NORMALIZED FREE ENERGY PREDICTED BY IDOCK:   10.05 KCAL/MOL
REMARK 922        TOTAL FREE ENERGY PREDICTED BY IDOCK:   12.31 KCAL/MOL
REMARK 923 INTER-LIGAND FREE ENERGY PREDICTED BY IDOCK:    7.10 KCAL/MOL
REMARK 924 INTRA-LIGAND FREE ENERGY PREDICTED BY IDOCK:    5.21 KCAL/MOL
REMARK 927      BINDING AFFINITY PREDICTED BY RF-SCORE:    0.00 PKD
ROOT
HETATM    1  C   UNL     1     -10.947   5.799  72.813  1.00  0.00    -0.272 C  
HETATM    2  O   UNL     1     -11.531   6.931  72.162  1.00  0.00    -0.261 OA 
ENDROOT
BRANCH   2   3
HETATM    3  C   UNL     1     -10.757   7.559  71.218  1.00  0.00    -0.225 A  
HETATM    4  C   UNL     1      -9.859   8.538  71.592  1.00  0.00    -0.317 A  
HETATM    5  C   UNL     1      -9.008   9.202  70.680  1.00  0.00    -0.292 A  
HETATM    6  C   UNL     1      -9.045   8.905  69.300  1.00  0.00    -0.145 A  
HETATM    7  C   UNL     1     -10.075   7.967  68.898  1.00  0.00    -0.197 A  
HETATM    8  C   UNL     1      -7.999   9.458  68.291  1.00  0.00    -0.094 C  
HETATM    9  C   UNL     1     -10.919   7.286  69.856  1.00  0.00    -0.243 A  
HETATM   10  C   UNL     1      -7.501   8.516  67.444  1.00  0.00    -0.093 C  
HETATM   11  C   UNL     1      -6.884  10.559  70.721  1.00  0.00     0.428 C  
HETATM   12  C   UNL     1      -8.179  10.230  71.396  1.00  0.00     3.082 C  
HETATM   13  C   UNL     1      -7.221  11.564  69.620  1.00  0.00     0.160 C  
HETATM   14  C   UNL     1      -6.550   8.823  66.378  1.00  0.00    -0.063 C  
HETATM   15  C   UNL     1      -7.372  10.863  68.271  1.00  0.00    -0.087 C  
HETATM   16  C   UNL     1      -7.019   9.650  65.422  1.00  0.00    -0.095 C  
HETATM   17  C   UNL     1      -6.797  11.088  65.740  1.00  0.00     0.093 C  
HETATM   18  O   UNL     1      -6.508  11.911  64.874  1.00  0.00     2.138 OA 
HETATM   19  C   UNL     1      -6.925  11.519  67.170  1.00  0.00    -0.138 C  
BRANCH   7  20
HETATM   20  O   UNL     1     -10.230   7.809  67.526  1.00  0.00    -0.194 OA 
HETATM   21  C   UNL     1     -10.377   6.483  67.018  1.00  0.00    -0.253 C  
ENDBRANCH   7  20
BRANCH   9  22
HETATM   22  O   UNL     1     -11.914   6.481  69.371  1.00  0.00    -0.070 OA 
HETATM   23  C   UNL     1     -11.956   5.129  69.814  1.00  0.00     5.090 C  
ENDBRANCH   9  22
BRANCH  16  24
HETATM   24  O   UNL     1      -7.995   9.393  64.487  1.00  0.00    -0.114 OA 
HETATM   25  C   UNL     1      -9.337   9.588  64.907  1.00  0.00    -0.198 C  
ENDBRANCH  16  24
BRANCH  13  26
HETATM   26  N   UNL     1      -6.220  12.635  69.721  1.00  0.00    -0.216 N  
HETATM   27  C   UNL     1      -6.212  13.565  68.683  1.00  0.00    -0.088 C  
HETATM   28  H   UNL     1      -5.569  12.695  70.505  1.00  0.00     0.000 HD 
HETATM   29  O   UNL     1      -6.804  13.381  67.620  1.00  0.00    -0.145 OA 
HETATM   30  C   UNL     1      -5.497  14.865  68.932  1.00  0.00    -0.087 C  
ENDBRANCH  13  26
ENDBRANCH   2   3
TORSDOF 5
ENDMDL
MODEL      139
REMARK 921   NORMALIZED FREE ENERGY PREDICTED BY IDOCK:   11.27 KCAL/MOL
REMARK 922        TOTAL FREE ENERGY PREDICTED BY IDOCK:   13.89 KCAL/MOL
REMARK 923 INTER-LIGAND FREE ENERGY PREDICTED BY IDOCK:   12.13 KCAL/MOL
REMARK 924 INTRA-LIGAND FREE ENERGY PREDICTED BY IDOCK:    1.76 KCAL/MOL
REMARK 927      BINDING AFFINITY PREDICTED BY RF-SCORE:    0.00 PKD
ROOT
HETATM    1  C   UNL     1     -10.570  17.033  70.455  1.00  0.00     0.760 C  
HETATM    2  O   UNL     1      -9.981  17.096  69.153  1.00  0.00    -0.272 OA 
ENDROOT
BRANCH   2   3
HETATM    3  C   UNL     1      -9.829  15.902  68.493  1.00  0.00    -0.210 A  
HETATM    4  C   UNL     1     -10.858  15.393  67.727  1.00  0.00    -0.302 A  
HETATM    5  C   UNL     1     -10.760  14.189  66.993  1.00  0.00    -0.285 A  
HETATM    6  C   UNL     1      -9.580  13.415  67.020  1.00  0.00    -0.244 A  
HETATM    7  C   UNL     1      -8.549  13.891  67.921  1.00  0.00    -0.180 A  
HETATM    8  C   UNL     1      -9.350  12.197  66.080  1.00  0.00    -0.174 C  
HETATM    9  C   UNL     1      -8.668  15.137  68.645  1.00  0.00    -0.174 A  
HETATM   10  C   UNL     1      -8.130  12.190  65.477  1.00  0.00     1.419 C  
HETATM   11  C   UNL     1     -11.924  13.047  65.073  1.00  0.00    -0.438 C  
HETATM   12  C   UNL     1     -12.058  13.898  66.297  1.00  0.00    -0.484 C  
HETATM   13  C   UNL     1     -11.838  11.603  65.566  1.00  0.00     0.227 C  
HETATM   14  C   UNL     1      -7.679  11.113  64.599  1.00  0.00     0.734 C  
HETATM   15  C   UNL     1     -10.384  11.142  65.650  1.00  0.00    -0.311 C  
HETATM   16  C   UNL     1      -7.557   9.910  65.196  1.00  0.00    -0.132 C  
HETATM   17  C   UNL     1      -8.818   9.117  65.165  1.00  0.00    -0.200 C  
HETATM   18  O   UNL     1      -8.819   7.898  65.008  1.00  0.00     0.020 OA 
HETATM   19  C   UNL     1     -10.114   9.853  65.319  1.00  0.00    -0.227 C  
BRANCH   7  20
HETATM   20  O   UNL     1      -7.463  13.038  68.083  1.00  0.00    -0.106 OA 
HETATM   21  C   UNL     1      -6.156  13.573  67.876  1.00  0.00    -0.151 C  
ENDBRANCH   7  20
BRANCH   9  22
HETATM   22  O   UNL     1      -7.676  15.458  69.532  1.00  0.00    -0.219 OA 
HETATM   23  C   UNL     1      -6.943  16.658  69.310  1.00  0.00    -0.225 C  
ENDBRANCH   9  22
BRANCH  16  24
HETATM   24  O   UNL     1      -6.640   9.528  66.148  1.00  0.00    -0.068 OA 
HETATM   25  C   UNL     1      -7.097   8.610  67.131  1.00  0.00    -0.075 C  
ENDBRANCH  16  24
BRANCH  13  26
HETATM   26  N   UNL     1     -12.750  10.823  64.717  1.00  0.00     3.748 N  
HETATM   27  C   UNL     1     -12.711  11.108  63.353  1.00  0.00     1.322 C  
HETATM   28  H   UNL     1     -13.375  10.115  65.102  1.00  0.00     0.000 HD 
HETATM   29  O   UNL     1     -12.161  12.111  62.899  1.00  0.00    -0.121 OA 
HETATM   30  C   UNL     1     -13.317  10.094  62.422  1.00  0.00     8.496 C  
ENDBRANCH  13  26
ENDBRANCH   2   3
TORSDOF 5
ENDMDL
MODEL      140
REMARK 921   NORMALIZED FREE ENERGY PREDICTED BY IDOCK:   11.51 KCAL/MOL
REMARK 922        TOTAL FREE ENERGY PREDICTED BY IDOCK:   14.19 KCAL/MOL
REMARK 923 INTER-LIGAND FREE ENERGY PREDICTED BY IDOCK:    7.85 KCAL/MOL
REMARK 924 INTRA-LIGAND FREE ENERGY PREDICTED BY IDOCK:    6.34 KCAL/MOL
REMARK 927      BINDING AFFINITY PREDICTED BY RF-SCORE:    0.00 PKD
ROOT
HETATM    1  C   UNL     1     -10.621  18.147  73.740  1.00  0.00     3.676 C  
HETATM    2  O   UNL     1     -11.906  17.581  73.463  1.00  0.00     0.179 OA 
ENDROOT
BRANCH   2   3
HETATM    3  C   UNL     1     -11.922  16.459  72.673  1.00  0.00    -0.502 A  
HETATM    4  C   UNL     1     -12.481  15.287  73.139  1.00  0.00    -0.571 A  
HETATM    5  C   UNL     1     -12.564  14.104  72.369  1.00  0.00    -0.286 A  
HETATM    6  C   UNL     1     -12.049  14.053  71.055  1.00  0.00    -0.383 A  
HETATM    7  C   UNL     1     -11.355  15.249  70.617  1.00  0.00    -0.313 A  
HETATM    8  C   UNL     1     -12.293  12.849  70.102  1.00  0.00    -0.249 C  
HETATM    9  C   UNL     1     -11.303  16.452  71.419  1.00  0.00    -0.086 A  
HETATM   10  C   UNL     1     -12.680  13.210  68.848  1.00  0.00     0.927 C  
HETATM   11  C   UNL     1     -13.866  11.946  72.354  1.00  0.00     0.306 C  
HETATM   12  C   UNL     1     -13.193  13.003  73.173  1.00  0.00     1.542 C  
HETATM   13  C   UNL     1     -12.759  11.002  71.885  1.00  0.00    -0.204 C  
HETATM   14  C   UNL     1     -12.907  12.246  67.774  1.00  0.00     2.711 C  
HETATM   15  C   UNL     1     -12.306  11.355  70.469  1.00  0.00    -0.439 C  
HETATM   16  C   UNL     1     -11.815  11.550  67.397  1.00  0.00    -0.027 C  
HETATM   17  C   UNL     1     -11.624  10.301  68.186  1.00  0.00     0.123 C  
HETATM   18  O   UNL     1     -11.203   9.265  67.677  1.00  0.00     0.019 OA 
HETATM   19  C   UNL     1     -11.975  10.330  69.643  1.00  0.00    -0.130 C  
BRANCH   7  20
HETATM   20  O   UNL     1     -10.697  15.138  69.398  1.00  0.00    -0.243 OA 
HETATM   21  C   UNL     1     -11.271  15.792  68.267  1.00  0.00    -0.356 C  
ENDBRANCH   7  20
BRANCH   9  22
HETATM   22  O   UNL     1     -10.555  17.498  70.951  1.00  0.00     1.112 OA 
HETATM   23  C   UNL     1      -9.537  17.218  69.996  1.00  0.00     1.292 C  
ENDBRANCH   9  22
BRANCH  16  24
HETATM   24  O   UNL     1     -10.695  12.019  66.750  1.00  0.00    -0.227 OA 
HETATM   25  C   UNL     1     -10.674  13.407  66.451  1.00  0.00    -0.286 C  
ENDBRANCH  16  24
BRANCH  13  26
HETATM   26  N   UNL     1     -13.254   9.639  72.121  1.00  0.00    -0.441 N  
HETATM   27  C   UNL     1     -13.834   9.001  71.026  1.00  0.00     0.053 C  
HETATM   28  H   UNL     1     -13.178   9.186  73.032  1.00  0.00     0.000 HD 
HETATM   29  O   UNL     1     -14.161   9.601  70.003  1.00  0.00     0.926 OA 
HETATM   30  C   UNL     1     -13.991   7.507  71.106  1.00  0.00    -0.269 C  
ENDBRANCH  13  26
ENDBRANCH   2   3
TORSDOF 5
ENDMDL
MODEL      141
REMARK 921   NORMALIZED FREE ENERGY PREDICTED BY IDOCK:   11.93 KCAL/MOL
REMARK 922        TOTAL FREE ENERGY PREDICTED BY IDOCK:   14.73 KCAL/MOL
REMARK 923 INTER-LIGAND FREE ENERGY PREDICTED BY IDOCK:   10.98 KCAL/MOL
REMARK 924 INTRA-LIGAND FREE ENERGY PREDICTED BY IDOCK:    3.75 KCAL/MOL
REMARK 927      BINDING AFFINITY PREDICTED BY RF-SCORE:    0.00 PKD
ROOT
HETATM    1  C   UNL     1      -8.345  12.582  64.804  1.00  0.00     2.970 C  
HETATM    2  O   UNL     1      -7.514  12.717  65.960  1.00  0.00     1.293 OA 
ENDROOT
BRANCH   2   3
HETATM    3  C   UNL     1      -7.583  11.704  66.884  1.00  0.00    -0.138 A  
HETATM    4  C   UNL     1      -6.897  10.525  66.678  1.00  0.00    -0.108 A  
HETATM    5  C   UNL     1      -6.894   9.454  67.601  1.00  0.00    -0.076 A  
HETATM    6  C   UNL     1      -7.626   9.530  68.805  1.00  0.00    -0.076 A  
HETATM    7  C   UNL     1      -8.441  10.719  68.959  1.00  0.00    -0.133 A  
HETATM    8  C   UNL     1      -7.497   8.471  69.937  1.00  0.00    -0.063 C  
HETATM    9  C   UNL     1      -8.409  11.808  68.008  1.00  0.00    -0.154 A  
HETATM   10  C   UNL     1      -7.351   9.009  71.179  1.00  0.00    -0.115 C  
HETATM   11  C   UNL     1      -5.515   7.409  68.119  1.00  0.00    -0.026 C  
HETATM   12  C   UNL     1      -6.084   8.309  67.066  1.00  0.00    -0.054 C  
HETATM   13  C   UNL     1      -6.641   6.456  68.517  1.00  0.00    -0.055 C  
HETATM   14  C   UNL     1      -7.269   8.203  72.394  1.00  0.00    -0.119 C  
HETATM   15  C   UNL     1      -7.350   6.948  69.779  1.00  0.00    -0.085 C  
HETATM   16  C   UNL     1      -8.376   7.484  72.673  1.00  0.00    -0.117 C  
HETATM   17  C   UNL     1      -8.368   6.137  72.036  1.00  0.00    -0.114 C  
HETATM   18  O   UNL     1      -8.823   5.146  72.601  1.00  0.00    -0.122 OA 
HETATM   19  C   UNL     1      -7.771   6.011  70.667  1.00  0.00    -0.101 C  
BRANCH   7  20
HETATM   20  O   UNL     1      -9.295  10.714  70.055  1.00  0.00     0.231 OA 
HETATM   21  C   UNL     1      -8.878  11.406  71.232  1.00  0.00     9.330 C  
ENDBRANCH   7  20
BRANCH   9  22
HETATM   22  O   UNL     1      -9.275  12.850  68.201  1.00  0.00    -0.204 OA 
HETATM   23  C   UNL     1     -10.385  12.970  67.317  1.00  0.00    -0.238 C  
ENDBRANCH   9  22
BRANCH  16  24
HETATM   24  O   UNL     1      -9.612   7.951  73.056  1.00  0.00    -0.225 OA 
HETATM   25  C   UNL     1     -10.348   8.668  72.076  1.00  0.00    -0.346 C  
ENDBRANCH  16  24
BRANCH  13  26
HETATM   26  N   UNL     1      -6.049   5.111  68.551  1.00  0.00    -0.028 N  
HETATM   27  C   UNL     1      -6.936   4.058  68.768  1.00  0.00    -0.047 C  
HETATM   28  H   UNL     1      -5.049   4.958  68.421  1.00  0.00     0.000 HD 
HETATM   29  O   UNL     1      -8.087   4.229  69.170  1.00  0.00    -0.067 OA 
HETATM   30  C   UNL     1      -6.455   2.674  68.425  1.00  0.00    -0.029 C  
ENDBRANCH  13  26
ENDBRANCH   2   3
TORSDOF 5
ENDMDL
MODEL      142
REMARK 921   NORMALIZED FREE ENERGY PREDICTED BY IDOCK:   14.39 KCAL/MOL
REMARK 922        TOTAL FREE ENERGY PREDICTED BY IDOCK:   17.90 KCAL/MOL
REMARK 923 INTER-LIGAND FREE ENERGY PREDICTED BY IDOCK:   13.25 KCAL/MOL
REMARK 924 INTRA-LIGAND FREE ENERGY PREDICTED BY IDOCK:    4.65 KCAL/MOL
REMARK 927      BINDING AFFINITY PREDICTED BY RF-SCORE:    0.00 PKD
ROOT
HETATM    1  C   UNL     1      -7.473  13.009  64.174  1.00  0.00    11.677 C  
HETATM    2  O   UNL     1      -7.021  12.440  65.406  1.00  0.00     2.758 OA 
ENDROOT
BRANCH   2   3
HETATM    3  C   UNL     1      -7.308  11.113  65.608  1.00  0.00     0.259 A  
HETATM    4  C   UNL     1      -6.410  10.139  65.220  1.00  0.00    -0.119 A  
HETATM    5  C   UNL     1      -6.624   8.757  65.427  1.00  0.00    -0.067 A  
HETATM    6  C   UNL     1      -7.806   8.287  66.042  1.00  0.00    -0.095 A  
HETATM    7  C   UNL     1      -8.796   9.305  66.335  1.00  0.00    -0.146 A  
HETATM    8  C   UNL     1      -7.999   6.805  66.471  1.00  0.00    -0.105 C  
HETATM    9  C   UNL     1      -8.542  10.714  66.130  1.00  0.00    -0.159 A  
HETATM   10  C   UNL     1      -8.496   6.658  67.729  1.00  0.00    -0.122 C  
HETATM   11  C   UNL     1      -5.279   6.628  65.507  1.00  0.00    -0.018 C  
HETATM   12  C   UNL     1      -5.481   7.964  64.863  1.00  0.00    -0.033 C  
HETATM   13  C   UNL     1      -6.286   5.683  64.853  1.00  0.00    -0.037 C  
HETATM   14  C   UNL     1      -8.811   5.358  68.317  1.00  0.00    -0.105 C  
HETATM   15  C   UNL     1      -7.542   5.546  65.715  1.00  0.00    -0.083 C  
HETATM   16  C   UNL     1      -9.790   4.675  67.690  1.00  0.00    -0.141 C  
HETATM   17  C   UNL     1      -9.280   3.812  66.587  1.00  0.00    -0.174 C  
HETATM   18  O   UNL     1      -9.758   2.706  66.350  1.00  0.00     0.154 OA 
HETATM   19  C   UNL     1      -8.139   4.328  65.763  1.00  0.00    -0.101 C  
BRANCH   7  20
HETATM   20  O   UNL     1     -10.025   8.826  66.773  1.00  0.00    -0.218 OA 
HETATM   21  C   UNL     1     -10.262   8.783  68.180  1.00  0.00    -0.205 C  
ENDBRANCH   7  20
BRANCH   9  22
HETATM   22  O   UNL     1      -9.570  11.587  66.362  1.00  0.00    -0.198 OA 
HETATM   23  C   UNL     1     -10.169  12.227  65.240  1.00  0.00    -0.278 C  
ENDBRANCH   9  22
BRANCH  16  24
HETATM   24  O   UNL     1     -11.130   4.981  67.631  1.00  0.00     0.497 OA 
HETATM   25  C   UNL     1     -11.486   6.105  66.838  1.00  0.00     0.415 C  
ENDBRANCH  16  24
BRANCH  13  26
HETATM   26  N   UNL     1      -5.548   4.455  64.528  1.00  0.00    -0.013 N  
HETATM   27  C   UNL     1      -6.276   3.455  63.884  1.00  0.00    -0.019 C  
HETATM   28  H   UNL     1      -4.561   4.340  64.759  1.00  0.00     0.000 HD 
HETATM   29  O   UNL     1      -7.505   3.465  63.819  1.00  0.00    -0.060 OA 
HETATM   30  C   UNL     1      -5.492   2.372  63.195  1.00  0.00    -0.008 C  
ENDBRANCH  13  26
ENDBRANCH   2   3
TORSDOF 5
ENDMDL
MODEL      143
REMARK 921   NORMALIZED FREE ENERGY PREDICTED BY IDOCK:   28.15 KCAL/MOL
REMARK 922        TOTAL FREE ENERGY PREDICTED BY IDOCK:   35.70 KCAL/MOL
REMARK 923 INTER-LIGAND FREE ENERGY PREDICTED BY IDOCK:   33.62 KCAL/MOL
REMARK 924 INTRA-LIGAND FREE ENERGY PREDICTED BY IDOCK:    2.07 KCAL/MOL
REMARK 927      BINDING AFFINITY PREDICTED BY RF-SCORE:    0.00 PKD
ROOT
HETATM    1  C   UNL     1     -11.934  11.300  63.724  1.00  0.00     0.415 C  
HETATM    2  O   UNL     1     -11.638  10.570  64.918  1.00  0.00     1.132 OA 
ENDROOT
BRANCH   2   3
HETATM    3  C   UNL     1     -11.095  11.288  65.954  1.00  0.00    -0.101 A  
HETATM    4  C   UNL     1     -11.816  11.494  67.112  1.00  0.00    -0.000 A  
HETATM    5  C   UNL     1     -11.309  12.193  68.231  1.00  0.00    -0.343 A  
HETATM    6  C   UNL     1     -10.009  12.746  68.216  1.00  0.00    -0.230 A  
HETATM    7  C   UNL     1      -9.304  12.632  66.954  1.00  0.00    -0.228 A  
HETATM    8  C   UNL     1      -9.334  13.345  69.483  1.00  0.00     1.275 C  
HETATM    9  C   UNL     1      -9.840  11.894  65.832  1.00  0.00    -0.237 A  
HETATM   10  C   UNL     1      -8.054  12.926  69.673  1.00  0.00     1.515 C  
HETATM   11  C   UNL     1     -11.796  12.429  70.692  1.00  0.00    -0.025 C  
HETATM   12  C   UNL     1     -12.350  12.273  69.311  1.00  0.00     0.069 C  
HETATM   13  C   UNL     1     -11.477  13.915  70.858  1.00  0.00     0.390 C  
HETATM   14  C   UNL     1      -7.210  13.405  70.765  1.00  0.00     2.575 C  
HETATM   15  C   UNL     1      -9.999  14.188  70.585  1.00  0.00     2.440 C  
HETATM   16  C   UNL     1      -6.932  14.724  70.730  1.00  0.00     0.618 C  
HETATM   17  C   UNL     1      -7.949  15.551  71.438  1.00  0.00     4.157 C  
HETATM   18  O   UNL     1      -7.641  16.544  72.092  1.00  0.00     8.619 OA 
HETATM   19  C   UNL     1      -9.384  15.130  71.346  1.00  0.00     3.134 C  
BRANCH   7  20
HETATM   20  O   UNL     1      -8.103  13.327  66.882  1.00  0.00    -0.068 OA 
HETATM   21  C   UNL     1      -8.148  14.702  66.500  1.00  0.00     0.502 C  
ENDBRANCH   7  20
BRANCH   9  22
HETATM   22  O   UNL     1      -9.134  11.913  64.660  1.00  0.00     0.193 OA 
HETATM   23  C   UNL     1      -7.868  11.262  64.632  1.00  0.00     0.899 C  
ENDBRANCH   9  22
BRANCH  16  24
HETATM   24  O   UNL     1      -6.149  15.398  69.820  1.00  0.00    -0.131 OA 
HETATM   25  C   UNL     1      -6.797  16.402  69.053  1.00  0.00    -0.198 C  
ENDBRANCH  16  24
BRANCH  13  26
HETATM   26  N   UNL     1     -12.009  14.305  72.171  1.00  0.00    -0.122 N  
HETATM   27  C   UNL     1     -12.602  13.289  72.919  1.00  0.00     0.890 C  
HETATM   28  H   UNL     1     -11.948  15.264  72.516  1.00  0.00     0.000 HD 
HETATM   29  O   UNL     1     -12.909  12.200  72.435  1.00  0.00    -0.095 OA 
HETATM   30  C   UNL     1     -12.799  13.543  74.388  1.00  0.00     6.579 C  
ENDBRANCH  13  26
ENDBRANCH   2   3
TORSDOF 5
ENDMDL
MODEL      144
REMARK 921   NORMALIZED FREE ENERGY PREDICTED BY IDOCK:   28.31 KCAL/MOL
REMARK 922        TOTAL FREE ENERGY PREDICTED BY IDOCK:   35.90 KCAL/MOL
REMARK 923 INTER-LIGAND FREE ENERGY PREDICTED BY IDOCK:   32.80 KCAL/MOL
REMARK 924 INTRA-LIGAND FREE ENERGY PREDICTED BY IDOCK:    3.10 KCAL/MOL
REMARK 927      BINDING AFFINITY PREDICTED BY RF-SCORE:    0.00 PKD
ROOT
HETATM    1  C   UNL     1     -10.811  16.597  73.323  1.00  0.00     3.529 C  
HETATM    2  O   UNL     1     -10.236  16.730  72.020  1.00  0.00     3.652 OA 
ENDROOT
BRANCH   2   3
HETATM    3  C   UNL     1     -10.056  15.570  71.310  1.00  0.00     1.355 A  
HETATM    4  C   UNL     1      -8.969  14.759  71.564  1.00  0.00     4.399 A  
HETATM    5  C   UNL     1      -8.739  13.534  70.896  1.00  0.00     7.121 A  
HETATM    6  C   UNL     1      -9.622  13.073  69.896  1.00  0.00     2.534 A  
HETATM    7  C   UNL     1     -10.693  13.987  69.548  1.00  0.00     0.027 A  
HETATM    8  C   UNL     1      -9.525  11.649  69.278  1.00  0.00     0.417 C  
HETATM    9  C   UNL     1     -10.917  15.225  70.262  1.00  0.00    -0.289 A  
HETATM   10  C   UNL     1     -10.719  11.000  69.202  1.00  0.00    -0.274 C  
HETATM   11  C   UNL     1      -7.399  11.425  71.225  1.00  0.00     4.954 C  
HETATM   12  C   UNL     1      -7.459  12.913  71.376  1.00  0.00     7.064 C  
HETATM   13  C   UNL     1      -7.010  11.160  69.771  1.00  0.00    -0.050 C  
HETATM   14  C   UNL     1     -10.872   9.676  68.604  1.00  0.00    -0.203 C  
HETATM   15  C   UNL     1      -8.247  10.871  68.921  1.00  0.00    -0.141 C  
HETATM   16  C   UNL     1     -10.584   9.612  67.288  1.00  0.00    -0.247 C  
HETATM   17  C   UNL     1      -9.145   9.330  67.022  1.00  0.00    -0.130 C  
HETATM   18  O   UNL     1      -8.782   8.613  66.093  1.00  0.00    -0.138 OA 
HETATM   19  C   UNL     1      -8.129   9.942  67.938  1.00  0.00    -0.109 C  
BRANCH   7  20
HETATM   20  O   UNL     1     -11.454  13.616  68.447  1.00  0.00    -0.270 OA 
HETATM   21  C   UNL     1     -10.967  13.961  67.150  1.00  0.00    -0.291 C  
ENDBRANCH   7  20
BRANCH   9  22
HETATM   22  O   UNL     1     -11.904  16.055  69.805  1.00  0.00    -0.312 OA 
HETATM   23  C   UNL     1     -12.210  16.028  68.415  1.00  0.00     0.532 C  
ENDBRANCH   9  22
BRANCH  16  24
HETATM   24  O   UNL     1     -11.281  10.173  66.243  1.00  0.00     0.287 OA 
HETATM   25  C   UNL     1     -10.508  10.625  65.140  1.00  0.00    -0.201 C  
ENDBRANCH  16  24
BRANCH  13  26
HETATM   26  N   UNL     1      -5.957  10.135  69.808  1.00  0.00    -0.043 N  
HETATM   27  C   UNL     1      -6.091   9.154  70.789  1.00  0.00    -0.049 C  
HETATM   28  H   UNL     1      -5.174  10.142  69.154  1.00  0.00     0.000 HD 
HETATM   29  O   UNL     1      -6.873   9.260  71.733  1.00  0.00    -0.300 OA 
HETATM   30  C   UNL     1      -5.281   7.898  70.618  1.00  0.00    -0.023 C  
ENDBRANCH  13  26
ENDBRANCH   2   3
TORSDOF 5
ENDMDL
MODEL      145
REMARK 921   NORMALIZED FREE ENERGY PREDICTED BY IDOCK:   32.22 KCAL/MOL
REMARK 922        TOTAL FREE ENERGY PREDICTED BY IDOCK:   40.95 KCAL/MOL
REMARK 923 INTER-LIGAND FREE ENERGY PREDICTED BY IDOCK:   31.17 KCAL/MOL
REMARK 924 INTRA-LIGAND FREE ENERGY PREDICTED BY IDOCK:    9.78 KCAL/MOL
REMARK 927      BINDING AFFINITY PREDICTED BY RF-SCORE:    0.00 PKD
ROOT
HETATM    1  C   UNL     1      -8.968  18.042  67.713  1.00  0.00    -0.255 C  
HETATM    2  O   UNL     1      -9.471  17.479  68.928  1.00  0.00    -0.260 OA 
ENDROOT
BRANCH   2   3
HETATM    3  C   UNL     1      -9.702  16.126  68.925  1.00  0.00    -0.242 A  
HETATM    4  C   UNL     1      -8.811  15.266  69.535  1.00  0.00    -0.181 A  
HETATM    5  C   UNL     1      -9.001  13.867  69.601  1.00  0.00     1.164 A  
HETATM    6  C   UNL     1     -10.133  13.258  69.015  1.00  0.00     0.126 A  
HETATM    7  C   UNL     1     -11.000  14.151  68.272  1.00  0.00    -0.251 A  
HETATM    8  C   UNL     1     -10.488  11.759  69.232  1.00  0.00     0.020 C  
HETATM    9  C   UNL     1     -10.792  15.582  68.239  1.00  0.00    -0.292 A  
HETATM   10  C   UNL     1     -11.796  11.544  69.542  1.00  0.00    -0.419 C  
HETATM   11  C   UNL     1      -8.164  11.907  70.946  1.00  0.00     7.448 C  
HETATM   12  C   UNL     1      -7.841  13.217  70.297  1.00  0.00     3.020 C  
HETATM   13  C   UNL     1      -8.115  10.858  69.836  1.00  0.00     0.597 C  
HETATM   14  C   UNL     1     -12.363  10.211  69.730  1.00  0.00     0.084 C  
HETATM   15  C   UNL     1      -9.516  10.569  69.298  1.00  0.00    -0.191 C  
HETATM   16  C   UNL     1     -12.338   9.425  68.635  1.00  0.00     3.200 C  
HETATM   17  C   UNL     1     -11.079   8.637  68.514  1.00  0.00     0.328 C  
HETATM   18  O   UNL     1     -11.068   7.485  68.088  1.00  0.00     0.033 OA 
HETATM   19  C   UNL     1      -9.800   9.289  68.944  1.00  0.00    -0.170 C  
BRANCH   7  20
HETATM   20  O   UNL     1     -12.012  13.529  67.551  1.00  0.00    -0.361 OA 
HETATM   21  C   UNL     1     -11.883  13.474  66.130  1.00  0.00    -0.389 C  
ENDBRANCH   7  20
BRANCH   9  22
HETATM   22  O   UNL     1     -11.619  16.328  67.443  1.00  0.00     0.126 OA 
HETATM   23  C   UNL     1     -11.025  17.287  66.574  1.00  0.00     0.213 C  
ENDBRANCH   9  22
BRANCH  16  24
HETATM   24  O   UNL     1     -13.057   9.574  67.471  1.00  0.00     8.998 OA 
HETATM   25  C   UNL     1     -12.312   9.554  66.262  1.00  0.00     9.273 C  
ENDBRANCH  16  24
BRANCH  13  26
HETATM   26  N   UNL     1      -7.346   9.727  70.373  1.00  0.00    -0.146 N  
HETATM   27  C   UNL     1      -7.796   8.457  70.016  1.00  0.00    -0.103 C  
HETATM   28  H   UNL     1      -6.530   9.863  70.970  1.00  0.00     0.000 HD 
HETATM   29  O   UNL     1      -8.902   8.260  69.514  1.00  0.00    -0.146 OA 
HETATM   30  C   UNL     1      -6.840   7.312  70.206  1.00  0.00    -0.052 C  
ENDBRANCH  13  26
ENDBRANCH   2   3
TORSDOF 5
ENDMDL
MODEL      146
REMARK 921   NORMALIZED FREE ENERGY PREDICTED BY IDOCK:   37.35 KCAL/MOL
REMARK 922        TOTAL FREE ENERGY PREDICTED BY IDOCK:   47.58 KCAL/MOL
REMARK 923 INTER-LIGAND FREE ENERGY PREDICTED BY IDOCK:   46.19 KCAL/MOL
REMARK 924 INTRA-LIGAND FREE ENERGY PREDICTED BY IDOCK:    1.39 KCAL/MOL
REMARK 927      BINDING AFFINITY PREDICTED BY RF-SCORE:    0.00 PKD
ROOT
HETATM    1  C   UNL     1     -13.715   9.773  62.364  1.00  0.00    12.312 C  
HETATM    2  O   UNL     1     -12.486  10.467  62.596  1.00  0.00     2.326 OA 
ENDROOT
BRANCH   2   3
HETATM    3  C   UNL     1     -12.053  10.525  63.897  1.00  0.00     3.846 A  
HETATM    4  C   UNL     1     -11.341   9.477  64.442  1.00  0.00     6.991 A  
HETATM    5  C   UNL     1     -10.835   9.482  65.762  1.00  0.00     1.103 A  
HETATM    6  C   UNL     1     -11.052  10.582  66.620  1.00  0.00    -0.006 A  
HETATM    7  C   UNL     1     -11.903  11.626  66.083  1.00  0.00     0.278 A  
HETATM    8  C   UNL     1     -10.351  10.723  68.002  1.00  0.00    -0.211 C  
HETATM    9  C   UNL     1     -12.391  11.603  64.722  1.00  0.00     0.446 A  
HETATM   10  C   UNL     1      -9.817  11.955  68.224  1.00  0.00    -0.199 C  
HETATM   11  C   UNL     1      -9.092   8.274  67.122  1.00  0.00    -0.162 C  
HETATM   12  C   UNL     1     -10.140   8.184  66.058  1.00  0.00     0.301 C  
HETATM   13  C   UNL     1      -9.833   8.207  68.457  1.00  0.00    -0.179 C  
HETATM   14  C   UNL     1      -9.164  12.329  69.476  1.00  0.00     1.474 C  
HETATM   15  C   UNL     1     -10.065   9.608  69.022  1.00  0.00    -0.193 C  
HETATM   16  C   UNL     1      -9.967  12.318  70.559  1.00  0.00     4.854 C  
HETATM   17  C   UNL     1     -10.016  10.988  71.231  1.00  0.00     5.342 C  
HETATM   18  O   UNL     1     -10.076  10.877  72.453  1.00  0.00     7.685 OA 
HETATM   19  C   UNL     1      -9.978   9.764  70.368  1.00  0.00    -0.294 C  
BRANCH   7  20
HETATM   20  O   UNL     1     -12.262  12.620  66.986  1.00  0.00    -0.466 OA 
HETATM   21  C   UNL     1     -11.428  13.775  67.074  1.00  0.00    -0.346 C  
ENDBRANCH   7  20
BRANCH   9  22
HETATM   22  O   UNL     1     -13.253  12.594  64.337  1.00  0.00    -0.713 OA 
HETATM   23  C   UNL     1     -12.874  13.422  63.243  1.00  0.00     0.652 C  
ENDBRANCH   9  22
BRANCH  16  24
HETATM   24  O   UNL     1     -11.014  13.164  70.844  1.00  0.00     1.761 OA 
HETATM   25  C   UNL     1     -10.924  14.479  70.315  1.00  0.00     0.037 C  
ENDBRANCH  16  24
BRANCH  13  26
HETATM   26  N   UNL     1      -9.092   7.251  69.292  1.00  0.00    -0.139 N  
HETATM   27  C   UNL     1      -9.007   5.949  68.804  1.00  0.00    -0.117 C  
HETATM   28  H   UNL     1      -8.665   7.525  70.177  1.00  0.00     0.000 HD 
HETATM   29  O   UNL     1      -9.712   5.537  67.882  1.00  0.00    -0.120 OA 
HETATM   30  C   UNL     1      -7.955   5.058  69.405  1.00  0.00    -0.075 C  
ENDBRANCH  13  26
ENDBRANCH   2   3
TORSDOF 5
ENDMDL
MODEL      147
REMARK 921   NORMALIZED FREE ENERGY PREDICTED BY IDOCK:   46.63 KCAL/MOL
REMARK 922        TOTAL FREE ENERGY PREDICTED BY IDOCK:   59.57 KCAL/MOL
REMARK 923 INTER-LIGAND FREE ENERGY PREDICTED BY IDOCK:   50.91 KCAL/MOL
REMARK 924 INTRA-LIGAND FREE ENERGY PREDICTED BY IDOCK:    8.66 KCAL/MOL
REMARK 927      BINDING AFFINITY PREDICTED BY RF-SCORE:    0.00 PKD
ROOT
HETATM    1  C   UNL     1     -10.762  19.720  73.597  1.00  0.00     5.265 C  
HETATM    2  O   UNL     1     -11.738  19.029  72.812  1.00  0.00     4.893 OA 
ENDROOT
BRANCH   2   3
HETATM    3  C   UNL     1     -11.292  18.455  71.648  1.00  0.00     4.386 A  
HETATM    4  C   UNL     1     -10.731  17.194  71.663  1.00  0.00     2.239 A  
HETATM    5  C   UNL     1     -10.282  16.529  70.499  1.00  0.00     0.914 A  
HETATM    6  C   UNL     1     -10.370  17.142  69.230  1.00  0.00    -0.257 A  
HETATM    7  C   UNL     1     -10.846  18.511  69.237  1.00  0.00     1.200 A  
HETATM    8  C   UNL     1     -10.078  16.380  67.906  1.00  0.00    -0.250 C  
HETATM    9  C   UNL     1     -11.318  19.160  70.441  1.00  0.00     5.124 A  
HETATM   10  C   UNL     1     -11.016  16.579  66.940  1.00  0.00     0.023 C  
HETATM   11  C   UNL     1      -9.739  14.183  69.754  1.00  0.00     0.829 C  
HETATM   12  C   UNL     1      -9.695  15.194  70.858  1.00  0.00     1.337 C  
HETATM   13  C   UNL     1      -8.547  14.490  68.848  1.00  0.00    -0.103 C  
HETATM   14  C   UNL     1     -10.915  16.009  65.598  1.00  0.00    -0.175 C  
HETATM   15  C   UNL     1      -8.977  15.337  67.651  1.00  0.00    -0.182 C  
HETATM   16  C   UNL     1      -9.863  16.445  64.876  1.00  0.00     1.140 C  
HETATM   17  C   UNL     1      -8.637  15.624  65.084  1.00  0.00     3.036 C  
HETATM   18  O   UNL     1      -7.856  15.373  64.169  1.00  0.00    10.533 OA 
HETATM   19  C   UNL     1      -8.375  15.089  66.460  1.00  0.00    -0.002 C  
BRANCH   7  20
HETATM   20  O   UNL     1     -10.765  19.172  68.018  1.00  0.00    -0.353 OA 
HETATM   21  C   UNL     1     -11.132  18.452  66.841  1.00  0.00     0.260 C  
ENDBRANCH   7  20
BRANCH   9  22
HETATM   22  O   UNL     1     -11.671  20.480  70.357  1.00  0.00     4.006 OA 
HETATM   23  C   UNL     1     -10.791  21.366  69.672  1.00  0.00     2.022 C  
ENDBRANCH   9  22
BRANCH  16  24
HETATM   24  O   UNL     1      -9.653  17.704  64.364  1.00  0.00     3.800 OA 
HETATM   25  C   UNL     1      -9.007  18.634  65.222  1.00  0.00     1.947 C  
ENDBRANCH  16  24
BRANCH  13  26
HETATM   26  N   UNL     1      -7.899  13.200  68.571  1.00  0.00    -0.204 N  
HETATM   27  C   UNL     1      -8.543  12.377  67.649  1.00  0.00    -0.172 C  
HETATM   28  H   UNL     1      -7.029  12.924  69.026  1.00  0.00     0.000 HD 
HETATM   29  O   UNL     1      -9.701  12.571  67.280  1.00  0.00    -0.197 OA 
HETATM   30  C   UNL     1      -7.739  11.256  67.051  1.00  0.00    -0.147 C  
ENDBRANCH  13  26
ENDBRANCH   2   3
TORSDOF 5
ENDMDL
MODEL      148
REMARK 921   NORMALIZED FREE ENERGY PREDICTED BY IDOCK:   53.80 KCAL/MOL
REMARK 922        TOTAL FREE ENERGY PREDICTED BY IDOCK:   68.84 KCAL/MOL
REMARK 923 INTER-LIGAND FREE ENERGY PREDICTED BY IDOCK:   64.88 KCAL/MOL
REMARK 924 INTRA-LIGAND FREE ENERGY PREDICTED BY IDOCK:    3.96 KCAL/MOL
REMARK 927      BINDING AFFINITY PREDICTED BY RF-SCORE:    0.00 PKD
ROOT
HETATM    1  C   UNL     1      -6.092  12.205  66.854  1.00  0.00    -0.010 C  
HETATM    2  O   UNL     1      -6.432  12.176  68.242  1.00  0.00    -0.050 OA 
ENDROOT
BRANCH   2   3
HETATM    3  C   UNL     1      -6.972  13.324  68.764  1.00  0.00    -0.103 A  
HETATM    4  C   UNL     1      -7.822  14.103  68.004  1.00  0.00    -0.146 A  
HETATM    5  C   UNL     1      -8.441  15.278  68.486  1.00  0.00    -0.162 A  
HETATM    6  C   UNL     1      -8.202  15.740  69.799  1.00  0.00     0.145 A  
HETATM    7  C   UNL     1      -7.216  14.988  70.549  1.00  0.00     0.561 A  
HETATM    8  C   UNL     1      -9.007  16.906  70.440  1.00  0.00     2.960 C  
HETATM    9  C   UNL     1      -6.613  13.776  70.038  1.00  0.00     0.045 A  
HETATM   10  C   UNL     1      -9.446  16.643  71.701  1.00  0.00     6.912 C  
HETATM   11  C   UNL     1     -10.400  16.755  67.911  1.00  0.00    -0.319 C  
HETATM   12  C   UNL     1      -9.273  15.908  67.407  1.00  0.00    -0.207 C  
HETATM   13  C   UNL     1      -9.789  18.111  68.262  1.00  0.00    -0.351 C  
HETATM   14  C   UNL     1     -10.172  17.616  72.514  1.00  0.00     6.430 C  
HETATM   15  C   UNL     1      -9.483  18.200  69.757  1.00  0.00     0.892 C  
HETATM   16  C   UNL     1      -9.472  18.726  72.829  1.00  0.00     7.722 C  
HETATM   17  C   UNL     1      -9.603  19.803  71.807  1.00  0.00     3.045 C  
HETATM   18  O   UNL     1      -9.663  20.990  72.115  1.00  0.00     2.197 OA 
HETATM   19  C   UNL     1      -9.675  19.398  70.366  1.00  0.00     1.131 C  
BRANCH   7  20
HETATM   20  O   UNL     1      -6.851  15.542  71.770  1.00  0.00     2.054 OA 
HETATM   21  C   UNL     1      -5.748  14.961  72.466  1.00  0.00     0.413 C  
ENDBRANCH   7  20
BRANCH   9  22
HETATM   22  O   UNL     1      -5.634  13.185  70.789  1.00  0.00    -0.167 OA 
HETATM   23  C   UNL     1      -6.021  12.518  71.986  1.00  0.00     1.751 C  
ENDBRANCH   9  22
BRANCH  16  24
HETATM   24  O   UNL     1      -8.383  18.830  73.663  1.00  0.00     6.118 OA 
HETATM   25  C   UNL     1      -7.590  17.662  73.815  1.00  0.00    12.612 C  
ENDBRANCH  16  24
BRANCH  13  26
HETATM   26  N   UNL     1     -10.684  19.127  67.690  1.00  0.00    -0.445 N  
HETATM   27  C   UNL     1     -12.043  18.963  67.955  1.00  0.00     3.369 C  
HETATM   28  H   UNL     1     -10.332  19.905  67.132  1.00  0.00     0.000 HD 
HETATM   29  O   UNL     1     -12.512  17.918  68.403  1.00  0.00     3.108 OA 
HETATM   30  C   UNL     1     -12.933  20.156  67.735  1.00  0.00     5.375 C  
ENDBRANCH  13  26
ENDBRANCH   2   3
TORSDOF 5
ENDMDL
