MODEL        1
REMARK 921   NORMALIZED FREE ENERGY PREDICTED BY IDOCK:   -8.51 KCAL/MOL
REMARK 922        TOTAL FREE ENERGY PREDICTED BY IDOCK:  -11.98 KCAL/MOL
REMARK 923 INTER-LIGAND FREE ENERGY PREDICTED BY IDOCK:  -10.50 KCAL/MOL
REMARK 924 INTRA-LIGAND FREE ENERGY PREDICTED BY IDOCK:   -1.48 KCAL/MOL
REMARK 927      BINDING AFFINITY PREDICTED BY RF-SCORE:    0.00 PKD
ROOT
HETATM    1  C   UNL     1      -5.301  19.950  62.336  1.00  0.00    -0.311 C  
HETATM    2  C   UNL     1      -5.768  19.753  63.727  1.00  0.00    -0.284 A  
HETATM    3  N   UNL     1      -5.782  18.622  64.406  1.00  0.00    -0.250 NA 
HETATM    4  C   UNL     1      -6.318  18.936  65.629  1.00  0.00    -0.256 A  
HETATM    5  H   UNL     1      -5.461  17.708  64.089  1.00  0.00     0.000 HD 
HETATM    6  C   UNL     1      -6.586  20.279  65.709  1.00  0.00    -0.247 A  
HETATM    7  N   UNL     1      -6.245  20.793  64.490  1.00  0.00    -0.294 NA 
HETATM    8  C   UNL     1      -7.144  21.026  66.853  1.00  0.00    -0.298 C  
HETATM    9  C   UNL     1      -8.510  20.445  67.217  1.00  0.00    -0.331 C  
HETATM   10  N   UNL     1      -8.624  19.018  67.569  1.00  0.00    -0.283 N  
HETATM   11  C   UNL     1      -7.458  18.200  67.759  1.00  0.00    -0.213 A  
HETATM   12  C   UNL     1      -9.961  18.586  67.779  1.00  0.00    -0.343 C  
HETATM   13  C   UNL     1      -7.371  17.396  68.910  1.00  0.00    -0.244 A  
HETATM   14  O   UNL     1     -10.899  19.390  67.736  1.00  0.00    -0.418 OA 
HETATM   15  C   UNL     1      -6.461  18.042  66.760  1.00  0.00    -0.218 A  
HETATM   16  C   UNL     1      -6.441  16.354  69.002  1.00  0.00    -0.171 A  
HETATM   17  C   UNL     1      -5.538  16.986  66.864  1.00  0.00    -0.210 A  
HETATM   18  C   UNL     1      -5.547  16.128  67.962  1.00  0.00    -0.124 A  
ENDROOT
BRANCH  12  19
HETATM   19  C   UNL     1     -10.322  17.167  68.091  1.00  0.00    -0.350 A  
HETATM   20  C   UNL     1     -10.712  16.876  69.403  1.00  0.00    -0.258 A  
HETATM   21  C   UNL     1     -10.611  14.496  68.948  1.00  0.00    -0.249 A  
HETATM   22  C   UNL     1     -10.294  14.786  67.618  1.00  0.00    -0.237 A  
HETATM   23  C   UNL     1     -10.873  15.550  69.823  1.00  0.00    -0.301 A  
HETATM   24  C   UNL     1     -10.235  16.115  67.176  1.00  0.00    -0.281 A  
BRANCH  21  25
HETATM   25  N   UNL     1     -10.625  13.143  69.356  1.00  0.00    -0.417 N  
HETATM   26  C   UNL     1     -11.406  12.149  68.772  1.00  0.00    -0.288 C  
HETATM   27  H   UNL     1     -10.020  12.875  70.132  1.00  0.00     0.000 HD 
HETATM   28  O   UNL     1     -12.104  12.308  67.779  1.00  0.00    -0.478 OA 
BRANCH  26  29
HETATM   29  C   UNL     1     -11.299  10.763  69.334  1.00  0.00    -0.351 A  
HETATM   30  C   UNL     1     -12.032  10.476  70.511  1.00  0.00    -0.436 A  
HETATM   31  C   UNL     1     -11.838   9.289  71.213  1.00  0.00    -0.415 A  
HETATM   32  C   UNL     1     -10.911   8.370  70.757  1.00  0.00    -0.255 A  
HETATM   33  C   UNL     1     -10.217   8.618  69.571  1.00  0.00    -0.209 A  
HETATM   34  C   UNL     1     -10.379   9.808  68.815  1.00  0.00    -0.227 A  
BRANCH  34  35
HETATM   35  C   UNL     1      -9.589   9.929  67.545  1.00  0.00    -0.183 A  
HETATM   36  C   UNL     1      -8.305  10.500  67.491  1.00  0.00    -0.118 A  
HETATM   37  C   UNL     1      -7.621  10.667  66.276  1.00  0.00    -0.137 A  
HETATM   38  C   UNL     1      -8.222  10.305  65.075  1.00  0.00    -0.154 A  
HETATM   39  C   UNL     1      -9.489   9.739  65.090  1.00  0.00    -0.338 A  
HETATM   40  C   UNL     1     -10.148   9.535  66.308  1.00  0.00    -0.327 A  
ENDBRANCH  34  35
ENDBRANCH  26  29
ENDBRANCH  21  25
ENDBRANCH  12  19
TORSDOF 4
ENDMDL
MODEL        2
REMARK 921   NORMALIZED FREE ENERGY PREDICTED BY IDOCK:   -8.50 KCAL/MOL
REMARK 922        TOTAL FREE ENERGY PREDICTED BY IDOCK:  -11.97 KCAL/MOL
REMARK 923 INTER-LIGAND FREE ENERGY PREDICTED BY IDOCK:  -10.93 KCAL/MOL
REMARK 924 INTRA-LIGAND FREE ENERGY PREDICTED BY IDOCK:   -1.04 KCAL/MOL
REMARK 927      BINDING AFFINITY PREDICTED BY RF-SCORE:    0.00 PKD
ROOT
HETATM    1  C   UNL     1      -8.030  18.548  66.951  1.00  0.00    -0.250 C  
HETATM    2  C   UNL     1      -8.910  17.366  66.805  1.00  0.00    -0.251 A  
HETATM    3  N   UNL     1      -9.193  16.469  67.729  1.00  0.00    -0.201 NA 
HETATM    4  C   UNL     1     -10.023  15.563  67.119  1.00  0.00    -0.242 A  
HETATM    5  H   UNL     1      -8.864  16.453  68.694  1.00  0.00     0.000 HD 
HETATM    6  C   UNL     1     -10.286  15.942  65.827  1.00  0.00    -0.365 A  
HETATM    7  N   UNL     1      -9.564  17.085  65.628  1.00  0.00    -0.530 NA 
HETATM    8  C   UNL     1     -11.144  15.262  64.838  1.00  0.00    -0.435 C  
HETATM    9  C   UNL     1     -10.629  13.841  64.615  1.00  0.00    -0.425 C  
HETATM   10  N   UNL     1     -10.517  12.918  65.759  1.00  0.00    -0.274 N  
HETATM   11  C   UNL     1     -11.053  13.259  67.049  1.00  0.00    -0.282 A  
HETATM   12  C   UNL     1      -9.923  11.669  65.432  1.00  0.00    -0.250 C  
HETATM   13  C   UNL     1     -11.859  12.321  67.720  1.00  0.00    -0.341 A  
HETATM   14  O   UNL     1      -9.620  11.401  64.264  1.00  0.00    -0.229 OA 
HETATM   15  C   UNL     1     -10.677  14.434  67.750  1.00  0.00    -0.248 A  
HETATM   16  C   UNL     1     -12.142  12.448  69.084  1.00  0.00    -0.195 A  
HETATM   17  C   UNL     1     -10.963  14.544  69.123  1.00  0.00    -0.286 A  
HETATM   18  C   UNL     1     -11.663  13.543  69.794  1.00  0.00    -0.363 A  
ENDROOT
BRANCH  12  19
HETATM   19  C   UNL     1      -9.658  10.600  66.445  1.00  0.00    -0.230 A  
HETATM   20  C   UNL     1     -10.272   9.357  66.246  1.00  0.00    -0.284 A  
HETATM   21  C   UNL     1      -9.615   8.632  68.465  1.00  0.00    -0.154 A  
HETATM   22  C   UNL     1      -8.940   9.843  68.637  1.00  0.00    -0.128 A  
HETATM   23  C   UNL     1     -10.235   8.375  67.242  1.00  0.00    -0.349 A  
HETATM   24  C   UNL     1      -8.891  10.783  67.598  1.00  0.00    -0.132 A  
BRANCH  21  25
HETATM   25  N   UNL     1      -9.667   7.731  69.552  1.00  0.00    -0.164 N  
HETATM   26  C   UNL     1     -10.303   6.493  69.522  1.00  0.00    -0.200 C  
HETATM   27  H   UNL     1      -9.207   8.006  70.419  1.00  0.00     0.000 HD 
HETATM   28  O   UNL     1     -10.812   5.998  68.525  1.00  0.00    -0.268 OA 
BRANCH  26  29
HETATM   29  C   UNL     1     -10.263   5.662  70.769  1.00  0.00    -0.291 A  
HETATM   30  C   UNL     1      -9.366   4.567  70.798  1.00  0.00    -0.218 A  
HETATM   31  C   UNL     1      -9.403   3.626  71.824  1.00  0.00    -0.195 A  
HETATM   32  C   UNL     1     -10.336   3.759  72.837  1.00  0.00    -0.241 A  
HETATM   33  C   UNL     1     -11.193   4.860  72.848  1.00  0.00    -0.318 A  
HETATM   34  C   UNL     1     -11.194   5.849  71.830  1.00  0.00    -0.311 A  
BRANCH  34  35
HETATM   35  C   UNL     1     -12.152   6.993  71.984  1.00  0.00    -0.329 A  
HETATM   36  C   UNL     1     -13.475   6.958  71.507  1.00  0.00    -0.290 A  
HETATM   37  C   UNL     1     -14.324   8.072  71.600  1.00  0.00    -0.581 A  
HETATM   38  C   UNL     1     -13.859   9.269  72.136  1.00  0.00    -0.478 A  
HETATM   39  C   UNL     1     -12.559   9.341  72.618  1.00  0.00    -0.143 A  
HETATM   40  C   UNL     1     -11.731   8.213  72.562  1.00  0.00    -0.457 A  
ENDBRANCH  34  35
ENDBRANCH  26  29
ENDBRANCH  21  25
ENDBRANCH  12  19
TORSDOF 4
ENDMDL
MODEL        3
REMARK 921   NORMALIZED FREE ENERGY PREDICTED BY IDOCK:   -8.33 KCAL/MOL
REMARK 922        TOTAL FREE ENERGY PREDICTED BY IDOCK:  -11.75 KCAL/MOL
REMARK 923 INTER-LIGAND FREE ENERGY PREDICTED BY IDOCK:  -10.26 KCAL/MOL
REMARK 924 INTRA-LIGAND FREE ENERGY PREDICTED BY IDOCK:   -1.49 KCAL/MOL
REMARK 927      BINDING AFFINITY PREDICTED BY RF-SCORE:    0.00 PKD
ROOT
HETATM    1  C   UNL     1      -8.000  19.639  66.892  1.00  0.00    -0.310 C  
HETATM    2  C   UNL     1      -8.909  18.470  66.845  1.00  0.00    -0.283 A  
HETATM    3  N   UNL     1      -9.152  17.616  67.820  1.00  0.00    -0.244 NA 
HETATM    4  C   UNL     1     -10.033  16.704  67.297  1.00  0.00    -0.270 A  
HETATM    5  H   UNL     1      -8.766  17.630  68.764  1.00  0.00     0.000 HD 
HETATM    6  C   UNL     1     -10.365  17.038  66.008  1.00  0.00    -0.315 A  
HETATM    7  N   UNL     1      -9.636  18.157  65.721  1.00  0.00    -0.443 NA 
HETATM    8  C   UNL     1     -11.294  16.337  65.100  1.00  0.00     0.018 C  
HETATM    9  C   UNL     1     -10.818  14.899  64.904  1.00  0.00    -0.413 C  
HETATM   10  N   UNL     1     -10.654  14.019  66.075  1.00  0.00    -0.291 N  
HETATM   11  C   UNL     1     -11.106  14.420  67.380  1.00  0.00    -0.308 A  
HETATM   12  C   UNL     1     -10.104  12.746  65.763  1.00  0.00    -0.286 C  
HETATM   13  C   UNL     1     -11.887  13.525  68.134  1.00  0.00    -0.400 A  
HETATM   14  O   UNL     1      -9.876  12.427  64.592  1.00  0.00    -0.189 OA 
HETATM   15  C   UNL     1     -10.668  15.614  68.009  1.00  0.00    -0.287 A  
HETATM   16  C   UNL     1     -12.086  13.712  69.507  1.00  0.00    -0.368 A  
HETATM   17  C   UNL     1     -10.869  15.783  69.392  1.00  0.00    -0.269 A  
HETATM   18  C   UNL     1     -11.546  14.823  70.142  1.00  0.00    -0.338 A  
ENDROOT
BRANCH  12  19
HETATM   19  C   UNL     1      -9.798  11.712  66.801  1.00  0.00    -0.222 A  
HETATM   20  C   UNL     1     -10.717  10.668  66.960  1.00  0.00    -0.317 A  
HETATM   21  C   UNL     1      -9.597   9.938  68.984  1.00  0.00    -0.186 A  
HETATM   22  C   UNL     1      -8.638  10.933  68.786  1.00  0.00    -0.159 A  
HETATM   23  C   UNL     1     -10.606   9.777  68.033  1.00  0.00    -0.291 A  
HETATM   24  C   UNL     1      -8.693  11.758  67.654  1.00  0.00    -0.159 A  
BRANCH  21  25
HETATM   25  N   UNL     1      -9.521   9.154  70.157  1.00  0.00    -0.192 N  
HETATM   26  C   UNL     1      -9.341   7.773  70.174  1.00  0.00    -0.153 C  
HETATM   27  H   UNL     1      -9.603   9.632  71.054  1.00  0.00     0.000 HD 
HETATM   28  O   UNL     1      -9.136   7.087  69.182  1.00  0.00    -0.137 OA 
BRANCH  26  29
HETATM   29  C   UNL     1      -9.287   7.098  71.512  1.00  0.00    -0.156 A  
HETATM   30  C   UNL     1      -8.068   6.478  71.882  1.00  0.00    -0.104 A  
HETATM   31  C   UNL     1      -7.984   5.660  73.006  1.00  0.00    -0.104 A  
HETATM   32  C   UNL     1      -9.112   5.443  73.778  1.00  0.00    -0.123 A  
HETATM   33  C   UNL     1     -10.307   6.087  73.452  1.00  0.00    -0.247 A  
HETATM   34  C   UNL     1     -10.446   6.933  72.322  1.00  0.00    -0.233 A  
BRANCH  34  35
HETATM   35  C   UNL     1     -11.782   7.581  72.109  1.00  0.00    -0.344 A  
HETATM   36  C   UNL     1     -12.090   8.876  72.566  1.00  0.00    -0.266 A  
HETATM   37  C   UNL     1     -13.372   9.426  72.417  1.00  0.00    -0.503 A  
HETATM   38  C   UNL     1     -14.397   8.680  71.844  1.00  0.00    -0.492 A  
HETATM   39  C   UNL     1     -14.130   7.399  71.381  1.00  0.00    -0.491 A  
HETATM   40  C   UNL     1     -12.838   6.871  71.493  1.00  0.00    -0.384 A  
ENDBRANCH  34  35
ENDBRANCH  26  29
ENDBRANCH  21  25
ENDBRANCH  12  19
TORSDOF 4
ENDMDL
MODEL        4
REMARK 921   NORMALIZED FREE ENERGY PREDICTED BY IDOCK:   -8.19 KCAL/MOL
REMARK 922        TOTAL FREE ENERGY PREDICTED BY IDOCK:  -11.59 KCAL/MOL
REMARK 923 INTER-LIGAND FREE ENERGY PREDICTED BY IDOCK:  -10.67 KCAL/MOL
REMARK 924 INTRA-LIGAND FREE ENERGY PREDICTED BY IDOCK:   -0.92 KCAL/MOL
REMARK 927      BINDING AFFINITY PREDICTED BY RF-SCORE:    0.00 PKD
ROOT
HETATM    1  C   UNL     1      -5.141   3.168  71.443  1.00  0.00     0.000 C  
HETATM    2  C   UNL     1      -6.535   3.635  71.264  1.00  0.00    -0.019 A  
HETATM    3  N   UNL     1      -6.992   4.418  70.306  1.00  0.00    -0.037 NA 
HETATM    4  C   UNL     1      -8.326   4.586  70.575  1.00  0.00    -0.078 A  
HETATM    5  H   UNL     1      -6.464   4.815  69.529  1.00  0.00     0.000 HD 
HETATM    6  C   UNL     1      -8.692   3.857  71.678  1.00  0.00    -0.098 A  
HETATM    7  N   UNL     1      -7.544   3.263  72.121  1.00  0.00    -0.055 NA 
HETATM    8  C   UNL     1     -10.032   3.743  72.287  1.00  0.00    -0.239 C  
HETATM    9  C   UNL     1     -10.521   5.133  72.692  1.00  0.00    -0.212 C  
HETATM   10  N   UNL     1     -10.626   6.194  71.675  1.00  0.00    -0.222 N  
HETATM   11  C   UNL     1     -10.457   5.908  70.277  1.00  0.00    -0.261 A  
HETATM   12  C   UNL     1     -10.988   7.462  72.205  1.00  0.00    -0.254 C  
HETATM   13  C   UNL     1     -11.411   6.391  69.363  1.00  0.00    -0.443 A  
HETATM   14  O   UNL     1     -11.257   7.591  73.405  1.00  0.00    -0.296 OA 
HETATM   15  C   UNL     1      -9.286   5.297  69.755  1.00  0.00    -0.182 A  
HETATM   16  C   UNL     1     -11.149   6.430  67.989  1.00  0.00    -0.365 A  
HETATM   17  C   UNL     1      -9.034   5.352  68.372  1.00  0.00    -0.113 A  
HETATM   18  C   UNL     1      -9.943   5.942  67.498  1.00  0.00    -0.163 A  
ENDROOT
BRANCH  12  19
HETATM   19  C   UNL     1     -11.099   8.697  71.367  1.00  0.00    -0.343 A  
HETATM   20  C   UNL     1     -10.014   9.015  70.542  1.00  0.00    -0.263 A  
HETATM   21  C   UNL     1     -10.964  11.195  70.065  1.00  0.00    -0.006 A  
HETATM   22  C   UNL     1     -12.082  10.851  70.828  1.00  0.00    -0.469 A  
HETATM   23  C   UNL     1      -9.956  10.247  69.882  1.00  0.00    -0.183 A  
HETATM   24  C   UNL     1     -12.184   9.576  71.403  1.00  0.00    -0.455 A  
BRANCH  21  25
HETATM   25  N   UNL     1     -10.888  12.502  69.534  1.00  0.00    -0.442 N  
HETATM   26  C   UNL     1     -11.507  12.913  68.356  1.00  0.00    -0.312 C  
HETATM   27  H   UNL     1     -10.343  13.193  70.049  1.00  0.00     0.000 HD 
HETATM   28  O   UNL     1     -12.263  12.219  67.690  1.00  0.00    -0.442 OA 
BRANCH  26  29
HETATM   29  C   UNL     1     -11.319  14.340  67.935  1.00  0.00    -0.320 A  
HETATM   30  C   UNL     1     -10.842  14.578  66.624  1.00  0.00    -0.311 A  
HETATM   31  C   UNL     1     -10.448  15.851  66.216  1.00  0.00    -0.324 A  
HETATM   32  C   UNL     1     -10.520  16.905  67.108  1.00  0.00    -0.296 A  
HETATM   33  C   UNL     1     -11.035  16.694  68.389  1.00  0.00    -0.345 A  
HETATM   34  C   UNL     1     -11.454  15.420  68.853  1.00  0.00    -0.354 A  
BRANCH  34  35
HETATM   35  C   UNL     1     -12.013  15.345  70.243  1.00  0.00    -0.386 A  
HETATM   36  C   UNL     1     -13.388  15.223  70.513  1.00  0.00    -0.208 A  
HETATM   37  C   UNL     1     -13.887  15.231  71.825  1.00  0.00    -0.622 A  
HETATM   38  C   UNL     1     -13.027  15.404  72.905  1.00  0.00    -0.577 A  
HETATM   39  C   UNL     1     -11.663  15.528  72.677  1.00  0.00    -0.564 A  
HETATM   40  C   UNL     1     -11.166  15.476  71.368  1.00  0.00    -0.410 A  
ENDBRANCH  34  35
ENDBRANCH  26  29
ENDBRANCH  21  25
ENDBRANCH  12  19
TORSDOF 4
ENDMDL
MODEL        5
REMARK 921   NORMALIZED FREE ENERGY PREDICTED BY IDOCK:   -8.18 KCAL/MOL
REMARK 922        TOTAL FREE ENERGY PREDICTED BY IDOCK:  -11.57 KCAL/MOL
REMARK 923 INTER-LIGAND FREE ENERGY PREDICTED BY IDOCK:  -10.53 KCAL/MOL
REMARK 924 INTRA-LIGAND FREE ENERGY PREDICTED BY IDOCK:   -1.05 KCAL/MOL
REMARK 927      BINDING AFFINITY PREDICTED BY RF-SCORE:    0.00 PKD
ROOT
HETATM    1  C   UNL     1      -6.876  19.803  67.203  1.00  0.00    -0.227 C  
HETATM    2  C   UNL     1      -8.027  18.871  67.159  1.00  0.00    -0.241 A  
HETATM    3  N   UNL     1      -8.462  18.102  68.139  1.00  0.00    -0.266 NA 
HETATM    4  C   UNL     1      -9.525  17.411  67.617  1.00  0.00    -0.251 A  
HETATM    5  H   UNL     1      -8.086  18.036  69.084  1.00  0.00     0.000 HD 
HETATM    6  C   UNL     1      -9.768  17.801  66.324  1.00  0.00    -0.267 A  
HETATM    7  N   UNL     1      -8.803  18.723  66.034  1.00  0.00    -0.472 NA 
HETATM    8  C   UNL     1     -10.829  17.324  65.416  1.00  0.00    -0.024 C  
HETATM    9  C   UNL     1     -10.693  15.813  65.232  1.00  0.00    -0.428 C  
HETATM   10  N   UNL     1     -10.737  14.928  66.410  1.00  0.00    -0.309 N  
HETATM   11  C   UNL     1     -11.091  15.432  67.709  1.00  0.00    -0.320 A  
HETATM   12  C   UNL     1     -10.490  13.562  66.110  1.00  0.00    -0.296 C  
HETATM   13  C   UNL     1     -12.058  14.745  68.466  1.00  0.00    -0.210 A  
HETATM   14  O   UNL     1     -10.336  13.190  64.942  1.00  0.00    -0.323 OA 
HETATM   15  C   UNL     1     -10.394  16.500  68.333  1.00  0.00    -0.294 A  
HETATM   16  C   UNL     1     -12.214  14.982  69.836  1.00  0.00    -0.351 A  
HETATM   17  C   UNL     1     -10.557  16.721  69.713  1.00  0.00    -0.174 A  
HETATM   18  C   UNL     1     -11.437  15.947  70.467  1.00  0.00    -0.412 A  
ENDROOT
BRANCH  12  19
HETATM   19  C   UNL     1     -10.431  12.493  67.156  1.00  0.00    -0.237 A  
HETATM   20  C   UNL     1      -9.179  12.205  67.712  1.00  0.00    -0.189 A  
HETATM   21  C   UNL     1     -10.073  10.233  68.806  1.00  0.00    -0.187 A  
HETATM   22  C   UNL     1     -11.338  10.560  68.311  1.00  0.00    -0.332 A  
HETATM   23  C   UNL     1      -9.006  11.094  68.545  1.00  0.00    -0.168 A  
HETATM   24  C   UNL     1     -11.528  11.730  67.563  1.00  0.00    -0.373 A  
BRANCH  21  25
HETATM   25  N   UNL     1      -9.923   9.027  69.525  1.00  0.00    -0.186 N  
HETATM   26  C   UNL     1     -10.255   7.767  69.032  1.00  0.00    -0.208 C  
HETATM   27  H   UNL     1      -9.545   9.081  70.471  1.00  0.00     0.000 HD 
HETATM   28  O   UNL     1     -10.628   7.545  67.888  1.00  0.00    -0.219 OA 
BRANCH  26  29
HETATM   29  C   UNL     1     -10.033   6.589  69.934  1.00  0.00    -0.191 A  
HETATM   30  C   UNL     1      -8.985   5.698  69.601  1.00  0.00    -0.135 A  
HETATM   31  C   UNL     1      -8.834   4.479  70.257  1.00  0.00    -0.126 A  
HETATM   32  C   UNL     1      -9.726   4.126  71.253  1.00  0.00    -0.255 A  
HETATM   33  C   UNL     1     -10.735   5.016  71.626  1.00  0.00    -0.128 A  
HETATM   34  C   UNL     1     -10.930   6.271  70.993  1.00  0.00    -0.340 A  
BRANCH  34  35
HETATM   35  C   UNL     1     -12.037   7.139  71.515  1.00  0.00    -0.377 A  
HETATM   36  C   UNL     1     -13.397   6.893  71.250  1.00  0.00    -0.205 A  
HETATM   37  C   UNL     1     -14.405   7.764  71.689  1.00  0.00    -0.607 A  
HETATM   38  C   UNL     1     -14.078   8.932  72.373  1.00  0.00    -0.493 A  
HETATM   39  C   UNL     1     -12.747   9.208  72.652  1.00  0.00    -0.254 A  
HETATM   40  C   UNL     1     -11.748   8.313  72.249  1.00  0.00    -0.453 A  
ENDBRANCH  34  35
ENDBRANCH  26  29
ENDBRANCH  21  25
ENDBRANCH  12  19
TORSDOF 4
ENDMDL
MODEL        6
REMARK 921   NORMALIZED FREE ENERGY PREDICTED BY IDOCK:   -8.16 KCAL/MOL
REMARK 922        TOTAL FREE ENERGY PREDICTED BY IDOCK:  -11.55 KCAL/MOL
REMARK 923 INTER-LIGAND FREE ENERGY PREDICTED BY IDOCK:  -10.41 KCAL/MOL
REMARK 924 INTRA-LIGAND FREE ENERGY PREDICTED BY IDOCK:   -1.13 KCAL/MOL
REMARK 927      BINDING AFFINITY PREDICTED BY RF-SCORE:    0.00 PKD
ROOT
HETATM    1  C   UNL     1      -9.402   7.585  73.057  1.00  0.00    -0.242 C  
HETATM    2  C   UNL     1     -10.165   8.490  72.167  1.00  0.00    -0.333 A  
HETATM    3  N   UNL     1      -9.754   9.013  71.028  1.00  0.00    -0.253 NA 
HETATM    4  C   UNL     1     -10.793   9.794  70.588  1.00  0.00    -0.329 A  
HETATM    5  H   UNL     1      -8.855   8.868  70.572  1.00  0.00     0.000 HD 
HETATM    6  C   UNL     1     -11.862   9.703  71.443  1.00  0.00    -0.406 A  
HETATM    7  N   UNL     1     -11.452   8.880  72.454  1.00  0.00    -0.242 NA 
HETATM    8  C   UNL     1     -13.177  10.362  71.326  1.00  0.00    -0.431 C  
HETATM    9  C   UNL     1     -12.979  11.877  71.283  1.00  0.00    -0.236 C  
HETATM   10  N   UNL     1     -12.131  12.472  70.235  1.00  0.00    -0.341 N  
HETATM   11  C   UNL     1     -11.633  11.684  69.140  1.00  0.00    -0.314 A  
HETATM   12  C   UNL     1     -11.945  13.874  70.375  1.00  0.00    -0.323 C  
HETATM   13  C   UNL     1     -11.778  12.173  67.829  1.00  0.00    -0.390 A  
HETATM   14  O   UNL     1     -12.528  14.501  71.266  1.00  0.00    -0.306 OA 
HETATM   15  C   UNL     1     -10.858  10.510  69.331  1.00  0.00    -0.291 A  
HETATM   16  C   UNL     1     -11.048  11.630  66.765  1.00  0.00    -0.366 A  
HETATM   17  C   UNL     1     -10.125   9.982  68.253  1.00  0.00    -0.182 A  
HETATM   18  C   UNL     1     -10.194  10.556  66.985  1.00  0.00    -0.275 A  
ENDROOT
BRANCH  12  19
HETATM   19  C   UNL     1     -11.077  14.679  69.460  1.00  0.00    -0.294 A  
HETATM   20  C   UNL     1      -9.692  14.503  69.565  1.00  0.00     0.193 A  
HETATM   21  C   UNL     1      -9.299  16.417  68.129  1.00  0.00    -0.209 A  
HETATM   22  C   UNL     1     -10.680  16.549  67.963  1.00  0.00    -0.343 A  
HETATM   23  C   UNL     1      -8.811  15.355  68.890  1.00  0.00    -0.211 A  
HETATM   24  C   UNL     1     -11.557  15.631  68.558  1.00  0.00    -0.378 A  
BRANCH  21  25
HETATM   25  N   UNL     1      -8.456  17.386  67.540  1.00  0.00    -0.212 N  
HETATM   26  C   UNL     1      -8.489  18.746  67.835  1.00  0.00    -0.292 C  
HETATM   27  H   UNL     1      -7.775  17.067  66.851  1.00  0.00     0.000 HD 
HETATM   28  O   UNL     1      -9.187  19.251  68.705  1.00  0.00    -0.360 OA 
BRANCH  26  29
HETATM   29  C   UNL     1      -7.523  19.637  67.113  1.00  0.00    -0.260 A  
HETATM   30  C   UNL     1      -7.833  19.993  65.779  1.00  0.00    -0.214 A  
HETATM   31  C   UNL     1      -6.906  20.644  64.968  1.00  0.00    -0.165 A  
HETATM   32  C   UNL     1      -5.655  20.948  65.472  1.00  0.00    -0.261 A  
HETATM   33  C   UNL     1      -5.352  20.647  66.801  1.00  0.00    -0.206 A  
HETATM   34  C   UNL     1      -6.261  19.988  67.670  1.00  0.00    -0.243 A  
BRANCH  34  35
HETATM   35  C   UNL     1      -5.812  19.753  69.082  1.00  0.00    -0.286 A  
HETATM   36  C   UNL     1      -5.740  18.473  69.662  1.00  0.00    -0.243 A  
HETATM   37  C   UNL     1      -5.389  18.291  71.009  1.00  0.00    -0.231 A  
HETATM   38  C   UNL     1      -5.139  19.389  71.826  1.00  0.00    -0.332 A  
HETATM   39  C   UNL     1      -5.200  20.667  71.288  1.00  0.00    -0.219 A  
HETATM   40  C   UNL     1      -5.509  20.840  69.933  1.00  0.00    -0.390 A  
ENDBRANCH  34  35
ENDBRANCH  26  29
ENDBRANCH  21  25
ENDBRANCH  12  19
TORSDOF 4
ENDMDL
MODEL        7
REMARK 921   NORMALIZED FREE ENERGY PREDICTED BY IDOCK:   -8.12 KCAL/MOL
REMARK 922        TOTAL FREE ENERGY PREDICTED BY IDOCK:  -11.50 KCAL/MOL
REMARK 923 INTER-LIGAND FREE ENERGY PREDICTED BY IDOCK:  -10.49 KCAL/MOL
REMARK 924 INTRA-LIGAND FREE ENERGY PREDICTED BY IDOCK:   -1.01 KCAL/MOL
REMARK 927      BINDING AFFINITY PREDICTED BY RF-SCORE:    0.00 PKD
ROOT
HETATM    1  C   UNL     1      -6.742  20.149  68.109  1.00  0.00    -0.329 C  
HETATM    2  C   UNL     1      -7.897  19.255  67.867  1.00  0.00    -0.289 A  
HETATM    3  N   UNL     1      -8.364  18.326  68.678  1.00  0.00    -0.312 NA 
HETATM    4  C   UNL     1      -9.418  17.754  68.012  1.00  0.00    -0.281 A  
HETATM    5  H   UNL     1      -8.015  18.085  69.606  1.00  0.00     0.000 HD 
HETATM    6  C   UNL     1      -9.622  18.375  66.806  1.00  0.00    -0.307 A  
HETATM    7  N   UNL     1      -8.642  19.323  66.713  1.00  0.00    -0.294 NA 
HETATM    8  C   UNL     1     -10.660  18.083  65.799  1.00  0.00    -0.174 C  
HETATM    9  C   UNL     1     -10.530  16.629  65.348  1.00  0.00    -0.233 C  
HETATM   10  N   UNL     1     -10.614  15.546  66.344  1.00  0.00    -0.307 N  
HETATM   11  C   UNL     1     -11.000  15.810  67.704  1.00  0.00    -0.302 A  
HETATM   12  C   UNL     1     -10.368  14.253  65.807  1.00  0.00    -0.327 C  
HETATM   13  C   UNL     1     -11.992  15.008  68.297  1.00  0.00    -0.214 A  
HETATM   14  O   UNL     1     -10.185  14.098  64.595  1.00  0.00    -0.408 OA 
HETATM   15  C   UNL     1     -10.313  16.738  68.529  1.00  0.00    -0.316 A  
HETATM   16  C   UNL     1     -12.184  14.995  69.683  1.00  0.00    -0.293 A  
HETATM   17  C   UNL     1     -10.512  16.707  69.921  1.00  0.00    -0.105 A  
HETATM   18  C   UNL     1     -11.418  15.820  70.499  1.00  0.00    -0.401 A  
ENDROOT
BRANCH  12  19
HETATM   19  C   UNL     1     -10.346  13.012  66.643  1.00  0.00    -0.263 A  
HETATM   20  C   UNL     1     -11.353  12.066  66.418  1.00  0.00    -0.411 A  
HETATM   21  C   UNL     1     -10.703  10.841  68.408  1.00  0.00    -0.217 A  
HETATM   22  C   UNL     1      -9.652  11.743  68.593  1.00  0.00    -0.122 A  
HETATM   23  C   UNL     1     -11.518  10.979  67.284  1.00  0.00    -0.164 A  
HETATM   24  C   UNL     1      -9.426  12.770  67.666  1.00  0.00    -0.190 A  
BRANCH  21  25
HETATM   25  N   UNL     1     -10.914   9.844  69.387  1.00  0.00    -0.251 N  
HETATM   26  C   UNL     1      -9.982   8.870  69.734  1.00  0.00    -0.191 C  
HETATM   27  H   UNL     1     -11.810   9.838  69.873  1.00  0.00     0.000 HD 
HETATM   28  O   UNL     1      -8.839   8.816  69.301  1.00  0.00    -0.137 OA 
BRANCH  26  29
HETATM   29  C   UNL     1     -10.373   7.883  70.795  1.00  0.00    -0.211 A  
HETATM   30  C   UNL     1     -10.538   8.372  72.113  1.00  0.00    -0.400 A  
HETATM   31  C   UNL     1     -10.700   7.506  73.192  1.00  0.00    -0.452 A  
HETATM   32  C   UNL     1     -10.697   6.140  72.976  1.00  0.00    -0.276 A  
HETATM   33  C   UNL     1     -10.584   5.646  71.675  1.00  0.00    -0.301 A  
HETATM   34  C   UNL     1     -10.421   6.484  70.541  1.00  0.00    -0.251 A  
BRANCH  34  35
HETATM   35  C   UNL     1     -10.341   5.816  69.200  1.00  0.00    -0.316 A  
HETATM   36  C   UNL     1      -9.539   4.688  68.950  1.00  0.00    -0.233 A  
HETATM   37  C   UNL     1      -9.426   4.131  67.666  1.00  0.00    -0.225 A  
HETATM   38  C   UNL     1     -10.082   4.714  66.586  1.00  0.00    -0.263 A  
HETATM   39  C   UNL     1     -10.882   5.829  66.795  1.00  0.00    -0.327 A  
HETATM   40  C   UNL     1     -11.025   6.354  68.086  1.00  0.00    -0.393 A  
ENDBRANCH  34  35
ENDBRANCH  26  29
ENDBRANCH  21  25
ENDBRANCH  12  19
TORSDOF 4
ENDMDL
MODEL        8
REMARK 921   NORMALIZED FREE ENERGY PREDICTED BY IDOCK:   -7.75 KCAL/MOL
REMARK 922        TOTAL FREE ENERGY PREDICTED BY IDOCK:  -11.04 KCAL/MOL
REMARK 923 INTER-LIGAND FREE ENERGY PREDICTED BY IDOCK:   -9.63 KCAL/MOL
REMARK 924 INTRA-LIGAND FREE ENERGY PREDICTED BY IDOCK:   -1.41 KCAL/MOL
REMARK 927      BINDING AFFINITY PREDICTED BY RF-SCORE:    0.00 PKD
ROOT
HETATM    1  C   UNL     1      -9.694  18.481  66.089  1.00  0.00    -0.241 C  
HETATM    2  C   UNL     1     -10.248  17.109  66.057  1.00  0.00    -0.321 A  
HETATM    3  N   UNL     1     -10.255  16.234  67.044  1.00  0.00    -0.275 NA 
HETATM    4  C   UNL     1     -10.851  15.109  66.532  1.00  0.00    -0.317 A  
HETATM    5  H   UNL     1      -9.894  16.366  67.988  1.00  0.00     0.000 HD 
HETATM    6  C   UNL     1     -11.253  15.321  65.238  1.00  0.00    -0.336 A  
HETATM    7  N   UNL     1     -10.856  16.593  64.936  1.00  0.00    -0.701 NA 
HETATM    8  C   UNL     1     -11.949  14.381  64.337  1.00  0.00    -0.471 C  
HETATM    9  C   UNL     1     -11.097  13.125  64.164  1.00  0.00    -0.394 C  
HETATM   10  N   UNL     1     -10.707  12.340  65.349  1.00  0.00    -0.275 N  
HETATM   11  C   UNL     1     -11.260  12.619  66.646  1.00  0.00    -0.300 A  
HETATM   12  C   UNL     1      -9.828  11.262  65.058  1.00  0.00    -0.261 C  
HETATM   13  C   UNL     1     -11.771  11.556  67.412  1.00  0.00    -0.231 A  
HETATM   14  O   UNL     1      -9.513  11.001  63.891  1.00  0.00    -0.225 OA 
HETATM   15  C   UNL     1     -11.168  13.897  67.259  1.00  0.00    -0.329 A  
HETATM   16  C   UNL     1     -12.023  11.700  68.781  1.00  0.00    -0.326 A  
HETATM   17  C   UNL     1     -11.417  14.022  68.638  1.00  0.00    -0.337 A  
HETATM   18  C   UNL     1     -11.811  12.925  69.401  1.00  0.00    -0.371 A  
ENDROOT
BRANCH  12  19
HETATM   19  C   UNL     1      -9.257  10.365  66.111  1.00  0.00    -0.199 A  
HETATM   20  C   UNL     1      -9.874   9.122  66.302  1.00  0.00    -0.359 A  
HETATM   21  C   UNL     1      -8.590   8.751  68.326  1.00  0.00    -0.134 A  
HETATM   22  C   UNL     1      -7.922   9.956  68.097  1.00  0.00    -0.100 A  
HETATM   23  C   UNL     1      -9.529   8.314  67.391  1.00  0.00    -0.188 A  
HETATM   24  C   UNL     1      -8.196  10.713  66.950  1.00  0.00    -0.123 A  
BRANCH  21  25
HETATM   25  N   UNL     1      -8.306   8.039  69.513  1.00  0.00    -0.125 N  
HETATM   26  C   UNL     1      -7.864   6.719  69.557  1.00  0.00    -0.113 C  
HETATM   27  H   UNL     1      -8.433   8.526  70.400  1.00  0.00     0.000 HD 
HETATM   28  O   UNL     1      -7.582   6.049  68.573  1.00  0.00    -0.088 OA 
BRANCH  26  29
HETATM   29  C   UNL     1      -7.613   6.116  70.906  1.00  0.00    -0.097 A  
HETATM   30  C   UNL     1      -6.351   5.515  71.130  1.00  0.00    -0.035 A  
HETATM   31  C   UNL     1      -6.101   4.758  72.271  1.00  0.00    -0.021 A  
HETATM   32  C   UNL     1      -7.104   4.584  73.208  1.00  0.00    -0.078 A  
HETATM   33  C   UNL     1      -8.338   5.212  73.024  1.00  0.00    -0.112 A  
HETATM   34  C   UNL     1      -8.643   5.997  71.882  1.00  0.00    -0.137 A  
BRANCH  34  35
HETATM   35  C   UNL     1     -10.000   6.635  71.830  1.00  0.00    -0.188 A  
HETATM   36  C   UNL     1     -11.093   6.062  71.155  1.00  0.00    -0.336 A  
HETATM   37  C   UNL     1     -12.329   6.719  71.060  1.00  0.00    -0.370 A  
HETATM   38  C   UNL     1     -12.496   7.989  71.604  1.00  0.00    -0.347 A  
HETATM   39  C   UNL     1     -11.439   8.586  72.278  1.00  0.00    -0.445 A  
HETATM   40  C   UNL     1     -10.221   7.907  72.406  1.00  0.00    -0.327 A  
ENDBRANCH  34  35
ENDBRANCH  26  29
ENDBRANCH  21  25
ENDBRANCH  12  19
TORSDOF 4
ENDMDL
MODEL        9
REMARK 921   NORMALIZED FREE ENERGY PREDICTED BY IDOCK:   -7.69 KCAL/MOL
REMARK 922        TOTAL FREE ENERGY PREDICTED BY IDOCK:  -10.97 KCAL/MOL
REMARK 923 INTER-LIGAND FREE ENERGY PREDICTED BY IDOCK:   -9.51 KCAL/MOL
REMARK 924 INTRA-LIGAND FREE ENERGY PREDICTED BY IDOCK:   -1.46 KCAL/MOL
REMARK 927      BINDING AFFINITY PREDICTED BY RF-SCORE:    0.00 PKD
ROOT
HETATM    1  C   UNL     1      -5.593   2.123  71.826  1.00  0.00    -0.008 C  
HETATM    2  C   UNL     1      -6.898   2.810  71.695  1.00  0.00    -0.030 A  
HETATM    3  N   UNL     1      -7.271   3.625  70.727  1.00  0.00    -0.037 NA 
HETATM    4  C   UNL     1      -8.542   4.024  71.052  1.00  0.00    -0.076 A  
HETATM    5  H   UNL     1      -6.728   3.901  69.909  1.00  0.00     0.000 HD 
HETATM    6  C   UNL     1      -8.963   3.405  72.202  1.00  0.00    -0.099 A  
HETATM    7  N   UNL     1      -7.907   2.642  72.614  1.00  0.00    -0.053 NA 
HETATM    8  C   UNL     1     -10.267   3.538  72.880  1.00  0.00    -0.238 C  
HETATM    9  C   UNL     1     -10.497   5.003  73.248  1.00  0.00    -0.213 C  
HETATM   10  N   UNL     1     -10.480   6.031  72.193  1.00  0.00    -0.201 N  
HETATM   11  C   UNL     1     -10.437   5.673  70.801  1.00  0.00    -0.265 A  
HETATM   12  C   UNL     1     -10.598   7.359  72.685  1.00  0.00    -0.275 C  
HETATM   13  C   UNL     1     -11.347   6.278  69.915  1.00  0.00    -0.504 A  
HETATM   14  O   UNL     1     -10.776   7.573  73.889  1.00  0.00    -0.285 OA 
HETATM   15  C   UNL     1      -9.414   4.858  70.251  1.00  0.00    -0.238 A  
HETATM   16  C   UNL     1     -11.158   6.225  68.529  1.00  0.00    -0.397 A  
HETATM   17  C   UNL     1      -9.232   4.821  68.856  1.00  0.00    -0.172 A  
HETATM   18  C   UNL     1     -10.079   5.525  68.002  1.00  0.00    -0.221 A  
ENDROOT
BRANCH  12  19
HETATM   19  C   UNL     1     -10.549   8.566  71.801  1.00  0.00    -0.371 A  
HETATM   20  C   UNL     1     -11.721   9.321  71.676  1.00  0.00    -0.462 A  
HETATM   21  C   UNL     1     -10.753  10.598  69.856  1.00  0.00    -0.204 A  
HETATM   22  C   UNL     1      -9.558   9.896  70.028  1.00  0.00    -0.260 A  
HETATM   23  C   UNL     1     -11.815  10.341  70.723  1.00  0.00    -0.459 A  
HETATM   24  C   UNL     1      -9.433   8.946  71.052  1.00  0.00    -0.318 A  
BRANCH  21  25
HETATM   25  N   UNL     1     -10.844  11.520  68.789  1.00  0.00    -0.205 N  
HETATM   26  C   UNL     1     -11.113  11.174  67.467  1.00  0.00    -0.291 C  
HETATM   27  H   UNL     1     -10.702  12.507  69.001  1.00  0.00     0.000 HD 
HETATM   28  O   UNL     1     -11.394  10.045  67.088  1.00  0.00    -0.113 OA 
BRANCH  26  29
HETATM   29  C   UNL     1     -11.170  12.283  66.458  1.00  0.00    -0.373 A  
HETATM   30  C   UNL     1     -12.082  13.339  66.698  1.00  0.00    -0.421 A  
HETATM   31  C   UNL     1     -12.349  14.300  65.726  1.00  0.00    -0.420 A  
HETATM   32  C   UNL     1     -11.715  14.223  64.499  1.00  0.00    -0.431 A  
HETATM   33  C   UNL     1     -10.776  13.216  64.267  1.00  0.00    -0.431 A  
HETATM   34  C   UNL     1     -10.465  12.215  65.224  1.00  0.00    -0.311 A  
BRANCH  34  35
HETATM   35  C   UNL     1      -9.416  11.210  64.849  1.00  0.00    -0.251 A  
HETATM   36  C   UNL     1      -9.510  10.388  63.711  1.00  0.00    -0.353 A  
HETATM   37  C   UNL     1      -8.549   9.405  63.428  1.00  0.00    -0.218 A  
HETATM   38  C   UNL     1      -7.486   9.187  64.299  1.00  0.00    -0.106 A  
HETATM   39  C   UNL     1      -7.361   9.979  65.432  1.00  0.00    -0.139 A  
HETATM   40  C   UNL     1      -8.299  10.988  65.687  1.00  0.00    -0.060 A  
ENDBRANCH  34  35
ENDBRANCH  26  29
ENDBRANCH  21  25
ENDBRANCH  12  19
TORSDOF 4
ENDMDL
MODEL       10
REMARK 921   NORMALIZED FREE ENERGY PREDICTED BY IDOCK:   -7.47 KCAL/MOL
REMARK 922        TOTAL FREE ENERGY PREDICTED BY IDOCK:  -10.70 KCAL/MOL
REMARK 923 INTER-LIGAND FREE ENERGY PREDICTED BY IDOCK:   -9.24 KCAL/MOL
REMARK 924 INTRA-LIGAND FREE ENERGY PREDICTED BY IDOCK:   -1.45 KCAL/MOL
REMARK 927      BINDING AFFINITY PREDICTED BY RF-SCORE:    0.00 PKD
ROOT
HETATM    1  C   UNL     1     -10.982   3.655  73.781  1.00  0.00    -0.311 C  
HETATM    2  C   UNL     1     -10.340   4.365  72.651  1.00  0.00    -0.186 A  
HETATM    3  N   UNL     1      -9.981   5.634  72.614  1.00  0.00    -0.172 NA 
HETATM    4  C   UNL     1      -9.455   5.830  71.362  1.00  0.00    -0.150 A  
HETATM    5  H   UNL     1     -10.074   6.324  73.360  1.00  0.00     0.000 HD 
HETATM    6  C   UNL     1      -9.451   4.657  70.651  1.00  0.00    -0.172 A  
HETATM    7  N   UNL     1     -10.027   3.729  71.473  1.00  0.00    -0.162 NA 
HETATM    8  C   UNL     1      -8.954   4.428  69.281  1.00  0.00    -0.148 C  
HETATM    9  C   UNL     1      -9.706   5.340  68.313  1.00  0.00    -0.140 C  
HETATM   10  N   UNL     1      -9.679   6.800  68.517  1.00  0.00    -0.132 N  
HETATM   11  C   UNL     1      -8.813   7.402  69.493  1.00  0.00    -0.137 A  
HETATM   12  C   UNL     1     -10.506   7.519  67.613  1.00  0.00    -0.250 C  
HETATM   13  C   UNL     1      -8.016   8.497  69.113  1.00  0.00    -0.112 A  
HETATM   14  O   UNL     1     -11.109   6.935  66.707  1.00  0.00    -0.321 OA 
HETATM   15  C   UNL     1      -8.842   7.045  70.867  1.00  0.00    -0.148 A  
HETATM   16  C   UNL     1      -7.406   9.319  70.067  1.00  0.00    -0.083 A  
HETATM   17  C   UNL     1      -8.230   7.887  71.814  1.00  0.00    -0.139 A  
HETATM   18  C   UNL     1      -7.544   9.034  71.420  1.00  0.00    -0.078 A  
ENDROOT
BRANCH  12  19
HETATM   19  C   UNL     1     -10.678   9.005  67.669  1.00  0.00    -0.232 A  
HETATM   20  C   UNL     1     -10.289   9.741  66.543  1.00  0.00    -0.262 A  
HETATM   21  C   UNL     1     -10.530  11.820  67.770  1.00  0.00    -0.194 A  
HETATM   22  C   UNL     1     -10.988  11.092  68.871  1.00  0.00    -0.277 A  
HETATM   23  C   UNL     1     -10.233  11.139  66.589  1.00  0.00    -0.274 A  
HETATM   24  C   UNL     1     -11.142   9.701  68.788  1.00  0.00    -0.093 A  
BRANCH  21  25
HETATM   25  N   UNL     1     -10.357  13.215  67.912  1.00  0.00    -0.226 N  
HETATM   26  C   UNL     1     -11.289  14.170  67.513  1.00  0.00    -0.322 C  
HETATM   27  H   UNL     1      -9.491  13.546  68.335  1.00  0.00     0.000 HD 
HETATM   28  O   UNL     1     -12.403  13.914  67.078  1.00  0.00    -0.391 OA 
BRANCH  26  29
HETATM   29  C   UNL     1     -10.942  15.612  67.735  1.00  0.00    -0.316 A  
HETATM   30  C   UNL     1     -10.330  16.310  66.666  1.00  0.00    -0.302 A  
HETATM   31  C   UNL     1      -9.792  17.582  66.844  1.00  0.00    -0.302 A  
HETATM   32  C   UNL     1      -9.853  18.179  68.090  1.00  0.00    -0.350 A  
HETATM   33  C   UNL     1     -10.497  17.524  69.141  1.00  0.00    -0.190 A  
HETATM   34  C   UNL     1     -11.064  16.229  69.012  1.00  0.00    -0.331 A  
BRANCH  34  35
HETATM   35  C   UNL     1     -11.750  15.656  70.217  1.00  0.00    -0.375 A  
HETATM   36  C   UNL     1     -13.103  15.269  70.220  1.00  0.00    -0.143 A  
HETATM   37  C   UNL     1     -13.736  14.807  71.384  1.00  0.00    -0.504 A  
HETATM   38  C   UNL     1     -13.045  14.758  72.591  1.00  0.00    -0.534 A  
HETATM   39  C   UNL     1     -11.708  15.132  72.626  1.00  0.00    -0.465 A  
HETATM   40  C   UNL     1     -11.070  15.551  71.452  1.00  0.00    -0.318 A  
ENDBRANCH  34  35
ENDBRANCH  26  29
ENDBRANCH  21  25
ENDBRANCH  12  19
TORSDOF 4
ENDMDL
MODEL       11
REMARK 921   NORMALIZED FREE ENERGY PREDICTED BY IDOCK:   -7.40 KCAL/MOL
REMARK 922        TOTAL FREE ENERGY PREDICTED BY IDOCK:  -10.61 KCAL/MOL
REMARK 923 INTER-LIGAND FREE ENERGY PREDICTED BY IDOCK:   -9.12 KCAL/MOL
REMARK 924 INTRA-LIGAND FREE ENERGY PREDICTED BY IDOCK:   -1.49 KCAL/MOL
REMARK 927      BINDING AFFINITY PREDICTED BY RF-SCORE:    0.00 PKD
ROOT
HETATM    1  C   UNL     1     -11.189   2.022  73.282  1.00  0.00    -0.262 C  
HETATM    2  C   UNL     1     -10.853   3.463  73.243  1.00  0.00    -0.186 A  
HETATM    3  N   UNL     1     -11.405   4.386  72.479  1.00  0.00     0.189 NA 
HETATM    4  C   UNL     1     -10.751   5.553  72.783  1.00  0.00    -0.247 A  
HETATM    5  H   UNL     1     -12.159   4.258  71.805  1.00  0.00     0.000 HD 
HETATM    6  C   UNL     1      -9.829   5.345  73.777  1.00  0.00    -0.165 A  
HETATM    7  N   UNL     1      -9.889   4.009  74.058  1.00  0.00    -0.116 NA 
HETATM    8  C   UNL     1      -8.935   6.336  74.408  1.00  0.00    -0.159 C  
HETATM    9  C   UNL     1      -8.054   6.975  73.335  1.00  0.00    -0.100 C  
HETATM   10  N   UNL     1      -8.680   7.662  72.191  1.00  0.00    -0.117 N  
HETATM   11  C   UNL     1     -10.096   7.908  72.152  1.00  0.00    -0.220 A  
HETATM   12  C   UNL     1      -7.751   8.114  71.216  1.00  0.00    -0.091 C  
HETATM   13  C   UNL     1     -10.554   9.199  71.829  1.00  0.00    -0.383 A  
HETATM   14  O   UNL     1      -6.535   7.989  71.396  1.00  0.00    -0.037 OA 
HETATM   15  C   UNL     1     -11.058   6.871  72.266  1.00  0.00    -0.284 A  
HETATM   16  C   UNL     1     -11.885   9.429  71.462  1.00  0.00    -0.456 A  
HETATM   17  C   UNL     1     -12.391   7.116  71.886  1.00  0.00    -0.352 A  
HETATM   18  C   UNL     1     -12.795   8.379  71.457  1.00  0.00    -0.322 A  
ENDROOT
BRANCH  12  19
HETATM   19  C   UNL     1      -8.164   8.788  69.945  1.00  0.00    -0.118 A  
HETATM   20  C   UNL     1      -7.726  10.103  69.741  1.00  0.00    -0.176 A  
HETATM   21  C   UNL     1      -9.200  10.340  67.829  1.00  0.00    -0.141 A  
HETATM   22  C   UNL     1      -9.583   9.006  67.987  1.00  0.00    -0.166 A  
HETATM   23  C   UNL     1      -8.227  10.866  68.681  1.00  0.00    -0.146 A  
HETATM   24  C   UNL     1      -9.002   8.213  68.987  1.00  0.00    -0.144 A  
BRANCH  21  25
HETATM   25  N   UNL     1      -9.837  11.109  66.831  1.00  0.00    -0.191 N  
HETATM   26  C   UNL     1     -11.177  11.486  66.860  1.00  0.00    -0.298 C  
HETATM   27  H   UNL     1      -9.278  11.410  66.033  1.00  0.00     0.000 HD 
HETATM   28  O   UNL     1     -11.938  11.276  67.795  1.00  0.00    -0.637 OA 
BRANCH  26  29
HETATM   29  C   UNL     1     -11.693  12.303  65.712  1.00  0.00    -0.445 A  
HETATM   30  C   UNL     1     -12.050  11.614  64.528  1.00  0.00    -0.028 A  
HETATM   31  C   UNL     1     -12.345  12.299  63.352  1.00  0.00    -0.624 A  
HETATM   32  C   UNL     1     -12.286  13.681  63.335  1.00  0.00    -0.236 A  
HETATM   33  C   UNL     1     -11.984  14.375  64.509  1.00  0.00    -0.487 A  
HETATM   34  C   UNL     1     -11.680  13.726  65.733  1.00  0.00    -0.365 A  
BRANCH  34  35
HETATM   35  C   UNL     1     -11.400  14.598  66.922  1.00  0.00    -0.361 A  
HETATM   36  C   UNL     1     -12.279  14.711  68.015  1.00  0.00    -0.089 A  
HETATM   37  C   UNL     1     -12.026  15.593  69.078  1.00  0.00    -0.323 A  
HETATM   38  C   UNL     1     -10.905  16.417  69.057  1.00  0.00    -0.331 A  
HETATM   39  C   UNL     1     -10.016  16.332  67.995  1.00  0.00    -0.240 A  
HETATM   40  C   UNL     1     -10.251  15.420  66.958  1.00  0.00    -0.262 A  
ENDBRANCH  34  35
ENDBRANCH  26  29
ENDBRANCH  21  25
ENDBRANCH  12  19
TORSDOF 4
ENDMDL
MODEL       12
REMARK 921   NORMALIZED FREE ENERGY PREDICTED BY IDOCK:   -7.38 KCAL/MOL
REMARK 922        TOTAL FREE ENERGY PREDICTED BY IDOCK:  -10.59 KCAL/MOL
REMARK 923 INTER-LIGAND FREE ENERGY PREDICTED BY IDOCK:   -9.94 KCAL/MOL
REMARK 924 INTRA-LIGAND FREE ENERGY PREDICTED BY IDOCK:   -0.65 KCAL/MOL
REMARK 927      BINDING AFFINITY PREDICTED BY RF-SCORE:    0.00 PKD
ROOT
HETATM    1  C   UNL     1     -11.399   2.190  62.770  1.00  0.00    -0.177 C  
HETATM    2  C   UNL     1     -10.476   3.026  63.571  1.00  0.00    -0.224 A  
HETATM    3  N   UNL     1     -10.798   3.845  64.553  1.00  0.00    -0.585 NA 
HETATM    4  C   UNL     1      -9.615   4.405  64.965  1.00  0.00    -0.170 A  
HETATM    5  H   UNL     1     -11.729   4.023  64.928  1.00  0.00     0.000 HD 
HETATM    6  C   UNL     1      -8.561   3.884  64.258  1.00  0.00    -0.104 A  
HETATM    7  N   UNL     1      -9.116   3.015  63.362  1.00  0.00    -0.095 NA 
HETATM    8  C   UNL     1      -7.127   4.199  64.404  1.00  0.00    -0.050 C  
HETATM    9  C   UNL     1      -6.912   5.693  64.168  1.00  0.00    -0.051 C  
HETATM   10  N   UNL     1      -7.630   6.673  65.003  1.00  0.00    -0.092 N  
HETATM   11  C   UNL     1      -8.385   6.262  66.154  1.00  0.00    -0.130 A  
HETATM   12  C   UNL     1      -7.422   8.022  64.608  1.00  0.00    -0.097 C  
HETATM   13  C   UNL     1      -8.193   6.940  67.372  1.00  0.00    -0.119 A  
HETATM   14  O   UNL     1      -6.640   8.299  63.692  1.00  0.00    -0.075 OA 
HETATM   15  C   UNL     1      -9.435   5.309  66.082  1.00  0.00    -0.170 A  
HETATM   16  C   UNL     1      -9.104   6.815  68.427  1.00  0.00    -0.125 A  
HETATM   17  C   UNL     1     -10.347   5.201  67.149  1.00  0.00    -0.246 A  
HETATM   18  C   UNL     1     -10.201   5.971  68.300  1.00  0.00    -0.218 A  
ENDROOT
BRANCH  12  19
HETATM   19  C   UNL     1      -8.094   9.182  65.274  1.00  0.00    -0.124 A  
HETATM   20  C   UNL     1      -7.288  10.055  66.013  1.00  0.00    -0.112 A  
HETATM   21  C   UNL     1      -9.247  11.148  66.936  1.00  0.00    -0.169 A  
HETATM   22  C   UNL     1     -10.052  10.325  66.144  1.00  0.00    -0.307 A  
HETATM   23  C   UNL     1      -7.860  11.042  66.824  1.00  0.00    -0.149 A  
HETATM   24  C   UNL     1      -9.472   9.408  65.255  1.00  0.00    -0.296 A  
BRANCH  21  25
HETATM   25  N   UNL     1      -9.875  12.032  67.841  1.00  0.00    -0.190 N  
HETATM   26  C   UNL     1     -11.249  12.244  67.913  1.00  0.00    -0.274 C  
HETATM   27  H   UNL     1      -9.281  12.552  68.487  1.00  0.00     0.000 HD 
HETATM   28  O   UNL     1     -12.083  11.624  67.267  1.00  0.00    -0.595 OA 
BRANCH  26  29
HETATM   29  C   UNL     1     -11.748  13.224  68.934  1.00  0.00    -0.369 A  
HETATM   30  C   UNL     1     -11.721  14.597  68.590  1.00  0.00    -0.362 A  
HETATM   31  C   UNL     1     -11.971  15.586  69.538  1.00  0.00    -0.372 A  
HETATM   32  C   UNL     1     -12.249  15.224  70.844  1.00  0.00    -0.409 A  
HETATM   33  C   UNL     1     -12.326  13.873  71.186  1.00  0.00    -0.440 A  
HETATM   34  C   UNL     1     -12.084  12.826  70.259  1.00  0.00    -0.373 A  
BRANCH  34  35
HETATM   35  C   UNL     1     -12.230  11.419  70.758  1.00  0.00    -0.475 A  
HETATM   36  C   UNL     1     -13.234  11.024  71.661  1.00  0.00    -0.461 A  
HETATM   37  C   UNL     1     -13.298   9.717  72.169  1.00  0.00    -0.545 A  
HETATM   38  C   UNL     1     -12.335   8.776  71.818  1.00  0.00    -0.412 A  
HETATM   39  C   UNL     1     -11.330   9.130  70.928  1.00  0.00    -0.359 A  
HETATM   40  C   UNL     1     -11.295  10.424  70.392  1.00  0.00    -0.417 A  
ENDBRANCH  34  35
ENDBRANCH  26  29
ENDBRANCH  21  25
ENDBRANCH  12  19
TORSDOF 4
ENDMDL
MODEL       13
REMARK 921   NORMALIZED FREE ENERGY PREDICTED BY IDOCK:   -7.37 KCAL/MOL
REMARK 922        TOTAL FREE ENERGY PREDICTED BY IDOCK:  -10.58 KCAL/MOL
REMARK 923 INTER-LIGAND FREE ENERGY PREDICTED BY IDOCK:   -9.30 KCAL/MOL
REMARK 924 INTRA-LIGAND FREE ENERGY PREDICTED BY IDOCK:   -1.27 KCAL/MOL
REMARK 927      BINDING AFFINITY PREDICTED BY RF-SCORE:    0.00 PKD
ROOT
HETATM    1  C   UNL     1      -5.192   3.179  71.438  1.00  0.00    -0.004 C  
HETATM    2  C   UNL     1      -6.576   3.677  71.269  1.00  0.00    -0.026 A  
HETATM    3  N   UNL     1      -7.022   4.473  70.317  1.00  0.00    -0.043 NA 
HETATM    4  C   UNL     1      -8.351   4.668  70.594  1.00  0.00    -0.091 A  
HETATM    5  H   UNL     1      -6.490   4.861  69.538  1.00  0.00     0.000 HD 
HETATM    6  C   UNL     1      -8.726   3.943  71.697  1.00  0.00    -0.098 A  
HETATM    7  N   UNL     1      -7.588   3.323  72.130  1.00  0.00    -0.055 NA 
HETATM    8  C   UNL     1     -10.064   3.855  72.314  1.00  0.00    -0.234 C  
HETATM    9  C   UNL     1     -10.521   5.253  72.727  1.00  0.00    -0.217 C  
HETATM   10  N   UNL     1     -10.609   6.320  71.715  1.00  0.00    -0.219 N  
HETATM   11  C   UNL     1     -10.455   6.036  70.315  1.00  0.00    -0.242 A  
HETATM   12  C   UNL     1     -10.942   7.593  72.253  1.00  0.00    -0.279 C  
HETATM   13  C   UNL     1     -11.404   6.543  69.408  1.00  0.00    -0.395 A  
HETATM   14  O   UNL     1     -11.200   7.723  73.454  1.00  0.00    -0.315 OA 
HETATM   15  C   UNL     1      -9.300   5.403  69.784  1.00  0.00    -0.186 A  
HETATM   16  C   UNL     1     -11.149   6.582  68.033  1.00  0.00    -0.332 A  
HETATM   17  C   UNL     1      -9.055   5.458  68.399  1.00  0.00    -0.119 A  
HETATM   18  C   UNL     1      -9.957   6.071  67.533  1.00  0.00    -0.159 A  
ENDROOT
BRANCH  12  19
HETATM   19  C   UNL     1     -11.031   8.834  71.420  1.00  0.00    -0.360 A  
HETATM   20  C   UNL     1     -12.292   9.428  71.284  1.00  0.00    -0.422 A  
HETATM   21  C   UNL     1     -11.453  10.904  69.552  1.00  0.00    -0.301 A  
HETATM   22  C   UNL     1     -10.179  10.363  69.738  1.00  0.00    -0.228 A  
HETATM   23  C   UNL     1     -12.496  10.467  70.370  1.00  0.00    -0.392 A  
HETATM   24  C   UNL     1      -9.956   9.395  70.727  1.00  0.00    -0.358 A  
BRANCH  21  25
HETATM   25  N   UNL     1     -11.637  11.852  68.520  1.00  0.00    -0.294 N  
HETATM   26  C   UNL     1     -11.165  11.704  67.218  1.00  0.00    -0.304 C  
HETATM   27  H   UNL     1     -12.150  12.704  68.744  1.00  0.00     0.000 HD 
HETATM   28  O   UNL     1     -10.617  10.698  66.789  1.00  0.00    -0.248 OA 
BRANCH  26  29
HETATM   29  C   UNL     1     -11.448  12.812  66.248  1.00  0.00    -0.405 A  
HETATM   30  C   UNL     1     -12.365  12.548  65.203  1.00  0.00    -0.496 A  
HETATM   31  C   UNL     1     -12.535  13.439  64.146  1.00  0.00    -0.312 A  
HETATM   32  C   UNL     1     -11.793  14.606  64.112  1.00  0.00    -0.263 A  
HETATM   33  C   UNL     1     -10.922  14.902  65.161  1.00  0.00    -0.410 A  
HETATM   34  C   UNL     1     -10.714  14.032  66.262  1.00  0.00    -0.289 A  
BRANCH  34  35
HETATM   35  C   UNL     1      -9.768  14.491  67.332  1.00  0.00    -0.222 A  
HETATM   36  C   UNL     1      -8.380  14.268  67.278  1.00  0.00    -0.222 A  
HETATM   37  C   UNL     1      -7.529  14.644  68.330  1.00  0.00    -0.117 A  
HETATM   38  C   UNL     1      -8.050  15.217  69.486  1.00  0.00    -0.167 A  
HETATM   39  C   UNL     1      -9.415  15.452  69.575  1.00  0.00    -0.250 A  
HETATM   40  C   UNL     1     -10.253  15.114  68.505  1.00  0.00    -0.231 A  
ENDBRANCH  34  35
ENDBRANCH  26  29
ENDBRANCH  21  25
ENDBRANCH  12  19
TORSDOF 4
ENDMDL
MODEL       14
REMARK 921   NORMALIZED FREE ENERGY PREDICTED BY IDOCK:   -7.34 KCAL/MOL
REMARK 922        TOTAL FREE ENERGY PREDICTED BY IDOCK:  -10.53 KCAL/MOL
REMARK 923 INTER-LIGAND FREE ENERGY PREDICTED BY IDOCK:   -9.04 KCAL/MOL
REMARK 924 INTRA-LIGAND FREE ENERGY PREDICTED BY IDOCK:   -1.49 KCAL/MOL
REMARK 927      BINDING AFFINITY PREDICTED BY RF-SCORE:    0.00 PKD
ROOT
HETATM    1  C   UNL     1      -7.116  20.092  67.589  1.00  0.00    -0.301 C  
HETATM    2  C   UNL     1      -8.205  19.106  67.406  1.00  0.00    -0.276 A  
HETATM    3  N   UNL     1      -8.587  18.178  68.262  1.00  0.00    -0.281 NA 
HETATM    4  C   UNL     1      -9.606  17.503  67.641  1.00  0.00    -0.266 A  
HETATM    5  H   UNL     1      -8.205  18.001  69.191  1.00  0.00     0.000 HD 
HETATM    6  C   UNL     1      -9.878  18.058  66.416  1.00  0.00    -0.340 A  
HETATM    7  N   UNL     1      -8.973  19.072  66.266  1.00  0.00    -0.414 NA 
HETATM    8  C   UNL     1     -10.908  17.650  65.442  1.00  0.00     0.104 C  
HETATM    9  C   UNL     1     -10.677  16.193  65.045  1.00  0.00    -0.337 C  
HETATM   10  N   UNL     1     -10.662  15.147  66.084  1.00  0.00    -0.318 N  
HETATM   11  C   UNL     1     -11.043  15.436  67.440  1.00  0.00    -0.311 A  
HETATM   12  C   UNL     1     -10.330  13.856  65.592  1.00  0.00    -0.325 C  
HETATM   13  C   UNL     1     -11.962  14.588  68.084  1.00  0.00    -0.296 A  
HETATM   14  O   UNL     1     -10.156  13.666  64.384  1.00  0.00    -0.325 OA 
HETATM   15  C   UNL     1     -10.413  16.445  68.214  1.00  0.00    -0.302 A  
HETATM   16  C   UNL     1     -12.128  14.616  69.473  1.00  0.00    -0.335 A  
HETATM   17  C   UNL     1     -10.585  16.455  69.611  1.00  0.00    -0.307 A  
HETATM   18  C   UNL     1     -11.412  15.527  70.240  1.00  0.00    -0.352 A  
ENDROOT
BRANCH  12  19
HETATM   19  C   UNL     1     -10.200  12.654  66.475  1.00  0.00    -0.255 A  
HETATM   20  C   UNL     1     -11.232  11.710  66.433  1.00  0.00    -0.349 A  
HETATM   21  C   UNL     1     -10.324  10.571  68.373  1.00  0.00    -0.176 A  
HETATM   22  C   UNL     1      -9.254  11.469  68.371  1.00  0.00    -0.190 A  
HETATM   23  C   UNL     1     -11.283  10.666  67.364  1.00  0.00    -0.280 A  
HETATM   24  C   UNL     1      -9.151  12.450  67.375  1.00  0.00    -0.183 A  
BRANCH  21  25
HETATM   25  N   UNL     1     -10.404   9.622  69.416  1.00  0.00    -0.201 N  
HETATM   26  C   UNL     1     -10.396   8.242  69.232  1.00  0.00    -0.218 C  
HETATM   27  H   UNL     1     -10.473   9.972  70.372  1.00  0.00     0.000 HD 
HETATM   28  O   UNL     1     -10.226   7.687  68.155  1.00  0.00    -0.183 OA 
BRANCH  26  29
HETATM   29  C   UNL     1     -10.493   7.378  70.454  1.00  0.00    -0.230 A  
HETATM   30  C   UNL     1     -11.773   6.888  70.809  1.00  0.00    -0.417 A  
HETATM   31  C   UNL     1     -11.992   6.252  72.028  1.00  0.00    -0.353 A  
HETATM   32  C   UNL     1     -10.942   6.096  72.914  1.00  0.00    -0.294 A  
HETATM   33  C   UNL     1      -9.664   6.530  72.557  1.00  0.00    -0.165 A  
HETATM   34  C   UNL     1      -9.386   7.181  71.327  1.00  0.00    -0.155 A  
BRANCH  34  35
HETATM   35  C   UNL     1      -7.961   7.569  71.062  1.00  0.00    -0.095 A  
HETATM   36  C   UNL     1      -6.972   6.647  70.673  1.00  0.00    -0.064 A  
HETATM   37  C   UNL     1      -5.632   7.028  70.506  1.00  0.00    -0.024 A  
HETATM   38  C   UNL     1      -5.233   8.336  70.764  1.00  0.00    -0.025 A  
HETATM   39  C   UNL     1      -6.181   9.273  71.150  1.00  0.00    -0.075 A  
HETATM   40  C   UNL     1      -7.525   8.897  71.274  1.00  0.00    -0.127 A  
ENDBRANCH  34  35
ENDBRANCH  26  29
ENDBRANCH  21  25
ENDBRANCH  12  19
TORSDOF 4
ENDMDL
MODEL       15
REMARK 921   NORMALIZED FREE ENERGY PREDICTED BY IDOCK:   -7.32 KCAL/MOL
REMARK 922        TOTAL FREE ENERGY PREDICTED BY IDOCK:  -10.51 KCAL/MOL
REMARK 923 INTER-LIGAND FREE ENERGY PREDICTED BY IDOCK:   -9.12 KCAL/MOL
REMARK 924 INTRA-LIGAND FREE ENERGY PREDICTED BY IDOCK:   -1.39 KCAL/MOL
REMARK 927      BINDING AFFINITY PREDICTED BY RF-SCORE:    0.00 PKD
ROOT
HETATM    1  C   UNL     1     -11.246   2.149  63.039  1.00  0.00    -0.222 C  
HETATM    2  C   UNL     1     -10.269   3.115  63.591  1.00  0.00    -0.198 A  
HETATM    3  N   UNL     1     -10.172   3.515  64.844  1.00  0.00    -0.399 NA 
HETATM    4  C   UNL     1      -9.142   4.421  64.860  1.00  0.00    -0.151 A  
HETATM    5  H   UNL     1     -10.742   3.214  65.634  1.00  0.00     0.000 HD 
HETATM    6  C   UNL     1      -8.577   4.533  63.615  1.00  0.00    -0.126 A  
HETATM    7  N   UNL     1      -9.308   3.708  62.807  1.00  0.00    -0.098 NA 
HETATM    8  C   UNL     1      -7.437   5.377  63.207  1.00  0.00    -0.055 C  
HETATM    9  C   UNL     1      -7.763   6.840  63.502  1.00  0.00    -0.114 C  
HETATM   10  N   UNL     1      -8.101   7.250  64.877  1.00  0.00    -0.126 N  
HETATM   11  C   UNL     1      -7.953   6.345  65.983  1.00  0.00    -0.115 A  
HETATM   12  C   UNL     1      -8.487   8.613  64.990  1.00  0.00    -0.173 C  
HETATM   13  C   UNL     1      -7.283   6.786  67.139  1.00  0.00    -0.085 A  
HETATM   14  O   UNL     1      -8.449   9.363  64.009  1.00  0.00    -0.172 OA 
HETATM   15  C   UNL     1      -8.592   5.078  66.028  1.00  0.00    -0.121 A  
HETATM   16  C   UNL     1      -7.381   6.090  68.349  1.00  0.00    -0.085 A  
HETATM   17  C   UNL     1      -8.689   4.394  67.254  1.00  0.00    -0.108 A  
HETATM   18  C   UNL     1      -8.115   4.911  68.414  1.00  0.00    -0.085 A  
ENDROOT
BRANCH  12  19
HETATM   19  C   UNL     1      -8.927   9.234  66.279  1.00  0.00    -0.193 A  
HETATM   20  C   UNL     1     -10.208   8.914  66.743  1.00  0.00    -0.348 A  
HETATM   21  C   UNL     1     -10.067  10.640  68.441  1.00  0.00    -0.166 A  
HETATM   22  C   UNL     1      -8.761  10.911  68.027  1.00  0.00    -0.132 A  
HETATM   23  C   UNL     1     -10.766   9.600  67.828  1.00  0.00    -0.316 A  
HETATM   24  C   UNL     1      -8.168  10.151  67.008  1.00  0.00    -0.118 A  
BRANCH  21  25
HETATM   25  N   UNL     1     -10.636  11.453  69.447  1.00  0.00    -0.424 N  
HETATM   26  C   UNL     1     -11.572  12.457  69.215  1.00  0.00    -0.319 C  
HETATM   27  H   UNL     1     -10.339  11.295  70.410  1.00  0.00     0.000 HD 
HETATM   28  O   UNL     1     -12.083  12.693  68.128  1.00  0.00    -0.278 OA 
BRANCH  26  29
HETATM   29  C   UNL     1     -12.070  13.229  70.401  1.00  0.00    -0.401 A  
HETATM   30  C   UNL     1     -12.877  12.540  71.337  1.00  0.00    -0.359 A  
HETATM   31  C   UNL     1     -13.546  13.218  72.354  1.00  0.00    -0.694 A  
HETATM   32  C   UNL     1     -13.425  14.592  72.452  1.00  0.00    -0.534 A  
HETATM   33  C   UNL     1     -12.592  15.278  71.565  1.00  0.00    -0.442 A  
HETATM   34  C   UNL     1     -11.886  14.636  70.515  1.00  0.00    -0.367 A  
BRANCH  34  35
HETATM   35  C   UNL     1     -11.006  15.494  69.655  1.00  0.00    -0.288 A  
HETATM   36  C   UNL     1     -11.502  16.310  68.622  1.00  0.00    -0.288 A  
HETATM   37  C   UNL     1     -10.646  17.044  67.785  1.00  0.00    -0.350 A  
HETATM   38  C   UNL     1      -9.266  16.949  67.931  1.00  0.00    -0.234 A  
HETATM   39  C   UNL     1      -8.741  16.153  68.940  1.00  0.00    -0.248 A  
HETATM   40  C   UNL     1      -9.600  15.457  69.799  1.00  0.00    -0.190 A  
ENDBRANCH  34  35
ENDBRANCH  26  29
ENDBRANCH  21  25
ENDBRANCH  12  19
TORSDOF 4
ENDMDL
MODEL       16
REMARK 921   NORMALIZED FREE ENERGY PREDICTED BY IDOCK:   -7.31 KCAL/MOL
REMARK 922        TOTAL FREE ENERGY PREDICTED BY IDOCK:  -10.50 KCAL/MOL
REMARK 923 INTER-LIGAND FREE ENERGY PREDICTED BY IDOCK:   -9.64 KCAL/MOL
REMARK 924 INTRA-LIGAND FREE ENERGY PREDICTED BY IDOCK:   -0.86 KCAL/MOL
REMARK 927      BINDING AFFINITY PREDICTED BY RF-SCORE:    0.00 PKD
ROOT
HETATM    1  C   UNL     1      -5.969   3.166  72.532  1.00  0.00    -0.009 C  
HETATM    2  C   UNL     1      -7.250   3.725  72.044  1.00  0.00    -0.054 A  
HETATM    3  N   UNL     1      -7.456   4.360  70.907  1.00  0.00    -0.051 NA 
HETATM    4  C   UNL     1      -8.785   4.703  70.913  1.00  0.00    -0.110 A  
HETATM    5  H   UNL     1      -6.772   4.556  70.176  1.00  0.00     0.000 HD 
HETATM    6  C   UNL     1      -9.401   4.227  72.043  1.00  0.00    -0.129 A  
HETATM    7  N   UNL     1      -8.416   3.615  72.766  1.00  0.00    -0.089 NA 
HETATM    8  C   UNL     1     -10.820   4.356  72.426  1.00  0.00    -0.048 C  
HETATM    9  C   UNL     1     -11.188   5.836  72.508  1.00  0.00    -0.297 C  
HETATM   10  N   UNL     1     -11.004   6.700  71.327  1.00  0.00    -0.244 N  
HETATM   11  C   UNL     1     -10.664   6.148  70.044  1.00  0.00    -0.305 A  
HETATM   12  C   UNL     1     -11.281   8.072  71.572  1.00  0.00    -0.255 C  
HETATM   13  C   UNL     1     -11.402   6.546  68.915  1.00  0.00    -0.267 A  
HETATM   14  O   UNL     1     -11.709   8.443  72.670  1.00  0.00    -0.386 OA 
HETATM   15  C   UNL     1      -9.514   5.342  69.837  1.00  0.00    -0.210 A  
HETATM   16  C   UNL     1     -10.933   6.308  67.618  1.00  0.00    -0.438 A  
HETATM   17  C   UNL     1      -9.051   5.119  68.527  1.00  0.00    -0.133 A  
HETATM   18  C   UNL     1      -9.738   5.625  67.426  1.00  0.00    -0.138 A  
ENDROOT
BRANCH  12  19
HETATM   19  C   UNL     1     -11.110   9.138  70.536  1.00  0.00    -0.308 A  
HETATM   20  C   UNL     1      -9.802   9.455  70.149  1.00  0.00    -0.272 A  
HETATM   21  C   UNL     1     -10.591  11.400  68.933  1.00  0.00    -0.202 A  
HETATM   22  C   UNL     1     -11.902  11.044  69.257  1.00  0.00    -0.411 A  
HETATM   23  C   UNL     1      -9.547  10.567  69.339  1.00  0.00    -0.170 A  
HETATM   24  C   UNL     1     -12.161   9.871  69.981  1.00  0.00    -0.017 A  
BRANCH  21  25
HETATM   25  N   UNL     1     -10.376  12.608  68.232  1.00  0.00    -0.236 N  
HETATM   26  C   UNL     1     -11.201  13.727  68.315  1.00  0.00    -0.273 C  
HETATM   27  H   UNL     1      -9.560  12.665  67.623  1.00  0.00     0.000 HD 
HETATM   28  O   UNL     1     -12.156  13.831  69.073  1.00  0.00    -0.346 OA 
BRANCH  26  29
HETATM   29  C   UNL     1     -10.826  14.927  67.498  1.00  0.00    -0.292 A  
HETATM   30  C   UNL     1     -10.500  16.116  68.195  1.00  0.00    -0.279 A  
HETATM   31  C   UNL     1     -10.338  17.326  67.525  1.00  0.00    -0.346 A  
HETATM   32  C   UNL     1     -10.499  17.373  66.152  1.00  0.00    -0.284 A  
HETATM   33  C   UNL     1     -10.771  16.199  65.447  1.00  0.00    -0.374 A  
HETATM   34  C   UNL     1     -10.942  14.940  66.080  1.00  0.00    -0.334 A  
BRANCH  34  35
HETATM   35  C   UNL     1     -11.204  13.756  65.195  1.00  0.00    -0.320 A  
HETATM   36  C   UNL     1     -10.195  13.111  64.457  1.00  0.00    -0.333 A  
HETATM   37  C   UNL     1     -10.482  12.054  63.580  1.00  0.00    -0.494 A  
HETATM   38  C   UNL     1     -11.796  11.638  63.385  1.00  0.00    -0.317 A  
HETATM   39  C   UNL     1     -12.817  12.251  64.097  1.00  0.00    -0.371 A  
HETATM   40  C   UNL     1     -12.519  13.277  65.002  1.00  0.00    -0.498 A  
ENDBRANCH  34  35
ENDBRANCH  26  29
ENDBRANCH  21  25
ENDBRANCH  12  19
TORSDOF 4
ENDMDL
MODEL       17
REMARK 921   NORMALIZED FREE ENERGY PREDICTED BY IDOCK:   -7.22 KCAL/MOL
REMARK 922        TOTAL FREE ENERGY PREDICTED BY IDOCK:  -10.39 KCAL/MOL
REMARK 923 INTER-LIGAND FREE ENERGY PREDICTED BY IDOCK:   -9.05 KCAL/MOL
REMARK 924 INTRA-LIGAND FREE ENERGY PREDICTED BY IDOCK:   -1.34 KCAL/MOL
REMARK 927      BINDING AFFINITY PREDICTED BY RF-SCORE:    0.00 PKD
ROOT
HETATM    1  C   UNL     1      -6.533  20.353  64.396  1.00  0.00    -0.282 C  
HETATM    2  C   UNL     1      -7.013  19.516  65.519  1.00  0.00    -0.273 A  
HETATM    3  N   UNL     1      -6.844  18.216  65.667  1.00  0.00    -0.458 NA 
HETATM    4  C   UNL     1      -7.480  17.895  66.839  1.00  0.00    -0.200 A  
HETATM    5  H   UNL     1      -6.347  17.583  65.041  1.00  0.00     0.000 HD 
HETATM    6  C   UNL     1      -7.995  19.019  67.433  1.00  0.00    -0.250 A  
HETATM    7  N   UNL     1      -7.705  20.048  66.581  1.00  0.00    -0.286 NA 
HETATM    8  C   UNL     1      -8.729  19.116  68.710  1.00  0.00    -0.365 C  
HETATM    9  C   UNL     1      -9.977  18.237  68.642  1.00  0.00    -0.389 C  
HETATM   10  N   UNL     1      -9.839  16.797  68.360  1.00  0.00    -0.242 N  
HETATM   11  C   UNL     1      -8.550  16.161  68.330  1.00  0.00    -0.189 A  
HETATM   12  C   UNL     1     -11.081  16.120  68.218  1.00  0.00    -0.348 C  
HETATM   13  C   UNL     1      -8.364  14.967  69.050  1.00  0.00    -0.194 A  
HETATM   14  O   UNL     1     -12.148  16.715  68.401  1.00  0.00     0.371 OA 
HETATM   15  C   UNL     1      -7.501  16.595  67.478  1.00  0.00    -0.176 A  
HETATM   16  C   UNL     1      -7.261  14.139  68.813  1.00  0.00    -0.120 A  
HETATM   17  C   UNL     1      -6.403  15.747  67.245  1.00  0.00    -0.105 A  
HETATM   18  C   UNL     1      -6.298  14.513  67.883  1.00  0.00    -0.173 A  
ENDROOT
BRANCH  12  19
HETATM   19  C   UNL     1     -11.185  14.667  67.875  1.00  0.00    -0.318 A  
HETATM   20  C   UNL     1     -11.694  13.808  68.857  1.00  0.00    -0.374 A  
HETATM   21  C   UNL     1     -11.042  11.868  67.555  1.00  0.00    -0.273 A  
HETATM   22  C   UNL     1     -10.601  12.723  66.542  1.00  0.00    -0.270 A  
HETATM   23  C   UNL     1     -11.639  12.420  68.689  1.00  0.00    -0.365 A  
HETATM   24  C   UNL     1     -10.752  14.111  66.669  1.00  0.00    -0.289 A  
BRANCH  21  25
HETATM   25  N   UNL     1     -10.838  10.479  67.399  1.00  0.00    -0.286 N  
HETATM   26  C   UNL     1      -9.622   9.832  67.603  1.00  0.00    -0.145 C  
HETATM   27  H   UNL     1     -11.636   9.910  67.117  1.00  0.00     0.000 HD 
HETATM   28  O   UNL     1      -8.611  10.372  68.030  1.00  0.00    -0.121 OA 
BRANCH  26  29
HETATM   29  C   UNL     1      -9.581   8.348  67.389  1.00  0.00    -0.202 A  
HETATM   30  C   UNL     1      -9.118   7.881  66.135  1.00  0.00    -0.210 A  
HETATM   31  C   UNL     1      -9.234   6.541  65.774  1.00  0.00     0.051 A  
HETATM   32  C   UNL     1      -9.816   5.645  66.653  1.00  0.00    -0.191 A  
HETATM   33  C   UNL     1     -10.232   6.083  67.912  1.00  0.00    -0.217 A  
HETATM   34  C   UNL     1     -10.133   7.435  68.331  1.00  0.00    -0.196 A  
BRANCH  34  35
HETATM   35  C   UNL     1     -10.594   7.758  69.722  1.00  0.00    -0.241 A  
HETATM   36  C   UNL     1      -9.927   8.670  70.560  1.00  0.00    -0.220 A  
HETATM   37  C   UNL     1     -10.339   8.895  71.883  1.00  0.00    -0.407 A  
HETATM   38  C   UNL     1     -11.407   8.183  72.419  1.00  0.00    -0.456 A  
HETATM   39  C   UNL     1     -12.089   7.274  71.621  1.00  0.00    -0.359 A  
HETATM   40  C   UNL     1     -11.700   7.085  70.289  1.00  0.00    -0.284 A  
ENDBRANCH  34  35
ENDBRANCH  26  29
ENDBRANCH  21  25
ENDBRANCH  12  19
TORSDOF 4
ENDMDL
MODEL       18
REMARK 921   NORMALIZED FREE ENERGY PREDICTED BY IDOCK:   -7.22 KCAL/MOL
REMARK 922        TOTAL FREE ENERGY PREDICTED BY IDOCK:  -10.39 KCAL/MOL
REMARK 923 INTER-LIGAND FREE ENERGY PREDICTED BY IDOCK:   -9.14 KCAL/MOL
REMARK 924 INTRA-LIGAND FREE ENERGY PREDICTED BY IDOCK:   -1.24 KCAL/MOL
REMARK 927      BINDING AFFINITY PREDICTED BY RF-SCORE:    0.00 PKD
ROOT
HETATM    1  C   UNL     1     -10.728  19.966  65.211  1.00  0.00     0.010 C  
HETATM    2  C   UNL     1     -10.429  18.941  66.236  1.00  0.00    -0.445 A  
HETATM    3  N   UNL     1      -9.954  17.728  66.029  1.00  0.00    -0.534 NA 
HETATM    4  C   UNL     1      -9.868  17.151  67.271  1.00  0.00    -0.265 A  
HETATM    5  H   UNL     1      -9.704  17.308  65.134  1.00  0.00     0.000 HD 
HETATM    6  C   UNL     1     -10.247  18.041  68.244  1.00  0.00    -0.395 A  
HETATM    7  N   UNL     1     -10.615  19.175  67.578  1.00  0.00    -0.461 NA 
HETATM    8  C   UNL     1     -10.278  17.829  69.704  1.00  0.00     0.287 C  
HETATM    9  C   UNL     1     -11.199  16.653  70.024  1.00  0.00    -0.007 C  
HETATM   10  N   UNL     1     -10.930  15.332  69.427  1.00  0.00    -0.255 N  
HETATM   11  C   UNL     1      -9.717  15.075  68.700  1.00  0.00    -0.219 A  
HETATM   12  C   UNL     1     -11.922  14.358  69.720  1.00  0.00    -0.332 C  
HETATM   13  C   UNL     1      -8.972  13.922  69.005  1.00  0.00     0.223 A  
HETATM   14  O   UNL     1     -12.864  14.624  70.474  1.00  0.00    -0.353 OA 
HETATM   15  C   UNL     1      -9.318  15.846  67.576  1.00  0.00    -0.217 A  
HETATM   16  C   UNL     1      -7.979  13.446  68.141  1.00  0.00    -0.150 A  
HETATM   17  C   UNL     1      -8.324  15.350  66.713  1.00  0.00    -0.285 A  
HETATM   18  C   UNL     1      -7.680  14.143  66.976  1.00  0.00     0.128 A  
ENDROOT
BRANCH  12  19
HETATM   19  C   UNL     1     -11.885  12.965  69.175  1.00  0.00    -0.353 A  
HETATM   20  C   UNL     1     -11.925  11.912  70.096  1.00  0.00    -0.413 A  
HETATM   21  C   UNL     1     -11.389  10.313  68.353  1.00  0.00    -0.178 A  
HETATM   22  C   UNL     1     -11.421  11.352  67.420  1.00  0.00    -0.328 A  
HETATM   23  C   UNL     1     -11.697  10.594  69.685  1.00  0.00    -0.368 A  
HETATM   24  C   UNL     1     -11.752  12.654  67.819  1.00  0.00    -0.412 A  
BRANCH  21  25
HETATM   25  N   UNL     1     -11.016   9.024  67.911  1.00  0.00    -0.497 N  
HETATM   26  C   UNL     1      -9.786   8.425  68.170  1.00  0.00    -0.169 C  
HETATM   27  H   UNL     1     -11.695   8.494  67.365  1.00  0.00     0.000 HD 
HETATM   28  O   UNL     1      -8.918   8.904  68.887  1.00  0.00    -0.136 OA 
BRANCH  26  29
HETATM   29  C   UNL     1      -9.555   7.049  67.621  1.00  0.00    -0.151 A  
HETATM   30  C   UNL     1      -9.004   6.947  66.320  1.00  0.00    -0.172 A  
HETATM   31  C   UNL     1      -8.943   5.726  65.653  1.00  0.00    -0.122 A  
HETATM   32  C   UNL     1      -9.431   4.588  66.268  1.00  0.00    -0.174 A  
HETATM   33  C   UNL     1      -9.931   4.665  67.569  1.00  0.00    -0.174 A  
HETATM   34  C   UNL     1     -10.013   5.881  68.295  1.00  0.00    -0.177 A  
BRANCH  34  35
HETATM   35  C   UNL     1     -10.547   5.811  69.695  1.00  0.00    -0.396 A  
HETATM   36  C   UNL     1     -11.695   6.507  70.115  1.00  0.00    -0.419 A  
HETATM   37  C   UNL     1     -12.128   6.482  71.450  1.00  0.00    -0.344 A  
HETATM   38  C   UNL     1     -11.398   5.791  72.414  1.00  0.00    -0.348 A  
HETATM   39  C   UNL     1     -10.260   5.093  72.035  1.00  0.00    -0.260 A  
HETATM   40  C   UNL     1      -9.858   5.087  70.694  1.00  0.00    -0.282 A  
ENDBRANCH  34  35
ENDBRANCH  26  29
ENDBRANCH  21  25
ENDBRANCH  12  19
TORSDOF 4
ENDMDL
MODEL       19
REMARK 921   NORMALIZED FREE ENERGY PREDICTED BY IDOCK:   -7.21 KCAL/MOL
REMARK 922        TOTAL FREE ENERGY PREDICTED BY IDOCK:  -10.37 KCAL/MOL
REMARK 923 INTER-LIGAND FREE ENERGY PREDICTED BY IDOCK:   -9.32 KCAL/MOL
REMARK 924 INTRA-LIGAND FREE ENERGY PREDICTED BY IDOCK:   -1.05 KCAL/MOL
REMARK 927      BINDING AFFINITY PREDICTED BY RF-SCORE:    0.00 PKD
ROOT
HETATM    1  C   UNL     1      -5.285   4.229  64.391  1.00  0.00    -0.012 C  
HETATM    2  C   UNL     1      -5.535   5.686  64.472  1.00  0.00    -0.013 A  
HETATM    3  N   UNL     1      -6.023   6.351  65.502  1.00  0.00    -0.029 NA 
HETATM    4  C   UNL     1      -6.093   7.659  65.094  1.00  0.00    -0.038 A  
HETATM    5  H   UNL     1      -6.292   5.972  66.409  1.00  0.00     0.000 HD 
HETATM    6  C   UNL     1      -5.595   7.796  63.823  1.00  0.00    -0.048 A  
HETATM    7  N   UNL     1      -5.253   6.534  63.426  1.00  0.00    -0.025 NA 
HETATM    8  C   UNL     1      -5.469   9.031  63.026  1.00  0.00    -0.069 C  
HETATM    9  C   UNL     1      -6.848   9.667  62.858  1.00  0.00    -0.104 C  
HETATM   10  N   UNL     1      -7.633  10.031  64.051  1.00  0.00    -0.138 N  
HETATM   11  C   UNL     1      -7.059   9.975  65.368  1.00  0.00    -0.138 A  
HETATM   12  C   UNL     1      -8.937  10.511  63.755  1.00  0.00    -0.215 C  
HETATM   13  C   UNL     1      -7.210  11.082  66.224  1.00  0.00    -0.095 A  
HETATM   14  O   UNL     1      -9.302  10.664  62.584  1.00  0.00    -0.268 OA 
HETATM   15  C   UNL     1      -6.485   8.793  65.905  1.00  0.00    -0.057 A  
HETATM   16  C   UNL     1      -6.967  10.978  67.598  1.00  0.00    -0.083 A  
HETATM   17  C   UNL     1      -6.254   8.702  67.290  1.00  0.00    -0.056 A  
HETATM   18  C   UNL     1      -6.523   9.776  68.136  1.00  0.00    -0.056 A  
ENDROOT
BRANCH  12  19
HETATM   19  C   UNL     1      -9.930  10.887  64.810  1.00  0.00    -0.366 A  
HETATM   20  C   UNL     1     -10.489  12.168  64.741  1.00  0.00    -0.332 A  
HETATM   21  C   UNL     1     -11.469  11.903  66.944  1.00  0.00    -0.322 A  
HETATM   22  C   UNL     1     -10.974  10.597  66.983  1.00  0.00    -0.274 A  
HETATM   23  C   UNL     1     -11.268  12.665  65.792  1.00  0.00    -0.347 A  
HETATM   24  C   UNL     1     -10.282  10.067  65.885  1.00  0.00    -0.275 A  
BRANCH  21  25
HETATM   25  N   UNL     1     -12.130  12.406  68.087  1.00  0.00    -0.192 N  
HETATM   26  C   UNL     1     -11.513  13.142  69.095  1.00  0.00    -0.305 C  
HETATM   27  H   UNL     1     -13.128  12.218  68.180  1.00  0.00     0.000 HD 
HETATM   28  O   UNL     1     -10.349  13.519  69.067  1.00  0.00    -0.144 OA 
BRANCH  26  29
HETATM   29  C   UNL     1     -12.365  13.597  70.242  1.00  0.00    -0.392 A  
HETATM   30  C   UNL     1     -12.654  14.980  70.335  1.00  0.00    -0.399 A  
HETATM   31  C   UNL     1     -13.262  15.519  71.466  1.00  0.00    -0.589 A  
HETATM   32  C   UNL     1     -13.590  14.691  72.524  1.00  0.00    -0.572 A  
HETATM   33  C   UNL     1     -13.356  13.318  72.426  1.00  0.00    -0.616 A  
HETATM   34  C   UNL     1     -12.744  12.717  71.296  1.00  0.00    -0.364 A  
BRANCH  34  35
HETATM   35  C   UNL     1     -12.580  11.226  71.315  1.00  0.00    -0.487 A  
HETATM   36  C   UNL     1     -13.515  10.358  71.907  1.00  0.00    -0.384 A  
HETATM   37  C   UNL     1     -13.297   8.973  71.975  1.00  0.00    -0.494 A  
HETATM   38  C   UNL     1     -12.116   8.420  71.489  1.00  0.00    -0.342 A  
HETATM   39  C   UNL     1     -11.170   9.247  70.898  1.00  0.00    -0.372 A  
HETATM   40  C   UNL     1     -11.412  10.622  70.794  1.00  0.00    -0.307 A  
ENDBRANCH  34  35
ENDBRANCH  26  29
ENDBRANCH  21  25
ENDBRANCH  12  19
TORSDOF 4
ENDMDL
MODEL       20
REMARK 921   NORMALIZED FREE ENERGY PREDICTED BY IDOCK:   -7.20 KCAL/MOL
REMARK 922        TOTAL FREE ENERGY PREDICTED BY IDOCK:  -10.36 KCAL/MOL
REMARK 923 INTER-LIGAND FREE ENERGY PREDICTED BY IDOCK:   -8.87 KCAL/MOL
REMARK 924 INTRA-LIGAND FREE ENERGY PREDICTED BY IDOCK:   -1.48 KCAL/MOL
REMARK 927      BINDING AFFINITY PREDICTED BY RF-SCORE:    0.00 PKD
ROOT
HETATM    1  C   UNL     1      -9.825  19.012  65.971  1.00  0.00    -0.271 C  
HETATM    2  C   UNL     1     -10.374  17.638  66.002  1.00  0.00    -0.304 A  
HETATM    3  N   UNL     1     -10.385  16.811  67.029  1.00  0.00    -0.302 NA 
HETATM    4  C   UNL     1     -10.973  15.661  66.568  1.00  0.00    -0.206 A  
HETATM    5  H   UNL     1     -10.030  16.989  67.969  1.00  0.00     0.000 HD 
HETATM    6  C   UNL     1     -11.368  15.810  65.263  1.00  0.00    -0.093 A  
HETATM    7  N   UNL     1     -10.973  17.067  64.903  1.00  0.00    -0.769 NA 
HETATM    8  C   UNL     1     -12.056  14.826  64.404  1.00  0.00    -0.457 C  
HETATM    9  C   UNL     1     -11.199  13.565  64.297  1.00  0.00    -0.360 C  
HETATM   10  N   UNL     1     -10.813  12.839  65.520  1.00  0.00    -0.270 N  
HETATM   11  C   UNL     1     -11.375  13.178  66.799  1.00  0.00    -0.316 A  
HETATM   12  C   UNL     1      -9.930  11.751  65.285  1.00  0.00    -0.253 C  
HETATM   13  C   UNL     1     -11.888  12.151  67.611  1.00  0.00    -0.316 A  
HETATM   14  O   UNL     1      -9.607  11.436  64.135  1.00  0.00    -0.229 OA 
HETATM   15  C   UNL     1     -11.291  14.484  67.351  1.00  0.00    -0.370 A  
HETATM   16  C   UNL     1     -12.149  12.359  68.970  1.00  0.00    -0.185 A  
HETATM   17  C   UNL     1     -11.549  14.674  68.720  1.00  0.00    -0.346 A  
HETATM   18  C   UNL     1     -11.944  13.613  69.532  1.00  0.00    -0.397 A  
ENDROOT
BRANCH  12  19
HETATM   19  C   UNL     1      -9.363  10.907  66.384  1.00  0.00    -0.199 A  
HETATM   20  C   UNL     1      -9.774   9.571  66.447  1.00  0.00    -0.295 A  
HETATM   21  C   UNL     1      -8.737   9.312  68.624  1.00  0.00    -0.132 A  
HETATM   22  C   UNL     1      -8.264  10.623  68.530  1.00  0.00    -0.128 A  
HETATM   23  C   UNL     1      -9.448   8.774  67.550  1.00  0.00    -0.173 A  
HETATM   24  C   UNL     1      -8.504  11.384  67.377  1.00  0.00    -0.143 A  
BRANCH  21  25
HETATM   25  N   UNL     1      -8.500   8.595  69.819  1.00  0.00    -0.126 N  
HETATM   26  C   UNL     1      -9.433   8.430  70.839  1.00  0.00    -0.169 C  
HETATM   27  H   UNL     1      -7.582   8.170  69.943  1.00  0.00     0.000 HD 
HETATM   28  O   UNL     1     -10.597   8.805  70.783  1.00  0.00    -0.201 OA 
BRANCH  26  29
HETATM   29  C   UNL     1      -9.013   7.641  72.042  1.00  0.00    -0.158 A  
HETATM   30  C   UNL     1      -9.053   8.292  73.299  1.00  0.00    -0.278 A  
HETATM   31  C   UNL     1      -8.495   7.711  74.435  1.00  0.00    -0.259 A  
HETATM   32  C   UNL     1      -7.885   6.473  74.337  1.00  0.00    -0.113 A  
HETATM   33  C   UNL     1      -7.881   5.798  73.116  1.00  0.00    -0.103 A  
HETATM   34  C   UNL     1      -8.439   6.343  71.930  1.00  0.00    -0.123 A  
BRANCH  34  35
HETATM   35  C   UNL     1      -8.388   5.494  70.694  1.00  0.00    -0.117 A  
HETATM   36  C   UNL     1      -7.227   5.337  69.916  1.00  0.00    -0.063 A  
HETATM   37  C   UNL     1      -7.231   4.597  68.724  1.00  0.00    -0.053 A  
HETATM   38  C   UNL     1      -8.409   4.025  68.253  1.00  0.00    -0.100 A  
HETATM   39  C   UNL     1      -9.574   4.158  68.995  1.00  0.00    -0.232 A  
HETATM   40  C   UNL     1      -9.555   4.861  70.206  1.00  0.00    -0.265 A  
ENDBRANCH  34  35
ENDBRANCH  26  29
ENDBRANCH  21  25
ENDBRANCH  12  19
TORSDOF 4
ENDMDL
MODEL       21
REMARK 921   NORMALIZED FREE ENERGY PREDICTED BY IDOCK:   -7.18 KCAL/MOL
REMARK 922        TOTAL FREE ENERGY PREDICTED BY IDOCK:  -10.34 KCAL/MOL
REMARK 923 INTER-LIGAND FREE ENERGY PREDICTED BY IDOCK:   -9.08 KCAL/MOL
REMARK 924 INTRA-LIGAND FREE ENERGY PREDICTED BY IDOCK:   -1.27 KCAL/MOL
REMARK 927      BINDING AFFINITY PREDICTED BY RF-SCORE:    0.00 PKD
ROOT
HETATM    1  C   UNL     1     -10.826   3.602  73.950  1.00  0.00    -0.301 C  
HETATM    2  C   UNL     1     -10.218   4.108  72.699  1.00  0.00    -0.169 A  
HETATM    3  N   UNL     1      -9.619   5.270  72.521  1.00  0.00    -0.148 NA 
HETATM    4  C   UNL     1      -9.245   5.292  71.202  1.00  0.00    -0.145 A  
HETATM    5  H   UNL     1      -9.466   5.998  73.219  1.00  0.00     0.000 HD 
HETATM    6  C   UNL     1      -9.576   4.111  70.586  1.00  0.00    -0.194 A  
HETATM    7  N   UNL     1     -10.207   3.365  71.541  1.00  0.00     0.021 NA 
HETATM    8  C   UNL     1      -9.332   3.719  69.184  1.00  0.00    -0.243 C  
HETATM    9  C   UNL     1     -10.013   4.722  68.254  1.00  0.00    -0.090 C  
HETATM   10  N   UNL     1      -9.664   6.152  68.343  1.00  0.00    -0.120 N  
HETATM   11  C   UNL     1      -8.567   6.604  69.154  1.00  0.00    -0.130 A  
HETATM   12  C   UNL     1     -10.447   6.986  67.500  1.00  0.00    -0.250 C  
HETATM   13  C   UNL     1      -7.626   7.488  68.595  1.00  0.00    -0.110 A  
HETATM   14  O   UNL     1     -11.276   6.498  66.724  1.00  0.00    -0.334 OA 
HETATM   15  C   UNL     1      -8.475   6.327  70.543  1.00  0.00    -0.138 A  
HETATM   16  C   UNL     1      -6.736   8.208  69.399  1.00  0.00    -0.042 A  
HETATM   17  C   UNL     1      -7.580   7.065  71.339  1.00  0.00    -0.086 A  
HETATM   18  C   UNL     1      -6.738   8.022  70.776  1.00  0.00    -0.037 A  
ENDROOT
BRANCH  12  19
HETATM   19  C   UNL     1     -10.306   8.475  67.466  1.00  0.00    -0.334 A  
HETATM   20  C   UNL     1     -10.831   9.196  68.545  1.00  0.00    -0.089 A  
HETATM   21  C   UNL     1     -10.514  11.286  67.356  1.00  0.00    -0.212 A  
HETATM   22  C   UNL     1      -9.923  10.575  66.308  1.00  0.00    -0.276 A  
HETATM   23  C   UNL     1     -10.917  10.592  68.497  1.00  0.00    -0.300 A  
HETATM   24  C   UNL     1      -9.744   9.188  66.404  1.00  0.00    -0.330 A  
BRANCH  21  25
HETATM   25  N   UNL     1     -10.705  12.677  67.200  1.00  0.00    -0.239 N  
HETATM   26  C   UNL     1      -9.858  13.654  67.718  1.00  0.00    -0.232 C  
HETATM   27  H   UNL     1     -11.520  12.988  66.671  1.00  0.00     0.000 HD 
HETATM   28  O   UNL     1      -8.801  13.424  68.290  1.00  0.00    -0.178 OA 
BRANCH  26  29
HETATM   29  C   UNL     1     -10.214  15.088  67.461  1.00  0.00    -0.234 A  
HETATM   30  C   UNL     1      -9.769  15.664  66.246  1.00  0.00    -0.328 A  
HETATM   31  C   UNL     1      -9.875  17.033  66.012  1.00  0.00    -0.263 A  
HETATM   32  C   UNL     1     -10.423  17.850  66.984  1.00  0.00    -0.345 A  
HETATM   33  C   UNL     1     -10.911  17.289  68.166  1.00  0.00    -0.294 A  
HETATM   34  C   UNL     1     -10.831  15.901  68.452  1.00  0.00    -0.316 A  
BRANCH  34  35
HETATM   35  C   UNL     1     -11.421  15.433  69.750  1.00  0.00    -0.338 A  
HETATM   36  C   UNL     1     -12.183  14.256  69.867  1.00  0.00    -0.407 A  
HETATM   37  C   UNL     1     -12.785  13.883  71.079  1.00  0.00    -0.428 A  
HETATM   38  C   UNL     1     -12.676  14.700  72.200  1.00  0.00    -0.408 A  
HETATM   39  C   UNL     1     -11.932  15.869  72.121  1.00  0.00    -0.612 A  
HETATM   40  C   UNL     1     -11.298  16.214  70.921  1.00  0.00    -0.394 A  
ENDBRANCH  34  35
ENDBRANCH  26  29
ENDBRANCH  21  25
ENDBRANCH  12  19
TORSDOF 4
ENDMDL
MODEL       22
REMARK 921   NORMALIZED FREE ENERGY PREDICTED BY IDOCK:   -7.17 KCAL/MOL
REMARK 922        TOTAL FREE ENERGY PREDICTED BY IDOCK:  -10.32 KCAL/MOL
REMARK 923 INTER-LIGAND FREE ENERGY PREDICTED BY IDOCK:   -9.13 KCAL/MOL
REMARK 924 INTRA-LIGAND FREE ENERGY PREDICTED BY IDOCK:   -1.19 KCAL/MOL
REMARK 927      BINDING AFFINITY PREDICTED BY RF-SCORE:    0.00 PKD
ROOT
HETATM    1  C   UNL     1      -5.470  20.200  64.850  1.00  0.00    -0.207 C  
HETATM    2  C   UNL     1      -6.604  19.513  65.508  1.00  0.00    -0.269 A  
HETATM    3  N   UNL     1      -6.541  18.470  66.313  1.00  0.00    -0.199 NA 
HETATM    4  C   UNL     1      -7.841  18.186  66.648  1.00  0.00    -0.242 A  
HETATM    5  H   UNL     1      -5.702  17.979  66.621  1.00  0.00     0.000 HD 
HETATM    6  C   UNL     1      -8.696  19.096  66.080  1.00  0.00    -0.219 A  
HETATM    7  N   UNL     1      -7.904  19.933  65.345  1.00  0.00    -0.272 NA 
HETATM    8  C   UNL     1     -10.165  19.163  66.206  1.00  0.00    -0.527 C  
HETATM    9  C   UNL     1     -10.774  17.854  65.705  1.00  0.00    -0.089 C  
HETATM   10  N   UNL     1     -10.370  16.579  66.323  1.00  0.00    -0.319 N  
HETATM   11  C   UNL     1      -9.557  16.547  67.508  1.00  0.00    -0.231 A  
HETATM   12  C   UNL     1     -10.928  15.434  65.691  1.00  0.00    -0.326 C  
HETATM   13  C   UNL     1      -9.955  15.733  68.584  1.00  0.00    -0.208 A  
HETATM   14  O   UNL     1     -11.734  15.556  64.763  1.00  0.00    -0.294 OA 
HETATM   15  C   UNL     1      -8.286  17.174  67.584  1.00  0.00    -0.197 A  
HETATM   16  C   UNL     1      -9.070  15.407  69.618  1.00  0.00    -0.171 A  
HETATM   17  C   UNL     1      -7.405  16.830  68.625  1.00  0.00    -0.218 A  
HETATM   18  C   UNL     1      -7.781  15.929  69.618  1.00  0.00     0.001 A  
ENDROOT
BRANCH  12  19
HETATM   19  C   UNL     1     -10.613  14.033  66.113  1.00  0.00    -0.290 A  
HETATM   20  C   UNL     1     -11.600  13.336  66.819  1.00  0.00    -0.408 A  
HETATM   21  C   UNL     1     -10.029  11.566  67.348  1.00  0.00    -0.190 A  
HETATM   22  C   UNL     1      -9.063  12.224  66.582  1.00  0.00    -0.203 A  
HETATM   23  C   UNL     1     -11.315  12.103  67.416  1.00  0.00    -0.393 A  
HETATM   24  C   UNL     1      -9.383  13.406  65.900  1.00  0.00     0.055 A  
BRANCH  21  25
HETATM   25  N   UNL     1      -9.652  10.397  68.046  1.00  0.00    -0.142 N  
HETATM   26  C   UNL     1     -10.147   9.123  67.779  1.00  0.00    -0.203 C  
HETATM   27  H   UNL     1      -8.969  10.492  68.797  1.00  0.00     0.000 HD 
HETATM   28  O   UNL     1     -10.896   8.850  66.851  1.00  0.00    -0.162 OA 
BRANCH  26  29
HETATM   29  C   UNL     1      -9.639   7.991  68.621  1.00  0.00    -0.150 A  
HETATM   30  C   UNL     1      -8.616   7.178  68.076  1.00  0.00    -0.128 A  
HETATM   31  C   UNL     1      -8.226   5.992  68.694  1.00  0.00    -0.107 A  
HETATM   32  C   UNL     1      -8.850   5.596  69.863  1.00  0.00    -0.135 A  
HETATM   33  C   UNL     1      -9.825   6.413  70.438  1.00  0.00    -0.193 A  
HETATM   34  C   UNL     1     -10.257   7.631  69.852  1.00  0.00    -0.215 A  
BRANCH  34  35
HETATM   35  C   UNL     1     -11.294   8.421  70.595  1.00  0.00    -0.262 A  
HETATM   36  C   UNL     1     -11.218   9.815  70.769  1.00  0.00    -0.419 A  
HETATM   37  C   UNL     1     -12.165  10.516  71.532  1.00  0.00    -0.385 A  
HETATM   38  C   UNL     1     -13.192   9.836  72.179  1.00  0.00    -0.530 A  
HETATM   39  C   UNL     1     -13.298   8.460  72.029  1.00  0.00    -0.367 A  
HETATM   40  C   UNL     1     -12.376   7.772  71.231  1.00  0.00    -0.314 A  
ENDBRANCH  34  35
ENDBRANCH  26  29
ENDBRANCH  21  25
ENDBRANCH  12  19
TORSDOF 4
ENDMDL
MODEL       23
REMARK 921   NORMALIZED FREE ENERGY PREDICTED BY IDOCK:   -7.09 KCAL/MOL
REMARK 922        TOTAL FREE ENERGY PREDICTED BY IDOCK:  -10.23 KCAL/MOL
REMARK 923 INTER-LIGAND FREE ENERGY PREDICTED BY IDOCK:   -9.39 KCAL/MOL
REMARK 924 INTRA-LIGAND FREE ENERGY PREDICTED BY IDOCK:   -0.84 KCAL/MOL
REMARK 927      BINDING AFFINITY PREDICTED BY RF-SCORE:    0.00 PKD
ROOT
HETATM    1  C   UNL     1     -11.479   1.795  74.165  1.00  0.00    -0.101 C  
HETATM    2  C   UNL     1     -10.687   2.960  73.709  1.00  0.00    -0.197 A  
HETATM    3  N   UNL     1     -11.151   4.081  73.192  1.00  0.00    -0.176 NA 
HETATM    4  C   UNL     1     -10.044   4.840  72.907  1.00  0.00    -0.168 A  
HETATM    5  H   UNL     1     -12.128   4.331  73.036  1.00  0.00     0.000 HD 
HETATM    6  C   UNL     1      -8.901   4.193  73.302  1.00  0.00    -0.098 A  
HETATM    7  N   UNL     1      -9.315   2.990  73.801  1.00  0.00    -0.084 NA 
HETATM    8  C   UNL     1      -7.507   4.668  73.199  1.00  0.00    -0.086 C  
HETATM    9  C   UNL     1      -7.179   4.951  71.734  1.00  0.00    -0.067 C  
HETATM   10  N   UNL     1      -7.995   5.917  70.977  1.00  0.00    -0.113 N  
HETATM   11  C   UNL     1      -8.977   6.738  71.630  1.00  0.00    -0.136 A  
HETATM   12  C   UNL     1      -7.650   6.004  69.601  1.00  0.00    -0.089 C  
HETATM   13  C   UNL     1      -8.989   8.121  71.370  1.00  0.00    -0.188 A  
HETATM   14  O   UNL     1      -6.694   5.365  69.148  1.00  0.00    -0.049 OA 
HETATM   15  C   UNL     1     -10.039   6.197  72.402  1.00  0.00    -0.199 A  
HETATM   16  C   UNL     1     -10.091   8.915  71.708  1.00  0.00    -0.407 A  
HETATM   17  C   UNL     1     -11.142   7.007  72.726  1.00  0.00    -0.320 A  
HETATM   18  C   UNL     1     -11.183   8.349  72.355  1.00  0.00    -0.438 A  
ENDROOT
BRANCH  12  19
HETATM   19  C   UNL     1      -8.381   6.877  68.629  1.00  0.00    -0.121 A  
HETATM   20  C   UNL     1      -7.753   8.064  68.232  1.00  0.00    -0.117 A  
HETATM   21  C   UNL     1      -9.789   8.829  67.158  1.00  0.00    -0.207 A  
HETATM   22  C   UNL     1     -10.394   7.615  67.491  1.00  0.00    -0.326 A  
HETATM   23  C   UNL     1      -8.446   9.023  67.487  1.00  0.00    -0.116 A  
HETATM   24  C   UNL     1      -9.664   6.613  68.147  1.00  0.00    -0.130 A  
BRANCH  21  25
HETATM   25  N   UNL     1     -10.573   9.821  66.529  1.00  0.00    -0.134 N  
HETATM   26  C   UNL     1     -10.113  11.088  66.181  1.00  0.00    -0.237 C  
HETATM   27  H   UNL     1     -11.543   9.594  66.314  1.00  0.00     0.000 HD 
HETATM   28  O   UNL     1      -8.953  11.462  66.295  1.00  0.00    -0.192 OA 
BRANCH  26  29
HETATM   29  C   UNL     1     -11.084  12.021  65.520  1.00  0.00    -0.361 A  
HETATM   30  C   UNL     1     -11.185  11.967  64.109  1.00  0.00    -0.441 A  
HETATM   31  C   UNL     1     -11.904  12.925  63.397  1.00  0.00    -0.576 A  
HETATM   32  C   UNL     1     -12.529  13.953  64.079  1.00  0.00    -0.263 A  
HETATM   33  C   UNL     1     -12.479  13.991  65.473  1.00  0.00    -0.533 A  
HETATM   34  C   UNL     1     -11.765  13.039  66.246  1.00  0.00    -0.440 A  
BRANCH  34  35
HETATM   35  C   UNL     1     -11.820  13.186  67.739  1.00  0.00    -0.392 A  
HETATM   36  C   UNL     1     -11.910  12.089  68.616  1.00  0.00    -0.366 A  
HETATM   37  C   UNL     1     -12.035  12.262  70.003  1.00  0.00    -0.379 A  
HETATM   38  C   UNL     1     -12.115  13.539  70.550  1.00  0.00    -0.409 A  
HETATM   39  C   UNL     1     -12.029  14.644  69.715  1.00  0.00    -0.378 A  
HETATM   40  C   UNL     1     -11.861  14.466  68.336  1.00  0.00    -0.354 A  
ENDBRANCH  34  35
ENDBRANCH  26  29
ENDBRANCH  21  25
ENDBRANCH  12  19
TORSDOF 4
ENDMDL
MODEL       24
REMARK 921   NORMALIZED FREE ENERGY PREDICTED BY IDOCK:   -7.06 KCAL/MOL
REMARK 922        TOTAL FREE ENERGY PREDICTED BY IDOCK:  -10.19 KCAL/MOL
REMARK 923 INTER-LIGAND FREE ENERGY PREDICTED BY IDOCK:   -8.93 KCAL/MOL
REMARK 924 INTRA-LIGAND FREE ENERGY PREDICTED BY IDOCK:   -1.26 KCAL/MOL
REMARK 927      BINDING AFFINITY PREDICTED BY RF-SCORE:    0.00 PKD
ROOT
HETATM    1  C   UNL     1      -5.821   5.413  65.498  1.00  0.00    -0.021 C  
HETATM    2  C   UNL     1      -7.027   6.254  65.671  1.00  0.00    -0.057 A  
HETATM    3  N   UNL     1      -7.198   7.492  65.250  1.00  0.00    -0.063 NA 
HETATM    4  C   UNL     1      -8.456   7.850  65.664  1.00  0.00    -0.147 A  
HETATM    5  H   UNL     1      -6.534   8.063  64.727  1.00  0.00     0.000 HD 
HETATM    6  C   UNL     1      -9.072   6.802  66.299  1.00  0.00    -0.139 A  
HETATM    7  N   UNL     1      -8.153   5.791  66.311  1.00  0.00    -0.105 NA 
HETATM    8  C   UNL     1     -10.431   6.761  66.873  1.00  0.00    -0.350 C  
HETATM    9  C   UNL     1     -10.562   7.850  67.936  1.00  0.00    -0.149 C  
HETATM   10  N   UNL     1     -10.316   9.257  67.574  1.00  0.00    -0.245 N  
HETATM   11  C   UNL     1     -10.138   9.655  66.204  1.00  0.00    -0.258 A  
HETATM   12  C   UNL     1     -10.366  10.150  68.677  1.00  0.00    -0.188 C  
HETATM   13  C   UNL     1     -10.868  10.752  65.713  1.00  0.00    -0.076 A  
HETATM   14  O   UNL     1     -10.669   9.745  69.805  1.00  0.00    -0.225 OA 
HETATM   15  C   UNL     1      -9.138   9.093  65.367  1.00  0.00    -0.271 A  
HETATM   16  C   UNL     1     -10.516  11.384  64.515  1.00  0.00    -0.381 A  
HETATM   17  C   UNL     1      -8.790   9.746  64.170  1.00  0.00    -0.260 A  
HETATM   18  C   UNL     1      -9.453  10.901  63.761  1.00  0.00    -0.308 A  
ENDROOT
BRANCH  12  19
HETATM   19  C   UNL     1     -10.092  11.617  68.555  1.00  0.00    -0.210 A  
HETATM   20  C   UNL     1     -11.166  12.491  68.759  1.00  0.00    -0.318 A  
HETATM   21  C   UNL     1      -9.853  14.359  67.940  1.00  0.00    -0.224 A  
HETATM   22  C   UNL     1      -8.758  13.502  67.805  1.00  0.00    -0.189 A  
HETATM   23  C   UNL     1     -11.041  13.855  68.471  1.00  0.00    -0.289 A  
HETATM   24  C   UNL     1      -8.857  12.158  68.193  1.00  0.00    -0.187 A  
BRANCH  21  25
HETATM   25  N   UNL     1      -9.718  15.696  67.504  1.00  0.00    -0.221 N  
HETATM   26  C   UNL     1      -9.890  16.813  68.317  1.00  0.00    -0.257 C  
HETATM   27  H   UNL     1      -9.477  15.854  66.526  1.00  0.00     0.000 HD 
HETATM   28  O   UNL     1     -10.088  16.770  69.524  1.00  0.00    -0.210 OA 
BRANCH  26  29
HETATM   29  C   UNL     1      -9.711  18.163  67.688  1.00  0.00    -0.293 A  
HETATM   30  C   UNL     1     -10.776  18.664  66.901  1.00  0.00    -0.367 A  
HETATM   31  C   UNL     1     -10.624  19.807  66.119  1.00  0.00    -0.569 A  
HETATM   32  C   UNL     1      -9.408  20.467  66.107  1.00  0.00    -0.214 A  
HETATM   33  C   UNL     1      -8.366  20.013  66.916  1.00  0.00    -0.376 A  
HETATM   34  C   UNL     1      -8.469  18.857  67.733  1.00  0.00    -0.310 A  
BRANCH  34  35
HETATM   35  C   UNL     1      -7.278  18.500  68.573  1.00  0.00    -0.306 A  
HETATM   36  C   UNL     1      -6.638  17.250  68.506  1.00  0.00    -0.174 A  
HETATM   37  C   UNL     1      -5.572  16.919  69.358  1.00  0.00    -0.164 A  
HETATM   38  C   UNL     1      -5.143  17.817  70.330  1.00  0.00    -0.249 A  
HETATM   39  C   UNL     1      -5.751  19.060  70.425  1.00  0.00    -0.234 A  
HETATM   40  C   UNL     1      -6.785  19.401  69.545  1.00  0.00    -0.327 A  
ENDBRANCH  34  35
ENDBRANCH  26  29
ENDBRANCH  21  25
ENDBRANCH  12  19
TORSDOF 4
ENDMDL
MODEL       25
REMARK 921   NORMALIZED FREE ENERGY PREDICTED BY IDOCK:   -7.04 KCAL/MOL
REMARK 922        TOTAL FREE ENERGY PREDICTED BY IDOCK:  -10.17 KCAL/MOL
REMARK 923 INTER-LIGAND FREE ENERGY PREDICTED BY IDOCK:   -8.46 KCAL/MOL
REMARK 924 INTRA-LIGAND FREE ENERGY PREDICTED BY IDOCK:   -1.70 KCAL/MOL
REMARK 927      BINDING AFFINITY PREDICTED BY RF-SCORE:    0.00 PKD
ROOT
HETATM    1  C   UNL     1     -13.947  15.437  72.083  1.00  0.00    -0.649 C  
HETATM    2  C   UNL     1     -12.952  15.330  70.992  1.00  0.00    -0.462 A  
HETATM    3  N   UNL     1     -12.833  14.347  70.121  1.00  0.00    -0.503 NA 
HETATM    4  C   UNL     1     -11.764  14.685  69.331  1.00  0.00    -0.316 A  
HETATM    5  H   UNL     1     -13.415  13.512  70.049  1.00  0.00     0.000 HD 
HETATM    6  C   UNL     1     -11.261  15.908  69.695  1.00  0.00    -0.331 A  
HETATM    7  N   UNL     1     -12.014  16.309  70.762  1.00  0.00    -0.163 NA 
HETATM    8  C   UNL     1     -10.133  16.642  69.091  1.00  0.00    -0.285 C  
HETATM    9  C   UNL     1      -8.871  15.784  69.172  1.00  0.00    -0.250 C  
HETATM   10  N   UNL     1      -8.860  14.444  68.558  1.00  0.00    -0.181 N  
HETATM   11  C   UNL     1      -9.942  13.996  67.724  1.00  0.00    -0.236 A  
HETATM   12  C   UNL     1      -7.666  13.713  68.800  1.00  0.00    -0.064 C  
HETATM   13  C   UNL     1      -9.645  13.420  66.476  1.00  0.00    -0.277 A  
HETATM   14  O   UNL     1      -6.722  14.229  69.409  1.00  0.00    -0.120 OA 
HETATM   15  C   UNL     1     -11.289  13.960  68.170  1.00  0.00    -0.324 A  
HETATM   16  C   UNL     1     -10.602  12.683  65.768  1.00  0.00    -0.296 A  
HETATM   17  C   UNL     1     -12.237  13.209  67.451  1.00  0.00    -0.195 A  
HETATM   18  C   UNL     1     -11.889  12.548  66.275  1.00  0.00    -0.453 A  
ENDROOT
BRANCH  12  19
HETATM   19  C   UNL     1      -7.455  12.310  68.321  1.00  0.00    -0.119 A  
HETATM   20  C   UNL     1      -6.691  12.134  67.161  1.00  0.00    -0.123 A  
HETATM   21  C   UNL     1      -7.327   9.796  67.050  1.00  0.00    -0.091 A  
HETATM   22  C   UNL     1      -8.030   9.953  68.247  1.00  0.00    -0.100 A  
HETATM   23  C   UNL     1      -6.613  10.882  66.541  1.00  0.00    -0.127 A  
HETATM   24  C   UNL     1      -8.020  11.182  68.920  1.00  0.00    -0.126 A  
BRANCH  21  25
HETATM   25  N   UNL     1      -7.393   8.549  66.389  1.00  0.00    -0.079 N  
HETATM   26  C   UNL     1      -8.351   8.210  65.437  1.00  0.00    -0.155 C  
HETATM   27  H   UNL     1      -6.692   7.848  66.626  1.00  0.00     0.000 HD 
HETATM   28  O   UNL     1      -9.190   8.981  64.991  1.00  0.00    -0.178 OA 
BRANCH  26  29
HETATM   29  C   UNL     1      -8.276   6.838  64.836  1.00  0.00    -0.082 A  
HETATM   30  C   UNL     1      -7.698   6.718  63.549  1.00  0.00    -0.114 A  
HETATM   31  C   UNL     1      -7.768   5.526  62.832  1.00  0.00    -0.080 A  
HETATM   32  C   UNL     1      -8.417   4.436  63.383  1.00  0.00    -0.109 A  
HETATM   33  C   UNL     1      -8.948   4.525  64.671  1.00  0.00    -0.152 A  
HETATM   34  C   UNL     1      -8.900   5.713  65.446  1.00  0.00    -0.112 A  
BRANCH  34  35
HETATM   35  C   UNL     1      -9.487   5.658  66.826  1.00  0.00    -0.150 A  
HETATM   36  C   UNL     1     -10.671   6.327  67.185  1.00  0.00    -0.432 A  
HETATM   37  C   UNL     1     -11.154   6.318  68.502  1.00  0.00    -0.397 A  
HETATM   38  C   UNL     1     -10.443   5.671  69.509  1.00  0.00    -0.372 A  
HETATM   39  C   UNL     1      -9.271   5.000  69.191  1.00  0.00    -0.154 A  
HETATM   40  C   UNL     1      -8.816   4.976  67.867  1.00  0.00    -0.107 A  
ENDBRANCH  34  35
ENDBRANCH  26  29
ENDBRANCH  21  25
ENDBRANCH  12  19
TORSDOF 4
ENDMDL
MODEL       26
REMARK 921   NORMALIZED FREE ENERGY PREDICTED BY IDOCK:   -7.03 KCAL/MOL
REMARK 922        TOTAL FREE ENERGY PREDICTED BY IDOCK:  -10.15 KCAL/MOL
REMARK 923 INTER-LIGAND FREE ENERGY PREDICTED BY IDOCK:   -9.04 KCAL/MOL
REMARK 924 INTRA-LIGAND FREE ENERGY PREDICTED BY IDOCK:   -1.11 KCAL/MOL
REMARK 927      BINDING AFFINITY PREDICTED BY RF-SCORE:    0.00 PKD
ROOT
HETATM    1  C   UNL     1      -8.452  17.711  66.628  1.00  0.00    -0.285 C  
HETATM    2  C   UNL     1      -9.288  16.489  66.579  1.00  0.00    -0.269 A  
HETATM    3  N   UNL     1      -9.504  15.637  67.562  1.00  0.00    -0.214 NA 
HETATM    4  C   UNL     1     -10.316  14.666  67.032  1.00  0.00    -0.263 A  
HETATM    5  H   UNL     1      -9.144  15.689  68.514  1.00  0.00     0.000 HD 
HETATM    6  C   UNL     1     -10.635  14.959  65.730  1.00  0.00    -0.331 A  
HETATM    7  N   UNL     1      -9.966  16.116  65.443  1.00  0.00    -0.497 NA 
HETATM    8  C   UNL     1     -11.496  14.190  64.811  1.00  0.00    -0.384 C  
HETATM    9  C   UNL     1     -10.931  12.780  64.652  1.00  0.00    -0.327 C  
HETATM   10  N   UNL     1     -10.745  11.930  65.841  1.00  0.00    -0.274 N  
HETATM   11  C   UNL     1     -11.253  12.323  67.127  1.00  0.00    -0.307 A  
HETATM   12  C   UNL     1     -10.112  10.688  65.565  1.00  0.00    -0.280 C  
HETATM   13  C   UNL     1     -11.998  11.395  67.877  1.00  0.00    -0.120 A  
HETATM   14  O   UNL     1      -9.835  10.365  64.405  1.00  0.00    -0.309 OA 
HETATM   15  C   UNL     1     -10.903  13.551  67.748  1.00  0.00    -0.267 A  
HETATM   16  C   UNL     1     -12.243  11.590  69.241  1.00  0.00    -0.245 A  
HETATM   17  C   UNL     1     -11.149  13.728  69.121  1.00  0.00    -0.282 A  
HETATM   18  C   UNL     1     -11.786  12.742  69.871  1.00  0.00    -0.371 A  
ENDROOT
BRANCH  12  19
HETATM   19  C   UNL     1      -9.771   9.690  66.627  1.00  0.00    -0.266 A  
HETATM   20  C   UNL     1     -10.286   8.396  66.483  1.00  0.00    -0.277 A  
HETATM   21  C   UNL     1      -9.590   7.826  68.736  1.00  0.00    -0.154 A  
HETATM   22  C   UNL     1      -9.012   9.092  68.854  1.00  0.00    -0.140 A  
HETATM   23  C   UNL     1     -10.180   7.466  67.523  1.00  0.00    -0.289 A  
HETATM   24  C   UNL     1      -9.029   9.984  67.773  1.00  0.00    -0.133 A  
BRANCH  21  25
HETATM   25  N   UNL     1      -9.579   6.974  69.863  1.00  0.00    -0.160 N  
HETATM   26  C   UNL     1     -10.717   6.438  70.459  1.00  0.00    -0.257 C  
HETATM   27  H   UNL     1      -8.674   6.734  70.268  1.00  0.00     0.000 HD 
HETATM   28  O   UNL     1     -11.854   6.565  70.024  1.00  0.00    -0.404 OA 
BRANCH  26  29
HETATM   29  C   UNL     1     -10.523   5.552  71.654  1.00  0.00    -0.292 A  
HETATM   30  C   UNL     1     -11.140   5.945  72.866  1.00  0.00    -0.306 A  
HETATM   31  C   UNL     1     -10.852   5.301  74.067  1.00  0.00    -0.200 A  
HETATM   32  C   UNL     1      -9.944   4.257  74.080  1.00  0.00    -0.193 A  
HETATM   33  C   UNL     1      -9.367   3.827  72.884  1.00  0.00    -0.137 A  
HETATM   34  C   UNL     1      -9.628   4.446  71.634  1.00  0.00    -0.227 A  
BRANCH  34  35
HETATM   35  C   UNL     1      -8.958   3.861  70.426  1.00  0.00    -0.161 A  
HETATM   36  C   UNL     1      -9.647   3.117  69.450  1.00  0.00    -0.094 A  
HETATM   37  C   UNL     1      -8.979   2.519  68.370  1.00  0.00    -0.183 A  
HETATM   38  C   UNL     1      -7.596   2.614  68.257  1.00  0.00    -0.055 A  
HETATM   39  C   UNL     1      -6.883   3.340  69.201  1.00  0.00    -0.041 A  
HETATM   40  C   UNL     1      -7.559   3.971  70.253  1.00  0.00    -0.045 A  
ENDBRANCH  34  35
ENDBRANCH  26  29
ENDBRANCH  21  25
ENDBRANCH  12  19
TORSDOF 4
ENDMDL
MODEL       27
REMARK 921   NORMALIZED FREE ENERGY PREDICTED BY IDOCK:   -6.96 KCAL/MOL
REMARK 922        TOTAL FREE ENERGY PREDICTED BY IDOCK:  -10.07 KCAL/MOL
REMARK 923 INTER-LIGAND FREE ENERGY PREDICTED BY IDOCK:   -8.74 KCAL/MOL
REMARK 924 INTRA-LIGAND FREE ENERGY PREDICTED BY IDOCK:   -1.33 KCAL/MOL
REMARK 927      BINDING AFFINITY PREDICTED BY RF-SCORE:    0.00 PKD
ROOT
HETATM    1  C   UNL     1      -7.009  19.811  67.363  1.00  0.00    -0.251 C  
HETATM    2  C   UNL     1      -8.159  18.884  67.264  1.00  0.00    -0.262 A  
HETATM    3  N   UNL     1      -8.633  18.104  68.216  1.00  0.00    -0.281 NA 
HETATM    4  C   UNL     1      -9.679  17.423  67.645  1.00  0.00    -0.270 A  
HETATM    5  H   UNL     1      -8.294  18.025  69.174  1.00  0.00     0.000 HD 
HETATM    6  C   UNL     1      -9.871  17.831  66.349  1.00  0.00    -0.324 A  
HETATM    7  N   UNL     1      -8.892  18.753  66.107  1.00  0.00    -0.474 NA 
HETATM    8  C   UNL     1     -10.897  17.369  65.395  1.00  0.00     0.018 C  
HETATM    9  C   UNL     1     -10.759  15.860  65.197  1.00  0.00    -0.429 C  
HETATM   10  N   UNL     1     -10.851  14.961  66.361  1.00  0.00    -0.320 N  
HETATM   11  C   UNL     1     -11.252  15.449  67.652  1.00  0.00    -0.311 A  
HETATM   12  C   UNL     1     -10.597  13.597  66.053  1.00  0.00    -0.290 C  
HETATM   13  C   UNL     1     -12.249  14.755  68.362  1.00  0.00    -0.098 A  
HETATM   14  O   UNL     1     -10.399  13.240  64.887  1.00  0.00    -0.340 OA 
HETATM   15  C   UNL     1     -10.577  16.506  68.316  1.00  0.00    -0.326 A  
HETATM   16  C   UNL     1     -12.457  14.976  69.729  1.00  0.00    -0.216 A  
HETATM   17  C   UNL     1     -10.791  16.710  69.692  1.00  0.00    -0.282 A  
HETATM   18  C   UNL     1     -11.702  15.929  70.401  1.00  0.00    -0.371 A  
ENDROOT
BRANCH  12  19
HETATM   19  C   UNL     1     -10.581  12.515  67.087  1.00  0.00    -0.247 A  
HETATM   20  C   UNL     1      -9.353  12.223  67.694  1.00  0.00    -0.186 A  
HETATM   21  C   UNL     1     -10.289  10.234  68.721  1.00  0.00    -0.195 A  
HETATM   22  C   UNL     1     -11.532  10.564  68.175  1.00  0.00    -0.255 A  
HETATM   23  C   UNL     1      -9.214  11.101  68.519  1.00  0.00    -0.183 A  
HETATM   24  C   UNL     1     -11.692  11.744  67.435  1.00  0.00    -0.304 A  
BRANCH  21  25
HETATM   25  N   UNL     1     -10.167   9.019  69.430  1.00  0.00    -0.198 N  
HETATM   26  C   UNL     1     -10.508   8.848  70.769  1.00  0.00    -0.227 C  
HETATM   27  H   UNL     1      -9.805   8.209  68.926  1.00  0.00     0.000 HD 
HETATM   28  O   UNL     1     -11.038   9.703  71.465  1.00  0.00    -0.370 OA 
BRANCH  26  29
HETATM   29  C   UNL     1     -10.311   7.487  71.367  1.00  0.00    -0.209 A  
HETATM   30  C   UNL     1     -11.465   6.789  71.799  1.00  0.00    -0.320 A  
HETATM   31  C   UNL     1     -11.366   5.617  72.545  1.00  0.00    -0.349 A  
HETATM   32  C   UNL     1     -10.117   5.121  72.873  1.00  0.00    -0.204 A  
HETATM   33  C   UNL     1      -8.971   5.771  72.411  1.00  0.00    -0.141 A  
HETATM   34  C   UNL     1      -9.016   6.966  71.646  1.00  0.00    -0.135 A  
BRANCH  34  35
HETATM   35  C   UNL     1      -7.706   7.541  71.194  1.00  0.00    -0.089 A  
HETATM   36  C   UNL     1      -6.983   8.487  71.942  1.00  0.00    -0.101 A  
HETATM   37  C   UNL     1      -5.798   9.063  71.457  1.00  0.00    -0.062 A  
HETATM   38  C   UNL     1      -5.324   8.739  70.190  1.00  0.00    -0.028 A  
HETATM   39  C   UNL     1      -6.012   7.809  69.423  1.00  0.00    -0.033 A  
HETATM   40  C   UNL     1      -7.170   7.205  69.929  1.00  0.00    -0.079 A  
ENDBRANCH  34  35
ENDBRANCH  26  29
ENDBRANCH  21  25
ENDBRANCH  12  19
TORSDOF 4
ENDMDL
MODEL       28
REMARK 921   NORMALIZED FREE ENERGY PREDICTED BY IDOCK:   -6.83 KCAL/MOL
REMARK 922        TOTAL FREE ENERGY PREDICTED BY IDOCK:   -9.91 KCAL/MOL
REMARK 923 INTER-LIGAND FREE ENERGY PREDICTED BY IDOCK:   -9.22 KCAL/MOL
REMARK 924 INTRA-LIGAND FREE ENERGY PREDICTED BY IDOCK:   -0.69 KCAL/MOL
REMARK 927      BINDING AFFINITY PREDICTED BY RF-SCORE:    0.00 PKD
ROOT
HETATM    1  C   UNL     1      -5.238   2.564  72.328  1.00  0.00     0.000 C  
HETATM    2  C   UNL     1      -6.599   3.089  72.075  1.00  0.00    -0.015 A  
HETATM    3  N   UNL     1      -6.997   3.790  71.031  1.00  0.00    -0.032 NA 
HETATM    4  C   UNL     1      -8.322   4.063  71.256  1.00  0.00    -0.080 A  
HETATM    5  H   UNL     1      -6.437   4.070  70.226  1.00  0.00     0.000 HD 
HETATM    6  C   UNL     1      -8.744   3.480  72.424  1.00  0.00    -0.085 A  
HETATM    7  N   UNL     1      -7.639   2.871  72.948  1.00  0.00    -0.049 NA 
HETATM    8  C   UNL     1     -10.095   3.510  73.017  1.00  0.00    -0.219 C  
HETATM    9  C   UNL     1     -10.505   4.961  73.263  1.00  0.00    -0.207 C  
HETATM   10  N   UNL     1     -10.534   5.912  72.137  1.00  0.00    -0.201 N  
HETATM   11  C   UNL     1     -10.366   5.468  70.780  1.00  0.00    -0.251 A  
HETATM   12  C   UNL     1     -10.826   7.248  72.522  1.00  0.00    -0.272 C  
HETATM   13  C   UNL     1     -11.278   5.905  69.803  1.00  0.00    -0.331 A  
HETATM   14  O   UNL     1     -11.101   7.520  73.696  1.00  0.00    -0.280 OA 
HETATM   15  C   UNL     1      -9.228   4.738  70.348  1.00  0.00    -0.195 A  
HETATM   16  C   UNL     1     -10.998   5.780  68.437  1.00  0.00    -0.159 A  
HETATM   17  C   UNL     1      -8.956   4.628  68.972  1.00  0.00    -0.149 A  
HETATM   18  C   UNL     1      -9.819   5.173  68.023  1.00  0.00    -0.199 A  
ENDROOT
BRANCH  12  19
HETATM   19  C   UNL     1     -10.853   8.390  71.556  1.00  0.00    -0.323 A  
HETATM   20  C   UNL     1      -9.757   8.533  70.697  1.00  0.00    -0.207 A  
HETATM   21  C   UNL     1     -10.544  10.715  69.989  1.00  0.00    -0.094 A  
HETATM   22  C   UNL     1     -11.675  10.543  70.790  1.00  0.00    -0.454 A  
HETATM   23  C   UNL     1      -9.614   9.678  69.906  1.00  0.00    -0.260 A  
HETATM   24  C   UNL     1     -11.867   9.349  71.500  1.00  0.00    -0.456 A  
BRANCH  21  25
HETATM   25  N   UNL     1     -10.376  11.948  69.319  1.00  0.00    -0.421 N  
HETATM   26  C   UNL     1     -11.213  12.420  68.312  1.00  0.00    -0.263 C  
HETATM   27  H   UNL     1      -9.587  12.533  69.592  1.00  0.00     0.000 HD 
HETATM   28  O   UNL     1     -12.244  11.868  67.951  1.00  0.00    -0.508 OA 
BRANCH  26  29
HETATM   29  C   UNL     1     -10.885  13.751  67.705  1.00  0.00    -0.264 A  
HETATM   30  C   UNL     1     -11.129  14.905  68.489  1.00  0.00    -0.275 A  
HETATM   31  C   UNL     1     -11.047  16.183  67.941  1.00  0.00    -0.293 A  
HETATM   32  C   UNL     1     -10.725  16.333  66.604  1.00  0.00    -0.197 A  
HETATM   33  C   UNL     1     -10.434  15.207  65.832  1.00  0.00    -0.350 A  
HETATM   34  C   UNL     1     -10.499  13.884  66.341  1.00  0.00    -0.284 A  
BRANCH  34  35
HETATM   35  C   UNL     1     -10.133  12.769  65.405  1.00  0.00    -0.274 A  
HETATM   36  C   UNL     1      -9.308  11.692  65.778  1.00  0.00    -0.220 A  
HETATM   37  C   UNL     1      -8.923  10.704  64.858  1.00  0.00    -0.218 A  
HETATM   38  C   UNL     1      -9.319  10.788  63.527  1.00  0.00    -0.304 A  
HETATM   39  C   UNL     1     -10.134  11.837  63.123  1.00  0.00    -0.386 A  
HETATM   40  C   UNL     1     -10.550  12.796  64.055  1.00  0.00    -0.446 A  
ENDBRANCH  34  35
ENDBRANCH  26  29
ENDBRANCH  21  25
ENDBRANCH  12  19
TORSDOF 4
ENDMDL
MODEL       29
REMARK 921   NORMALIZED FREE ENERGY PREDICTED BY IDOCK:   -6.80 KCAL/MOL
REMARK 922        TOTAL FREE ENERGY PREDICTED BY IDOCK:   -9.87 KCAL/MOL
REMARK 923 INTER-LIGAND FREE ENERGY PREDICTED BY IDOCK:   -8.80 KCAL/MOL
REMARK 924 INTRA-LIGAND FREE ENERGY PREDICTED BY IDOCK:   -1.07 KCAL/MOL
REMARK 927      BINDING AFFINITY PREDICTED BY RF-SCORE:    0.00 PKD
ROOT
HETATM    1  C   UNL     1      -5.648   5.706  70.484  1.00  0.00    -0.009 C  
HETATM    2  C   UNL     1      -6.864   6.306  69.890  1.00  0.00    -0.058 A  
HETATM    3  N   UNL     1      -6.917   7.166  68.891  1.00  0.00    -0.075 NA 
HETATM    4  C   UNL     1      -8.249   7.445  68.718  1.00  0.00    -0.129 A  
HETATM    5  H   UNL     1      -6.133   7.544  68.360  1.00  0.00     0.000 HD 
HETATM    6  C   UNL     1      -9.014   6.709  69.587  1.00  0.00    -0.142 A  
HETATM    7  N   UNL     1      -8.126   5.994  70.340  1.00  0.00    -0.110 NA 
HETATM    8  C   UNL     1     -10.484   6.694  69.712  1.00  0.00    -0.248 C  
HETATM    9  C   UNL     1     -10.978   8.105  70.029  1.00  0.00    -0.199 C  
HETATM   10  N   UNL     1     -10.659   9.212  69.110  1.00  0.00    -0.223 N  
HETATM   11  C   UNL     1     -10.055   8.969  67.828  1.00  0.00    -0.208 A  
HETATM   12  C   UNL     1     -11.084  10.485  69.578  1.00  0.00    -0.268 C  
HETATM   13  C   UNL     1     -10.612   9.575  66.688  1.00  0.00    -0.174 A  
HETATM   14  O   UNL     1     -11.726  10.589  70.628  1.00  0.00    -0.310 OA 
HETATM   15  C   UNL     1      -8.826   8.275  67.680  1.00  0.00    -0.137 A  
HETATM   16  C   UNL     1      -9.905   9.645  65.482  1.00  0.00    -0.352 A  
HETATM   17  C   UNL     1      -8.124   8.362  66.464  1.00  0.00    -0.101 A  
HETATM   18  C   UNL     1      -8.644   9.069  65.382  1.00  0.00    -0.200 A  
ENDROOT
BRANCH  12  19
HETATM   19  C   UNL     1     -10.818  11.758  68.837  1.00  0.00    -0.265 A  
HETATM   20  C   UNL     1      -9.484  12.160  68.705  1.00  0.00    -0.052 A  
HETATM   21  C   UNL     1     -10.177  14.326  67.861  1.00  0.00    -0.237 A  
HETATM   22  C   UNL     1     -11.506  13.900  67.924  1.00  0.00    -0.350 A  
HETATM   23  C   UNL     1      -9.166  13.427  68.203  1.00  0.00    -0.215 A  
HETATM   24  C   UNL     1     -11.815  12.594  68.328  1.00  0.00    -0.354 A  
BRANCH  21  25
HETATM   25  N   UNL     1      -9.916  15.661  67.482  1.00  0.00    -0.229 N  
HETATM   26  C   UNL     1     -10.052  16.762  68.322  1.00  0.00    -0.274 C  
HETATM   27  H   UNL     1      -9.605  15.831  66.525  1.00  0.00     0.000 HD 
HETATM   28  O   UNL     1     -10.324  16.697  69.514  1.00  0.00    -0.287 OA 
BRANCH  26  29
HETATM   29  C   UNL     1      -9.735  18.113  67.753  1.00  0.00    -0.294 A  
HETATM   30  C   UNL     1     -10.728  18.739  66.963  1.00  0.00    -0.435 A  
HETATM   31  C   UNL     1     -10.452  19.892  66.232  1.00  0.00    -0.590 A  
HETATM   32  C   UNL     1      -9.182  20.439  66.274  1.00  0.00    -0.222 A  
HETATM   33  C   UNL     1      -8.207  19.860  67.089  1.00  0.00    -0.351 A  
HETATM   34  C   UNL     1      -8.437  18.689  67.856  1.00  0.00    -0.297 A  
BRANCH  34  35
HETATM   35  C   UNL     1      -7.306  18.193  68.708  1.00  0.00    -0.286 A  
HETATM   36  C   UNL     1      -6.922  16.841  68.764  1.00  0.00    -0.197 A  
HETATM   37  C   UNL     1      -5.908  16.395  69.627  1.00  0.00    -0.180 A  
HETATM   38  C   UNL     1      -5.278  17.285  70.491  1.00  0.00    -0.261 A  
HETATM   39  C   UNL     1      -5.631  18.627  70.463  1.00  0.00    -0.201 A  
HETATM   40  C   UNL     1      -6.612  19.073  69.569  1.00  0.00    -0.280 A  
ENDBRANCH  34  35
ENDBRANCH  26  29
ENDBRANCH  21  25
ENDBRANCH  12  19
TORSDOF 4
ENDMDL
MODEL       30
REMARK 921   NORMALIZED FREE ENERGY PREDICTED BY IDOCK:   -6.79 KCAL/MOL
REMARK 922        TOTAL FREE ENERGY PREDICTED BY IDOCK:   -9.86 KCAL/MOL
REMARK 923 INTER-LIGAND FREE ENERGY PREDICTED BY IDOCK:   -8.78 KCAL/MOL
REMARK 924 INTRA-LIGAND FREE ENERGY PREDICTED BY IDOCK:   -1.08 KCAL/MOL
REMARK 927      BINDING AFFINITY PREDICTED BY RF-SCORE:    0.00 PKD
ROOT
HETATM    1  C   UNL     1      -6.910  20.005  67.844  1.00  0.00    -0.306 C  
HETATM    2  C   UNL     1      -8.046  19.073  67.663  1.00  0.00    -0.269 A  
HETATM    3  N   UNL     1      -8.502  18.199  68.538  1.00  0.00    -0.305 NA 
HETATM    4  C   UNL     1      -9.540  17.558  67.910  1.00  0.00    -0.277 A  
HETATM    5  H   UNL     1      -8.156  18.034  69.483  1.00  0.00     0.000 HD 
HETATM    6  C   UNL     1      -9.746  18.084  66.660  1.00  0.00    -0.332 A  
HETATM    7  N   UNL     1      -8.784  19.041  66.503  1.00  0.00    -0.314 NA 
HETATM    8  C   UNL     1     -10.771  17.697  65.671  1.00  0.00    -0.084 C  
HETATM    9  C   UNL     1     -10.610  16.217  65.330  1.00  0.00    -0.380 C  
HETATM   10  N   UNL     1     -10.681  15.209  66.404  1.00  0.00    -0.312 N  
HETATM   11  C   UNL     1     -11.082  15.566  67.738  1.00  0.00    -0.315 A  
HETATM   12  C   UNL     1     -10.407  13.886  65.967  1.00  0.00    -0.305 C  
HETATM   13  C   UNL     1     -12.063  14.792  68.383  1.00  0.00    -0.202 A  
HETATM   14  O   UNL     1     -10.211  13.644  64.771  1.00  0.00    -0.392 OA 
HETATM   15  C   UNL     1     -10.419  16.567  68.496  1.00  0.00    -0.302 A  
HETATM   16  C   UNL     1     -12.266  14.879  69.765  1.00  0.00    -0.328 A  
HETATM   17  C   UNL     1     -10.628  16.636  69.885  1.00  0.00    -0.168 A  
HETATM   18  C   UNL     1     -11.522  15.777  70.521  1.00  0.00    -0.401 A  
ENDROOT
BRANCH  12  19
HETATM   19  C   UNL     1     -10.367  12.710  66.893  1.00  0.00    -0.244 A  
HETATM   20  C   UNL     1      -9.141  12.409  67.498  1.00  0.00    -0.185 A  
HETATM   21  C   UNL     1     -10.016  10.297  68.309  1.00  0.00    -0.147 A  
HETATM   22  C   UNL     1     -11.260  10.630  67.769  1.00  0.00    -0.383 A  
HETATM   23  C   UNL     1      -8.973  11.220  68.216  1.00  0.00    -0.172 A  
HETATM   24  C   UNL     1     -11.453  11.868  67.140  1.00  0.00    -0.386 A  
BRANCH  21  25
HETATM   25  N   UNL     1      -9.859   9.024  68.902  1.00  0.00    -0.171 N  
HETATM   26  C   UNL     1     -10.280   7.828  68.329  1.00  0.00    -0.201 C  
HETATM   27  H   UNL     1      -9.405   8.978  69.815  1.00  0.00     0.000 HD 
HETATM   28  O   UNL     1     -10.753   7.726  67.204  1.00  0.00    -0.333 OA 
BRANCH  26  29
HETATM   29  C   UNL     1     -10.037   6.565  69.099  1.00  0.00    -0.190 A  
HETATM   30  C   UNL     1     -11.000   6.195  70.069  1.00  0.00    -0.441 A  
HETATM   31  C   UNL     1     -10.761   5.157  70.967  1.00  0.00    -0.133 A  
HETATM   32  C   UNL     1      -9.560   4.473  70.916  1.00  0.00    -0.250 A  
HETATM   33  C   UNL     1      -8.622   4.795  69.933  1.00  0.00    -0.094 A  
HETATM   34  C   UNL     1      -8.817   5.840  68.992  1.00  0.00    -0.111 A  
BRANCH  34  35
HETATM   35  C   UNL     1      -7.736   6.057  67.974  1.00  0.00    -0.101 A  
HETATM   36  C   UNL     1      -7.749   5.458  66.701  1.00  0.00    -0.100 A  
HETATM   37  C   UNL     1      -6.686   5.621  65.798  1.00  0.00    -0.055 A  
HETATM   38  C   UNL     1      -5.560   6.354  66.159  1.00  0.00    -0.014 A  
HETATM   39  C   UNL     1      -5.513   6.959  67.408  1.00  0.00    -0.013 A  
HETATM   40  C   UNL     1      -6.595   6.830  68.288  1.00  0.00    -0.062 A  
ENDBRANCH  34  35
ENDBRANCH  26  29
ENDBRANCH  21  25
ENDBRANCH  12  19
TORSDOF 4
ENDMDL
MODEL       31
REMARK 921   NORMALIZED FREE ENERGY PREDICTED BY IDOCK:   -6.76 KCAL/MOL
REMARK 922        TOTAL FREE ENERGY PREDICTED BY IDOCK:   -9.82 KCAL/MOL
REMARK 923 INTER-LIGAND FREE ENERGY PREDICTED BY IDOCK:   -8.95 KCAL/MOL
REMARK 924 INTRA-LIGAND FREE ENERGY PREDICTED BY IDOCK:   -0.86 KCAL/MOL
REMARK 927      BINDING AFFINITY PREDICTED BY RF-SCORE:    0.00 PKD
ROOT
HETATM    1  C   UNL     1     -10.284   1.802  72.092  1.00  0.00    -0.227 C  
HETATM    2  C   UNL     1      -9.534   2.731  71.215  1.00  0.00    -0.149 A  
HETATM    3  N   UNL     1      -9.417   4.036  71.361  1.00  0.00    -0.148 NA 
HETATM    4  C   UNL     1      -8.654   4.456  70.300  1.00  0.00    -0.076 A  
HETATM    5  H   UNL     1      -9.809   4.612  72.105  1.00  0.00     0.000 HD 
HETATM    6  C   UNL     1      -8.265   3.387  69.532  1.00  0.00    -0.052 A  
HETATM    7  N   UNL     1      -8.839   2.292  70.113  1.00  0.00    -0.070 NA 
HETATM    8  C   UNL     1      -7.424   3.399  68.320  1.00  0.00    -0.053 C  
HETATM    9  C   UNL     1      -8.080   4.284  67.260  1.00  0.00    -0.100 C  
HETATM   10  N   UNL     1      -8.372   5.695  67.567  1.00  0.00    -0.101 N  
HETATM   11  C   UNL     1      -7.888   6.313  68.771  1.00  0.00    -0.101 A  
HETATM   12  C   UNL     1      -9.078   6.372  66.536  1.00  0.00    -0.151 C  
HETATM   13  C   UNL     1      -7.239   7.559  68.684  1.00  0.00    -0.086 A  
HETATM   14  O   UNL     1      -9.331   5.805  65.467  1.00  0.00    -0.055 OA 
HETATM   15  C   UNL     1      -8.176   5.802  70.064  1.00  0.00    -0.115 A  
HETATM   16  C   UNL     1      -7.035   8.354  69.817  1.00  0.00    -0.047 A  
HETATM   17  C   UNL     1      -7.972   6.618  71.192  1.00  0.00    -0.107 A  
HETATM   18  C   UNL     1      -7.434   7.897  71.068  1.00  0.00    -0.073 A  
ENDROOT
BRANCH  12  19
HETATM   19  C   UNL     1      -9.529   7.794  66.652  1.00  0.00    -0.263 A  
HETATM   20  C   UNL     1      -8.883   8.742  65.848  1.00  0.00    -0.222 A  
HETATM   21  C   UNL     1      -9.951  10.553  67.057  1.00  0.00    -0.201 A  
HETATM   22  C   UNL     1     -10.652   9.608  67.811  1.00  0.00    -0.320 A  
HETATM   23  C   UNL     1      -9.107  10.110  66.038  1.00  0.00    -0.185 A  
HETATM   24  C   UNL     1     -10.504   8.239  67.548  1.00  0.00    -0.325 A  
BRANCH  21  25
HETATM   25  N   UNL     1     -10.106  11.920  67.381  1.00  0.00    -0.195 N  
HETATM   26  C   UNL     1     -11.214  12.691  67.042  1.00  0.00    -0.300 C  
HETATM   27  H   UNL     1      -9.353  12.373  67.899  1.00  0.00     0.000 HD 
HETATM   28  O   UNL     1     -12.225  12.257  66.506  1.00  0.00    -0.588 OA 
BRANCH  26  29
HETATM   29  C   UNL     1     -11.213  14.131  67.463  1.00  0.00    -0.323 A  
HETATM   30  C   UNL     1     -10.712  15.081  66.541  1.00  0.00    -0.312 A  
HETATM   31  C   UNL     1     -10.484  16.403  66.915  1.00  0.00    -0.289 A  
HETATM   32  C   UNL     1     -10.749  16.799  68.214  1.00  0.00    -0.364 A  
HETATM   33  C   UNL     1     -11.290  15.885  69.120  1.00  0.00    -0.366 A  
HETATM   34  C   UNL     1     -11.544  14.529  68.789  1.00  0.00    -0.343 A  
BRANCH  34  35
HETATM   35  C   UNL     1     -12.153  13.665  69.854  1.00  0.00    -0.406 A  
HETATM   36  C   UNL     1     -12.937  14.177  70.903  1.00  0.00    -0.374 A  
HETATM   37  C   UNL     1     -13.431  13.353  71.927  1.00  0.00    -0.526 A  
HETATM   38  C   UNL     1     -13.118  11.997  71.952  1.00  0.00    -0.475 A  
HETATM   39  C   UNL     1     -12.346  11.457  70.933  1.00  0.00    -0.483 A  
HETATM   40  C   UNL     1     -11.893  12.276  69.891  1.00  0.00    -0.383 A  
ENDBRANCH  34  35
ENDBRANCH  26  29
ENDBRANCH  21  25
ENDBRANCH  12  19
TORSDOF 4
ENDMDL
MODEL       32
REMARK 921   NORMALIZED FREE ENERGY PREDICTED BY IDOCK:   -6.70 KCAL/MOL
REMARK 922        TOTAL FREE ENERGY PREDICTED BY IDOCK:   -9.75 KCAL/MOL
REMARK 923 INTER-LIGAND FREE ENERGY PREDICTED BY IDOCK:   -8.07 KCAL/MOL
REMARK 924 INTRA-LIGAND FREE ENERGY PREDICTED BY IDOCK:   -1.68 KCAL/MOL
REMARK 927      BINDING AFFINITY PREDICTED BY RF-SCORE:    0.00 PKD
ROOT
HETATM    1  C   UNL     1     -11.885  16.307  72.394  1.00  0.00    -0.606 C  
HETATM    2  C   UNL     1     -11.427  15.739  71.106  1.00  0.00    -0.414 A  
HETATM    3  N   UNL     1     -11.504  14.479  70.723  1.00  0.00    -0.491 NA 
HETATM    4  C   UNL     1     -10.934  14.440  69.475  1.00  0.00    -0.197 A  
HETATM    5  H   UNL     1     -11.904  13.699  71.243  1.00  0.00     0.000 HD 
HETATM    6  C   UNL     1     -10.552  15.696  69.079  1.00  0.00    -0.234 A  
HETATM    7  N   UNL     1     -10.857  16.518  70.127  1.00  0.00    -0.284 NA 
HETATM    8  C   UNL     1      -9.924  16.094  67.804  1.00  0.00    -0.237 C  
HETATM    9  C   UNL     1      -8.610  15.333  67.631  1.00  0.00    -0.169 C  
HETATM   10  N   UNL     1      -8.615  13.859  67.640  1.00  0.00    -0.177 N  
HETATM   11  C   UNL     1      -9.845  13.116  67.621  1.00  0.00    -0.219 A  
HETATM   12  C   UNL     1      -7.318  13.282  67.578  1.00  0.00    -0.152 C  
HETATM   13  C   UNL     1      -9.992  12.065  66.698  1.00  0.00    -0.219 A  
HETATM   14  O   UNL     1      -6.316  13.993  67.451  1.00  0.00    -0.323 OA 
HETATM   15  C   UNL     1     -10.859  13.288  68.600  1.00  0.00    -0.285 A  
HETATM   16  C   UNL     1     -11.007  11.111  66.836  1.00  0.00    -0.333 A  
HETATM   17  C   UNL     1     -11.869  12.317  68.730  1.00  0.00    -0.356 A  
HETATM   18  C   UNL     1     -11.924  11.218  67.874  1.00  0.00    -0.080 A  
ENDROOT
BRANCH  12  19
HETATM   19  C   UNL     1      -7.077  11.805  67.631  1.00  0.00    -0.107 A  
HETATM   20  C   UNL     1      -6.710  11.170  66.438  1.00  0.00    -0.102 A  
HETATM   21  C   UNL     1      -7.011   8.991  67.459  1.00  0.00    -0.078 A  
HETATM   22  C   UNL     1      -7.307   9.623  68.670  1.00  0.00    -0.074 A  
HETATM   23  C   UNL     1      -6.660   9.774  66.359  1.00  0.00    -0.072 A  
HETATM   24  C   UNL     1      -7.254  11.020  68.772  1.00  0.00    -0.091 A  
BRANCH  21  25
HETATM   25  N   UNL     1      -7.111   7.583  67.394  1.00  0.00    -0.083 N  
HETATM   26  C   UNL     1      -8.199   6.892  66.869  1.00  0.00    -0.113 C  
HETATM   27  H   UNL     1      -6.332   7.035  67.757  1.00  0.00     0.000 HD 
HETATM   28  O   UNL     1      -9.156   7.419  66.318  1.00  0.00    -0.166 OA 
BRANCH  26  29
HETATM   29  C   UNL     1      -8.141   5.393  66.881  1.00  0.00    -0.105 A  
HETATM   30  C   UNL     1      -7.425   4.758  65.838  1.00  0.00    -0.078 A  
HETATM   31  C   UNL     1      -7.485   3.379  65.654  1.00  0.00    -0.077 A  
HETATM   32  C   UNL     1      -8.260   2.610  66.504  1.00  0.00    -0.086 A  
HETATM   33  C   UNL     1      -8.931   3.218  67.567  1.00  0.00    -0.178 A  
HETATM   34  C   UNL     1      -8.901   4.617  67.801  1.00  0.00    -0.115 A  
BRANCH  34  35
HETATM   35  C   UNL     1      -9.646   5.129  68.998  1.00  0.00    -0.204 A  
HETATM   36  C   UNL     1     -10.854   5.844  68.903  1.00  0.00    -0.373 A  
HETATM   37  C   UNL     1     -11.489   6.376  70.036  1.00  0.00    -0.496 A  
HETATM   38  C   UNL     1     -10.912   6.242  71.295  1.00  0.00    -0.330 A  
HETATM   39  C   UNL     1      -9.721   5.542  71.427  1.00  0.00    -0.205 A  
HETATM   40  C   UNL     1      -9.114   4.977  70.299  1.00  0.00    -0.164 A  
ENDBRANCH  34  35
ENDBRANCH  26  29
ENDBRANCH  21  25
ENDBRANCH  12  19
TORSDOF 4
ENDMDL
MODEL       33
REMARK 921   NORMALIZED FREE ENERGY PREDICTED BY IDOCK:   -6.67 KCAL/MOL
REMARK 922        TOTAL FREE ENERGY PREDICTED BY IDOCK:   -9.71 KCAL/MOL
REMARK 923 INTER-LIGAND FREE ENERGY PREDICTED BY IDOCK:   -7.96 KCAL/MOL
REMARK 924 INTRA-LIGAND FREE ENERGY PREDICTED BY IDOCK:   -1.75 KCAL/MOL
REMARK 927      BINDING AFFINITY PREDICTED BY RF-SCORE:    0.00 PKD
ROOT
HETATM    1  C   UNL     1      -6.451  19.583  65.106  1.00  0.00    -0.313 C  
HETATM    2  C   UNL     1      -7.148  18.581  65.944  1.00  0.00    -0.252 A  
HETATM    3  N   UNL     1      -6.829  17.310  66.091  1.00  0.00    -0.238 NA 
HETATM    4  C   UNL     1      -7.774  16.791  66.939  1.00  0.00    -0.219 A  
HETATM    5  H   UNL     1      -6.045  16.818  65.665  1.00  0.00     0.000 HD 
HETATM    6  C   UNL     1      -8.645  17.768  67.349  1.00  0.00    -0.231 A  
HETATM    7  N   UNL     1      -8.249  18.905  66.702  1.00  0.00    -0.276 NA 
HETATM    8  C   UNL     1      -9.788  17.637  68.274  1.00  0.00    -0.324 C  
HETATM    9  C   UNL     1     -10.766  16.601  67.723  1.00  0.00    -0.327 C  
HETATM   10  N   UNL     1     -10.300  15.228  67.453  1.00  0.00    -0.252 N  
HETATM   11  C   UNL     1      -8.997  14.787  67.869  1.00  0.00    -0.172 A  
HETATM   12  C   UNL     1     -11.280  14.400  66.843  1.00  0.00    -0.334 C  
HETATM   13  C   UNL     1      -8.880  13.567  68.561  1.00  0.00    -0.086 A  
HETATM   14  O   UNL     1     -12.427  14.817  66.649  1.00  0.00    -0.064 OA 
HETATM   15  C   UNL     1      -7.803  15.445  67.475  1.00  0.00    -0.193 A  
HETATM   16  C   UNL     1      -7.643  12.930  68.708  1.00  0.00    -0.025 A  
HETATM   17  C   UNL     1      -6.568  14.787  67.623  1.00  0.00    -0.181 A  
HETATM   18  C   UNL     1      -6.491  13.525  68.207  1.00  0.00    -0.104 A  
ENDROOT
BRANCH  12  19
HETATM   19  C   UNL     1     -11.013  12.987  66.429  1.00  0.00    -0.301 A  
HETATM   20  C   UNL     1     -11.498  11.970  67.260  1.00  0.00    -0.403 A  
HETATM   21  C   UNL     1     -10.230  10.307  66.031  1.00  0.00    -0.228 A  
HETATM   22  C   UNL     1      -9.804  11.309  65.157  1.00  0.00    -0.298 A  
HETATM   23  C   UNL     1     -11.124  10.638  67.050  1.00  0.00    -0.217 A  
HETATM   24  C   UNL     1     -10.263  12.625  65.307  1.00  0.00    -0.302 A  
BRANCH  21  25
HETATM   25  N   UNL     1      -9.714   9.003  65.862  1.00  0.00    -0.395 N  
HETATM   26  C   UNL     1      -8.520   8.548  66.416  1.00  0.00    -0.117 C  
HETATM   27  H   UNL     1     -10.252   8.348  65.295  1.00  0.00     0.000 HD 
HETATM   28  O   UNL     1      -7.824   9.192  67.189  1.00  0.00    -0.101 OA 
BRANCH  26  29
HETATM   29  C   UNL     1      -8.118   7.131  66.132  1.00  0.00    -0.121 A  
HETATM   30  C   UNL     1      -7.453   6.873  64.909  1.00  0.00    -0.094 A  
HETATM   31  C   UNL     1      -7.224   5.571  64.469  1.00  0.00    -0.055 A  
HETATM   32  C   UNL     1      -7.656   4.506  65.239  1.00  0.00    -0.081 A  
HETATM   33  C   UNL     1      -8.268   4.746  66.471  1.00  0.00    -0.107 A  
HETATM   34  C   UNL     1      -8.522   6.051  66.966  1.00  0.00    -0.108 A  
BRANCH  34  35
HETATM   35  C   UNL     1      -9.163   6.160  68.318  1.00  0.00    -0.114 A  
HETATM   36  C   UNL     1      -8.428   6.322  69.507  1.00  0.00    -0.129 A  
HETATM   37  C   UNL     1      -9.051   6.345  70.764  1.00  0.00    -0.151 A  
HETATM   38  C   UNL     1     -10.427   6.165  70.872  1.00  0.00    -0.282 A  
HETATM   39  C   UNL     1     -11.185   6.003  69.720  1.00  0.00    -0.440 A  
HETATM   40  C   UNL     1     -10.562   6.024  68.466  1.00  0.00    -0.325 A  
ENDBRANCH  34  35
ENDBRANCH  26  29
ENDBRANCH  21  25
ENDBRANCH  12  19
TORSDOF 4
ENDMDL
MODEL       34
REMARK 921   NORMALIZED FREE ENERGY PREDICTED BY IDOCK:   -6.60 KCAL/MOL
REMARK 922        TOTAL FREE ENERGY PREDICTED BY IDOCK:   -9.63 KCAL/MOL
REMARK 923 INTER-LIGAND FREE ENERGY PREDICTED BY IDOCK:   -8.61 KCAL/MOL
REMARK 924 INTRA-LIGAND FREE ENERGY PREDICTED BY IDOCK:   -1.02 KCAL/MOL
REMARK 927      BINDING AFFINITY PREDICTED BY RF-SCORE:    0.00 PKD
ROOT
HETATM    1  C   UNL     1     -11.924   1.617  73.595  1.00  0.00    -0.262 C  
HETATM    2  C   UNL     1     -10.895   2.594  73.172  1.00  0.00    -0.141 A  
HETATM    3  N   UNL     1     -11.026   3.905  73.106  1.00  0.00    -0.175 NA 
HETATM    4  C   UNL     1      -9.822   4.371  72.642  1.00  0.00    -0.154 A  
HETATM    5  H   UNL     1     -11.850   4.456  73.349  1.00  0.00     0.000 HD 
HETATM    6  C   UNL     1      -8.937   3.337  72.473  1.00  0.00    -0.088 A  
HETATM    7  N   UNL     1      -9.629   2.206  72.800  1.00  0.00    -0.084 NA 
HETATM    8  C   UNL     1      -7.536   3.408  72.014  1.00  0.00    -0.053 C  
HETATM    9  C   UNL     1      -7.491   4.047  70.627  1.00  0.00    -0.041 C  
HETATM   10  N   UNL     1      -8.053   5.395  70.427  1.00  0.00    -0.099 N  
HETATM   11  C   UNL     1      -8.476   6.201  71.540  1.00  0.00    -0.127 A  
HETATM   12  C   UNL     1      -8.044   5.824  69.072  1.00  0.00    -0.101 C  
HETATM   13  C   UNL     1      -8.043   7.537  71.616  1.00  0.00    -0.105 A  
HETATM   14  O   UNL     1      -7.529   5.126  68.193  1.00  0.00    -0.074 OA 
HETATM   15  C   UNL     1      -9.442   5.760  72.482  1.00  0.00    -0.151 A  
HETATM   16  C   UNL     1      -8.660   8.454  72.474  1.00  0.00    -0.253 A  
HETATM   17  C   UNL     1     -10.058   6.696  73.333  1.00  0.00    -0.249 A  
HETATM   18  C   UNL     1      -9.692   8.040  73.307  1.00  0.00    -0.308 A  
ENDROOT
BRANCH  12  19
HETATM   19  C   UNL     1      -8.615   7.133  68.626  1.00  0.00    -0.124 A  
HETATM   20  C   UNL     1      -9.972   7.161  68.283  1.00  0.00    -0.171 A  
HETATM   21  C   UNL     1      -9.736   9.392  67.361  1.00  0.00    -0.159 A  
HETATM   22  C   UNL     1      -8.399   9.395  67.769  1.00  0.00    -0.115 A  
HETATM   23  C   UNL     1     -10.531   8.288  67.672  1.00  0.00    -0.303 A  
HETATM   24  C   UNL     1      -7.869   8.305  68.473  1.00  0.00    -0.121 A  
BRANCH  21  25
HETATM   25  N   UNL     1     -10.216  10.497  66.624  1.00  0.00    -0.225 N  
HETATM   26  C   UNL     1     -11.348  11.236  66.957  1.00  0.00    -0.187 C  
HETATM   27  H   UNL     1      -9.698  10.773  65.790  1.00  0.00     0.000 HD 
HETATM   28  O   UNL     1     -12.008  11.076  67.975  1.00  0.00    -0.623 OA 
BRANCH  26  29
HETATM   29  C   UNL     1     -11.719  12.379  66.060  1.00  0.00    -0.469 A  
HETATM   30  C   UNL     1     -12.073  12.074  64.723  1.00  0.00    -0.282 A  
HETATM   31  C   UNL     1     -12.234  13.076  63.769  1.00  0.00    -0.536 A  
HETATM   32  C   UNL     1     -12.043  14.397  64.130  1.00  0.00    -0.405 A  
HETATM   33  C   UNL     1     -11.742  14.717  65.455  1.00  0.00    -0.316 A  
HETATM   34  C   UNL     1     -11.571  13.736  66.466  1.00  0.00    -0.386 A  
BRANCH  34  35
HETATM   35  C   UNL     1     -11.277  14.224  67.854  1.00  0.00    -0.305 A  
HETATM   36  C   UNL     1     -12.237  14.240  68.882  1.00  0.00    -0.240 A  
HETATM   37  C   UNL     1     -11.954  14.772  70.150  1.00  0.00    -0.367 A  
HETATM   38  C   UNL     1     -10.712  15.343  70.413  1.00  0.00    -0.312 A  
HETATM   39  C   UNL     1      -9.740  15.345  69.422  1.00  0.00    -0.273 A  
HETATM   40  C   UNL     1     -10.014  14.773  68.173  1.00  0.00    -0.221 A  
ENDBRANCH  34  35
ENDBRANCH  26  29
ENDBRANCH  21  25
ENDBRANCH  12  19
TORSDOF 4
ENDMDL
MODEL       35
REMARK 921   NORMALIZED FREE ENERGY PREDICTED BY IDOCK:   -6.54 KCAL/MOL
REMARK 922        TOTAL FREE ENERGY PREDICTED BY IDOCK:   -9.55 KCAL/MOL
REMARK 923 INTER-LIGAND FREE ENERGY PREDICTED BY IDOCK:   -8.09 KCAL/MOL
REMARK 924 INTRA-LIGAND FREE ENERGY PREDICTED BY IDOCK:   -1.45 KCAL/MOL
REMARK 927      BINDING AFFINITY PREDICTED BY RF-SCORE:    0.00 PKD
ROOT
HETATM    1  C   UNL     1      -6.503  20.579  64.537  1.00  0.00    -0.321 C  
HETATM    2  C   UNL     1      -6.994  19.753  65.664  1.00  0.00    -0.306 A  
HETATM    3  N   UNL     1      -6.597  18.537  65.986  1.00  0.00    -0.228 NA 
HETATM    4  C   UNL     1      -7.350  18.183  67.077  1.00  0.00    -0.206 A  
HETATM    5  H   UNL     1      -5.882  17.978  65.522  1.00  0.00     0.000 HD 
HETATM    6  C   UNL     1      -8.175  19.214  67.450  1.00  0.00    -0.276 A  
HETATM    7  N   UNL     1      -7.953  20.207  66.538  1.00  0.00    -0.296 NA 
HETATM    8  C   UNL     1      -9.124  19.254  68.579  1.00  0.00    -0.425 C  
HETATM    9  C   UNL     1     -10.140  18.123  68.424  1.00  0.00    -0.388 C  
HETATM   10  N   UNL     1      -9.670  16.729  68.337  1.00  0.00    -0.238 N  
HETATM   11  C   UNL     1      -8.295  16.387  68.579  1.00  0.00    -0.202 A  
HETATM   12  C   UNL     1     -10.707  15.790  68.086  1.00  0.00    -0.285 C  
HETATM   13  C   UNL     1      -8.001  15.325  69.453  1.00  0.00    -0.223 A  
HETATM   14  O   UNL     1     -11.887  16.152  68.034  1.00  0.00    -0.083 OA 
HETATM   15  C   UNL     1      -7.222  16.966  67.853  1.00  0.00    -0.159 A  
HETATM   16  C   UNL     1      -6.731  14.738  69.486  1.00  0.00    -0.160 A  
HETATM   17  C   UNL     1      -5.953  16.360  67.890  1.00  0.00    -0.139 A  
HETATM   18  C   UNL     1      -5.716  15.235  68.677  1.00  0.00    -0.089 A  
ENDROOT
BRANCH  12  19
HETATM   19  C   UNL     1     -10.457  14.325  67.903  1.00  0.00    -0.240 A  
HETATM   20  C   UNL     1      -9.701  13.935  66.791  1.00  0.00    -0.282 A  
HETATM   21  C   UNL     1     -10.262  11.607  67.176  1.00  0.00    -0.213 A  
HETATM   22  C   UNL     1     -10.956  11.987  68.327  1.00  0.00    -0.275 A  
HETATM   23  C   UNL     1      -9.590  12.585  66.441  1.00  0.00    -0.247 A  
HETATM   24  C   UNL     1     -10.978  13.330  68.732  1.00  0.00    -0.294 A  
BRANCH  21  25
HETATM   25  N   UNL     1     -10.297  10.249  66.788  1.00  0.00    -0.230 N  
HETATM   26  C   UNL     1      -9.530   9.242  67.368  1.00  0.00    -0.132 C  
HETATM   27  H   UNL     1     -10.927   9.988  66.030  1.00  0.00     0.000 HD 
HETATM   28  O   UNL     1      -8.805   9.395  68.342  1.00  0.00    -0.127 OA 
BRANCH  26  29
HETATM   29  C   UNL     1      -9.689   7.852  66.830  1.00  0.00    -0.303 A  
HETATM   30  C   UNL     1     -10.659   7.021  67.442  1.00  0.00    -0.372 A  
HETATM   31  C   UNL     1     -10.737   5.661  67.147  1.00  0.00    -0.316 A  
HETATM   32  C   UNL     1      -9.851   5.108  66.242  1.00  0.00    -0.209 A  
HETATM   33  C   UNL     1      -8.923   5.925  65.594  1.00  0.00    -0.099 A  
HETATM   34  C   UNL     1      -8.803   7.315  65.854  1.00  0.00    -0.136 A  
BRANCH  34  35
HETATM   35  C   UNL     1      -7.779   8.076  65.064  1.00  0.00    -0.112 A  
HETATM   36  C   UNL     1      -6.410   8.084  65.387  1.00  0.00    -0.048 A  
HETATM   37  C   UNL     1      -5.487   8.865  64.674  1.00  0.00    -0.051 A  
HETATM   38  C   UNL     1      -5.916   9.695  63.642  1.00  0.00    -0.103 A  
HETATM   39  C   UNL     1      -7.260   9.712  63.295  1.00  0.00    -0.111 A  
HETATM   40  C   UNL     1      -8.169   8.898  63.982  1.00  0.00    -0.168 A  
ENDBRANCH  34  35
ENDBRANCH  26  29
ENDBRANCH  21  25
ENDBRANCH  12  19
TORSDOF 4
ENDMDL
MODEL       36
REMARK 921   NORMALIZED FREE ENERGY PREDICTED BY IDOCK:   -6.54 KCAL/MOL
REMARK 922        TOTAL FREE ENERGY PREDICTED BY IDOCK:   -9.54 KCAL/MOL
REMARK 923 INTER-LIGAND FREE ENERGY PREDICTED BY IDOCK:   -8.04 KCAL/MOL
REMARK 924 INTRA-LIGAND FREE ENERGY PREDICTED BY IDOCK:   -1.51 KCAL/MOL
REMARK 927      BINDING AFFINITY PREDICTED BY RF-SCORE:    0.00 PKD
ROOT
HETATM    1  C   UNL     1      -9.704  18.870  66.095  1.00  0.00    -0.307 C  
HETATM    2  C   UNL     1     -10.234  17.490  66.184  1.00  0.00    -0.335 A  
HETATM    3  N   UNL     1     -10.385  16.768  67.277  1.00  0.00    -0.300 NA 
HETATM    4  C   UNL     1     -10.885  15.562  66.853  1.00  0.00    -0.301 A  
HETATM    5  H   UNL     1     -10.175  17.047  68.235  1.00  0.00     0.000 HD 
HETATM    6  C   UNL     1     -11.085  15.572  65.496  1.00  0.00    -0.262 A  
HETATM    7  N   UNL     1     -10.657  16.799  65.073  1.00  0.00    -0.705 NA 
HETATM    8  C   UNL     1     -11.625  14.490  64.651  1.00  0.00    -0.413 C  
HETATM    9  C   UNL     1     -10.746  13.249  64.796  1.00  0.00    -0.378 C  
HETATM   10  N   UNL     1     -10.535  12.657  66.130  1.00  0.00    -0.253 N  
HETATM   11  C   UNL     1     -11.284  13.105  67.272  1.00  0.00    -0.287 A  
HETATM   12  C   UNL     1      -9.613  11.576  66.137  1.00  0.00    -0.225 C  
HETATM   13  C   UNL     1     -11.898  12.148  68.101  1.00  0.00    -0.362 A  
HETATM   14  O   UNL     1      -9.120  11.160  65.084  1.00  0.00    -0.202 OA 
HETATM   15  C   UNL     1     -11.299  14.460  67.696  1.00  0.00    -0.348 A  
HETATM   16  C   UNL     1     -12.359  12.481  69.380  1.00  0.00     0.043 A  
HETATM   17  C   UNL     1     -11.759  14.776  68.988  1.00  0.00    -0.343 A  
HETATM   18  C   UNL     1     -12.256  13.790  69.836  1.00  0.00    -0.383 A  
ENDROOT
BRANCH  12  19
HETATM   19  C   UNL     1      -9.203  10.860  67.386  1.00  0.00    -0.155 A  
HETATM   20  C   UNL     1      -8.205  11.452  68.169  1.00  0.00    -0.143 A  
HETATM   21  C   UNL     1      -8.018   9.445  69.518  1.00  0.00    -0.098 A  
HETATM   22  C   UNL     1      -9.064   8.881  68.785  1.00  0.00    -0.134 A  
HETATM   23  C   UNL     1      -7.630  10.755  69.238  1.00  0.00    -0.129 A  
HETATM   24  C   UNL     1      -9.708   9.620  67.782  1.00  0.00    -0.173 A  
BRANCH  21  25
HETATM   25  N   UNL     1      -7.377   8.650  70.494  1.00  0.00    -0.052 N  
HETATM   26  C   UNL     1      -7.839   8.470  71.795  1.00  0.00    -0.120 C  
HETATM   27  H   UNL     1      -6.514   8.175  70.228  1.00  0.00     0.000 HD 
HETATM   28  O   UNL     1      -8.902   8.902  72.220  1.00  0.00    -0.397 OA 
BRANCH  26  29
HETATM   29  C   UNL     1      -7.031   7.593  72.704  1.00  0.00    -0.073 A  
HETATM   30  C   UNL     1      -6.124   8.227  73.589  1.00  0.00    -0.112 A  
HETATM   31  C   UNL     1      -5.194   7.493  74.320  1.00  0.00    -0.050 A  
HETATM   32  C   UNL     1      -5.148   6.118  74.181  1.00  0.00    -0.036 A  
HETATM   33  C   UNL     1      -6.068   5.476  73.351  1.00  0.00    -0.051 A  
HETATM   34  C   UNL     1      -7.039   6.175  72.587  1.00  0.00    -0.080 A  
BRANCH  34  35
HETATM   35  C   UNL     1      -7.982   5.353  71.758  1.00  0.00    -0.113 A  
HETATM   36  C   UNL     1      -9.121   4.720  72.290  1.00  0.00    -0.144 A  
HETATM   37  C   UNL     1      -9.943   3.897  71.505  1.00  0.00    -0.209 A  
HETATM   38  C   UNL     1      -9.626   3.650  70.173  1.00  0.00    -0.242 A  
HETATM   39  C   UNL     1      -8.510   4.258  69.614  1.00  0.00    -0.091 A  
HETATM   40  C   UNL     1      -7.718   5.112  70.391  1.00  0.00    -0.074 A  
ENDBRANCH  34  35
ENDBRANCH  26  29
ENDBRANCH  21  25
ENDBRANCH  12  19
TORSDOF 4
ENDMDL
MODEL       37
REMARK 921   NORMALIZED FREE ENERGY PREDICTED BY IDOCK:   -6.54 KCAL/MOL
REMARK 922        TOTAL FREE ENERGY PREDICTED BY IDOCK:   -9.54 KCAL/MOL
REMARK 923 INTER-LIGAND FREE ENERGY PREDICTED BY IDOCK:   -7.90 KCAL/MOL
REMARK 924 INTRA-LIGAND FREE ENERGY PREDICTED BY IDOCK:   -1.64 KCAL/MOL
REMARK 927      BINDING AFFINITY PREDICTED BY RF-SCORE:    0.00 PKD
ROOT
HETATM    1  C   UNL     1     -10.682  20.160  65.502  1.00  0.00    -0.191 C  
HETATM    2  C   UNL     1     -10.401  19.052  66.442  1.00  0.00    -0.448 A  
HETATM    3  N   UNL     1      -9.803  17.909  66.165  1.00  0.00    -0.502 NA 
HETATM    4  C   UNL     1      -9.795  17.205  67.343  1.00  0.00    -0.264 A  
HETATM    5  H   UNL     1      -9.427  17.612  65.265  1.00  0.00     0.000 HD 
HETATM    6  C   UNL     1     -10.348  17.948  68.354  1.00  0.00    -0.374 A  
HETATM    7  N   UNL     1     -10.744  19.119  67.773  1.00  0.00    -0.407 NA 
HETATM    8  C   UNL     1     -10.511  17.573  69.772  1.00  0.00     0.378 C  
HETATM    9  C   UNL     1     -11.353  16.301  69.864  1.00  0.00    -0.261 C  
HETATM   10  N   UNL     1     -10.909  15.080  69.168  1.00  0.00    -0.241 N  
HETATM   11  C   UNL     1      -9.610  14.999  68.557  1.00  0.00    -0.210 A  
HETATM   12  C   UNL     1     -11.837  14.007  69.245  1.00  0.00    -0.344 C  
HETATM   13  C   UNL     1      -8.803  13.879  68.823  1.00  0.00     0.007 A  
HETATM   14  O   UNL     1     -12.871  14.114  69.913  1.00  0.00    -0.171 OA 
HETATM   15  C   UNL     1      -9.168  15.919  67.571  1.00  0.00    -0.210 A  
HETATM   16  C   UNL     1      -7.689  13.580  68.030  1.00  0.00    -0.143 A  
HETATM   17  C   UNL     1      -8.050  15.600  66.778  1.00  0.00    -0.280 A  
HETATM   18  C   UNL     1      -7.334  14.423  66.984  1.00  0.00     0.313 A  
ENDROOT
BRANCH  12  19
HETATM   19  C   UNL     1     -11.623  12.690  68.566  1.00  0.00    -0.363 A  
HETATM   20  C   UNL     1     -11.417  11.572  69.382  1.00  0.00    -0.376 A  
HETATM   21  C   UNL     1     -10.778  10.237  67.460  1.00  0.00    -0.294 A  
HETATM   22  C   UNL     1     -11.054  11.332  66.637  1.00  0.00    -0.299 A  
HETATM   23  C   UNL     1     -11.015  10.350  68.831  1.00  0.00    -0.289 A  
HETATM   24  C   UNL     1     -11.555  12.522  67.182  1.00  0.00    -0.437 A  
BRANCH  21  25
HETATM   25  N   UNL     1     -10.241   9.071  66.871  1.00  0.00    -0.260 N  
HETATM   26  C   UNL     1      -8.885   8.854  66.641  1.00  0.00    -0.129 C  
HETATM   27  H   UNL     1     -10.892   8.336  66.595  1.00  0.00     0.000 HD 
HETATM   28  O   UNL     1      -7.991   9.606  67.004  1.00  0.00    -0.108 OA 
BRANCH  26  29
HETATM   29  C   UNL     1      -8.489   7.557  66.001  1.00  0.00    -0.152 A  
HETATM   30  C   UNL     1      -8.063   7.597  64.651  1.00  0.00    -0.112 A  
HETATM   31  C   UNL     1      -7.871   6.428  63.918  1.00  0.00    -0.109 A  
HETATM   32  C   UNL     1      -8.101   5.203  64.516  1.00  0.00    -0.120 A  
HETATM   33  C   UNL     1      -8.472   5.147  65.860  1.00  0.00    -0.121 A  
HETATM   34  C   UNL     1      -8.678   6.306  66.653  1.00  0.00    -0.126 A  
BRANCH  34  35
HETATM   35  C   UNL     1      -9.049   6.097  68.092  1.00  0.00    -0.111 A  
HETATM   36  C   UNL     1      -8.097   5.953  69.118  1.00  0.00    -0.106 A  
HETATM   37  C   UNL     1      -8.474   5.684  70.442  1.00  0.00    -0.127 A  
HETATM   38  C   UNL     1      -9.815   5.509  70.772  1.00  0.00    -0.247 A  
HETATM   39  C   UNL     1     -10.782   5.644  69.786  1.00  0.00    -0.401 A  
HETATM   40  C   UNL     1     -10.403   5.956  68.474  1.00  0.00    -0.268 A  
ENDBRANCH  34  35
ENDBRANCH  26  29
ENDBRANCH  21  25
ENDBRANCH  12  19
TORSDOF 4
ENDMDL
MODEL       38
REMARK 921   NORMALIZED FREE ENERGY PREDICTED BY IDOCK:   -6.39 KCAL/MOL
REMARK 922        TOTAL FREE ENERGY PREDICTED BY IDOCK:   -9.37 KCAL/MOL
REMARK 923 INTER-LIGAND FREE ENERGY PREDICTED BY IDOCK:   -8.53 KCAL/MOL
REMARK 924 INTRA-LIGAND FREE ENERGY PREDICTED BY IDOCK:   -0.84 KCAL/MOL
REMARK 927      BINDING AFFINITY PREDICTED BY RF-SCORE:    0.00 PKD
ROOT
HETATM    1  C   UNL     1      -5.804   3.797  65.592  1.00  0.00    -0.022 C  
HETATM    2  C   UNL     1      -5.948   5.255  65.378  1.00  0.00    -0.025 A  
HETATM    3  N   UNL     1      -6.297   6.157  66.274  1.00  0.00    -0.040 NA 
HETATM    4  C   UNL     1      -6.315   7.353  65.602  1.00  0.00    -0.041 A  
HETATM    5  H   UNL     1      -6.510   5.999  67.259  1.00  0.00     0.000 HD 
HETATM    6  C   UNL     1      -5.924   7.181  64.299  1.00  0.00    -0.037 A  
HETATM    7  N   UNL     1      -5.704   5.840  64.157  1.00  0.00    -0.020 NA 
HETATM    8  C   UNL     1      -5.786   8.209  63.249  1.00  0.00    -0.067 C  
HETATM    9  C   UNL     1      -7.128   8.910  63.050  1.00  0.00    -0.089 C  
HETATM   10  N   UNL     1      -7.778   9.579  64.192  1.00  0.00    -0.118 N  
HETATM   11  C   UNL     1      -7.095   9.749  65.445  1.00  0.00    -0.113 A  
HETATM   12  C   UNL     1      -9.068  10.095  63.895  1.00  0.00    -0.260 C  
HETATM   13  C   UNL     1      -7.095  11.018  66.053  1.00  0.00    -0.010 A  
HETATM   14  O   UNL     1      -9.525  10.033  62.748  1.00  0.00    -0.295 OA 
HETATM   15  C   UNL     1      -6.557   8.660  66.179  1.00  0.00    -0.061 A  
HETATM   16  C   UNL     1      -6.738  11.181  67.397  1.00  0.00    -0.084 A  
HETATM   17  C   UNL     1      -6.210   8.839  67.531  1.00  0.00    -0.052 A  
HETATM   18  C   UNL     1      -6.330  10.084  68.145  1.00  0.00    -0.054 A  
ENDROOT
BRANCH  12  19
HETATM   19  C   UNL     1      -9.936  10.764  64.915  1.00  0.00    -0.374 A  
HETATM   20  C   UNL     1     -10.184  12.132  64.751  1.00  0.00    -0.310 A  
HETATM   21  C   UNL     1     -11.176  12.258  66.961  1.00  0.00    -0.310 A  
HETATM   22  C   UNL     1     -10.995  10.879  67.096  1.00  0.00    -0.334 A  
HETATM   23  C   UNL     1     -10.816  12.869  65.759  1.00  0.00    -0.292 A  
HETATM   24  C   UNL     1     -10.457  10.127  66.043  1.00  0.00    -0.165 A  
BRANCH  21  25
HETATM   25  N   UNL     1     -11.690  12.980  68.061  1.00  0.00    -0.340 N  
HETATM   26  C   UNL     1     -11.635  12.549  69.384  1.00  0.00    -0.305 C  
HETATM   27  H   UNL     1     -12.131  13.880  67.874  1.00  0.00     0.000 HD 
HETATM   28  O   UNL     1     -11.056  11.539  69.762  1.00  0.00    -0.199 OA 
BRANCH  26  29
HETATM   29  C   UNL     1     -12.234  13.441  70.430  1.00  0.00    -0.415 A  
HETATM   30  C   UNL     1     -13.141  12.857  71.347  1.00  0.00    -0.331 A  
HETATM   31  C   UNL     1     -13.895  13.639  72.217  1.00  0.00    -0.689 A  
HETATM   32  C   UNL     1     -13.761  15.016  72.188  1.00  0.00    -0.559 A  
HETATM   33  C   UNL     1     -12.834  15.602  71.324  1.00  0.00    -0.550 A  
HETATM   34  C   UNL     1     -12.039  14.851  70.420  1.00  0.00    -0.386 A  
BRANCH  34  35
HETATM   35  C   UNL     1     -11.064  15.610  69.568  1.00  0.00    -0.298 A  
HETATM   36  C   UNL     1     -11.453  16.387  68.462  1.00  0.00    -0.209 A  
HETATM   37  C   UNL     1     -10.511  17.026  67.640  1.00  0.00    -0.343 A  
HETATM   38  C   UNL     1      -9.149  16.870  67.877  1.00  0.00    -0.233 A  
HETATM   39  C   UNL     1      -8.728  16.111  68.960  1.00  0.00    -0.254 A  
HETATM   40  C   UNL     1      -9.673  15.512  69.803  1.00  0.00    -0.247 A  
ENDBRANCH  34  35
ENDBRANCH  26  29
ENDBRANCH  21  25
ENDBRANCH  12  19
TORSDOF 4
ENDMDL
MODEL       39
REMARK 921   NORMALIZED FREE ENERGY PREDICTED BY IDOCK:   -6.38 KCAL/MOL
REMARK 922        TOTAL FREE ENERGY PREDICTED BY IDOCK:   -9.35 KCAL/MOL
REMARK 923 INTER-LIGAND FREE ENERGY PREDICTED BY IDOCK:   -8.19 KCAL/MOL
REMARK 924 INTRA-LIGAND FREE ENERGY PREDICTED BY IDOCK:   -1.15 KCAL/MOL
REMARK 927      BINDING AFFINITY PREDICTED BY RF-SCORE:    0.00 PKD
ROOT
HETATM    1  C   UNL     1     -11.194   1.498  73.290  1.00  0.00    -0.275 C  
HETATM    2  C   UNL     1     -10.264   2.395  72.567  1.00  0.00    -0.159 A  
HETATM    3  N   UNL     1     -10.424   3.684  72.335  1.00  0.00    -0.101 NA 
HETATM    4  C   UNL     1      -9.319   4.068  71.619  1.00  0.00    -0.135 A  
HETATM    5  H   UNL     1     -11.206   4.270  72.627  1.00  0.00     0.000 HD 
HETATM    6  C   UNL     1      -8.457   3.013  71.458  1.00  0.00    -0.064 A  
HETATM    7  N   UNL     1      -9.069   1.947  72.054  1.00  0.00    -0.073 NA 
HETATM    8  C   UNL     1      -7.151   3.005  70.772  1.00  0.00    -0.033 C  
HETATM    9  C   UNL     1      -7.342   3.436  69.319  1.00  0.00    -0.049 C  
HETATM   10  N   UNL     1      -7.950   4.744  69.020  1.00  0.00    -0.075 N  
HETATM   11  C   UNL     1      -8.199   5.707  70.058  1.00  0.00    -0.110 A  
HETATM   12  C   UNL     1      -8.169   4.972  67.634  1.00  0.00    -0.105 C  
HETATM   13  C   UNL     1      -7.781   7.036  69.869  1.00  0.00    -0.108 A  
HETATM   14  O   UNL     1      -7.792   4.149  66.793  1.00  0.00    -0.095 OA 
HETATM   15  C   UNL     1      -8.992   5.415  71.200  1.00  0.00    -0.155 A  
HETATM   16  C   UNL     1      -8.264   8.074  70.674  1.00  0.00    -0.114 A  
HETATM   17  C   UNL     1      -9.476   6.470  71.995  1.00  0.00    -0.151 A  
HETATM   18  C   UNL     1      -9.141   7.793  71.716  1.00  0.00    -0.171 A  
ENDROOT
BRANCH  12  19
HETATM   19  C   UNL     1      -8.825   6.207  67.102  1.00  0.00    -0.108 A  
HETATM   20  C   UNL     1      -8.010   7.139  66.448  1.00  0.00    -0.112 A  
HETATM   21  C   UNL     1      -9.811   8.763  66.431  1.00  0.00    -0.282 A  
HETATM   22  C   UNL     1     -10.647   7.810  67.018  1.00  0.00    -0.396 A  
HETATM   23  C   UNL     1      -8.505   8.400  66.099  1.00  0.00    -0.139 A  
HETATM   24  C   UNL     1     -10.177   6.514  67.272  1.00  0.00    -0.242 A  
BRANCH  21  25
HETATM   25  N   UNL     1     -10.317  10.066  66.226  1.00  0.00    -0.200 N  
HETATM   26  C   UNL     1      -9.920  11.190  66.946  1.00  0.00    -0.198 C  
HETATM   27  H   UNL     1     -11.022  10.193  65.501  1.00  0.00     0.000 HD 
HETATM   28  O   UNL     1      -9.022  11.201  67.777  1.00  0.00    -0.135 OA 
BRANCH  26  29
HETATM   29  C   UNL     1     -10.564  12.499  66.600  1.00  0.00    -0.259 A  
HETATM   30  C   UNL     1     -10.290  13.045  65.323  1.00  0.00    -0.318 A  
HETATM   31  C   UNL     1     -10.676  14.342  64.991  1.00  0.00    -0.435 A  
HETATM   32  C   UNL     1     -11.339  15.116  65.926  1.00  0.00    -0.225 A  
HETATM   33  C   UNL     1     -11.659  14.573  67.172  1.00  0.00    -0.406 A  
HETATM   34  C   UNL     1     -11.293  13.258  67.559  1.00  0.00    -0.329 A  
BRANCH  34  35
HETATM   35  C   UNL     1     -11.728  12.796  68.918  1.00  0.00    -0.370 A  
HETATM   36  C   UNL     1     -11.929  11.442  69.242  1.00  0.00    -0.400 A  
HETATM   37  C   UNL     1     -12.408  11.046  70.500  1.00  0.00    -0.462 A  
HETATM   38  C   UNL     1     -12.740  11.998  71.459  1.00  0.00    -0.360 A  
HETATM   39  C   UNL     1     -12.555  13.344  71.175  1.00  0.00    -0.430 A  
HETATM   40  C   UNL     1     -12.036  13.731  69.933  1.00  0.00    -0.412 A  
ENDBRANCH  34  35
ENDBRANCH  26  29
ENDBRANCH  21  25
ENDBRANCH  12  19
TORSDOF 4
ENDMDL
MODEL       40
REMARK 921   NORMALIZED FREE ENERGY PREDICTED BY IDOCK:   -6.34 KCAL/MOL
REMARK 922        TOTAL FREE ENERGY PREDICTED BY IDOCK:   -9.30 KCAL/MOL
REMARK 923 INTER-LIGAND FREE ENERGY PREDICTED BY IDOCK:   -7.77 KCAL/MOL
REMARK 924 INTRA-LIGAND FREE ENERGY PREDICTED BY IDOCK:   -1.53 KCAL/MOL
REMARK 927      BINDING AFFINITY PREDICTED BY RF-SCORE:    0.00 PKD
ROOT
HETATM    1  C   UNL     1     -11.359   1.955  62.738  1.00  0.00    -0.247 C  
HETATM    2  C   UNL     1     -10.562   2.652  63.774  1.00  0.00    -0.113 A  
HETATM    3  N   UNL     1     -10.844   3.805  64.347  1.00  0.00    -0.520 NA 
HETATM    4  C   UNL     1      -9.808   4.046  65.214  1.00  0.00    -0.197 A  
HETATM    5  H   UNL     1     -11.659   4.394  64.182  1.00  0.00     0.000 HD 
HETATM    6  C   UNL     1      -8.915   3.004  65.201  1.00  0.00    -0.143 A  
HETATM    7  N   UNL     1      -9.394   2.124  64.273  1.00  0.00    -0.128 NA 
HETATM    8  C   UNL     1      -7.682   2.856  65.998  1.00  0.00    -0.077 C  
HETATM    9  C   UNL     1      -6.748   4.029  65.705  1.00  0.00    -0.052 C  
HETATM   10  N   UNL     1      -7.216   5.408  65.933  1.00  0.00    -0.068 N  
HETATM   11  C   UNL     1      -8.462   5.673  66.599  1.00  0.00    -0.113 A  
HETATM   12  C   UNL     1      -6.291   6.403  65.518  1.00  0.00    -0.038 C  
HETATM   13  C   UNL     1      -8.488   6.610  67.648  1.00  0.00    -0.121 A  
HETATM   14  O   UNL     1      -5.177   6.088  65.085  1.00  0.00    -0.012 OA 
HETATM   15  C   UNL     1      -9.702   5.154  66.142  1.00  0.00    -0.192 A  
HETATM   16  C   UNL     1      -9.692   7.147  68.116  1.00  0.00    -0.147 A  
HETATM   17  C   UNL     1     -10.904   5.710  66.617  1.00  0.00    -0.280 A  
HETATM   18  C   UNL     1     -10.899   6.721  67.574  1.00  0.00    -0.388 A  
ENDROOT
BRANCH  12  19
HETATM   19  C   UNL     1      -6.576   7.870  65.602  1.00  0.00    -0.042 A  
HETATM   20  C   UNL     1      -5.889   8.605  66.576  1.00  0.00    -0.051 A  
HETATM   21  C   UNL     1      -7.308  10.532  66.179  1.00  0.00    -0.136 A  
HETATM   22  C   UNL     1      -7.946   9.825  65.157  1.00  0.00    -0.129 A  
HETATM   23  C   UNL     1      -6.241   9.932  66.849  1.00  0.00    -0.064 A  
HETATM   24  C   UNL     1      -7.522   8.533  64.816  1.00  0.00    -0.095 A  
BRANCH  21  25
HETATM   25  N   UNL     1      -7.792  11.817  66.511  1.00  0.00    -0.364 N  
HETATM   26  C   UNL     1      -8.686  12.082  67.546  1.00  0.00    -0.166 C  
HETATM   27  H   UNL     1      -7.464  12.607  65.955  1.00  0.00     0.000 HD 
HETATM   28  O   UNL     1      -9.086  11.249  68.347  1.00  0.00    -0.159 OA 
BRANCH  26  29
HETATM   29  C   UNL     1      -9.099  13.508  67.758  1.00  0.00    -0.207 A  
HETATM   30  C   UNL     1      -8.478  14.219  68.813  1.00  0.00    -0.094 A  
HETATM   31  C   UNL     1      -8.938  15.471  69.212  1.00  0.00    -0.267 A  
HETATM   32  C   UNL     1     -10.024  16.035  68.568  1.00  0.00    -0.222 A  
HETATM   33  C   UNL     1     -10.615  15.368  67.493  1.00  0.00    -0.283 A  
HETATM   34  C   UNL     1     -10.183  14.093  67.045  1.00  0.00    -0.260 A  
BRANCH  34  35
HETATM   35  C   UNL     1     -10.892  13.505  65.860  1.00  0.00    -0.279 A  
HETATM   36  C   UNL     1     -10.219  13.027  64.721  1.00  0.00    -0.312 A  
HETATM   37  C   UNL     1     -10.914  12.552  63.598  1.00  0.00    -0.507 A  
HETATM   38  C   UNL     1     -12.304  12.580  63.565  1.00  0.00    -0.623 A  
HETATM   39  C   UNL     1     -13.002  13.045  64.671  1.00  0.00    -0.161 A  
HETATM   40  C   UNL     1     -12.305  13.477  65.806  1.00  0.00    -0.516 A  
ENDBRANCH  34  35
ENDBRANCH  26  29
ENDBRANCH  21  25
ENDBRANCH  12  19
TORSDOF 4
ENDMDL
MODEL       41
REMARK 921   NORMALIZED FREE ENERGY PREDICTED BY IDOCK:   -6.28 KCAL/MOL
REMARK 922        TOTAL FREE ENERGY PREDICTED BY IDOCK:   -9.23 KCAL/MOL
REMARK 923 INTER-LIGAND FREE ENERGY PREDICTED BY IDOCK:   -7.71 KCAL/MOL
REMARK 924 INTRA-LIGAND FREE ENERGY PREDICTED BY IDOCK:   -1.52 KCAL/MOL
REMARK 927      BINDING AFFINITY PREDICTED BY RF-SCORE:    0.00 PKD
ROOT
HETATM    1  C   UNL     1     -11.938  16.636  73.487  1.00  0.00    -0.335 C  
HETATM    2  C   UNL     1     -12.012  15.700  72.342  1.00  0.00    -0.469 A  
HETATM    3  N   UNL     1     -12.076  14.384  72.396  1.00  0.00    -0.095 NA 
HETATM    4  C   UNL     1     -12.106  13.964  71.090  1.00  0.00    -0.236 A  
HETATM    5  H   UNL     1     -12.099  13.801  73.232  1.00  0.00     0.000 HD 
HETATM    6  C   UNL     1     -12.110  15.039  70.237  1.00  0.00    -0.329 A  
HETATM    7  N   UNL     1     -12.038  16.142  71.040  1.00  0.00    -0.314 NA 
HETATM    8  C   UNL     1     -12.159  15.027  68.762  1.00  0.00    -0.215 C  
HETATM    9  C   UNL     1     -10.962  14.246  68.224  1.00  0.00    -0.247 C  
HETATM   10  N   UNL     1     -10.760  12.845  68.636  1.00  0.00    -0.251 N  
HETATM   11  C   UNL     1     -11.762  12.135  69.384  1.00  0.00    -0.329 A  
HETATM   12  C   UNL     1      -9.554  12.273  68.150  1.00  0.00    -0.213 C  
HETATM   13  C   UNL     1     -12.149  10.852  68.956  1.00  0.00    -0.240 A  
HETATM   14  O   UNL     1      -8.815  12.909  67.391  1.00  0.00    -0.179 OA 
HETATM   15  C   UNL     1     -12.262  12.600  70.628  1.00  0.00    -0.373 A  
HETATM   16  C   UNL     1     -12.863   9.989  69.795  1.00  0.00     0.601 A  
HETATM   17  C   UNL     1     -12.971  11.718  71.464  1.00  0.00    -0.446 A  
HETATM   18  C   UNL     1     -13.242  10.411  71.064  1.00  0.00    -0.361 A  
ENDROOT
BRANCH  12  19
HETATM   19  C   UNL     1      -9.114  10.882  68.487  1.00  0.00    -0.173 A  
HETATM   20  C   UNL     1      -9.084   9.946  67.447  1.00  0.00    -0.147 A  
HETATM   21  C   UNL     1      -8.735   8.140  69.027  1.00  0.00    -0.144 A  
HETATM   22  C   UNL     1      -8.691   9.081  70.059  1.00  0.00    -0.164 A  
HETATM   23  C   UNL     1      -8.878   8.588  67.714  1.00  0.00    -0.137 A  
HETATM   24  C   UNL     1      -8.795  10.450  69.776  1.00  0.00     0.036 A  
BRANCH  21  25
HETATM   25  N   UNL     1      -8.662   6.770  69.363  1.00  0.00    -0.135 N  
HETATM   26  C   UNL     1      -9.656   5.835  69.088  1.00  0.00    -0.135 C  
HETATM   27  H   UNL     1      -7.822   6.442  69.841  1.00  0.00     0.000 HD 
HETATM   28  O   UNL     1     -10.668   6.068  68.442  1.00  0.00    -0.240 OA 
BRANCH  26  29
HETATM   29  C   UNL     1      -9.415   4.419  69.519  1.00  0.00    -0.251 A  
HETATM   30  C   UNL     1      -9.111   3.471  68.511  1.00  0.00    -0.202 A  
HETATM   31  C   UNL     1      -9.072   2.107  68.788  1.00  0.00    -0.193 A  
HETATM   32  C   UNL     1      -9.336   1.664  70.072  1.00  0.00    -0.165 A  
HETATM   33  C   UNL     1      -9.588   2.590  71.085  1.00  0.00    -0.218 A  
HETATM   34  C   UNL     1      -9.636   3.990  70.858  1.00  0.00    -0.253 A  
BRANCH  34  35
HETATM   35  C   UNL     1      -9.890   4.871  72.046  1.00  0.00    -0.232 A  
HETATM   36  C   UNL     1     -11.010   5.715  72.151  1.00  0.00    -0.307 A  
HETATM   37  C   UNL     1     -11.181   6.583  73.241  1.00  0.00    -0.032 A  
HETATM   38  C   UNL     1     -10.214   6.661  74.238  1.00  0.00    -0.354 A  
HETATM   39  C   UNL     1      -9.095   5.842  74.167  1.00  0.00    -0.128 A  
HETATM   40  C   UNL     1      -8.951   4.948  73.100  1.00  0.00    -0.111 A  
ENDBRANCH  34  35
ENDBRANCH  26  29
ENDBRANCH  21  25
ENDBRANCH  12  19
TORSDOF 4
ENDMDL
MODEL       42
REMARK 921   NORMALIZED FREE ENERGY PREDICTED BY IDOCK:   -6.26 KCAL/MOL
REMARK 922        TOTAL FREE ENERGY PREDICTED BY IDOCK:   -9.20 KCAL/MOL
REMARK 923 INTER-LIGAND FREE ENERGY PREDICTED BY IDOCK:   -7.52 KCAL/MOL
REMARK 924 INTRA-LIGAND FREE ENERGY PREDICTED BY IDOCK:   -1.68 KCAL/MOL
REMARK 927      BINDING AFFINITY PREDICTED BY RF-SCORE:    0.00 PKD
ROOT
HETATM    1  C   UNL     1     -12.473  12.333  63.417  1.00  0.00    -0.592 C  
HETATM    2  C   UNL     1     -11.866  12.263  64.765  1.00  0.00    -0.364 A  
HETATM    3  N   UNL     1     -10.993  11.373  65.197  1.00  0.00    -0.235 NA 
HETATM    4  C   UNL     1     -10.748  11.705  66.505  1.00  0.00    -0.272 A  
HETATM    5  H   UNL     1     -10.586  10.602  64.669  1.00  0.00     0.000 HD 
HETATM    6  C   UNL     1     -11.441  12.836  66.855  1.00  0.00    -0.340 A  
HETATM    7  N   UNL     1     -12.162  13.180  65.746  1.00  0.00    -0.448 NA 
HETATM    8  C   UNL     1     -11.440  13.536  68.154  1.00  0.00    -0.338 C  
HETATM    9  C   UNL     1     -11.904  12.573  69.246  1.00  0.00    -0.304 C  
HETATM   10  N   UNL     1     -11.174  11.311  69.463  1.00  0.00    -0.268 N  
HETATM   11  C   UNL     1      -9.927  11.046  68.800  1.00  0.00    -0.207 A  
HETATM   12  C   UNL     1     -11.774  10.462  70.432  1.00  0.00    -0.331 C  
HETATM   13  C   UNL     1      -8.836  10.585  69.560  1.00  0.00    -0.043 A  
HETATM   14  O   UNL     1     -12.771  10.830  71.063  1.00  0.00    -0.360 OA 
HETATM   15  C   UNL     1      -9.788  11.073  67.387  1.00  0.00    -0.197 A  
HETATM   16  C   UNL     1      -7.715  10.011  68.951  1.00  0.00    -0.089 A  
HETATM   17  C   UNL     1      -8.659  10.485  66.790  1.00  0.00    -0.126 A  
HETATM   18  C   UNL     1      -7.643   9.928  67.565  1.00  0.00    -0.091 A  
ENDROOT
BRANCH  12  19
HETATM   19  C   UNL     1     -11.238   9.107  70.775  1.00  0.00    -0.336 A  
HETATM   20  C   UNL     1     -10.763   8.913  72.077  1.00  0.00    -0.389 A  
HETATM   21  C   UNL     1      -9.810   6.772  71.454  1.00  0.00    -0.178 A  
HETATM   22  C   UNL     1     -10.347   6.930  70.174  1.00  0.00    -0.218 A  
HETATM   23  C   UNL     1     -10.070   7.746  72.418  1.00  0.00    -0.284 A  
HETATM   24  C   UNL     1     -11.129   8.053  69.866  1.00  0.00    -0.108 A  
BRANCH  21  25
HETATM   25  N   UNL     1      -9.000   5.643  71.708  1.00  0.00    -0.136 N  
HETATM   26  C   UNL     1      -9.464   4.440  72.234  1.00  0.00    -0.135 C  
HETATM   27  H   UNL     1      -8.006   5.713  71.491  1.00  0.00     0.000 HD 
HETATM   28  O   UNL     1     -10.640   4.186  72.453  1.00  0.00    -0.146 OA 
BRANCH  26  29
HETATM   29  C   UNL     1      -8.463   3.343  72.444  1.00  0.00    -0.088 A  
HETATM   30  C   UNL     1      -8.004   3.120  73.765  1.00  0.00    -0.069 A  
HETATM   31  C   UNL     1      -6.934   2.267  74.025  1.00  0.00    -0.028 A  
HETATM   32  C   UNL     1      -6.304   1.624  72.975  1.00  0.00    -0.009 A  
HETATM   33  C   UNL     1      -6.778   1.796  71.674  1.00  0.00    -0.019 A  
HETATM   34  C   UNL     1      -7.865   2.650  71.354  1.00  0.00    -0.044 A  
BRANCH  34  35
HETATM   35  C   UNL     1      -8.286   2.717  69.915  1.00  0.00    -0.064 A  
HETATM   36  C   UNL     1      -9.209   1.823  69.342  1.00  0.00    -0.173 A  
HETATM   37  C   UNL     1      -9.526   1.864  67.975  1.00  0.00    -0.194 A  
HETATM   38  C   UNL     1      -8.896   2.776  67.133  1.00  0.00    -0.161 A  
HETATM   39  C   UNL     1      -7.980   3.673  67.664  1.00  0.00    -0.081 A  
HETATM   40  C   UNL     1      -7.700   3.656  69.036  1.00  0.00    -0.052 A  
ENDBRANCH  34  35
ENDBRANCH  26  29
ENDBRANCH  21  25
ENDBRANCH  12  19
TORSDOF 4
ENDMDL
MODEL       43
REMARK 921   NORMALIZED FREE ENERGY PREDICTED BY IDOCK:   -6.23 KCAL/MOL
REMARK 922        TOTAL FREE ENERGY PREDICTED BY IDOCK:   -9.17 KCAL/MOL
REMARK 923 INTER-LIGAND FREE ENERGY PREDICTED BY IDOCK:   -8.00 KCAL/MOL
REMARK 924 INTRA-LIGAND FREE ENERGY PREDICTED BY IDOCK:   -1.17 KCAL/MOL
REMARK 927      BINDING AFFINITY PREDICTED BY RF-SCORE:    0.00 PKD
ROOT
HETATM    1  C   UNL     1     -10.440  20.585  69.604  1.00  0.00     0.459 C  
HETATM    2  C   UNL     1     -10.005  19.484  68.715  1.00  0.00    -0.463 A  
HETATM    3  N   UNL     1     -10.491  18.259  68.675  1.00  0.00    -0.392 NA 
HETATM    4  C   UNL     1      -9.758  17.606  67.716  1.00  0.00    -0.280 A  
HETATM    5  H   UNL     1     -11.251  17.877  69.237  1.00  0.00     0.000 HD 
HETATM    6  C   UNL     1      -8.853  18.458  67.135  1.00  0.00    -0.264 A  
HETATM    7  N   UNL     1      -9.006  19.650  67.784  1.00  0.00    -0.315 NA 
HETATM    8  C   UNL     1      -7.894  18.163  66.053  1.00  0.00    -0.174 C  
HETATM    9  C   UNL     1      -6.970  17.029  66.494  1.00  0.00    -0.256 C  
HETATM   10  N   UNL     1      -7.545  15.732  66.892  1.00  0.00    -0.223 N  
HETATM   11  C   UNL     1      -8.940  15.444  66.700  1.00  0.00    -0.286 A  
HETATM   12  C   UNL     1      -6.586  14.805  67.381  1.00  0.00     0.016 C  
HETATM   13  C   UNL     1      -9.307  14.230  66.090  1.00  0.00    -0.191 A  
HETATM   14  O   UNL     1      -5.382  15.083  67.379  1.00  0.00    -0.339 OA 
HETATM   15  C   UNL     1      -9.972  16.253  67.243  1.00  0.00    -0.250 A  
HETATM   16  C   UNL     1     -10.618  13.746  66.161  1.00  0.00    -0.291 A  
HETATM   17  C   UNL     1     -11.284  15.749  67.314  1.00  0.00    -0.140 A  
HETATM   18  C   UNL     1     -11.599  14.491  66.806  1.00  0.00    -0.388 A  
ENDROOT
BRANCH  12  19
HETATM   19  C   UNL     1      -6.949  13.447  67.894  1.00  0.00    -0.141 A  
HETATM   20  C   UNL     1      -6.398  12.341  67.235  1.00  0.00    -0.150 A  
HETATM   21  C   UNL     1      -7.863  10.837  68.448  1.00  0.00    -0.120 A  
HETATM   22  C   UNL     1      -8.362  11.931  69.159  1.00  0.00     0.378 A  
HETATM   23  C   UNL     1      -6.839  11.045  67.523  1.00  0.00    -0.084 A  
HETATM   24  C   UNL     1      -7.844  13.215  68.941  1.00  0.00     0.118 A  
BRANCH  21  25
HETATM   25  N   UNL     1      -8.439   9.567  68.676  1.00  0.00    -0.117 N  
HETATM   26  C   UNL     1      -8.448   8.913  69.906  1.00  0.00    -0.135 C  
HETATM   27  H   UNL     1      -8.879   9.097  67.886  1.00  0.00     0.000 HD 
HETATM   28  O   UNL     1      -8.041   9.398  70.953  1.00  0.00    -0.256 OA 
BRANCH  26  29
HETATM   29  C   UNL     1      -9.103   7.565  69.969  1.00  0.00    -0.148 A  
HETATM   30  C   UNL     1      -8.337   6.447  69.560  1.00  0.00    -0.126 A  
HETATM   31  C   UNL     1      -8.919   5.192  69.394  1.00  0.00    -0.127 A  
HETATM   32  C   UNL     1     -10.273   5.032  69.630  1.00  0.00    -0.306 A  
HETATM   33  C   UNL     1     -11.029   6.115  70.081  1.00  0.00    -0.426 A  
HETATM   34  C   UNL     1     -10.485   7.412  70.271  1.00  0.00    -0.229 A  
BRANCH  34  35
HETATM   35  C   UNL     1     -11.409   8.476  70.787  1.00  0.00    -0.296 A  
HETATM   36  C   UNL     1     -11.543   9.738  70.180  1.00  0.00    -0.239 A  
HETATM   37  C   UNL     1     -12.359  10.739  70.730  1.00  0.00    -0.480 A  
HETATM   38  C   UNL     1     -13.034  10.519  71.927  1.00  0.00    -0.553 A  
HETATM   39  C   UNL     1     -12.925   9.286  72.554  1.00  0.00    -0.384 A  
HETATM   40  C   UNL     1     -12.144   8.276  71.978  1.00  0.00    -0.402 A  
ENDBRANCH  34  35
ENDBRANCH  26  29
ENDBRANCH  21  25
ENDBRANCH  12  19
TORSDOF 4
ENDMDL
MODEL       44
REMARK 921   NORMALIZED FREE ENERGY PREDICTED BY IDOCK:   -6.21 KCAL/MOL
REMARK 922        TOTAL FREE ENERGY PREDICTED BY IDOCK:   -9.14 KCAL/MOL
REMARK 923 INTER-LIGAND FREE ENERGY PREDICTED BY IDOCK:   -7.99 KCAL/MOL
REMARK 924 INTRA-LIGAND FREE ENERGY PREDICTED BY IDOCK:   -1.15 KCAL/MOL
REMARK 927      BINDING AFFINITY PREDICTED BY RF-SCORE:    0.00 PKD
ROOT
HETATM    1  C   UNL     1     -10.613   1.716  73.553  1.00  0.00    -0.201 C  
HETATM    2  C   UNL     1      -9.945   2.331  72.382  1.00  0.00    -0.150 A  
HETATM    3  N   UNL     1      -9.359   3.511  72.333  1.00  0.00    -0.110 NA 
HETATM    4  C   UNL     1      -8.913   3.645  71.043  1.00  0.00    -0.096 A  
HETATM    5  H   UNL     1      -9.258   4.182  73.094  1.00  0.00     0.000 HD 
HETATM    6  C   UNL     1      -9.188   2.515  70.316  1.00  0.00    -0.129 A  
HETATM    7  N   UNL     1      -9.857   1.685  71.171  1.00  0.00    -0.117 NA 
HETATM    8  C   UNL     1      -8.859   2.241  68.904  1.00  0.00    -0.147 C  
HETATM    9  C   UNL     1      -9.505   3.307  68.020  1.00  0.00    -0.160 C  
HETATM   10  N   UNL     1      -9.188   4.729  68.244  1.00  0.00    -0.118 N  
HETATM   11  C   UNL     1      -8.145   5.129  69.149  1.00  0.00    -0.084 A  
HETATM   12  C   UNL     1      -9.937   5.618  67.427  1.00  0.00    -0.156 C  
HETATM   13  C   UNL     1      -7.192   6.068  68.717  1.00  0.00    -0.083 A  
HETATM   14  O   UNL     1     -10.713   5.185  66.569  1.00  0.00    -0.300 OA 
HETATM   15  C   UNL     1      -8.125   4.741  70.515  1.00  0.00    -0.083 A  
HETATM   16  C   UNL     1      -6.360   6.733  69.626  1.00  0.00    -0.042 A  
HETATM   17  C   UNL     1      -7.289   5.424  71.417  1.00  0.00    -0.080 A  
HETATM   18  C   UNL     1      -6.435   6.435  70.982  1.00  0.00    -0.049 A  
ENDROOT
BRANCH  12  19
HETATM   19  C   UNL     1      -9.822   7.108  67.521  1.00  0.00    -0.192 A  
HETATM   20  C   UNL     1     -10.321   7.720  68.677  1.00  0.00    -0.221 A  
HETATM   21  C   UNL     1     -10.078   9.913  67.668  1.00  0.00    -0.197 A  
HETATM   22  C   UNL     1      -9.513   9.308  66.543  1.00  0.00    -0.259 A  
HETATM   23  C   UNL     1     -10.431   9.113  68.756  1.00  0.00    -0.236 A  
HETATM   24  C   UNL     1      -9.308   7.922  66.509  1.00  0.00    -0.255 A  
BRANCH  21  25
HETATM   25  N   UNL     1     -10.297  11.308  67.643  1.00  0.00    -0.180 N  
HETATM   26  C   UNL     1      -9.304  12.267  67.826  1.00  0.00    -0.194 C  
HETATM   27  H   UNL     1     -11.249  11.637  67.480  1.00  0.00     0.000 HD 
HETATM   28  O   UNL     1      -8.111  12.018  67.938  1.00  0.00    -0.131 OA 
BRANCH  26  29
HETATM   29  C   UNL     1      -9.713  13.709  67.772  1.00  0.00    -0.225 A  
HETATM   30  C   UNL     1      -9.285  14.550  68.827  1.00  0.00    -0.162 A  
HETATM   31  C   UNL     1      -9.780  15.844  68.968  1.00  0.00    -0.243 A  
HETATM   32  C   UNL     1     -10.710  16.321  68.062  1.00  0.00    -0.331 A  
HETATM   33  C   UNL     1     -11.103  15.520  66.988  1.00  0.00    -0.238 A  
HETATM   34  C   UNL     1     -10.628  14.197  66.797  1.00  0.00    -0.277 A  
BRANCH  34  35
HETATM   35  C   UNL     1     -11.115  13.460  65.583  1.00  0.00    -0.298 A  
HETATM   36  C   UNL     1     -12.466  13.126  65.378  1.00  0.00    -0.535 A  
HETATM   37  C   UNL     1     -12.880  12.371  64.270  1.00  0.00    -0.356 A  
HETATM   38  C   UNL     1     -11.947  11.894  63.354  1.00  0.00    -0.528 A  
HETATM   39  C   UNL     1     -10.605  12.205  63.524  1.00  0.00    -0.501 A  
HETATM   40  C   UNL     1     -10.203  12.994  64.609  1.00  0.00    -0.324 A  
ENDBRANCH  34  35
ENDBRANCH  26  29
ENDBRANCH  21  25
ENDBRANCH  12  19
TORSDOF 4
ENDMDL
MODEL       45
REMARK 921   NORMALIZED FREE ENERGY PREDICTED BY IDOCK:   -6.20 KCAL/MOL
REMARK 922        TOTAL FREE ENERGY PREDICTED BY IDOCK:   -9.14 KCAL/MOL
REMARK 923 INTER-LIGAND FREE ENERGY PREDICTED BY IDOCK:   -7.93 KCAL/MOL
REMARK 924 INTRA-LIGAND FREE ENERGY PREDICTED BY IDOCK:   -1.21 KCAL/MOL
REMARK 927      BINDING AFFINITY PREDICTED BY RF-SCORE:    0.00 PKD
ROOT
HETATM    1  C   UNL     1     -11.850   1.547  73.541  1.00  0.00    -0.307 C  
HETATM    2  C   UNL     1     -10.873   2.592  73.161  1.00  0.00    -0.148 A  
HETATM    3  N   UNL     1     -11.105   3.884  73.029  1.00  0.00    -0.102 NA 
HETATM    4  C   UNL     1      -9.908   4.433  72.645  1.00  0.00    -0.154 A  
HETATM    5  H   UNL     1     -11.987   4.371  73.181  1.00  0.00     0.000 HD 
HETATM    6  C   UNL     1      -8.930   3.472  72.592  1.00  0.00    -0.089 A  
HETATM    7  N   UNL     1      -9.553   2.299  72.910  1.00  0.00    -0.086 NA 
HETATM    8  C   UNL     1      -7.506   3.645  72.245  1.00  0.00    -0.057 C  
HETATM    9  C   UNL     1      -7.396   4.236  70.841  1.00  0.00    -0.044 C  
HETATM   10  N   UNL     1      -8.048   5.523  70.538  1.00  0.00    -0.102 N  
HETATM   11  C   UNL     1      -8.627   6.329  71.577  1.00  0.00    -0.131 A  
HETATM   12  C   UNL     1      -7.960   5.902  69.171  1.00  0.00    -0.099 C  
HETATM   13  C   UNL     1      -8.312   7.699  71.631  1.00  0.00    -0.118 A  
HETATM   14  O   UNL     1      -7.317   5.219  68.367  1.00  0.00    -0.069 OA 
HETATM   15  C   UNL     1      -9.629   5.842  72.457  1.00  0.00    -0.165 A  
HETATM   16  C   UNL     1      -9.072   8.591  72.396  1.00  0.00    -0.308 A  
HETATM   17  C   UNL     1     -10.389   6.753  73.214  1.00  0.00    -0.293 A  
HETATM   18  C   UNL     1     -10.133   8.121  73.160  1.00  0.00    -0.202 A  
ENDROOT
BRANCH  12  19
HETATM   19  C   UNL     1      -8.596   7.142  68.624  1.00  0.00    -0.124 A  
HETATM   20  C   UNL     1      -9.947   7.067  68.266  1.00  0.00    -0.165 A  
HETATM   21  C   UNL     1      -9.822   9.236  67.187  1.00  0.00    -0.195 A  
HETATM   22  C   UNL     1      -8.494   9.344  67.607  1.00  0.00    -0.119 A  
HETATM   23  C   UNL     1     -10.559   8.115  67.569  1.00  0.00    -0.291 A  
HETATM   24  C   UNL     1      -7.914   8.339  68.394  1.00  0.00    -0.119 A  
BRANCH  21  25
HETATM   25  N   UNL     1     -10.352  10.256  66.366  1.00  0.00    -0.218 N  
HETATM   26  C   UNL     1     -11.294  11.194  66.781  1.00  0.00    -0.042 C  
HETATM   27  H   UNL     1     -10.023  10.310  65.403  1.00  0.00     0.000 HD 
HETATM   28  O   UNL     1     -11.705  11.305  67.928  1.00  0.00    -0.534 OA 
BRANCH  26  29
HETATM   29  C   UNL     1     -11.752  12.208  65.776  1.00  0.00    -0.391 A  
HETATM   30  C   UNL     1     -12.246  11.727  64.540  1.00  0.00    -0.104 A  
HETATM   31  C   UNL     1     -12.503  12.589  63.477  1.00  0.00    -0.561 A  
HETATM   32  C   UNL     1     -12.270  13.944  63.627  1.00  0.00    -0.232 A  
HETATM   33  C   UNL     1     -11.830  14.439  64.856  1.00  0.00    -0.419 A  
HETATM   34  C   UNL     1     -11.557  13.605  65.971  1.00  0.00    -0.358 A  
BRANCH  34  35
HETATM   35  C   UNL     1     -11.116  14.275  67.239  1.00  0.00    -0.315 A  
HETATM   36  C   UNL     1      -9.765  14.498  67.561  1.00  0.00    -0.211 A  
HETATM   37  C   UNL     1      -9.381  15.060  68.788  1.00  0.00    -0.200 A  
HETATM   38  C   UNL     1     -10.337  15.378  69.748  1.00  0.00    -0.296 A  
HETATM   39  C   UNL     1     -11.680  15.173  69.464  1.00  0.00    -0.351 A  
HETATM   40  C   UNL     1     -12.060  14.652  68.221  1.00  0.00    -0.214 A  
ENDBRANCH  34  35
ENDBRANCH  26  29
ENDBRANCH  21  25
ENDBRANCH  12  19
TORSDOF 4
ENDMDL
MODEL       46
REMARK 921   NORMALIZED FREE ENERGY PREDICTED BY IDOCK:   -6.18 KCAL/MOL
REMARK 922        TOTAL FREE ENERGY PREDICTED BY IDOCK:   -9.11 KCAL/MOL
REMARK 923 INTER-LIGAND FREE ENERGY PREDICTED BY IDOCK:   -7.53 KCAL/MOL
REMARK 924 INTRA-LIGAND FREE ENERGY PREDICTED BY IDOCK:   -1.58 KCAL/MOL
REMARK 927      BINDING AFFINITY PREDICTED BY RF-SCORE:    0.00 PKD
ROOT
HETATM    1  C   UNL     1     -12.313  16.265  74.134  1.00  0.00    -0.631 C  
HETATM    2  C   UNL     1     -12.185  15.655  72.791  1.00  0.00    -0.453 A  
HETATM    3  N   UNL     1     -12.088  14.370  72.511  1.00  0.00    -0.056 NA 
HETATM    4  C   UNL     1     -11.967  14.301  71.146  1.00  0.00    -0.282 A  
HETATM    5  H   UNL     1     -12.100  13.591  73.169  1.00  0.00     0.000 HD 
HETATM    6  C   UNL     1     -12.042  15.553  70.590  1.00  0.00    -0.389 A  
HETATM    7  N   UNL     1     -12.168  16.413  71.644  1.00  0.00    -0.190 NA 
HETATM    8  C   UNL     1     -11.979  15.917  69.162  1.00  0.00    -0.268 C  
HETATM    9  C   UNL     1     -10.657  15.427  68.574  1.00  0.00    -0.240 C  
HETATM   10  N   UNL     1     -10.314  13.995  68.644  1.00  0.00    -0.239 N  
HETATM   11  C   UNL     1     -11.272  13.018  69.085  1.00  0.00    -0.241 A  
HETATM   12  C   UNL     1      -9.013  13.693  68.159  1.00  0.00    -0.191 C  
HETATM   13  C   UNL     1     -11.464  11.858  68.314  1.00  0.00    -0.372 A  
HETATM   14  O   UNL     1      -8.304  14.575  67.663  1.00  0.00    -0.155 OA 
HETATM   15  C   UNL     1     -11.918  13.093  70.347  1.00  0.00    -0.343 A  
HETATM   16  C   UNL     1     -12.125  10.739  68.834  1.00  0.00    -0.107 A  
HETATM   17  C   UNL     1     -12.572  11.958  70.859  1.00  0.00    -0.361 A  
HETATM   18  C   UNL     1     -12.648  10.778  70.122  1.00  0.00    -0.309 A  
ENDROOT
BRANCH  12  19
HETATM   19  C   UNL     1      -8.430  12.315  68.185  1.00  0.00    -0.176 A  
HETATM   20  C   UNL     1      -8.477  11.574  66.998  1.00  0.00    -0.164 A  
HETATM   21  C   UNL     1      -7.780   9.570  68.174  1.00  0.00    -0.083 A  
HETATM   22  C   UNL     1      -7.662  10.324  69.344  1.00  0.00    -0.146 A  
HETATM   23  C   UNL     1      -8.136  10.217  66.990  1.00  0.00    -0.117 A  
HETATM   24  C   UNL     1      -7.904  11.705  69.326  1.00  0.00     0.213 A  
BRANCH  21  25
HETATM   25  N   UNL     1      -7.560   8.177  68.247  1.00  0.00    -0.100 N  
HETATM   26  C   UNL     1      -8.555   7.212  68.112  1.00  0.00    -0.129 C  
HETATM   27  H   UNL     1      -6.607   7.854  68.411  1.00  0.00     0.000 HD 
HETATM   28  O   UNL     1      -9.720   7.452  67.822  1.00  0.00    -0.138 OA 
BRANCH  26  29
HETATM   29  C   UNL     1      -8.146   5.773  68.221  1.00  0.00    -0.108 A  
HETATM   30  C   UNL     1      -7.451   5.206  67.125  1.00  0.00    -0.087 A  
HETATM   31  C   UNL     1      -7.211   3.836  67.051  1.00  0.00    -0.064 A  
HETATM   32  C   UNL     1      -7.661   3.009  68.063  1.00  0.00    -0.056 A  
HETATM   33  C   UNL     1      -8.304   3.561  69.173  1.00  0.00    -0.083 A  
HETATM   34  C   UNL     1      -8.570   4.949  69.301  1.00  0.00    -0.099 A  
BRANCH  34  35
HETATM   35  C   UNL     1      -9.245   5.406  70.561  1.00  0.00    -0.183 A  
HETATM   36  C   UNL     1     -10.621   5.689  70.637  1.00  0.00    -0.347 A  
HETATM   37  C   UNL     1     -11.209   6.187  71.810  1.00  0.00    -0.338 A  
HETATM   38  C   UNL     1     -10.428   6.455  72.930  1.00  0.00    -0.243 A  
HETATM   39  C   UNL     1      -9.067   6.187  72.892  1.00  0.00    -0.131 A  
HETATM   40  C   UNL     1      -8.493   5.650  71.733  1.00  0.00    -0.127 A  
ENDBRANCH  34  35
ENDBRANCH  26  29
ENDBRANCH  21  25
ENDBRANCH  12  19
TORSDOF 4
ENDMDL
MODEL       47
REMARK 921   NORMALIZED FREE ENERGY PREDICTED BY IDOCK:   -6.15 KCAL/MOL
REMARK 922        TOTAL FREE ENERGY PREDICTED BY IDOCK:   -9.06 KCAL/MOL
REMARK 923 INTER-LIGAND FREE ENERGY PREDICTED BY IDOCK:   -8.67 KCAL/MOL
REMARK 924 INTRA-LIGAND FREE ENERGY PREDICTED BY IDOCK:   -0.40 KCAL/MOL
REMARK 927      BINDING AFFINITY PREDICTED BY RF-SCORE:    0.00 PKD
ROOT
HETATM    1  C   UNL     1     -10.910   2.965  63.419  1.00  0.00    -0.218 C  
HETATM    2  C   UNL     1     -10.203   3.746  64.460  1.00  0.00    -0.204 A  
HETATM    3  N   UNL     1     -10.716   4.683  65.233  1.00  0.00    -0.597 NA 
HETATM    4  C   UNL     1      -9.677   5.125  66.012  1.00  0.00    -0.165 A  
HETATM    5  H   UNL     1     -11.682   5.010  65.248  1.00  0.00     0.000 HD 
HETATM    6  C   UNL     1      -8.535   4.414  65.743  1.00  0.00    -0.114 A  
HETATM    7  N   UNL     1      -8.873   3.545  64.744  1.00  0.00    -0.117 NA 
HETATM    8  C   UNL     1      -7.207   4.557  66.371  1.00  0.00    -0.076 C  
HETATM    9  C   UNL     1      -6.704   5.985  66.167  1.00  0.00    -0.060 C  
HETATM   10  N   UNL     1      -7.509   7.119  66.656  1.00  0.00    -0.086 N  
HETATM   11  C   UNL     1      -8.666   6.911  67.483  1.00  0.00    -0.120 A  
HETATM   12  C   UNL     1      -6.980   8.390  66.306  1.00  0.00    -0.073 C  
HETATM   13  C   UNL     1      -8.804   7.665  68.663  1.00  0.00    -0.127 A  
HETATM   14  O   UNL     1      -5.900   8.483  65.714  1.00  0.00    -0.046 OA 
HETATM   15  C   UNL     1      -9.758   6.095  67.084  1.00  0.00    -0.156 A  
HETATM   16  C   UNL     1     -10.029   7.750  69.334  1.00  0.00    -0.188 A  
HETATM   17  C   UNL     1     -10.985   6.198  67.765  1.00  0.00    -0.400 A  
HETATM   18  C   UNL     1     -11.130   7.044  68.863  1.00  0.00    -0.102 A  
ENDROOT
BRANCH  12  19
HETATM   19  C   UNL     1      -7.659   9.680  66.647  1.00  0.00    -0.098 A  
HETATM   20  C   UNL     1      -8.631  10.151  65.757  1.00  0.00    -0.159 A  
HETATM   21  C   UNL     1      -8.713  12.283  66.911  1.00  0.00    -0.197 A  
HETATM   22  C   UNL     1      -7.798  11.788  67.843  1.00  0.00    -0.135 A  
HETATM   23  C   UNL     1      -9.167  11.436  65.899  1.00  0.00    -0.231 A  
HETATM   24  C   UNL     1      -7.342  10.465  67.758  1.00  0.00    -0.087 A  
BRANCH  21  25
HETATM   25  N   UNL     1      -9.118  13.632  67.016  1.00  0.00    -0.241 N  
HETATM   26  C   UNL     1     -10.377  14.109  66.661  1.00  0.00    -0.277 C  
HETATM   27  H   UNL     1      -8.441  14.304  67.378  1.00  0.00     0.000 HD 
HETATM   28  O   UNL     1     -11.311  13.405  66.303  1.00  0.00    -0.295 OA 
BRANCH  26  29
HETATM   29  C   UNL     1     -10.637  15.576  66.835  1.00  0.00    -0.307 A  
HETATM   30  C   UNL     1     -10.319  16.430  65.752  1.00  0.00    -0.388 A  
HETATM   31  C   UNL     1     -10.336  17.816  65.892  1.00  0.00    -0.257 A  
HETATM   32  C   UNL     1     -10.667  18.373  67.114  1.00  0.00    -0.366 A  
HETATM   33  C   UNL     1     -11.031  17.544  68.177  1.00  0.00    -0.128 A  
HETATM   34  C   UNL     1     -11.034  16.128  68.086  1.00  0.00    -0.341 A  
BRANCH  34  35
HETATM   35  C   UNL     1     -11.474  15.363  69.299  1.00  0.00    -0.344 A  
HETATM   36  C   UNL     1     -12.020  14.068  69.235  1.00  0.00    -0.396 A  
HETATM   37  C   UNL     1     -12.492  13.407  70.380  1.00  0.00    -0.322 A  
HETATM   38  C   UNL     1     -12.469  14.041  71.618  1.00  0.00    -0.371 A  
HETATM   39  C   UNL     1     -11.938  15.319  71.720  1.00  0.00    -0.453 A  
HETATM   40  C   UNL     1     -11.429  15.956  70.581  1.00  0.00    -0.426 A  
ENDBRANCH  34  35
ENDBRANCH  26  29
ENDBRANCH  21  25
ENDBRANCH  12  19
TORSDOF 4
ENDMDL
MODEL       48
REMARK 921   NORMALIZED FREE ENERGY PREDICTED BY IDOCK:   -6.14 KCAL/MOL
REMARK 922        TOTAL FREE ENERGY PREDICTED BY IDOCK:   -9.06 KCAL/MOL
REMARK 923 INTER-LIGAND FREE ENERGY PREDICTED BY IDOCK:   -7.51 KCAL/MOL
REMARK 924 INTRA-LIGAND FREE ENERGY PREDICTED BY IDOCK:   -1.55 KCAL/MOL
REMARK 927      BINDING AFFINITY PREDICTED BY RF-SCORE:    0.00 PKD
ROOT
HETATM    1  C   UNL     1     -10.539  20.135  65.589  1.00  0.00    -0.300 C  
HETATM    2  C   UNL     1     -10.282  19.045  66.558  1.00  0.00    -0.421 A  
HETATM    3  N   UNL     1      -9.814  17.841  66.291  1.00  0.00    -0.422 NA 
HETATM    4  C   UNL     1      -9.771  17.189  67.497  1.00  0.00    -0.256 A  
HETATM    5  H   UNL     1      -9.542  17.473  65.380  1.00  0.00     0.000 HD 
HETATM    6  C   UNL     1     -10.170  18.022  68.511  1.00  0.00    -0.385 A  
HETATM    7  N   UNL     1     -10.506  19.200  67.906  1.00  0.00    -0.407 NA 
HETATM    8  C   UNL     1     -10.247  17.722  69.954  1.00  0.00     0.644 C  
HETATM    9  C   UNL     1     -11.190  16.540  70.174  1.00  0.00    -0.138 C  
HETATM   10  N   UNL     1     -10.917  15.255  69.506  1.00  0.00    -0.260 N  
HETATM   11  C   UNL     1      -9.686  15.028  68.800  1.00  0.00    -0.227 A  
HETATM   12  C   UNL     1     -11.928  14.278  69.708  1.00  0.00    -0.339 C  
HETATM   13  C   UNL     1      -8.963  13.848  69.056  1.00  0.00     0.223 A  
HETATM   14  O   UNL     1     -12.889  14.508  70.450  1.00  0.00    -0.349 OA 
HETATM   15  C   UNL     1      -9.245  15.861  67.738  1.00  0.00    -0.201 A  
HETATM   16  C   UNL     1      -7.949  13.414  68.193  1.00  0.00    -0.150 A  
HETATM   17  C   UNL     1      -8.231  15.406  66.876  1.00  0.00    -0.281 A  
HETATM   18  C   UNL     1      -7.608  14.177  67.083  1.00  0.00     0.024 A  
ENDROOT
BRANCH  12  19
HETATM   19  C   UNL     1     -11.890  12.920  69.080  1.00  0.00    -0.353 A  
HETATM   20  C   UNL     1     -11.889  11.813  69.938  1.00  0.00    -0.423 A  
HETATM   21  C   UNL     1     -11.385  10.328  68.088  1.00  0.00    -0.161 A  
HETATM   22  C   UNL     1     -11.457  11.421  67.220  1.00  0.00    -0.301 A  
HETATM   23  C   UNL     1     -11.657  10.526  69.442  1.00  0.00    -0.318 A  
HETATM   24  C   UNL     1     -11.793  12.692  67.706  1.00  0.00    -0.381 A  
BRANCH  21  25
HETATM   25  N   UNL     1     -11.009   9.073  67.559  1.00  0.00    -0.447 N  
HETATM   26  C   UNL     1      -9.792   8.444  67.806  1.00  0.00    -0.174 C  
HETATM   27  H   UNL     1     -11.676   8.594  66.954  1.00  0.00     0.000 HD 
HETATM   28  O   UNL     1      -8.941   8.859  68.582  1.00  0.00    -0.137 OA 
BRANCH  26  29
HETATM   29  C   UNL     1      -9.555   7.112  67.160  1.00  0.00    -0.191 A  
HETATM   30  C   UNL     1     -10.283   6.005  67.658  1.00  0.00    -0.221 A  
HETATM   31  C   UNL     1      -9.985   4.704  67.261  1.00  0.00    -0.203 A  
HETATM   32  C   UNL     1      -8.956   4.484  66.364  1.00  0.00    -0.115 A  
HETATM   33  C   UNL     1      -8.262   5.570  65.827  1.00  0.00    -0.124 A  
HETATM   34  C   UNL     1      -8.528   6.914  66.194  1.00  0.00    -0.136 A  
BRANCH  34  35
HETATM   35  C   UNL     1      -7.724   7.984  65.516  1.00  0.00    -0.093 A  
HETATM   36  C   UNL     1      -8.146   8.636  64.343  1.00  0.00    -0.156 A  
HETATM   37  C   UNL     1      -7.337   9.579  63.690  1.00  0.00    -0.109 A  
HETATM   38  C   UNL     1      -6.063   9.867  64.169  1.00  0.00    -0.123 A  
HETATM   39  C   UNL     1      -5.613   9.242  65.324  1.00  0.00    -0.053 A  
HETATM   40  C   UNL     1      -6.441   8.334  65.996  1.00  0.00    -0.049 A  
ENDBRANCH  34  35
ENDBRANCH  26  29
ENDBRANCH  21  25
ENDBRANCH  12  19
TORSDOF 4
ENDMDL
MODEL       49
REMARK 921   NORMALIZED FREE ENERGY PREDICTED BY IDOCK:   -6.05 KCAL/MOL
REMARK 922        TOTAL FREE ENERGY PREDICTED BY IDOCK:   -8.95 KCAL/MOL
REMARK 923 INTER-LIGAND FREE ENERGY PREDICTED BY IDOCK:   -8.24 KCAL/MOL
REMARK 924 INTRA-LIGAND FREE ENERGY PREDICTED BY IDOCK:   -0.71 KCAL/MOL
REMARK 927      BINDING AFFINITY PREDICTED BY RF-SCORE:    0.00 PKD
ROOT
HETATM    1  C   UNL     1      -7.626  18.629  67.123  1.00  0.00    -0.231 C  
HETATM    2  C   UNL     1      -8.607  17.534  66.947  1.00  0.00    -0.247 A  
HETATM    3  N   UNL     1      -8.959  16.633  67.844  1.00  0.00    -0.214 NA 
HETATM    4  C   UNL     1      -9.871  15.825  67.214  1.00  0.00    -0.230 A  
HETATM    5  H   UNL     1      -8.624  16.555  68.804  1.00  0.00     0.000 HD 
HETATM    6  C   UNL     1     -10.111  16.270  65.939  1.00  0.00    -0.357 A  
HETATM    7  N   UNL     1      -9.294  17.352  65.770  1.00  0.00    -0.508 NA 
HETATM    8  C   UNL     1     -11.035  15.702  64.938  1.00  0.00    -0.447 C  
HETATM    9  C   UNL     1     -10.648  14.251  64.661  1.00  0.00    -0.340 C  
HETATM   10  N   UNL     1     -10.606  13.282  65.772  1.00  0.00    -0.279 N  
HETATM   11  C   UNL     1     -11.099  13.623  67.078  1.00  0.00    -0.301 A  
HETATM   12  C   UNL     1     -10.128  11.999  65.395  1.00  0.00    -0.256 C  
HETATM   13  C   UNL     1     -11.977  12.736  67.727  1.00  0.00    -0.316 A  
HETATM   14  O   UNL     1      -9.859  11.746  64.215  1.00  0.00    -0.247 OA 
HETATM   15  C   UNL     1     -10.614  14.736  67.814  1.00  0.00    -0.257 A  
HETATM   16  C   UNL     1     -12.236  12.840  69.099  1.00  0.00    -0.065 A  
HETATM   17  C   UNL     1     -10.877  14.822  69.194  1.00  0.00    -0.267 A  
HETATM   18  C   UNL     1     -11.656  13.864  69.839  1.00  0.00    -0.310 A  
ENDROOT
BRANCH  12  19
HETATM   19  C   UNL     1      -9.947  10.875  66.367  1.00  0.00    -0.266 A  
HETATM   20  C   UNL     1      -8.888  10.976  67.278  1.00  0.00    -0.135 A  
HETATM   21  C   UNL     1      -9.206   8.672  67.964  1.00  0.00    -0.140 A  
HETATM   22  C   UNL     1     -10.308   8.592  67.110  1.00  0.00    -0.369 A  
HETATM   23  C   UNL     1      -8.532   9.888  68.082  1.00  0.00    -0.114 A  
HETATM   24  C   UNL     1     -10.725   9.716  66.382  1.00  0.00     0.015 A  
BRANCH  21  25
HETATM   25  N   UNL     1      -8.801   7.505  68.650  1.00  0.00    -0.128 N  
HETATM   26  C   UNL     1      -8.119   6.441  68.065  1.00  0.00    -0.116 C  
HETATM   27  H   UNL     1      -9.024   7.436  69.643  1.00  0.00     0.000 HD 
HETATM   28  O   UNL     1      -7.709   6.429  66.912  1.00  0.00    -0.097 OA 
BRANCH  26  29
HETATM   29  C   UNL     1      -7.769   5.276  68.942  1.00  0.00    -0.082 A  
HETATM   30  C   UNL     1      -6.744   4.407  68.495  1.00  0.00    -0.047 A  
HETATM   31  C   UNL     1      -6.491   3.196  69.136  1.00  0.00    -0.029 A  
HETATM   32  C   UNL     1      -7.255   2.831  70.230  1.00  0.00    -0.033 A  
HETATM   33  C   UNL     1      -8.236   3.700  70.710  1.00  0.00    -0.080 A  
HETATM   34  C   UNL     1      -8.531   4.946  70.097  1.00  0.00    -0.096 A  
BRANCH  34  35
HETATM   35  C   UNL     1      -9.592   5.792  70.738  1.00  0.00    -0.210 A  
HETATM   36  C   UNL     1     -10.950   5.724  70.377  1.00  0.00    -0.333 A  
HETATM   37  C   UNL     1     -11.908   6.582  70.942  1.00  0.00    -0.391 A  
HETATM   38  C   UNL     1     -11.526   7.561  71.854  1.00  0.00    -0.307 A  
HETATM   39  C   UNL     1     -10.195   7.656  72.234  1.00  0.00    -0.268 A  
HETATM   40  C   UNL     1      -9.251   6.770  71.700  1.00  0.00    -0.144 A  
ENDBRANCH  34  35
ENDBRANCH  26  29
ENDBRANCH  21  25
ENDBRANCH  12  19
TORSDOF 4
ENDMDL
MODEL       50
REMARK 921   NORMALIZED FREE ENERGY PREDICTED BY IDOCK:   -6.01 KCAL/MOL
REMARK 922        TOTAL FREE ENERGY PREDICTED BY IDOCK:   -8.90 KCAL/MOL
REMARK 923 INTER-LIGAND FREE ENERGY PREDICTED BY IDOCK:   -8.02 KCAL/MOL
REMARK 924 INTRA-LIGAND FREE ENERGY PREDICTED BY IDOCK:   -0.88 KCAL/MOL
REMARK 927      BINDING AFFINITY PREDICTED BY RF-SCORE:    0.00 PKD
ROOT
HETATM    1  C   UNL     1      -7.317  19.654  67.564  1.00  0.00    -0.284 C  
HETATM    2  C   UNL     1      -8.368  18.631  67.359  1.00  0.00    -0.260 A  
HETATM    3  N   UNL     1      -8.717  17.675  68.197  1.00  0.00    -0.257 NA 
HETATM    4  C   UNL     1      -9.709  16.973  67.559  1.00  0.00    -0.251 A  
HETATM    5  H   UNL     1      -8.332  17.495  69.123  1.00  0.00     0.000 HD 
HETATM    6  C   UNL     1      -9.998  17.541  66.344  1.00  0.00    -0.325 A  
HETATM    7  N   UNL     1      -9.132  18.590  66.216  1.00  0.00    -0.448 NA 
HETATM    8  C   UNL     1     -11.010  17.112  65.359  1.00  0.00     0.034 C  
HETATM    9  C   UNL     1     -10.723  15.672  64.936  1.00  0.00    -0.382 C  
HETATM   10  N   UNL     1     -10.671  14.609  65.955  1.00  0.00    -0.302 N  
HETATM   11  C   UNL     1     -11.066  14.858  67.315  1.00  0.00    -0.336 A  
HETATM   12  C   UNL     1     -10.289  13.340  65.442  1.00  0.00    -0.306 C  
HETATM   13  C   UNL     1     -11.954  13.964  67.940  1.00  0.00    -0.393 A  
HETATM   14  O   UNL     1     -10.105  13.179  64.230  1.00  0.00    -0.343 OA 
HETATM   15  C   UNL     1     -10.477  15.876  68.110  1.00  0.00    -0.270 A  
HETATM   16  C   UNL     1     -12.126  13.960  69.329  1.00  0.00    -0.383 A  
HETATM   17  C   UNL     1     -10.653  15.853  69.506  1.00  0.00    -0.282 A  
HETATM   18  C   UNL     1     -11.447  14.883  70.115  1.00  0.00    -0.320 A  
ENDROOT
BRANCH  12  19
HETATM   19  C   UNL     1     -10.117  12.128  66.302  1.00  0.00    -0.247 A  
HETATM   20  C   UNL     1      -8.813  11.795  66.691  1.00  0.00    -0.189 A  
HETATM   21  C   UNL     1      -9.573   9.657  67.548  1.00  0.00    -0.150 A  
HETATM   22  C   UNL     1     -10.883  10.018  67.227  1.00  0.00    -0.284 A  
HETATM   23  C   UNL     1      -8.547  10.576  67.325  1.00  0.00    -0.122 A  
HETATM   24  C   UNL     1     -11.159  11.282  66.687  1.00  0.00    -0.299 A  
BRANCH  21  25
HETATM   25  N   UNL     1      -9.338   8.360  68.057  1.00  0.00    -0.136 N  
HETATM   26  C   UNL     1      -8.922   7.274  67.292  1.00  0.00    -0.123 C  
HETATM   27  H   UNL     1      -9.484   8.208  69.055  1.00  0.00     0.000 HD 
HETATM   28  O   UNL     1      -8.622   7.333  66.108  1.00  0.00    -0.137 OA 
BRANCH  26  29
HETATM   29  C   UNL     1      -8.724   5.964  67.996  1.00  0.00    -0.111 A  
HETATM   30  C   UNL     1      -9.342   4.820  67.435  1.00  0.00    -0.153 A  
HETATM   31  C   UNL     1      -9.383   3.609  68.121  1.00  0.00    -0.236 A  
HETATM   32  C   UNL     1      -8.812   3.518  69.378  1.00  0.00    -0.152 A  
HETATM   33  C   UNL     1      -8.157   4.624  69.922  1.00  0.00    -0.068 A  
HETATM   34  C   UNL     1      -8.083   5.879  69.264  1.00  0.00    -0.106 A  
BRANCH  34  35
HETATM   35  C   UNL     1      -7.323   6.973  69.954  1.00  0.00    -0.085 A  
HETATM   36  C   UNL     1      -7.799   7.634  71.101  1.00  0.00    -0.090 A  
HETATM   37  C   UNL     1      -7.100   8.705  71.680  1.00  0.00    -0.105 A  
HETATM   38  C   UNL     1      -5.924   9.173  71.104  1.00  0.00    -0.063 A  
HETATM   39  C   UNL     1      -5.424   8.545  69.971  1.00  0.00    -0.025 A  
HETATM   40  C   UNL     1      -6.103   7.449  69.423  1.00  0.00    -0.031 A  
ENDBRANCH  34  35
ENDBRANCH  26  29
ENDBRANCH  21  25
ENDBRANCH  12  19
TORSDOF 4
ENDMDL
MODEL       51
REMARK 921   NORMALIZED FREE ENERGY PREDICTED BY IDOCK:   -6.00 KCAL/MOL
REMARK 922        TOTAL FREE ENERGY PREDICTED BY IDOCK:   -8.89 KCAL/MOL
REMARK 923 INTER-LIGAND FREE ENERGY PREDICTED BY IDOCK:   -7.26 KCAL/MOL
REMARK 924 INTRA-LIGAND FREE ENERGY PREDICTED BY IDOCK:   -1.63 KCAL/MOL
REMARK 927      BINDING AFFINITY PREDICTED BY RF-SCORE:    0.00 PKD
ROOT
HETATM    1  C   UNL     1     -12.013  16.686  73.581  1.00  0.00    -0.305 C  
HETATM    2  C   UNL     1     -12.091  15.698  72.481  1.00  0.00    -0.462 A  
HETATM    3  N   UNL     1     -12.149  14.385  72.597  1.00  0.00    -0.022 NA 
HETATM    4  C   UNL     1     -12.184  13.905  71.313  1.00  0.00    -0.268 A  
HETATM    5  H   UNL     1     -12.165  13.842  73.460  1.00  0.00     0.000 HD 
HETATM    6  C   UNL     1     -12.197  14.939  70.411  1.00  0.00    -0.336 A  
HETATM    7  N   UNL     1     -12.125  16.079  71.160  1.00  0.00    -0.406 NA 
HETATM    8  C   UNL     1     -12.255  14.858  68.938  1.00  0.00    -0.143 C  
HETATM    9  C   UNL     1     -11.057  14.056  68.430  1.00  0.00    -0.253 C  
HETATM   10  N   UNL     1     -10.848  12.676  68.906  1.00  0.00    -0.226 N  
HETATM   11  C   UNL     1     -11.843  11.999  69.692  1.00  0.00    -0.333 A  
HETATM   12  C   UNL     1      -9.643  12.086  68.441  1.00  0.00    -0.190 C  
HETATM   13  C   UNL     1     -12.229  10.697  69.327  1.00  0.00    -0.108 A  
HETATM   14  O   UNL     1      -8.910  12.688  67.648  1.00  0.00    -0.165 OA 
HETATM   15  C   UNL     1     -12.339  12.520  70.916  1.00  0.00    -0.349 A  
HETATM   16  C   UNL     1     -12.934   9.871  70.209  1.00  0.00     0.153 A  
HETATM   17  C   UNL     1     -13.040  11.675  71.796  1.00  0.00    -0.487 A  
HETATM   18  C   UNL     1     -13.309  10.350  71.459  1.00  0.00    -0.405 A  
ENDROOT
BRANCH  12  19
HETATM   19  C   UNL     1      -9.197  10.714  68.840  1.00  0.00    -0.189 A  
HETATM   20  C   UNL     1      -9.115   9.745  67.833  1.00  0.00    -0.126 A  
HETATM   21  C   UNL     1      -8.799   7.998  69.485  1.00  0.00    -0.144 A  
HETATM   22  C   UNL     1      -8.806   8.973  70.486  1.00  0.00    -0.242 A  
HETATM   23  C   UNL     1      -8.900   8.400  68.153  1.00  0.00    -0.142 A  
HETATM   24  C   UNL     1      -8.919  10.330  70.154  1.00  0.00     0.251 A  
BRANCH  21  25
HETATM   25  N   UNL     1      -8.719   6.641  69.869  1.00  0.00    -0.140 N  
HETATM   26  C   UNL     1      -9.800   5.764  69.903  1.00  0.00    -0.179 C  
HETATM   27  H   UNL     1      -7.805   6.277  70.141  1.00  0.00     0.000 HD 
HETATM   28  O   UNL     1     -10.928   6.038  69.516  1.00  0.00    -0.336 OA 
BRANCH  26  29
HETATM   29  C   UNL     1      -9.536   4.354  70.340  1.00  0.00    -0.266 A  
HETATM   30  C   UNL     1      -9.835   4.018  71.682  1.00  0.00    -0.253 A  
HETATM   31  C   UNL     1      -9.439   2.801  72.230  1.00  0.00    -0.177 A  
HETATM   32  C   UNL     1      -8.737   1.899  71.451  1.00  0.00    -0.099 A  
HETATM   33  C   UNL     1      -8.479   2.195  70.112  1.00  0.00    -0.086 A  
HETATM   34  C   UNL     1      -8.864   3.419  69.503  1.00  0.00    -0.150 A  
BRANCH  34  35
HETATM   35  C   UNL     1      -8.545   3.592  68.047  1.00  0.00    -0.118 A  
HETATM   36  C   UNL     1      -7.348   4.168  67.586  1.00  0.00    -0.068 A  
HETATM   37  C   UNL     1      -7.112   4.385  66.219  1.00  0.00    -0.074 A  
HETATM   38  C   UNL     1      -8.085   4.069  65.277  1.00  0.00    -0.101 A  
HETATM   39  C   UNL     1      -9.279   3.497  65.696  1.00  0.00    -0.158 A  
HETATM   40  C   UNL     1      -9.492   3.244  67.056  1.00  0.00    -0.161 A  
ENDBRANCH  34  35
ENDBRANCH  26  29
ENDBRANCH  21  25
ENDBRANCH  12  19
TORSDOF 4
ENDMDL
MODEL       52
REMARK 921   NORMALIZED FREE ENERGY PREDICTED BY IDOCK:   -6.00 KCAL/MOL
REMARK 922        TOTAL FREE ENERGY PREDICTED BY IDOCK:   -8.88 KCAL/MOL
REMARK 923 INTER-LIGAND FREE ENERGY PREDICTED BY IDOCK:   -8.06 KCAL/MOL
REMARK 924 INTRA-LIGAND FREE ENERGY PREDICTED BY IDOCK:   -0.82 KCAL/MOL
REMARK 927      BINDING AFFINITY PREDICTED BY RF-SCORE:    0.00 PKD
ROOT
HETATM    1  C   UNL     1     -11.578   1.844  73.897  1.00  0.00    -0.197 C  
HETATM    2  C   UNL     1     -10.737   2.573  72.920  1.00  0.00    -0.106 A  
HETATM    3  N   UNL     1     -10.506   3.871  72.887  1.00  0.00    -0.170 NA 
HETATM    4  C   UNL     1      -9.695   4.070  71.798  1.00  0.00    -0.171 A  
HETATM    5  H   UNL     1     -10.856   4.577  73.533  1.00  0.00     0.000 HD 
HETATM    6  C   UNL     1      -9.392   2.875  71.196  1.00  0.00    -0.141 A  
HETATM    7  N   UNL     1     -10.069   1.926  71.908  1.00  0.00    -0.155 NA 
HETATM    8  C   UNL     1      -8.536   2.645  70.016  1.00  0.00    -0.108 C  
HETATM    9  C   UNL     1      -9.096   3.425  68.827  1.00  0.00    -0.145 C  
HETATM   10  N   UNL     1      -9.265   4.886  68.928  1.00  0.00    -0.112 N  
HETATM   11  C   UNL     1      -8.745   5.622  70.047  1.00  0.00    -0.130 A  
HETATM   12  C   UNL     1      -9.894   5.469  67.795  1.00  0.00    -0.138 C  
HETATM   13  C   UNL     1      -7.987   6.782  69.806  1.00  0.00    -0.124 A  
HETATM   14  O   UNL     1     -10.182   4.782  66.809  1.00  0.00    -0.225 OA 
HETATM   15  C   UNL     1      -9.095   5.324  71.391  1.00  0.00    -0.167 A  
HETATM   16  C   UNL     1      -7.728   7.708  70.823  1.00  0.00    -0.085 A  
HETATM   17  C   UNL     1      -8.835   6.269  72.400  1.00  0.00    -0.131 A  
HETATM   18  C   UNL     1      -8.184   7.467  72.114  1.00  0.00    -0.118 A  
ENDROOT
BRANCH  12  19
HETATM   19  C   UNL     1     -10.219   6.927  67.701  1.00  0.00    -0.235 A  
HETATM   20  C   UNL     1      -9.892   7.584  66.509  1.00  0.00    -0.226 A  
HETATM   21  C   UNL     1     -10.360   9.738  67.519  1.00  0.00    -0.237 A  
HETATM   22  C   UNL     1     -10.757   9.080  68.686  1.00  0.00    -0.137 A  
HETATM   23  C   UNL     1      -9.979   8.977  66.414  1.00  0.00    -0.370 A  
HETATM   24  C   UNL     1     -10.766   7.679  68.743  1.00  0.00    -0.106 A  
BRANCH  21  25
HETATM   25  N   UNL     1     -10.334  11.150  67.520  1.00  0.00    -0.189 N  
HETATM   26  C   UNL     1      -9.178  11.919  67.636  1.00  0.00    -0.183 C  
HETATM   27  H   UNL     1     -11.223  11.642  67.430  1.00  0.00     0.000 HD 
HETATM   28  O   UNL     1      -8.042  11.465  67.657  1.00  0.00    -0.117 OA 
BRANCH  26  29
HETATM   29  C   UNL     1      -9.333  13.411  67.622  1.00  0.00    -0.217 A  
HETATM   30  C   UNL     1      -8.686  14.145  68.645  1.00  0.00    -0.126 A  
HETATM   31  C   UNL     1      -8.935  15.502  68.831  1.00  0.00    -0.220 A  
HETATM   32  C   UNL     1      -9.834  16.150  68.003  1.00  0.00    -0.231 A  
HETATM   33  C   UNL     1     -10.442  15.450  66.959  1.00  0.00    -0.295 A  
HETATM   34  C   UNL     1     -10.220  14.068  66.724  1.00  0.00    -0.264 A  
BRANCH  34  35
HETATM   35  C   UNL     1     -10.919  13.451  65.548  1.00  0.00    -0.294 A  
HETATM   36  C   UNL     1     -12.314  13.279  65.487  1.00  0.00    -0.533 A  
HETATM   37  C   UNL     1     -12.931  12.630  64.406  1.00  0.00    -0.232 A  
HETATM   38  C   UNL     1     -12.166  12.097  63.374  1.00  0.00    -0.635 A  
HETATM   39  C   UNL     1     -10.786  12.248  63.401  1.00  0.00    -0.457 A  
HETATM   40  C   UNL     1     -10.179  12.934  64.460  1.00  0.00    -0.334 A  
ENDBRANCH  34  35
ENDBRANCH  26  29
ENDBRANCH  21  25
ENDBRANCH  12  19
TORSDOF 4
ENDMDL
MODEL       53
REMARK 921   NORMALIZED FREE ENERGY PREDICTED BY IDOCK:   -5.98 KCAL/MOL
REMARK 922        TOTAL FREE ENERGY PREDICTED BY IDOCK:   -8.86 KCAL/MOL
REMARK 923 INTER-LIGAND FREE ENERGY PREDICTED BY IDOCK:   -7.69 KCAL/MOL
REMARK 924 INTRA-LIGAND FREE ENERGY PREDICTED BY IDOCK:   -1.16 KCAL/MOL
REMARK 927      BINDING AFFINITY PREDICTED BY RF-SCORE:    0.00 PKD
ROOT
HETATM    1  C   UNL     1      -7.365   4.442  70.136  1.00  0.00    -0.046 C  
HETATM    2  C   UNL     1      -7.750   5.459  69.132  1.00  0.00    -0.089 A  
HETATM    3  N   UNL     1      -7.054   6.520  68.770  1.00  0.00    -0.080 NA 
HETATM    4  C   UNL     1      -7.826   7.164  67.837  1.00  0.00    -0.114 A  
HETATM    5  H   UNL     1      -6.136   6.801  69.113  1.00  0.00     0.000 HD 
HETATM    6  C   UNL     1      -8.979   6.460  67.594  1.00  0.00    -0.113 A  
HETATM    7  N   UNL     1      -8.931   5.381  68.431  1.00  0.00    -0.107 NA 
HETATM    8  C   UNL     1     -10.063   6.792  66.650  1.00  0.00    -0.205 C  
HETATM    9  C   UNL     1     -10.639   8.162  67.005  1.00  0.00    -0.275 C  
HETATM   10  N   UNL     1      -9.754   9.340  67.038  1.00  0.00    -0.172 N  
HETATM   11  C   UNL     1      -8.398   9.268  66.564  1.00  0.00    -0.126 A  
HETATM   12  C   UNL     1     -10.394  10.526  67.487  1.00  0.00    -0.223 C  
HETATM   13  C   UNL     1      -7.936  10.255  65.674  1.00  0.00    -0.150 A  
HETATM   14  O   UNL     1     -11.604  10.533  67.739  1.00  0.00    -0.462 OA 
HETATM   15  C   UNL     1      -7.455   8.340  67.077  1.00  0.00    -0.088 A  
HETATM   16  C   UNL     1      -6.569  10.432  65.430  1.00  0.00    -0.109 A  
HETATM   17  C   UNL     1      -6.084   8.537  66.829  1.00  0.00    -0.054 A  
HETATM   18  C   UNL     1      -5.641   9.594  66.037  1.00  0.00    -0.048 A  
ENDROOT
BRANCH  12  19
HETATM   19  C   UNL     1      -9.677  11.829  67.654  1.00  0.00    -0.186 A  
HETATM   20  C   UNL     1      -8.503  11.824  68.416  1.00  0.00    -0.155 A  
HETATM   21  C   UNL     1      -8.451  14.249  68.424  1.00  0.00    -0.166 A  
HETATM   22  C   UNL     1      -9.581  14.254  67.603  1.00  0.00    -0.219 A  
HETATM   23  C   UNL     1      -7.885  13.025  68.783  1.00  0.00     0.033 A  
HETATM   24  C   UNL     1     -10.137  13.048  67.152  1.00  0.00    -0.244 A  
BRANCH  21  25
HETATM   25  N   UNL     1      -7.948  15.487  68.882  1.00  0.00    -0.169 N  
HETATM   26  C   UNL     1      -7.017  16.263  68.197  1.00  0.00    -0.128 C  
HETATM   27  H   UNL     1      -8.289  15.837  69.777  1.00  0.00     0.000 HD 
HETATM   28  O   UNL     1      -6.594  16.012  67.076  1.00  0.00    -0.238 OA 
BRANCH  26  29
HETATM   29  C   UNL     1      -6.587  17.553  68.831  1.00  0.00    -0.226 A  
HETATM   30  C   UNL     1      -5.478  17.511  69.710  1.00  0.00    -0.217 A  
HETATM   31  C   UNL     1      -5.134  18.609  70.495  1.00  0.00    -0.236 A  
HETATM   32  C   UNL     1      -5.891  19.764  70.420  1.00  0.00    -0.327 A  
HETATM   33  C   UNL     1      -6.958  19.836  69.521  1.00  0.00    -0.299 A  
HETATM   34  C   UNL     1      -7.347  18.749  68.697  1.00  0.00    -0.335 A  
BRANCH  34  35
HETATM   35  C   UNL     1      -8.495  18.976  67.758  1.00  0.00    -0.323 A  
HETATM   36  C   UNL     1      -8.387  19.744  66.584  1.00  0.00    -0.360 A  
HETATM   37  C   UNL     1      -9.498  20.000  65.765  1.00  0.00    -0.147 A  
HETATM   38  C   UNL     1     -10.758  19.530  66.119  1.00  0.00    -0.528 A  
HETATM   39  C   UNL     1     -10.902  18.768  67.270  1.00  0.00    -0.408 A  
HETATM   40  C   UNL     1      -9.783  18.479  68.061  1.00  0.00    -0.354 A  
ENDBRANCH  34  35
ENDBRANCH  26  29
ENDBRANCH  21  25
ENDBRANCH  12  19
TORSDOF 4
ENDMDL
MODEL       54
REMARK 921   NORMALIZED FREE ENERGY PREDICTED BY IDOCK:   -5.96 KCAL/MOL
REMARK 922        TOTAL FREE ENERGY PREDICTED BY IDOCK:   -8.83 KCAL/MOL
REMARK 923 INTER-LIGAND FREE ENERGY PREDICTED BY IDOCK:   -7.27 KCAL/MOL
REMARK 924 INTRA-LIGAND FREE ENERGY PREDICTED BY IDOCK:   -1.57 KCAL/MOL
REMARK 927      BINDING AFFINITY PREDICTED BY RF-SCORE:    0.00 PKD
ROOT
HETATM    1  C   UNL     1     -10.487  17.584  65.819  1.00  0.00    -0.212 C  
HETATM    2  C   UNL     1     -10.854  16.151  65.895  1.00  0.00    -0.177 A  
HETATM    3  N   UNL     1     -10.732  15.356  66.940  1.00  0.00    -0.311 NA 
HETATM    4  C   UNL     1     -11.178  14.128  66.521  1.00  0.00    -0.330 A  
HETATM    5  H   UNL     1     -10.380  15.602  67.865  1.00  0.00     0.000 HD 
HETATM    6  C   UNL     1     -11.620  14.192  65.224  1.00  0.00    -0.341 A  
HETATM    7  N   UNL     1     -11.400  15.481  64.826  1.00  0.00    -0.399 NA 
HETATM    8  C   UNL     1     -12.195  13.106  64.406  1.00  0.00    -0.462 C  
HETATM    9  C   UNL     1     -11.186  11.964  64.303  1.00  0.00    -0.357 C  
HETATM   10  N   UNL     1     -10.679  11.325  65.530  1.00  0.00    -0.250 N  
HETATM   11  C   UNL     1     -11.249  11.622  66.817  1.00  0.00    -0.308 A  
HETATM   12  C   UNL     1      -9.668  10.355  65.296  1.00  0.00    -0.278 C  
HETATM   13  C   UNL     1     -11.605  10.558  67.665  1.00  0.00     0.136 A  
HETATM   14  O   UNL     1      -9.336  10.055  64.144  1.00  0.00    -0.262 OA 
HETATM   15  C   UNL     1     -11.321  12.940  67.337  1.00  0.00    -0.355 A  
HETATM   16  C   UNL     1     -11.857  10.765  69.026  1.00  0.00    -0.325 A  
HETATM   17  C   UNL     1     -11.568  13.131  68.709  1.00  0.00    -0.348 A  
HETATM   18  C   UNL     1     -11.803  12.049  69.555  1.00  0.00    -0.390 A  
ENDROOT
BRANCH  12  19
HETATM   19  C   UNL     1      -8.970   9.619  66.397  1.00  0.00    -0.179 A  
HETATM   20  C   UNL     1      -9.309   8.274  66.588  1.00  0.00    -0.246 A  
HETATM   21  C   UNL     1      -8.081   8.221  68.679  1.00  0.00    -0.120 A  
HETATM   22  C   UNL     1      -7.682   9.540  68.453  1.00  0.00    -0.085 A  
HETATM   23  C   UNL     1      -8.852   7.576  67.711  1.00  0.00    -0.132 A  
HETATM   24  C   UNL     1      -8.056  10.203  67.276  1.00  0.00    -0.114 A  
BRANCH  21  25
HETATM   25  N   UNL     1      -7.710   7.605  69.895  1.00  0.00    -0.095 N  
HETATM   26  C   UNL     1      -8.554   7.448  70.991  1.00  0.00    -0.134 C  
HETATM   27  H   UNL     1      -6.757   7.250  69.976  1.00  0.00     0.000 HD 
HETATM   28  O   UNL     1      -9.742   7.741  71.000  1.00  0.00    -0.163 OA 
BRANCH  26  29
HETATM   29  C   UNL     1      -7.994   6.772  72.207  1.00  0.00    -0.095 A  
HETATM   30  C   UNL     1      -7.857   7.549  73.383  1.00  0.00    -0.139 A  
HETATM   31  C   UNL     1      -7.166   7.069  74.492  1.00  0.00    -0.109 A  
HETATM   32  C   UNL     1      -6.596   5.809  74.448  1.00  0.00    -0.076 A  
HETATM   33  C   UNL     1      -6.765   5.013  73.314  1.00  0.00    -0.068 A  
HETATM   34  C   UNL     1      -7.464   5.452  72.159  1.00  0.00    -0.095 A  
BRANCH  34  35
HETATM   35  C   UNL     1      -7.591   4.480  71.023  1.00  0.00    -0.064 A  
HETATM   36  C   UNL     1      -8.728   3.675  70.825  1.00  0.00    -0.123 A  
HETATM   37  C   UNL     1      -8.788   2.721  69.797  1.00  0.00    -0.146 A  
HETATM   38  C   UNL     1      -7.694   2.516  68.962  1.00  0.00    -0.048 A  
HETATM   39  C   UNL     1      -6.555   3.293  69.127  1.00  0.00    -0.034 A  
HETATM   40  C   UNL     1      -6.518   4.273  70.127  1.00  0.00    -0.032 A  
ENDBRANCH  34  35
ENDBRANCH  26  29
ENDBRANCH  21  25
ENDBRANCH  12  19
TORSDOF 4
ENDMDL
MODEL       55
REMARK 921   NORMALIZED FREE ENERGY PREDICTED BY IDOCK:   -5.95 KCAL/MOL
REMARK 922        TOTAL FREE ENERGY PREDICTED BY IDOCK:   -8.82 KCAL/MOL
REMARK 923 INTER-LIGAND FREE ENERGY PREDICTED BY IDOCK:   -7.28 KCAL/MOL
REMARK 924 INTRA-LIGAND FREE ENERGY PREDICTED BY IDOCK:   -1.53 KCAL/MOL
REMARK 927      BINDING AFFINITY PREDICTED BY RF-SCORE:    0.00 PKD
ROOT
HETATM    1  C   UNL     1      -9.606   2.696  64.099  1.00  0.00    -0.144 C  
HETATM    2  C   UNL     1      -9.040   4.064  64.139  1.00  0.00    -0.142 A  
HETATM    3  N   UNL     1      -8.975   4.865  65.185  1.00  0.00    -0.153 NA 
HETATM    4  C   UNL     1      -8.394   6.020  64.726  1.00  0.00    -0.086 A  
HETATM    5  H   UNL     1      -9.290   4.667  66.134  1.00  0.00     0.000 HD 
HETATM    6  C   UNL     1      -8.059   5.899  63.401  1.00  0.00    -0.095 A  
HETATM    7  N   UNL     1      -8.484   4.655  63.029  1.00  0.00    -0.105 NA 
HETATM    8  C   UNL     1      -7.399   6.897  62.537  1.00  0.00    -0.069 C  
HETATM    9  C   UNL     1      -8.245   8.169  62.498  1.00  0.00    -0.156 C  
HETATM   10  N   UNL     1      -8.568   8.868  63.755  1.00  0.00    -0.140 N  
HETATM   11  C   UNL     1      -7.954   8.491  64.999  1.00  0.00    -0.131 A  
HETATM   12  C   UNL     1      -9.449   9.971  63.587  1.00  0.00    -0.197 C  
HETATM   13  C   UNL     1      -7.394   9.493  65.812  1.00  0.00    -0.097 A  
HETATM   14  O   UNL     1      -9.818  10.317  62.460  1.00  0.00    -0.193 OA 
HETATM   15  C   UNL     1      -8.028   7.173  65.522  1.00  0.00    -0.122 A  
HETATM   16  C   UNL     1      -7.076   9.248  67.153  1.00  0.00    -0.086 A  
HETATM   17  C   UNL     1      -7.713   6.946  66.874  1.00  0.00    -0.099 A  
HETATM   18  C   UNL     1      -7.270   7.982  67.693  1.00  0.00    -0.091 A  
ENDROOT
BRANCH  12  19
HETATM   19  C   UNL     1      -9.957  10.792  64.730  1.00  0.00    -0.382 A  
HETATM   20  C   UNL     1      -9.477  12.103  64.844  1.00  0.00     0.107 A  
HETATM   21  C   UNL     1     -10.470  12.317  67.047  1.00  0.00    -0.216 A  
HETATM   22  C   UNL     1     -11.011  11.037  66.903  1.00  0.00    -0.311 A  
HETATM   23  C   UNL     1      -9.748  12.865  65.986  1.00  0.00    -0.228 A  
HETATM   24  C   UNL     1     -10.825  10.317  65.715  1.00  0.00     0.188 A  
BRANCH  21  25
HETATM   25  N   UNL     1     -10.654  12.991  68.274  1.00  0.00    -0.241 N  
HETATM   26  C   UNL     1     -11.487  14.092  68.454  1.00  0.00    -0.306 C  
HETATM   27  H   UNL     1     -10.140  12.648  69.086  1.00  0.00     0.000 HD 
HETATM   28  O   UNL     1     -12.228  14.549  67.595  1.00  0.00    -0.298 OA 
BRANCH  26  29
HETATM   29  C   UNL     1     -11.561  14.689  69.828  1.00  0.00    -0.341 A  
HETATM   30  C   UNL     1     -12.361  14.022  70.788  1.00  0.00    -0.443 A  
HETATM   31  C   UNL     1     -12.651  14.605  72.020  1.00  0.00    -0.408 A  
HETATM   32  C   UNL     1     -12.152  15.861  72.314  1.00  0.00    -0.597 A  
HETATM   33  C   UNL     1     -11.321  16.508  71.397  1.00  0.00    -0.025 A  
HETATM   34  C   UNL     1     -10.992  15.957  70.131  1.00  0.00    -0.369 A  
BRANCH  34  35
HETATM   35  C   UNL     1     -10.065  16.751  69.257  1.00  0.00    -0.240 A  
HETATM   36  C   UNL     1      -8.665  16.701  69.377  1.00  0.00     0.124 A  
HETATM   37  C   UNL     1      -7.827  17.512  68.596  1.00  0.00    -0.272 A  
HETATM   38  C   UNL     1      -8.369  18.427  67.699  1.00  0.00    -0.260 A  
HETATM   39  C   UNL     1      -9.747  18.504  67.554  1.00  0.00    -0.318 A  
HETATM   40  C   UNL     1     -10.577  17.662  68.305  1.00  0.00    -0.342 A  
ENDBRANCH  34  35
ENDBRANCH  26  29
ENDBRANCH  21  25
ENDBRANCH  12  19
TORSDOF 4
ENDMDL
MODEL       56
REMARK 921   NORMALIZED FREE ENERGY PREDICTED BY IDOCK:   -5.93 KCAL/MOL
REMARK 922        TOTAL FREE ENERGY PREDICTED BY IDOCK:   -8.79 KCAL/MOL
REMARK 923 INTER-LIGAND FREE ENERGY PREDICTED BY IDOCK:   -7.36 KCAL/MOL
REMARK 924 INTRA-LIGAND FREE ENERGY PREDICTED BY IDOCK:   -1.43 KCAL/MOL
REMARK 927      BINDING AFFINITY PREDICTED BY RF-SCORE:    0.00 PKD
ROOT
HETATM    1  C   UNL     1     -11.607   4.333  73.137  1.00  0.00    -0.129 C  
HETATM    2  C   UNL     1     -10.580   4.788  72.172  1.00  0.00    -0.134 A  
HETATM    3  N   UNL     1     -10.131   6.018  72.013  1.00  0.00    -0.184 NA 
HETATM    4  C   UNL     1      -9.214   5.945  70.995  1.00  0.00    -0.150 A  
HETATM    5  H   UNL     1     -10.407   6.848  72.537  1.00  0.00     0.000 HD 
HETATM    6  C   UNL     1      -9.070   4.650  70.567  1.00  0.00    -0.120 A  
HETATM    7  N   UNL     1      -9.952   3.918  71.312  1.00  0.00    -0.156 NA 
HETATM    8  C   UNL     1      -8.175   4.137  69.512  1.00  0.00    -0.067 C  
HETATM    9  C   UNL     1      -8.499   4.835  68.192  1.00  0.00    -0.101 C  
HETATM   10  N   UNL     1      -8.427   6.305  68.108  1.00  0.00    -0.114 N  
HETATM   11  C   UNL     1      -7.881   7.089  69.182  1.00  0.00    -0.114 A  
HETATM   12  C   UNL     1      -8.857   6.829  66.859  1.00  0.00    -0.119 C  
HETATM   13  C   UNL     1      -6.921   8.074  68.885  1.00  0.00    -0.062 A  
HETATM   14  O   UNL     1      -9.178   6.074  65.934  1.00  0.00    -0.146 OA 
HETATM   15  C   UNL     1      -8.381   7.026  70.509  1.00  0.00    -0.132 A  
HETATM   16  C   UNL     1      -6.592   9.071  69.811  1.00  0.00    -0.045 A  
HETATM   17  C   UNL     1      -8.047   8.040  71.424  1.00  0.00    -0.118 A  
HETATM   18  C   UNL     1      -7.183   9.074  71.069  1.00  0.00    -0.114 A  
ENDROOT
BRANCH  12  19
HETATM   19  C   UNL     1      -8.923   8.295  66.567  1.00  0.00    -0.189 A  
HETATM   20  C   UNL     1      -7.898   8.843  65.786  1.00  0.00    -0.099 A  
HETATM   21  C   UNL     1      -8.660  11.090  66.289  1.00  0.00    -0.167 A  
HETATM   22  C   UNL     1      -9.726  10.544  67.008  1.00  0.00    -0.212 A  
HETATM   23  C   UNL     1      -7.779  10.229  65.634  1.00  0.00    -0.148 A  
HETATM   24  C   UNL     1      -9.902   9.154  67.072  1.00  0.00    -0.267 A  
BRANCH  21  25
HETATM   25  N   UNL     1      -8.503  12.494  66.282  1.00  0.00    -0.382 N  
HETATM   26  C   UNL     1      -7.967  13.234  67.331  1.00  0.00    -0.170 C  
HETATM   27  H   UNL     1      -8.804  13.001  65.449  1.00  0.00     0.000 HD 
HETATM   28  O   UNL     1      -7.483  12.751  68.346  1.00  0.00    -0.112 OA 
BRANCH  26  29
HETATM   29  C   UNL     1      -7.876  14.721  67.157  1.00  0.00    -0.180 A  
HETATM   30  C   UNL     1      -6.660  15.350  67.520  1.00  0.00    -0.191 A  
HETATM   31  C   UNL     1      -6.553  16.737  67.583  1.00  0.00    -0.165 A  
HETATM   32  C   UNL     1      -7.654  17.520  67.289  1.00  0.00    -0.217 A  
HETATM   33  C   UNL     1      -8.845  16.915  66.882  1.00  0.00    -0.248 A  
HETATM   34  C   UNL     1      -9.006  15.508  66.797  1.00  0.00    -0.295 A  
BRANCH  34  35
HETATM   35  C   UNL     1     -10.333  14.997  66.318  1.00  0.00    -0.304 A  
HETATM   36  C   UNL     1     -11.319  14.489  67.183  1.00  0.00    -0.361 A  
HETATM   37  C   UNL     1     -12.521  13.949  66.699  1.00  0.00    -0.313 A  
HETATM   38  C   UNL     1     -12.753  13.863  65.329  1.00  0.00    -0.485 A  
HETATM   39  C   UNL     1     -11.802  14.354  64.445  1.00  0.00    -0.433 A  
HETATM   40  C   UNL     1     -10.624  14.931  64.936  1.00  0.00    -0.417 A  
ENDBRANCH  34  35
ENDBRANCH  26  29
ENDBRANCH  21  25
ENDBRANCH  12  19
TORSDOF 4
ENDMDL
MODEL       57
REMARK 921   NORMALIZED FREE ENERGY PREDICTED BY IDOCK:   -5.90 KCAL/MOL
REMARK 922        TOTAL FREE ENERGY PREDICTED BY IDOCK:   -8.75 KCAL/MOL
REMARK 923 INTER-LIGAND FREE ENERGY PREDICTED BY IDOCK:   -7.61 KCAL/MOL
REMARK 924 INTRA-LIGAND FREE ENERGY PREDICTED BY IDOCK:   -1.15 KCAL/MOL
REMARK 927      BINDING AFFINITY PREDICTED BY RF-SCORE:    0.00 PKD
ROOT
HETATM    1  C   UNL     1     -11.535   2.120  62.540  1.00  0.00    -0.132 C  
HETATM    2  C   UNL     1     -10.558   2.941  63.290  1.00  0.00    -0.222 A  
HETATM    3  N   UNL     1     -10.816   3.764  64.289  1.00  0.00    -0.510 NA 
HETATM    4  C   UNL     1      -9.605   4.307  64.637  1.00  0.00    -0.157 A  
HETATM    5  H   UNL     1     -11.723   3.955  64.712  1.00  0.00     0.000 HD 
HETATM    6  C   UNL     1      -8.598   3.771  63.876  1.00  0.00    -0.093 A  
HETATM    7  N   UNL     1      -9.212   2.910  63.011  1.00  0.00    -0.094 NA 
HETATM    8  C   UNL     1      -7.153   4.064  63.945  1.00  0.00    -0.050 C  
HETATM    9  C   UNL     1      -6.929   5.555  63.699  1.00  0.00    -0.046 C  
HETATM   10  N   UNL     1      -7.587   6.545  64.570  1.00  0.00    -0.094 N  
HETATM   11  C   UNL     1      -8.287   6.145  65.760  1.00  0.00    -0.143 A  
HETATM   12  C   UNL     1      -7.382   7.892  64.165  1.00  0.00    -0.097 C  
HETATM   13  C   UNL     1      -8.021   6.819  66.966  1.00  0.00    -0.109 A  
HETATM   14  O   UNL     1      -6.645   8.157  63.209  1.00  0.00    -0.079 OA 
HETATM   15  C   UNL     1      -9.353   5.207  65.744  1.00  0.00    -0.163 A  
HETATM   16  C   UNL     1      -8.877   6.706  68.067  1.00  0.00    -0.115 A  
HETATM   17  C   UNL     1     -10.209   5.112  66.857  1.00  0.00    -0.279 A  
HETATM   18  C   UNL     1      -9.991   5.879  67.999  1.00  0.00    -0.161 A  
ENDROOT
BRANCH  12  19
HETATM   19  C   UNL     1      -8.001   9.060  64.866  1.00  0.00    -0.126 A  
HETATM   20  C   UNL     1      -7.136   9.977  65.475  1.00  0.00    -0.132 A  
HETATM   21  C   UNL     1      -9.001  11.061  66.584  1.00  0.00    -0.168 A  
HETATM   22  C   UNL     1      -9.872  10.193  65.920  1.00  0.00    -0.308 A  
HETATM   23  C   UNL     1      -7.635  10.981  66.313  1.00  0.00    -0.111 A  
HETATM   24  C   UNL     1      -9.377   9.257  65.001  1.00  0.00    -0.196 A  
BRANCH  21  25
HETATM   25  N   UNL     1      -9.542  11.964  67.526  1.00  0.00    -0.173 N  
HETATM   26  C   UNL     1      -9.892  13.282  67.245  1.00  0.00    -0.233 C  
HETATM   27  H   UNL     1      -9.685  11.628  68.478  1.00  0.00     0.000 HD 
HETATM   28  O   UNL     1      -9.861  13.787  66.131  1.00  0.00    -0.294 OA 
BRANCH  26  29
HETATM   29  C   UNL     1     -10.451  14.106  68.367  1.00  0.00    -0.254 A  
HETATM   30  C   UNL     1     -11.407  13.494  69.214  1.00  0.00    -0.317 A  
HETATM   31  C   UNL     1     -12.125  14.235  70.150  1.00  0.00    -0.403 A  
HETATM   32  C   UNL     1     -11.904  15.596  70.256  1.00  0.00    -0.386 A  
HETATM   33  C   UNL     1     -10.930  16.203  69.462  1.00  0.00    -0.341 A  
HETATM   34  C   UNL     1     -10.168  15.495  68.497  1.00  0.00    -0.215 A  
BRANCH  34  35
HETATM   35  C   UNL     1      -9.135  16.270  67.733  1.00  0.00    -0.195 A  
HETATM   36  C   UNL     1      -7.761  15.974  67.783  1.00  0.00    -0.154 A  
HETATM   37  C   UNL     1      -6.810  16.764  67.117  1.00  0.00    -0.231 A  
HETATM   38  C   UNL     1      -7.205  17.898  66.414  1.00  0.00    -0.298 A  
HETATM   39  C   UNL     1      -8.553  18.221  66.343  1.00  0.00    -0.262 A  
HETATM   40  C   UNL     1      -9.501  17.405  66.973  1.00  0.00    -0.268 A  
ENDBRANCH  34  35
ENDBRANCH  26  29
ENDBRANCH  21  25
ENDBRANCH  12  19
TORSDOF 4
ENDMDL
MODEL       58
REMARK 921   NORMALIZED FREE ENERGY PREDICTED BY IDOCK:   -5.89 KCAL/MOL
REMARK 922        TOTAL FREE ENERGY PREDICTED BY IDOCK:   -8.75 KCAL/MOL
REMARK 923 INTER-LIGAND FREE ENERGY PREDICTED BY IDOCK:   -7.29 KCAL/MOL
REMARK 924 INTRA-LIGAND FREE ENERGY PREDICTED BY IDOCK:   -1.46 KCAL/MOL
REMARK 927      BINDING AFFINITY PREDICTED BY RF-SCORE:    0.00 PKD
ROOT
HETATM    1  C   UNL     1      -9.762   1.861  68.238  1.00  0.00     0.007 C  
HETATM    2  C   UNL     1      -9.338   3.023  69.051  1.00  0.00    -0.156 A  
HETATM    3  N   UNL     1      -9.974   4.170  69.186  1.00  0.00    -0.039 NA 
HETATM    4  C   UNL     1      -9.186   4.931  70.012  1.00  0.00    -0.127 A  
HETATM    5  H   UNL     1     -10.865   4.436  68.765  1.00  0.00     0.000 HD 
HETATM    6  C   UNL     1      -8.087   4.220  70.420  1.00  0.00    -0.059 A  
HETATM    7  N   UNL     1      -8.182   3.009  69.795  1.00  0.00    -0.044 NA 
HETATM    8  C   UNL     1      -7.007   4.659  71.325  1.00  0.00    -0.042 C  
HETATM    9  C   UNL     1      -6.337   5.903  70.744  1.00  0.00    -0.039 C  
HETATM   10  N   UNL     1      -7.145   7.103  70.464  1.00  0.00    -0.062 N  
HETATM   11  C   UNL     1      -8.513   7.199  70.894  1.00  0.00    -0.133 A  
HETATM   12  C   UNL     1      -6.420   8.146  69.827  1.00  0.00    -0.036 C  
HETATM   13  C   UNL     1      -8.934   8.359  71.571  1.00  0.00    -0.251 A  
HETATM   14  O   UNL     1      -5.207   8.037  69.620  1.00  0.00    -0.022 OA 
HETATM   15  C   UNL     1      -9.501   6.248  70.528  1.00  0.00    -0.175 A  
HETATM   16  C   UNL     1     -10.292   8.657  71.729  1.00  0.00    -0.386 A  
HETATM   17  C   UNL     1     -10.862   6.566  70.687  1.00  0.00    -0.317 A  
HETATM   18  C   UNL     1     -11.257   7.776  71.255  1.00  0.00    -0.280 A  
ENDROOT
BRANCH  12  19
HETATM   19  C   UNL     1      -7.050   9.435  69.397  1.00  0.00    -0.054 A  
HETATM   20  C   UNL     1      -7.953   9.385  68.329  1.00  0.00    -0.094 A  
HETATM   21  C   UNL     1      -7.984  11.807  68.191  1.00  0.00    -0.146 A  
HETATM   22  C   UNL     1      -7.140  11.859  69.303  1.00  0.00    -0.004 A  
HETATM   23  C   UNL     1      -8.430  10.563  67.742  1.00  0.00    -0.114 A  
HETATM   24  C   UNL     1      -6.748  10.680  69.952  1.00  0.00    -0.147 A  
BRANCH  21  25
HETATM   25  N   UNL     1      -8.325  13.018  67.548  1.00  0.00    -0.172 N  
HETATM   26  C   UNL     1      -9.530  13.693  67.725  1.00  0.00    -0.221 C  
HETATM   27  H   UNL     1      -7.642  13.426  66.911  1.00  0.00     0.000 HD 
HETATM   28  O   UNL     1     -10.397  13.369  68.525  1.00  0.00    -0.240 OA 
BRANCH  26  29
HETATM   29  C   UNL     1      -9.729  14.968  66.960  1.00  0.00    -0.241 A  
HETATM   30  C   UNL     1      -9.276  16.168  67.559  1.00  0.00    -0.210 A  
HETATM   31  C   UNL     1      -9.596  17.412  67.021  1.00  0.00    -0.273 A  
HETATM   32  C   UNL     1     -10.374  17.481  65.880  1.00  0.00    -0.265 A  
HETATM   33  C   UNL     1     -10.786  16.305  65.250  1.00  0.00    -0.349 A  
HETATM   34  C   UNL     1     -10.484  15.013  65.754  1.00  0.00    -0.353 A  
BRANCH  34  35
HETATM   35  C   UNL     1     -10.968  13.836  64.960  1.00  0.00    -0.359 A  
HETATM   36  C   UNL     1     -12.328  13.497  64.839  1.00  0.00    -0.447 A  
HETATM   37  C   UNL     1     -12.744  12.347  64.151  1.00  0.00    -0.446 A  
HETATM   38  C   UNL     1     -11.807  11.479  63.598  1.00  0.00    -0.238 A  
HETATM   39  C   UNL     1     -10.456  11.781  63.698  1.00  0.00    -0.490 A  
HETATM   40  C   UNL     1     -10.049  12.953  64.348  1.00  0.00    -0.265 A  
ENDBRANCH  34  35
ENDBRANCH  26  29
ENDBRANCH  21  25
ENDBRANCH  12  19
TORSDOF 4
ENDMDL
MODEL       59
REMARK 921   NORMALIZED FREE ENERGY PREDICTED BY IDOCK:   -5.89 KCAL/MOL
REMARK 922        TOTAL FREE ENERGY PREDICTED BY IDOCK:   -8.74 KCAL/MOL
REMARK 923 INTER-LIGAND FREE ENERGY PREDICTED BY IDOCK:   -7.49 KCAL/MOL
REMARK 924 INTRA-LIGAND FREE ENERGY PREDICTED BY IDOCK:   -1.26 KCAL/MOL
REMARK 927      BINDING AFFINITY PREDICTED BY RF-SCORE:    0.00 PKD
ROOT
HETATM    1  C   UNL     1      -6.369   3.492  71.803  1.00  0.00    -0.015 C  
HETATM    2  C   UNL     1      -6.753   4.071  70.495  1.00  0.00    -0.033 A  
HETATM    3  N   UNL     1      -6.307   5.193  69.964  1.00  0.00    -0.025 NA 
HETATM    4  C   UNL     1      -6.965   5.318  68.766  1.00  0.00    -0.060 A  
HETATM    5  H   UNL     1      -5.619   5.833  70.359  1.00  0.00     0.000 HD 
HETATM    6  C   UNL     1      -7.779   4.236  68.547  1.00  0.00    -0.070 A  
HETATM    7  N   UNL     1      -7.650   3.451  69.658  1.00  0.00    -0.045 NA 
HETATM    8  C   UNL     1      -8.638   3.968  67.377  1.00  0.00    -0.107 C  
HETATM    9  C   UNL     1      -9.639   5.111  67.214  1.00  0.00    -0.142 C  
HETATM   10  N   UNL     1      -9.149   6.492  67.052  1.00  0.00    -0.125 N  
HETATM   11  C   UNL     1      -7.752   6.771  66.857  1.00  0.00    -0.103 A  
HETATM   12  C   UNL     1     -10.183   7.466  67.020  1.00  0.00    -0.287 C  
HETATM   13  C   UNL     1      -7.369   7.629  65.810  1.00  0.00    -0.070 A  
HETATM   14  O   UNL     1     -11.370   7.128  67.051  1.00  0.00    -0.153 OA 
HETATM   15  C   UNL     1      -6.751   6.349  67.771  1.00  0.00    -0.064 A  
HETATM   16  C   UNL     1      -6.089   8.191  65.761  1.00  0.00    -0.041 A  
HETATM   17  C   UNL     1      -5.471   6.929  67.712  1.00  0.00    -0.016 A  
HETATM   18  C   UNL     1      -5.150   7.867  66.734  1.00  0.00    -0.027 A  
ENDROOT
BRANCH  12  19
HETATM   19  C   UNL     1      -9.917   8.936  66.919  1.00  0.00    -0.315 A  
HETATM   20  C   UNL     1      -9.454   9.587  68.068  1.00  0.00    -0.147 A  
HETATM   21  C   UNL     1      -9.785  11.751  67.024  1.00  0.00    -0.185 A  
HETATM   22  C   UNL     1     -10.178  11.101  65.852  1.00  0.00    -0.303 A  
HETATM   23  C   UNL     1      -9.371  10.983  68.114  1.00  0.00    -0.173 A  
HETATM   24  C   UNL     1     -10.160   9.701  65.776  1.00  0.00    -0.274 A  
BRANCH  21  25
HETATM   25  N   UNL     1      -9.852  13.162  67.066  1.00  0.00    -0.238 N  
HETATM   26  C   UNL     1     -11.033  13.894  67.152  1.00  0.00    -0.291 C  
HETATM   27  H   UNL     1      -8.974  13.680  67.030  1.00  0.00     0.000 HD 
HETATM   28  O   UNL     1     -12.145  13.404  67.295  1.00  0.00    -0.361 OA 
BRANCH  26  29
HETATM   29  C   UNL     1     -10.921  15.390  67.182  1.00  0.00    -0.317 A  
HETATM   30  C   UNL     1     -10.465  16.035  66.007  1.00  0.00    -0.356 A  
HETATM   31  C   UNL     1     -10.139  17.389  66.005  1.00  0.00    -0.273 A  
HETATM   32  C   UNL     1     -10.259  18.122  67.172  1.00  0.00    -0.376 A  
HETATM   33  C   UNL     1     -10.754  17.509  68.325  1.00  0.00    -0.309 A  
HETATM   34  C   UNL     1     -11.104  16.135  68.381  1.00  0.00    -0.359 A  
BRANCH  34  35
HETATM   35  C   UNL     1     -11.650  15.617  69.679  1.00  0.00    -0.364 A  
HETATM   36  C   UNL     1     -13.011  15.325  69.878  1.00  0.00     0.079 A  
HETATM   37  C   UNL     1     -13.503  14.913  71.127  1.00  0.00    -0.474 A  
HETATM   38  C   UNL     1     -12.653  14.822  72.224  1.00  0.00    -0.414 A  
HETATM   39  C   UNL     1     -11.303  15.102  72.064  1.00  0.00    -0.358 A  
HETATM   40  C   UNL     1     -10.810  15.471  70.806  1.00  0.00    -0.298 A  
ENDBRANCH  34  35
ENDBRANCH  26  29
ENDBRANCH  21  25
ENDBRANCH  12  19
TORSDOF 4
ENDMDL
MODEL       60
REMARK 921   NORMALIZED FREE ENERGY PREDICTED BY IDOCK:   -5.80 KCAL/MOL
REMARK 922        TOTAL FREE ENERGY PREDICTED BY IDOCK:   -8.64 KCAL/MOL
REMARK 923 INTER-LIGAND FREE ENERGY PREDICTED BY IDOCK:   -7.38 KCAL/MOL
REMARK 924 INTRA-LIGAND FREE ENERGY PREDICTED BY IDOCK:   -1.26 KCAL/MOL
REMARK 927      BINDING AFFINITY PREDICTED BY RF-SCORE:    0.00 PKD
ROOT
HETATM    1  C   UNL     1      -9.969   3.725  71.724  1.00  0.00    -0.227 C  
HETATM    2  C   UNL     1      -9.290   4.652  70.791  1.00  0.00    -0.151 A  
HETATM    3  N   UNL     1      -9.287   5.970  70.844  1.00  0.00    -0.160 NA 
HETATM    4  C   UNL     1      -8.548   6.379  69.763  1.00  0.00    -0.138 A  
HETATM    5  H   UNL     1      -9.739   6.560  71.542  1.00  0.00     0.000 HD 
HETATM    6  C   UNL     1      -8.057   5.297  69.076  1.00  0.00    -0.086 A  
HETATM    7  N   UNL     1      -8.543   4.199  69.729  1.00  0.00    -0.063 NA 
HETATM    8  C   UNL     1      -7.202   5.298  67.874  1.00  0.00    -0.071 C  
HETATM    9  C   UNL     1      -7.915   6.045  66.748  1.00  0.00    -0.102 C  
HETATM   10  N   UNL     1      -8.332   7.444  66.951  1.00  0.00    -0.119 N  
HETATM   11  C   UNL     1      -7.921   8.184  68.113  1.00  0.00    -0.127 A  
HETATM   12  C   UNL     1      -9.079   7.982  65.869  1.00  0.00    -0.106 C  
HETATM   13  C   UNL     1      -7.381   9.472  67.943  1.00  0.00    -0.083 A  
HETATM   14  O   UNL     1      -9.266   7.322  64.841  1.00  0.00     0.619 OA 
HETATM   15  C   UNL     1      -8.184   7.742  69.436  1.00  0.00    -0.131 A  
HETATM   16  C   UNL     1      -7.263  10.360  69.019  1.00  0.00    -0.088 A  
HETATM   17  C   UNL     1      -8.068   8.649  70.505  1.00  0.00    -0.115 A  
HETATM   18  C   UNL     1      -7.641   9.959  70.295  1.00  0.00    -0.172 A  
ENDROOT
BRANCH  12  19
HETATM   19  C   UNL     1      -9.653   9.365  65.879  1.00  0.00    -0.338 A  
HETATM   20  C   UNL     1      -9.217  10.250  64.886  1.00  0.00    -0.273 A  
HETATM   21  C   UNL     1     -10.295  12.108  66.012  1.00  0.00    -0.237 A  
HETATM   22  C   UNL     1     -10.791  11.214  66.964  1.00  0.00    -0.338 A  
HETATM   23  C   UNL     1      -9.551  11.607  64.943  1.00  0.00    -0.173 A  
HETATM   24  C   UNL     1     -10.541   9.840  66.846  1.00  0.00    -0.243 A  
BRANCH  21  25
HETATM   25  N   UNL     1     -10.543  13.487  66.191  1.00  0.00    -0.286 N  
HETATM   26  C   UNL     1      -9.691  14.363  66.857  1.00  0.00    -0.262 C  
HETATM   27  H   UNL     1     -11.407  13.868  65.806  1.00  0.00     0.000 HD 
HETATM   28  O   UNL     1      -8.584  14.064  67.285  1.00  0.00    -0.197 OA 
BRANCH  26  29
HETATM   29  C   UNL     1     -10.112  15.799  66.958  1.00  0.00    -0.261 A  
HETATM   30  C   UNL     1      -9.666  16.684  65.947  1.00  0.00    -0.269 A  
HETATM   31  C   UNL     1      -9.836  18.062  66.064  1.00  0.00    -0.177 A  
HETATM   32  C   UNL     1     -10.450  18.580  67.190  1.00  0.00    -0.446 A  
HETATM   33  C   UNL     1     -10.939  17.716  68.171  1.00  0.00    -0.089 A  
HETATM   34  C   UNL     1     -10.795  16.306  68.099  1.00  0.00    -0.342 A  
BRANCH  34  35
HETATM   35  C   UNL     1     -11.394  15.497  69.213  1.00  0.00    -0.330 A  
HETATM   36  C   UNL     1     -11.342  15.891  70.562  1.00  0.00    -0.409 A  
HETATM   37  C   UNL     1     -11.845  15.077  71.589  1.00  0.00    -0.441 A  
HETATM   38  C   UNL     1     -12.378  13.824  71.299  1.00  0.00    -0.394 A  
HETATM   39  C   UNL     1     -12.445  13.403  69.978  1.00  0.00    -0.202 A  
HETATM   40  C   UNL     1     -11.982  14.238  68.954  1.00  0.00    -0.356 A  
ENDBRANCH  34  35
ENDBRANCH  26  29
ENDBRANCH  21  25
ENDBRANCH  12  19
TORSDOF 4
ENDMDL
MODEL       61
REMARK 921   NORMALIZED FREE ENERGY PREDICTED BY IDOCK:   -5.79 KCAL/MOL
REMARK 922        TOTAL FREE ENERGY PREDICTED BY IDOCK:   -8.63 KCAL/MOL
REMARK 923 INTER-LIGAND FREE ENERGY PREDICTED BY IDOCK:   -7.42 KCAL/MOL
REMARK 924 INTRA-LIGAND FREE ENERGY PREDICTED BY IDOCK:   -1.21 KCAL/MOL
REMARK 927      BINDING AFFINITY PREDICTED BY RF-SCORE:    0.00 PKD
ROOT
HETATM    1  C   UNL     1     -10.433  19.777  65.371  1.00  0.00    -0.135 C  
HETATM    2  C   UNL     1     -10.201  18.714  66.375  1.00  0.00    -0.425 A  
HETATM    3  N   UNL     1      -9.629  17.543  66.173  1.00  0.00    -0.470 NA 
HETATM    4  C   UNL     1      -9.664  16.904  67.387  1.00  0.00    -0.247 A  
HETATM    5  H   UNL     1      -9.242  17.188  65.299  1.00  0.00     0.000 HD 
HETATM    6  C   UNL     1     -10.218  17.715  68.344  1.00  0.00    -0.381 A  
HETATM    7  N   UNL     1     -10.570  18.863  67.692  1.00  0.00    -0.434 NA 
HETATM    8  C   UNL     1     -10.419  17.421  69.777  1.00  0.00     0.261 C  
HETATM    9  C   UNL     1     -11.298  16.179  69.918  1.00  0.00    -0.317 C  
HETATM   10  N   UNL     1     -10.873  14.911  69.298  1.00  0.00    -0.258 N  
HETATM   11  C   UNL     1      -9.564  14.763  68.722  1.00  0.00    -0.215 A  
HETATM   12  C   UNL     1     -11.831  13.868  69.413  1.00  0.00    -0.334 C  
HETATM   13  C   UNL     1      -8.793  13.638  69.065  1.00  0.00     0.325 A  
HETATM   14  O   UNL     1     -12.876  14.038  70.051  1.00  0.00    -0.200 OA 
HETATM   15  C   UNL     1      -9.077  15.616  67.698  1.00  0.00    -0.193 A  
HETATM   16  C   UNL     1      -7.672  13.268  68.315  1.00  0.00    -0.141 A  
HETATM   17  C   UNL     1      -7.953  15.226  66.947  1.00  0.00    -0.194 A  
HETATM   18  C   UNL     1      -7.273  14.044  67.233  1.00  0.00     0.018 A  
ENDROOT
BRANCH  12  19
HETATM   19  C   UNL     1     -11.639  12.511  68.811  1.00  0.00    -0.366 A  
HETATM   20  C   UNL     1     -11.441  11.439  69.689  1.00  0.00    -0.380 A  
HETATM   21  C   UNL     1     -10.834   9.987  67.844  1.00  0.00    -0.271 A  
HETATM   22  C   UNL     1     -11.101  11.035  66.960  1.00  0.00    -0.311 A  
HETATM   23  C   UNL     1     -11.059  10.183  69.207  1.00  0.00    -0.270 A  
HETATM   24  C   UNL     1     -11.584  12.262  67.438  1.00  0.00    -0.425 A  
BRANCH  21  25
HETATM   25  N   UNL     1     -10.316   8.781  67.321  1.00  0.00    -0.270 N  
HETATM   26  C   UNL     1     -10.346   7.556  67.981  1.00  0.00    -0.204 C  
HETATM   27  H   UNL     1      -9.892   8.810  66.394  1.00  0.00     0.000 HD 
HETATM   28  O   UNL     1     -10.904   7.358  69.052  1.00  0.00    -0.184 OA 
BRANCH  26  29
HETATM   29  C   UNL     1      -9.747   6.374  67.279  1.00  0.00    -0.155 A  
HETATM   30  C   UNL     1     -10.613   5.566  66.504  1.00  0.00    -0.343 A  
HETATM   31  C   UNL     1     -10.193   4.344  65.985  1.00  0.00    -0.246 A  
HETATM   32  C   UNL     1      -8.904   3.906  66.231  1.00  0.00    -0.124 A  
HETATM   33  C   UNL     1      -8.024   4.715  66.952  1.00  0.00    -0.102 A  
HETATM   34  C   UNL     1      -8.400   5.969  67.499  1.00  0.00    -0.108 A  
BRANCH  34  35
HETATM   35  C   UNL     1      -7.343   6.746  68.228  1.00  0.00    -0.093 A  
HETATM   36  C   UNL     1      -7.065   6.569  69.595  1.00  0.00    -0.072 A  
HETATM   37  C   UNL     1      -6.122   7.363  70.266  1.00  0.00    -0.027 A  
HETATM   38  C   UNL     1      -5.458   8.386  69.596  1.00  0.00    -0.030 A  
HETATM   39  C   UNL     1      -5.706   8.589  68.246  1.00  0.00    -0.038 A  
HETATM   40  C   UNL     1      -6.617   7.766  67.572  1.00  0.00    -0.063 A  
ENDBRANCH  34  35
ENDBRANCH  26  29
ENDBRANCH  21  25
ENDBRANCH  12  19
TORSDOF 4
ENDMDL
MODEL       62
REMARK 921   NORMALIZED FREE ENERGY PREDICTED BY IDOCK:   -5.77 KCAL/MOL
REMARK 922        TOTAL FREE ENERGY PREDICTED BY IDOCK:   -8.60 KCAL/MOL
REMARK 923 INTER-LIGAND FREE ENERGY PREDICTED BY IDOCK:   -7.60 KCAL/MOL
REMARK 924 INTRA-LIGAND FREE ENERGY PREDICTED BY IDOCK:   -1.01 KCAL/MOL
REMARK 927      BINDING AFFINITY PREDICTED BY RF-SCORE:    0.00 PKD
ROOT
HETATM    1  C   UNL     1     -10.485   3.223  63.458  1.00  0.00    -0.239 C  
HETATM    2  C   UNL     1      -9.884   3.887  64.637  1.00  0.00    -0.193 A  
HETATM    3  N   UNL     1     -10.432   4.828  65.381  1.00  0.00    -0.481 NA 
HETATM    4  C   UNL     1      -9.491   5.139  66.330  1.00  0.00    -0.156 A  
HETATM    5  H   UNL     1     -11.360   5.238  65.275  1.00  0.00     0.000 HD 
HETATM    6  C   UNL     1      -8.382   4.344  66.189  1.00  0.00    -0.113 A  
HETATM    7  N   UNL     1      -8.633   3.557  65.101  1.00  0.00    -0.109 NA 
HETATM    8  C   UNL     1      -7.158   4.339  67.013  1.00  0.00    -0.067 C  
HETATM    9  C   UNL     1      -6.517   5.726  66.972  1.00  0.00    -0.047 C  
HETATM   10  N   UNL     1      -7.294   6.901  67.404  1.00  0.00    -0.089 N  
HETATM   11  C   UNL     1      -8.576   6.757  68.039  1.00  0.00    -0.122 A  
HETATM   12  C   UNL     1      -6.618   8.137  67.213  1.00  0.00    -0.058 C  
HETATM   13  C   UNL     1      -8.830   7.464  69.228  1.00  0.00    -0.136 A  
HETATM   14  O   UNL     1      -5.456   8.162  66.793  1.00  0.00    -0.031 OA 
HETATM   15  C   UNL     1      -9.656   6.061  67.435  1.00  0.00    -0.118 A  
HETATM   16  C   UNL     1     -10.132   7.625  69.716  1.00  0.00    -0.196 A  
HETATM   17  C   UNL     1     -10.959   6.239  67.933  1.00  0.00    -0.421 A  
HETATM   18  C   UNL     1     -11.201   7.041  69.047  1.00  0.00    -0.054 A  
ENDROOT
BRANCH  12  19
HETATM   19  C   UNL     1      -7.235   9.463  67.528  1.00  0.00    -0.079 A  
HETATM   20  C   UNL     1      -8.030  10.055  66.538  1.00  0.00    -0.115 A  
HETATM   21  C   UNL     1      -8.108  12.133  67.787  1.00  0.00    -0.152 A  
HETATM   22  C   UNL     1      -7.378  11.521  68.808  1.00  0.00    -0.115 A  
HETATM   23  C   UNL     1      -8.477  11.373  66.676  1.00  0.00    -0.171 A  
HETATM   24  C   UNL     1      -7.020  10.169  68.714  1.00  0.00    -0.066 A  
BRANCH  21  25
HETATM   25  N   UNL     1      -8.417  13.506  67.910  1.00  0.00    -0.166 N  
HETATM   26  C   UNL     1      -7.533  14.543  67.624  1.00  0.00    -0.177 C  
HETATM   27  H   UNL     1      -9.352  13.755  68.231  1.00  0.00     0.000 HD 
HETATM   28  O   UNL     1      -6.417  14.392  67.144  1.00  0.00    -0.208 OA 
BRANCH  26  29
HETATM   29  C   UNL     1      -8.025  15.947  67.813  1.00  0.00    -0.154 A  
HETATM   30  C   UNL     1      -7.170  16.855  68.483  1.00  0.00    -0.199 A  
HETATM   31  C   UNL     1      -7.618  18.112  68.882  1.00  0.00    -0.227 A  
HETATM   32  C   UNL     1      -8.925  18.484  68.622  1.00  0.00    -0.323 A  
HETATM   33  C   UNL     1      -9.764  17.618  67.918  1.00  0.00    -0.295 A  
HETATM   34  C   UNL     1      -9.357  16.329  67.487  1.00  0.00    -0.217 A  
BRANCH  34  35
HETATM   35  C   UNL     1     -10.355  15.516  66.716  1.00  0.00    -0.288 A  
HETATM   36  C   UNL     1     -10.433  15.525  65.311  1.00  0.00    -0.437 A  
HETATM   37  C   UNL     1     -11.426  14.812  64.622  1.00  0.00    -0.381 A  
HETATM   38  C   UNL     1     -12.397  14.101  65.321  1.00  0.00    -0.469 A  
HETATM   39  C   UNL     1     -12.351  14.069  66.708  1.00  0.00    -0.368 A  
HETATM   40  C   UNL     1     -11.332  14.747  67.389  1.00  0.00    -0.361 A  
ENDBRANCH  34  35
ENDBRANCH  26  29
ENDBRANCH  21  25
ENDBRANCH  12  19
TORSDOF 4
ENDMDL
MODEL       63
REMARK 921   NORMALIZED FREE ENERGY PREDICTED BY IDOCK:   -5.72 KCAL/MOL
REMARK 922        TOTAL FREE ENERGY PREDICTED BY IDOCK:   -8.54 KCAL/MOL
REMARK 923 INTER-LIGAND FREE ENERGY PREDICTED BY IDOCK:   -6.92 KCAL/MOL
REMARK 924 INTRA-LIGAND FREE ENERGY PREDICTED BY IDOCK:   -1.62 KCAL/MOL
REMARK 927      BINDING AFFINITY PREDICTED BY RF-SCORE:    0.00 PKD
ROOT
HETATM    1  C   UNL     1      -9.290   2.527  64.867  1.00  0.00    -0.112 C  
HETATM    2  C   UNL     1      -9.162   3.542  65.937  1.00  0.00    -0.162 A  
HETATM    3  N   UNL     1      -9.543   4.804  65.883  1.00  0.00    -0.168 NA 
HETATM    4  C   UNL     1      -9.198   5.344  67.096  1.00  0.00    -0.111 A  
HETATM    5  H   UNL     1      -9.998   5.278  65.103  1.00  0.00     0.000 HD 
HETATM    6  C   UNL     1      -8.648   4.387  67.912  1.00  0.00    -0.102 A  
HETATM    7  N   UNL     1      -8.617   3.244  67.164  1.00  0.00    -0.104 NA 
HETATM    8  C   UNL     1      -8.166   4.544  69.298  1.00  0.00    -0.071 C  
HETATM    9  C   UNL     1      -7.070   5.607  69.333  1.00  0.00    -0.065 C  
HETATM   10  N   UNL     1      -7.358   6.968  68.846  1.00  0.00    -0.091 N  
HETATM   11  C   UNL     1      -8.696   7.374  68.511  1.00  0.00    -0.127 A  
HETATM   12  C   UNL     1      -6.224   7.825  68.834  1.00  0.00    -0.036 C  
HETATM   13  C   UNL     1      -9.189   8.587  69.026  1.00  0.00    -0.146 A  
HETATM   14  O   UNL     1      -5.137   7.438  69.276  1.00  0.00    -0.014 OA 
HETATM   15  C   UNL     1      -9.488   6.687  67.554  1.00  0.00    -0.135 A  
HETATM   16  C   UNL     1     -10.334   9.191  68.495  1.00  0.00    -0.236 A  
HETATM   17  C   UNL     1     -10.632   7.312  67.024  1.00  0.00    -0.415 A  
HETATM   18  C   UNL     1     -11.035   8.569  67.469  1.00  0.00     0.095 A  
ENDROOT
BRANCH  12  19
HETATM   19  C   UNL     1      -6.269   9.233  68.328  1.00  0.00    -0.053 A  
HETATM   20  C   UNL     1      -6.176  10.260  69.274  1.00  0.00    -0.045 A  
HETATM   21  C   UNL     1      -6.769  11.911  67.599  1.00  0.00    -0.105 A  
HETATM   22  C   UNL     1      -6.790  10.896  66.638  1.00  0.00    -0.127 A  
HETATM   23  C   UNL     1      -6.406  11.591  68.908  1.00  0.00    -0.059 A  
HETATM   24  C   UNL     1      -6.457   9.580  66.988  1.00  0.00    -0.067 A  
BRANCH  21  25
HETATM   25  N   UNL     1      -7.145  13.215  67.207  1.00  0.00    -0.339 N  
HETATM   26  C   UNL     1      -8.321  13.849  67.599  1.00  0.00    -0.181 C  
HETATM   27  H   UNL     1      -6.511  13.728  66.594  1.00  0.00     0.000 HD 
HETATM   28  O   UNL     1      -9.123  13.390  68.402  1.00  0.00    -0.189 OA 
BRANCH  26  29
HETATM   29  C   UNL     1      -8.565  15.237  67.087  1.00  0.00    -0.236 A  
HETATM   30  C   UNL     1      -7.669  16.253  67.497  1.00  0.00    -0.169 A  
HETATM   31  C   UNL     1      -7.929  17.597  67.239  1.00  0.00    -0.222 A  
HETATM   32  C   UNL     1      -9.087  17.950  66.570  1.00  0.00    -0.276 A  
HETATM   33  C   UNL     1      -9.955  16.956  66.116  1.00  0.00    -0.332 A  
HETATM   34  C   UNL     1      -9.735  15.573  66.349  1.00  0.00    -0.306 A  
BRANCH  34  35
HETATM   35  C   UNL     1     -10.737  14.613  65.779  1.00  0.00    -0.321 A  
HETATM   36  C   UNL     1     -10.485  13.826  64.640  1.00  0.00    -0.433 A  
HETATM   37  C   UNL     1     -11.469  12.992  64.086  1.00  0.00    -0.452 A  
HETATM   38  C   UNL     1     -12.748  12.953  64.632  1.00  0.00    -0.403 A  
HETATM   39  C   UNL     1     -13.033  13.716  65.756  1.00  0.00    -0.252 A  
HETATM   40  C   UNL     1     -12.035  14.513  66.330  1.00  0.00    -0.350 A  
ENDBRANCH  34  35
ENDBRANCH  26  29
ENDBRANCH  21  25
ENDBRANCH  12  19
TORSDOF 4
ENDMDL
MODEL       64
REMARK 921   NORMALIZED FREE ENERGY PREDICTED BY IDOCK:   -5.72 KCAL/MOL
REMARK 922        TOTAL FREE ENERGY PREDICTED BY IDOCK:   -8.53 KCAL/MOL
REMARK 923 INTER-LIGAND FREE ENERGY PREDICTED BY IDOCK:   -7.93 KCAL/MOL
REMARK 924 INTRA-LIGAND FREE ENERGY PREDICTED BY IDOCK:   -0.60 KCAL/MOL
REMARK 927      BINDING AFFINITY PREDICTED BY RF-SCORE:    0.00 PKD
ROOT
HETATM    1  C   UNL     1      -7.470   2.325  63.250  1.00  0.00    -0.053 C  
HETATM    2  C   UNL     1      -7.744   2.913  64.581  1.00  0.00    -0.077 A  
HETATM    3  N   UNL     1      -8.467   3.985  64.840  1.00  0.00    -0.111 NA 
HETATM    4  C   UNL     1      -8.410   4.146  66.201  1.00  0.00    -0.109 A  
HETATM    5  H   UNL     1      -8.964   4.571  64.170  1.00  0.00     0.000 HD 
HETATM    6  C   UNL     1      -7.686   3.132  66.777  1.00  0.00    -0.076 A  
HETATM    7  N   UNL     1      -7.253   2.357  65.739  1.00  0.00    -0.063 NA 
HETATM    8  C   UNL     1      -7.404   2.919  68.210  1.00  0.00    -0.049 C  
HETATM    9  C   UNL     1      -6.672   4.139  68.767  1.00  0.00    -0.046 C  
HETATM   10  N   UNL     1      -7.295   5.471  68.668  1.00  0.00    -0.074 N  
HETATM   11  C   UNL     1      -8.655   5.629  68.230  1.00  0.00    -0.107 A  
HETATM   12  C   UNL     1      -6.463   6.529  69.125  1.00  0.00    -0.040 C  
HETATM   13  C   UNL     1      -9.526   6.435  68.986  1.00  0.00    -0.131 A  
HETATM   14  O   UNL     1      -5.357   6.292  69.623  1.00  0.00    -0.012 OA 
HETATM   15  C   UNL     1      -9.120   5.139  66.981  1.00  0.00    -0.112 A  
HETATM   16  C   UNL     1     -10.741   6.886  68.460  1.00  0.00    -0.252 A  
HETATM   17  C   UNL     1     -10.340   5.609  66.463  1.00  0.00    -0.287 A  
HETATM   18  C   UNL     1     -11.132   6.501  67.183  1.00  0.00    -0.434 A  
ENDROOT
BRANCH  12  19
HETATM   19  C   UNL     1      -6.866   7.969  69.068  1.00  0.00    -0.057 A  
HETATM   20  C   UNL     1      -7.431   8.526  70.222  1.00  0.00    -0.064 A  
HETATM   21  C   UNL     1      -8.069  10.519  68.996  1.00  0.00    -0.143 A  
HETATM   22  C   UNL     1      -7.442   9.996  67.863  1.00  0.00    -0.089 A  
HETATM   23  C   UNL     1      -8.011   9.799  70.190  1.00  0.00    -0.201 A  
HETATM   24  C   UNL     1      -6.771   8.767  67.926  1.00  0.00    -0.066 A  
BRANCH  21  25
HETATM   25  N   UNL     1      -8.762  11.744  68.876  1.00  0.00    -0.371 N  
HETATM   26  C   UNL     1      -9.778  11.990  67.957  1.00  0.00    -0.198 C  
HETATM   27  H   UNL     1      -8.500  12.502  69.507  1.00  0.00     0.000 HD 
HETATM   28  O   UNL     1     -10.255  11.149  67.207  1.00  0.00    -0.184 OA 
BRANCH  26  29
HETATM   29  C   UNL     1     -10.406  13.353  67.965  1.00  0.00    -0.242 A  
HETATM   30  C   UNL     1      -9.914  14.304  67.039  1.00  0.00    -0.258 A  
HETATM   31  C   UNL     1     -10.291  15.643  67.107  1.00  0.00    -0.285 A  
HETATM   32  C   UNL     1     -11.162  16.057  68.100  1.00  0.00    -0.325 A  
HETATM   33  C   UNL     1     -11.693  15.120  68.988  1.00  0.00    -0.358 A  
HETATM   34  C   UNL     1     -11.345  13.745  68.960  1.00  0.00    -0.333 A  
BRANCH  34  35
HETATM   35  C   UNL     1     -12.014  12.846  69.958  1.00  0.00    -0.380 A  
HETATM   36  C   UNL     1     -12.688  13.328  71.095  1.00  0.00    -0.404 A  
HETATM   37  C   UNL     1     -13.239  12.460  72.051  1.00  0.00    -0.514 A  
HETATM   38  C   UNL     1     -13.096  11.083  71.916  1.00  0.00    -0.525 A  
HETATM   39  C   UNL     1     -12.438  10.571  70.807  1.00  0.00    -0.472 A  
HETATM   40  C   UNL     1     -11.927  11.441  69.835  1.00  0.00    -0.434 A  
ENDBRANCH  34  35
ENDBRANCH  26  29
ENDBRANCH  21  25
ENDBRANCH  12  19
TORSDOF 4
ENDMDL
MODEL       65
REMARK 921   NORMALIZED FREE ENERGY PREDICTED BY IDOCK:   -5.68 KCAL/MOL
REMARK 922        TOTAL FREE ENERGY PREDICTED BY IDOCK:   -8.48 KCAL/MOL
REMARK 923 INTER-LIGAND FREE ENERGY PREDICTED BY IDOCK:   -7.38 KCAL/MOL
REMARK 924 INTRA-LIGAND FREE ENERGY PREDICTED BY IDOCK:   -1.10 KCAL/MOL
REMARK 927      BINDING AFFINITY PREDICTED BY RF-SCORE:    0.00 PKD
ROOT
HETATM    1  C   UNL     1     -10.966  20.567  64.989  1.00  0.00     0.854 C  
HETATM    2  C   UNL     1     -10.588  19.580  66.026  1.00  0.00    -0.491 A  
HETATM    3  N   UNL     1     -10.216  18.329  65.832  1.00  0.00    -0.587 NA 
HETATM    4  C   UNL     1      -9.993  17.815  67.084  1.00  0.00    -0.322 A  
HETATM    5  H   UNL     1     -10.116  17.847  64.940  1.00  0.00     0.000 HD 
HETATM    6  C   UNL     1     -10.183  18.778  68.043  1.00  0.00    -0.386 A  
HETATM    7  N   UNL     1     -10.574  19.897  67.364  1.00  0.00    -0.403 NA 
HETATM    8  C   UNL     1     -10.025  18.647  69.504  1.00  0.00     0.182 C  
HETATM    9  C   UNL     1     -10.960  17.552  70.016  1.00  0.00     1.116 C  
HETATM   10  N   UNL     1     -10.851  16.187  69.472  1.00  0.00    -0.304 N  
HETATM   11  C   UNL     1      -9.766  15.813  68.606  1.00  0.00    -0.205 A  
HETATM   12  C   UNL     1     -11.848  15.296  69.954  1.00  0.00    -0.335 C  
HETATM   13  C   UNL     1      -9.054  14.631  68.879  1.00  0.00    -0.148 A  
HETATM   14  O   UNL     1     -12.660  15.662  70.810  1.00  0.00    -0.434 OA 
HETATM   15  C   UNL     1      -9.483  16.495  67.394  1.00  0.00    -0.228 A  
HETATM   16  C   UNL     1      -8.218  14.047  67.920  1.00  0.00    -0.158 A  
HETATM   17  C   UNL     1      -8.646  15.891  66.437  1.00  0.00    -0.364 A  
HETATM   18  C   UNL     1      -8.043  14.659  66.685  1.00  0.00     0.258 A  
ENDROOT
BRANCH  12  19
HETATM   19  C   UNL     1     -11.966  13.876  69.495  1.00  0.00    -0.396 A  
HETATM   20  C   UNL     1     -12.116  12.892  70.480  1.00  0.00    -0.364 A  
HETATM   21  C   UNL     1     -11.767  11.141  68.839  1.00  0.00    -0.337 A  
HETATM   22  C   UNL     1     -11.690  12.118  67.844  1.00  0.00    -0.403 A  
HETATM   23  C   UNL     1     -12.035  11.535  70.151  1.00  0.00    -0.452 A  
HETATM   24  C   UNL     1     -11.875  13.471  68.162  1.00  0.00    -0.400 A  
BRANCH  21  25
HETATM   25  N   UNL     1     -11.539   9.794  68.478  1.00  0.00    -0.367 N  
HETATM   26  C   UNL     1     -10.411   9.060  68.834  1.00  0.00    -0.215 C  
HETATM   27  H   UNL     1     -12.251   9.326  67.917  1.00  0.00     0.000 HD 
HETATM   28  O   UNL     1      -9.527   9.463  69.578  1.00  0.00    -0.162 OA 
BRANCH  26  29
HETATM   29  C   UNL     1     -10.329   7.639  68.361  1.00  0.00    -0.228 A  
HETATM   30  C   UNL     1     -10.835   6.634  69.221  1.00  0.00    -0.335 A  
HETATM   31  C   UNL     1     -10.622   5.283  68.959  1.00  0.00    -0.150 A  
HETATM   32  C   UNL     1      -9.899   4.911  67.840  1.00  0.00    -0.196 A  
HETATM   33  C   UNL     1      -9.437   5.889  66.958  1.00  0.00    -0.134 A  
HETATM   34  C   UNL     1      -9.630   7.278  67.175  1.00  0.00    -0.203 A  
BRANCH  34  35
HETATM   35  C   UNL     1      -9.104   8.217  66.130  1.00  0.00    -0.232 A  
HETATM   36  C   UNL     1      -9.882   9.235  65.548  1.00  0.00    -0.155 A  
HETATM   37  C   UNL     1      -9.384  10.048  64.519  1.00  0.00    -0.345 A  
HETATM   38  C   UNL     1      -8.105   9.840  64.012  1.00  0.00    -0.150 A  
HETATM   39  C   UNL     1      -7.308   8.845  64.561  1.00  0.00    -0.102 A  
HETATM   40  C   UNL     1      -7.795   8.064  65.617  1.00  0.00    -0.104 A  
ENDBRANCH  34  35
ENDBRANCH  26  29
ENDBRANCH  21  25
ENDBRANCH  12  19
TORSDOF 4
ENDMDL
MODEL       66
REMARK 921   NORMALIZED FREE ENERGY PREDICTED BY IDOCK:   -5.67 KCAL/MOL
REMARK 922        TOTAL FREE ENERGY PREDICTED BY IDOCK:   -8.48 KCAL/MOL
REMARK 923 INTER-LIGAND FREE ENERGY PREDICTED BY IDOCK:   -7.62 KCAL/MOL
REMARK 924 INTRA-LIGAND FREE ENERGY PREDICTED BY IDOCK:   -0.86 KCAL/MOL
REMARK 927      BINDING AFFINITY PREDICTED BY RF-SCORE:    0.00 PKD
ROOT
HETATM    1  C   UNL     1     -10.897   3.472  73.964  1.00  0.00    -0.269 C  
HETATM    2  C   UNL     1     -10.164   3.818  72.725  1.00  0.00    -0.166 A  
HETATM    3  N   UNL     1      -9.604   4.976  72.433  1.00  0.00    -0.143 NA 
HETATM    4  C   UNL     1      -9.071   4.818  71.178  1.00  0.00    -0.137 A  
HETATM    5  H   UNL     1      -9.574   5.812  73.016  1.00  0.00     0.000 HD 
HETATM    6  C   UNL     1      -9.267   3.537  70.728  1.00  0.00    -0.134 A  
HETATM    7  N   UNL     1      -9.974   2.908  71.712  1.00  0.00    -0.153 NA 
HETATM    8  C   UNL     1      -8.832   2.950  69.445  1.00  0.00    -0.152 C  
HETATM    9  C   UNL     1      -9.439   3.749  68.293  1.00  0.00    -0.153 C  
HETATM   10  N   UNL     1      -9.173   5.195  68.189  1.00  0.00    -0.113 N  
HETATM   11  C   UNL     1      -8.208   5.840  69.037  1.00  0.00    -0.101 A  
HETATM   12  C   UNL     1      -9.884   5.835  67.138  1.00  0.00    -0.146 C  
HETATM   13  C   UNL     1      -7.249   6.688  68.454  1.00  0.00    -0.085 A  
HETATM   14  O   UNL     1     -10.587   5.179  66.361  1.00  0.00    -0.293 OA 
HETATM   15  C   UNL     1      -8.275   5.788  70.454  1.00  0.00    -0.107 A  
HETATM   16  C   UNL     1      -6.501   7.582  69.228  1.00  0.00    -0.039 A  
HETATM   17  C   UNL     1      -7.522   6.699  71.217  1.00  0.00    -0.084 A  
HETATM   18  C   UNL     1      -6.664   7.612  70.608  1.00  0.00    -0.042 A  
ENDROOT
BRANCH  12  19
HETATM   19  C   UNL     1      -9.812   7.307  66.880  1.00  0.00    -0.279 A  
HETATM   20  C   UNL     1     -10.534   8.147  67.736  1.00  0.00    -0.279 A  
HETATM   21  C   UNL     1     -10.135  10.044  66.279  1.00  0.00    -0.243 A  
HETATM   22  C   UNL     1      -9.354   9.223  65.461  1.00  0.00    -0.303 A  
HETATM   23  C   UNL     1     -10.679   9.508  67.447  1.00  0.00    -0.297 A  
HETATM   24  C   UNL     1      -9.125   7.885  65.810  1.00  0.00    -0.084 A  
BRANCH  21  25
HETATM   25  N   UNL     1     -10.366  11.376  65.869  1.00  0.00    -0.243 N  
HETATM   26  C   UNL     1     -11.089  12.314  66.603  1.00  0.00    -0.297 C  
HETATM   27  H   UNL     1      -9.977  11.672  64.975  1.00  0.00     0.000 HD 
HETATM   28  O   UNL     1     -11.531  12.124  67.728  1.00  0.00    -0.287 OA 
BRANCH  26  29
HETATM   29  C   UNL     1     -11.241  13.686  66.016  1.00  0.00    -0.302 A  
HETATM   30  C   UNL     1     -12.257  13.875  65.049  1.00  0.00    -0.444 A  
HETATM   31  C   UNL     1     -12.342  15.051  64.308  1.00  0.00    -0.247 A  
HETATM   32  C   UNL     1     -11.415  16.056  64.515  1.00  0.00    -0.274 A  
HETATM   33  C   UNL     1     -10.437  15.903  65.500  1.00  0.00    -0.425 A  
HETATM   34  C   UNL     1     -10.309  14.728  66.285  1.00  0.00    -0.305 A  
BRANCH  34  35
HETATM   35  C   UNL     1      -9.229  14.712  67.327  1.00  0.00    -0.212 A  
HETATM   36  C   UNL     1      -8.068  13.925  67.217  1.00  0.00    -0.162 A  
HETATM   37  C   UNL     1      -7.111  13.874  68.243  1.00  0.00    -0.108 A  
HETATM   38  C   UNL     1      -7.309  14.578  69.427  1.00  0.00    -0.098 A  
HETATM   39  C   UNL     1      -8.443  15.365  69.570  1.00  0.00    -0.213 A  
HETATM   40  C   UNL     1      -9.373  15.446  68.526  1.00  0.00    -0.198 A  
ENDBRANCH  34  35
ENDBRANCH  26  29
ENDBRANCH  21  25
ENDBRANCH  12  19
TORSDOF 4
ENDMDL
MODEL       67
REMARK 921   NORMALIZED FREE ENERGY PREDICTED BY IDOCK:   -5.65 KCAL/MOL
REMARK 922        TOTAL FREE ENERGY PREDICTED BY IDOCK:   -8.45 KCAL/MOL
REMARK 923 INTER-LIGAND FREE ENERGY PREDICTED BY IDOCK:   -7.55 KCAL/MOL
REMARK 924 INTRA-LIGAND FREE ENERGY PREDICTED BY IDOCK:   -0.90 KCAL/MOL
REMARK 927      BINDING AFFINITY PREDICTED BY RF-SCORE:    0.00 PKD
ROOT
HETATM    1  C   UNL     1     -11.040   1.497  74.307  1.00  0.00    -0.167 C  
HETATM    2  C   UNL     1     -10.122   2.370  73.543  1.00  0.00    -0.103 A  
HETATM    3  N   UNL     1     -10.071   3.688  73.574  1.00  0.00    -0.123 NA 
HETATM    4  C   UNL     1      -9.084   4.038  72.687  1.00  0.00    -0.109 A  
HETATM    5  H   UNL     1     -10.644   4.314  74.138  1.00  0.00     0.000 HD 
HETATM    6  C   UNL     1      -8.498   2.920  72.151  1.00  0.00    -0.066 A  
HETATM    7  N   UNL     1      -9.171   1.860  72.690  1.00  0.00    -0.072 NA 
HETATM    8  C   UNL     1      -7.389   2.854  71.179  1.00  0.00    -0.033 C  
HETATM    9  C   UNL     1      -7.788   3.600  69.907  1.00  0.00    -0.050 C  
HETATM   10  N   UNL     1      -8.176   5.019  69.985  1.00  0.00    -0.080 N  
HETATM   11  C   UNL     1      -8.011   5.773  71.199  1.00  0.00    -0.112 A  
HETATM   12  C   UNL     1      -8.627   5.559  68.751  1.00  0.00    -0.100 C  
HETATM   13  C   UNL     1      -7.388   7.032  71.138  1.00  0.00    -0.076 A  
HETATM   14  O   UNL     1      -8.601   4.880  67.718  1.00  0.00    -0.104 OA 
HETATM   15  C   UNL     1      -8.592   5.376  72.432  1.00  0.00    -0.122 A  
HETATM   16  C   UNL     1      -7.482   7.942  72.198  1.00  0.00    -0.096 A  
HETATM   17  C   UNL     1      -8.685   6.305  73.484  1.00  0.00    -0.126 A  
HETATM   18  C   UNL     1      -8.162   7.591  73.357  1.00  0.00    -0.169 A  
ENDROOT
BRANCH  12  19
HETATM   19  C   UNL     1      -9.124   6.964  68.605  1.00  0.00    -0.131 A  
HETATM   20  C   UNL     1      -8.412   7.813  67.750  1.00  0.00    -0.121 A  
HETATM   21  C   UNL     1      -9.659   9.732  68.553  1.00  0.00    -0.149 A  
HETATM   22  C   UNL     1     -10.419   8.876  69.352  1.00  0.00    -0.228 A  
HETATM   23  C   UNL     1      -8.690   9.184  67.711  1.00  0.00    -0.121 A  
HETATM   24  C   UNL     1     -10.207   7.491  69.311  1.00  0.00    -0.201 A  
BRANCH  21  25
HETATM   25  N   UNL     1      -9.884  11.123  68.653  1.00  0.00    -0.198 N  
HETATM   26  C   UNL     1     -11.137  11.727  68.590  1.00  0.00    -0.238 C  
HETATM   27  H   UNL     1      -9.073  11.728  68.781  1.00  0.00     0.000 HD 
HETATM   28  O   UNL     1     -12.198  11.120  68.533  1.00  0.00    -0.600 OA 
BRANCH  26  29
HETATM   29  C   UNL     1     -11.195  13.221  68.712  1.00  0.00    -0.317 A  
HETATM   30  C   UNL     1     -11.261  13.768  70.016  1.00  0.00     0.015 A  
HETATM   31  C   UNL     1     -11.519  15.122  70.221  1.00  0.00    -0.315 A  
HETATM   32  C   UNL     1     -11.718  15.950  69.131  1.00  0.00    -0.369 A  
HETATM   33  C   UNL     1     -11.606  15.434  67.839  1.00  0.00    -0.267 A  
HETATM   34  C   UNL     1     -11.341  14.065  67.575  1.00  0.00    -0.343 A  
BRANCH  34  35
HETATM   35  C   UNL     1     -11.220  13.653  66.137  1.00  0.00    -0.309 A  
HETATM   36  C   UNL     1     -12.152  14.025  65.151  1.00  0.00    -0.418 A  
HETATM   37  C   UNL     1     -12.053  13.563  63.829  1.00  0.00    -0.482 A  
HETATM   38  C   UNL     1     -11.040  12.680  63.466  1.00  0.00    -0.449 A  
HETATM   39  C   UNL     1     -10.102  12.292  64.413  1.00  0.00    -0.296 A  
HETATM   40  C   UNL     1     -10.181  12.791  65.719  1.00  0.00    -0.302 A  
ENDBRANCH  34  35
ENDBRANCH  26  29
ENDBRANCH  21  25
ENDBRANCH  12  19
TORSDOF 4
ENDMDL
MODEL       68
REMARK 921   NORMALIZED FREE ENERGY PREDICTED BY IDOCK:   -5.63 KCAL/MOL
REMARK 922        TOTAL FREE ENERGY PREDICTED BY IDOCK:   -8.42 KCAL/MOL
REMARK 923 INTER-LIGAND FREE ENERGY PREDICTED BY IDOCK:   -7.52 KCAL/MOL
REMARK 924 INTRA-LIGAND FREE ENERGY PREDICTED BY IDOCK:   -0.90 KCAL/MOL
REMARK 927      BINDING AFFINITY PREDICTED BY RF-SCORE:    0.00 PKD
ROOT
HETATM    1  C   UNL     1      -6.454  19.425  65.000  1.00  0.00    -0.273 C  
HETATM    2  C   UNL     1      -7.139  18.420  65.844  1.00  0.00    -0.255 A  
HETATM    3  N   UNL     1      -6.829  17.144  65.967  1.00  0.00    -0.118 NA 
HETATM    4  C   UNL     1      -7.756  16.623  66.834  1.00  0.00    -0.228 A  
HETATM    5  H   UNL     1      -6.061  16.649  65.513  1.00  0.00     0.000 HD 
HETATM    6  C   UNL     1      -8.605  17.604  67.279  1.00  0.00    -0.231 A  
HETATM    7  N   UNL     1      -8.215  18.744  66.636  1.00  0.00    -0.279 NA 
HETATM    8  C   UNL     1      -9.723  17.472  68.234  1.00  0.00    -0.311 C  
HETATM    9  C   UNL     1     -10.727  16.453  67.696  1.00  0.00    -0.312 C  
HETATM   10  N   UNL     1     -10.283  15.079  67.397  1.00  0.00    -0.234 N  
HETATM   11  C   UNL     1      -8.973  14.620  67.772  1.00  0.00    -0.181 A  
HETATM   12  C   UNL     1     -11.287  14.269  66.804  1.00  0.00    -0.348 C  
HETATM   13  C   UNL     1      -8.850  13.390  68.444  1.00  0.00    -0.133 A  
HETATM   14  O   UNL     1     -12.435  14.700  66.646  1.00  0.00    -0.174 OA 
HETATM   15  C   UNL     1      -7.783  15.271  67.353  1.00  0.00    -0.225 A  
HETATM   16  C   UNL     1      -7.616  12.739  68.550  1.00  0.00    -0.120 A  
HETATM   17  C   UNL     1      -6.552  14.599  67.459  1.00  0.00    -0.113 A  
HETATM   18  C   UNL     1      -6.472  13.328  68.025  1.00  0.00    -0.131 A  
ENDROOT
BRANCH  12  19
HETATM   19  C   UNL     1     -11.046  12.858  66.364  1.00  0.00    -0.316 A  
HETATM   20  C   UNL     1     -11.434  11.836  67.239  1.00  0.00    -0.373 A  
HETATM   21  C   UNL     1     -10.275  10.187  65.890  1.00  0.00    -0.211 A  
HETATM   22  C   UNL     1      -9.950  11.194  64.978  1.00  0.00    -0.325 A  
HETATM   23  C   UNL     1     -11.066  10.509  66.993  1.00  0.00    -0.183 A  
HETATM   24  C   UNL     1     -10.408  12.504  65.174  1.00  0.00    -0.312 A  
BRANCH  21  25
HETATM   25  N   UNL     1      -9.762   8.889  65.670  1.00  0.00    -0.470 N  
HETATM   26  C   UNL     1      -9.920   7.818  66.545  1.00  0.00    -0.174 C  
HETATM   27  H   UNL     1      -9.240   8.725  64.809  1.00  0.00     0.000 HD 
HETATM   28  O   UNL     1     -10.599   7.848  67.563  1.00  0.00    -0.261 OA 
BRANCH  26  29
HETATM   29  C   UNL     1      -9.306   6.507  66.156  1.00  0.00    -0.101 A  
HETATM   30  C   UNL     1     -10.080   5.338  66.353  1.00  0.00    -0.257 A  
HETATM   31  C   UNL     1      -9.524   4.069  66.212  1.00  0.00    -0.199 A  
HETATM   32  C   UNL     1      -8.189   3.943  65.875  1.00  0.00    -0.105 A  
HETATM   33  C   UNL     1      -7.427   5.086  65.628  1.00  0.00    -0.081 A  
HETATM   34  C   UNL     1      -7.945   6.402  65.754  1.00  0.00    -0.117 A  
BRANCH  34  35
HETATM   35  C   UNL     1      -7.019   7.538  65.432  1.00  0.00    -0.059 A  
HETATM   36  C   UNL     1      -6.306   8.250  66.413  1.00  0.00    -0.050 A  
HETATM   37  C   UNL     1      -5.506   9.356  66.087  1.00  0.00    -0.044 A  
HETATM   38  C   UNL     1      -5.430   9.808  64.773  1.00  0.00    -0.067 A  
HETATM   39  C   UNL     1      -6.120   9.130  63.779  1.00  0.00    -0.087 A  
HETATM   40  C   UNL     1      -6.882   8.001  64.103  1.00  0.00    -0.066 A  
ENDBRANCH  34  35
ENDBRANCH  26  29
ENDBRANCH  21  25
ENDBRANCH  12  19
TORSDOF 4
ENDMDL
MODEL       69
REMARK 921   NORMALIZED FREE ENERGY PREDICTED BY IDOCK:   -5.60 KCAL/MOL
REMARK 922        TOTAL FREE ENERGY PREDICTED BY IDOCK:   -8.38 KCAL/MOL
REMARK 923 INTER-LIGAND FREE ENERGY PREDICTED BY IDOCK:   -6.61 KCAL/MOL
REMARK 924 INTRA-LIGAND FREE ENERGY PREDICTED BY IDOCK:   -1.77 KCAL/MOL
REMARK 927      BINDING AFFINITY PREDICTED BY RF-SCORE:    0.00 PKD
ROOT
HETATM    1  C   UNL     1     -12.052  16.236  72.538  1.00  0.00    -0.615 C  
HETATM    2  C   UNL     1     -11.654  15.604  71.260  1.00  0.00    -0.428 A  
HETATM    3  N   UNL     1     -11.611  14.313  70.994  1.00  0.00    -0.516 NA 
HETATM    4  C   UNL     1     -11.164  14.221  69.700  1.00  0.00    -0.210 A  
HETATM    5  H   UNL     1     -11.858  13.545  71.618  1.00  0.00     0.000 HD 
HETATM    6  C   UNL     1     -10.982  15.469  69.161  1.00  0.00    -0.259 A  
HETATM    7  N   UNL     1     -11.283  16.347  70.164  1.00  0.00    -0.325 NA 
HETATM    8  C   UNL     1     -10.534  15.813  67.798  1.00  0.00    -0.283 C  
HETATM    9  C   UNL     1      -9.160  15.196  67.547  1.00  0.00    -0.183 C  
HETATM   10  N   UNL     1      -8.979  13.739  67.679  1.00  0.00    -0.184 N  
HETATM   11  C   UNL     1     -10.104  12.860  67.856  1.00  0.00    -0.232 A  
HETATM   12  C   UNL     1      -7.633  13.312  67.526  1.00  0.00    -0.164 C  
HETATM   13  C   UNL     1     -10.207  11.715  67.045  1.00  0.00    -0.240 A  
HETATM   14  O   UNL     1      -6.744  14.118  67.232  1.00  0.00    -0.250 OA 
HETATM   15  C   UNL     1     -11.031  13.007  68.920  1.00  0.00    -0.271 A  
HETATM   16  C   UNL     1     -11.077  10.669  67.370  1.00  0.00    -0.341 A  
HETATM   17  C   UNL     1     -11.894  11.942  69.239  1.00  0.00    -0.379 A  
HETATM   18  C   UNL     1     -11.896  10.768  68.489  1.00  0.00    -0.168 A  
ENDROOT
BRANCH  12  19
HETATM   19  C   UNL     1      -7.206  11.885  67.675  1.00  0.00    -0.112 A  
HETATM   20  C   UNL     1      -6.901  11.179  66.505  1.00  0.00    -0.126 A  
HETATM   21  C   UNL     1      -6.811   9.093  67.740  1.00  0.00    -0.076 A  
HETATM   22  C   UNL     1      -7.043   9.806  68.918  1.00  0.00    -0.067 A  
HETATM   23  C   UNL     1      -6.687   9.796  66.541  1.00  0.00    -0.079 A  
HETATM   24  C   UNL     1      -7.154  11.203  68.893  1.00  0.00    -0.101 A  
BRANCH  21  25
HETATM   25  N   UNL     1      -6.741   7.683  67.809  1.00  0.00    -0.065 N  
HETATM   26  C   UNL     1      -7.838   6.832  67.699  1.00  0.00    -0.112 C  
HETATM   27  H   UNL     1      -5.825   7.260  67.949  1.00  0.00     0.000 HD 
HETATM   28  O   UNL     1      -8.976   7.196  67.437  1.00  0.00    -0.121 OA 
BRANCH  26  29
HETATM   29  C   UNL     1      -7.584   5.357  67.799  1.00  0.00    -0.088 A  
HETATM   30  C   UNL     1      -7.729   4.754  69.071  1.00  0.00    -0.071 A  
HETATM   31  C   UNL     1      -7.321   3.442  69.301  1.00  0.00    -0.049 A  
HETATM   32  C   UNL     1      -6.761   2.711  68.269  1.00  0.00    -0.040 A  
HETATM   33  C   UNL     1      -6.657   3.277  66.997  1.00  0.00    -0.037 A  
HETATM   34  C   UNL     1      -7.060   4.607  66.709  1.00  0.00    -0.075 A  
BRANCH  34  35
HETATM   35  C   UNL     1      -6.917   5.075  65.290  1.00  0.00    -0.062 A  
HETATM   36  C   UNL     1      -5.711   5.573  64.764  1.00  0.00    -0.017 A  
HETATM   37  C   UNL     1      -5.628   6.074  63.455  1.00  0.00    -0.018 A  
HETATM   38  C   UNL     1      -6.760   6.129  62.648  1.00  0.00    -0.037 A  
HETATM   39  C   UNL     1      -7.967   5.646  63.134  1.00  0.00    -0.101 A  
HETATM   40  C   UNL     1      -8.035   5.108  64.426  1.00  0.00    -0.107 A  
ENDBRANCH  34  35
ENDBRANCH  26  29
ENDBRANCH  21  25
ENDBRANCH  12  19
TORSDOF 4
ENDMDL
MODEL       70
REMARK 921   NORMALIZED FREE ENERGY PREDICTED BY IDOCK:   -5.58 KCAL/MOL
REMARK 922        TOTAL FREE ENERGY PREDICTED BY IDOCK:   -8.36 KCAL/MOL
REMARK 923 INTER-LIGAND FREE ENERGY PREDICTED BY IDOCK:   -7.71 KCAL/MOL
REMARK 924 INTRA-LIGAND FREE ENERGY PREDICTED BY IDOCK:   -0.65 KCAL/MOL
REMARK 927      BINDING AFFINITY PREDICTED BY RF-SCORE:    0.00 PKD
ROOT
HETATM    1  C   UNL     1     -11.552   5.474  72.746  1.00  0.00    -0.298 C  
HETATM    2  C   UNL     1     -10.843   6.137  71.628  1.00  0.00    -0.258 A  
HETATM    3  N   UNL     1     -10.074   7.206  71.699  1.00  0.00    -0.185 NA 
HETATM    4  C   UNL     1      -9.666   7.451  70.413  1.00  0.00    -0.175 A  
HETATM    5  H   UNL     1      -9.833   7.738  72.535  1.00  0.00     0.000 HD 
HETATM    6  C   UNL     1     -10.152   6.491  69.561  1.00  0.00    -0.176 A  
HETATM    7  N   UNL     1     -10.911   5.663  70.339  1.00  0.00    -0.259 NA 
HETATM    8  C   UNL     1      -9.932   6.373  68.106  1.00  0.00    -0.143 C  
HETATM    9  C   UNL     1     -10.431   7.641  67.416  1.00  0.00    -0.297 C  
HETATM   10  N   UNL     1      -9.877   8.950  67.806  1.00  0.00    -0.158 N  
HETATM   11  C   UNL     1      -8.747   9.050  68.688  1.00  0.00    -0.133 A  
HETATM   12  C   UNL     1     -10.505  10.052  67.165  1.00  0.00    -0.244 C  
HETATM   13  C   UNL     1      -7.671   9.881  68.325  1.00  0.00    -0.085 A  
HETATM   14  O   UNL     1     -11.377   9.871  66.308  1.00  0.00     0.593 OA 
HETATM   15  C   UNL     1      -8.734   8.474  69.986  1.00  0.00    -0.136 A  
HETATM   16  C   UNL     1      -6.706  10.272  69.260  1.00  0.00    -0.063 A  
HETATM   17  C   UNL     1      -7.761   8.883  70.916  1.00  0.00    -0.139 A  
HETATM   18  C   UNL     1      -6.772   9.801  70.565  1.00  0.00    -0.125 A  
ENDROOT
BRANCH  12  19
HETATM   19  C   UNL     1     -10.145  11.477  67.449  1.00  0.00    -0.213 A  
HETATM   20  C   UNL     1     -10.984  12.193  68.311  1.00  0.00    -0.273 A  
HETATM   21  C   UNL     1      -9.861  14.267  67.744  1.00  0.00    -0.223 A  
HETATM   22  C   UNL     1      -8.977  13.544  66.940  1.00  0.00    -0.219 A  
HETATM   23  C   UNL     1     -10.830  13.575  68.471  1.00  0.00    -0.283 A  
HETATM   24  C   UNL     1      -9.068  12.147  66.864  1.00  0.00    -0.203 A  
BRANCH  21  25
HETATM   25  N   UNL     1      -9.753  15.676  67.763  1.00  0.00    -0.218 N  
HETATM   26  C   UNL     1      -9.681  16.478  66.628  1.00  0.00    -0.260 C  
HETATM   27  H   UNL     1      -9.727  16.138  68.672  1.00  0.00     0.000 HD 
HETATM   28  O   UNL     1      -9.794  16.068  65.480  1.00  0.00    -0.411 OA 
BRANCH  26  29
HETATM   29  C   UNL     1      -9.566  17.959  66.831  1.00  0.00    -0.300 A  
HETATM   30  C   UNL     1     -10.620  18.770  66.344  1.00  0.00    -0.429 A  
HETATM   31  C   UNL     1     -10.508  20.157  66.306  1.00  0.00    -0.454 A  
HETATM   32  C   UNL     1      -9.345  20.760  66.749  1.00  0.00    -0.194 A  
HETATM   33  C   UNL     1      -8.317  19.977  67.277  1.00  0.00    -0.381 A  
HETATM   34  C   UNL     1      -8.382  18.560  67.342  1.00  0.00    -0.264 A  
BRANCH  34  35
HETATM   35  C   UNL     1      -7.215  17.848  67.961  1.00  0.00    -0.220 A  
HETATM   36  C   UNL     1      -6.471  16.863  67.286  1.00  0.00    -0.201 A  
HETATM   37  C   UNL     1      -5.432  16.161  67.916  1.00  0.00    -0.137 A  
HETATM   38  C   UNL     1      -5.134  16.395  69.255  1.00  0.00    -0.118 A  
HETATM   39  C   UNL     1      -5.848  17.360  69.953  1.00  0.00    -0.249 A  
HETATM   40  C   UNL     1      -6.854  18.088  69.306  1.00  0.00    -0.183 A  
ENDBRANCH  34  35
ENDBRANCH  26  29
ENDBRANCH  21  25
ENDBRANCH  12  19
TORSDOF 4
ENDMDL
MODEL       71
REMARK 921   NORMALIZED FREE ENERGY PREDICTED BY IDOCK:   -5.55 KCAL/MOL
REMARK 922        TOTAL FREE ENERGY PREDICTED BY IDOCK:   -8.33 KCAL/MOL
REMARK 923 INTER-LIGAND FREE ENERGY PREDICTED BY IDOCK:   -7.39 KCAL/MOL
REMARK 924 INTRA-LIGAND FREE ENERGY PREDICTED BY IDOCK:   -0.93 KCAL/MOL
REMARK 927      BINDING AFFINITY PREDICTED BY RF-SCORE:    0.00 PKD
ROOT
HETATM    1  C   UNL     1      -9.551   1.887  69.002  1.00  0.00    -0.094 C  
HETATM    2  C   UNL     1      -9.277   3.166  69.696  1.00  0.00    -0.151 A  
HETATM    3  N   UNL     1      -9.866   4.327  69.483  1.00  0.00    -0.199 NA 
HETATM    4  C   UNL     1      -9.263   5.208  70.344  1.00  0.00    -0.148 A  
HETATM    5  H   UNL     1     -10.613   4.526  68.818  1.00  0.00     0.000 HD 
HETATM    6  C   UNL     1      -8.334   4.565  71.122  1.00  0.00    -0.091 A  
HETATM    7  N   UNL     1      -8.338   3.266  70.696  1.00  0.00    -0.056 NA 
HETATM    8  C   UNL     1      -7.484   5.139  72.183  1.00  0.00    -0.093 C  
HETATM    9  C   UNL     1      -6.629   6.260  71.593  1.00  0.00    -0.055 C  
HETATM   10  N   UNL     1      -7.282   7.403  70.931  1.00  0.00    -0.067 N  
HETATM   11  C   UNL     1      -8.707   7.585  70.988  1.00  0.00    -0.134 A  
HETATM   12  C   UNL     1      -6.372   8.316  70.333  1.00  0.00    -0.035 C  
HETATM   13  C   UNL     1      -9.218   8.847  71.343  1.00  0.00    -0.328 A  
HETATM   14  O   UNL     1      -5.152   8.160  70.454  1.00  0.00    -0.023 OA 
HETATM   15  C   UNL     1      -9.625   6.596  70.547  1.00  0.00    -0.177 A  
HETATM   16  C   UNL     1     -10.557   9.182  71.110  1.00  0.00    -0.379 A  
HETATM   17  C   UNL     1     -10.965   6.951  70.310  1.00  0.00    -0.322 A  
HETATM   18  C   UNL     1     -11.422   8.243  70.560  1.00  0.00    -0.180 A  
ENDROOT
BRANCH  12  19
HETATM   19  C   UNL     1      -6.810   9.520  69.559  1.00  0.00    -0.054 A  
HETATM   20  C   UNL     1      -6.314  10.763  69.968  1.00  0.00    -0.137 A  
HETATM   21  C   UNL     1      -7.866  11.910  68.498  1.00  0.00    -0.136 A  
HETATM   22  C   UNL     1      -8.311  10.669  68.036  1.00  0.00    -0.118 A  
HETATM   23  C   UNL     1      -6.826  11.948  69.428  1.00  0.00    -0.048 A  
HETATM   24  C   UNL     1      -7.723   9.485  68.503  1.00  0.00    -0.081 A  
BRANCH  21  25
HETATM   25  N   UNL     1      -8.511  13.074  68.024  1.00  0.00    -0.172 N  
HETATM   26  C   UNL     1      -8.412  14.329  68.619  1.00  0.00    -0.142 C  
HETATM   27  H   UNL     1      -9.089  12.990  67.189  1.00  0.00     0.000 HD 
HETATM   28  O   UNL     1      -7.683  14.593  69.566  1.00  0.00    -0.111 OA 
BRANCH  26  29
HETATM   29  C   UNL     1      -9.167  15.459  67.985  1.00  0.00    -0.184 A  
HETATM   30  C   UNL     1      -8.554  16.127  66.897  1.00  0.00    -0.253 A  
HETATM   31  C   UNL     1      -9.084  17.306  66.379  1.00  0.00    -0.281 A  
HETATM   32  C   UNL     1     -10.231  17.841  66.938  1.00  0.00    -0.346 A  
HETATM   33  C   UNL     1     -10.873  17.167  67.978  1.00  0.00    -0.317 A  
HETATM   34  C   UNL     1     -10.378  15.961  68.540  1.00  0.00    -0.232 A  
BRANCH  34  35
HETATM   35  C   UNL     1     -11.186  15.331  69.635  1.00  0.00    -0.289 A  
HETATM   36  C   UNL     1     -11.931  14.151  69.459  1.00  0.00    -0.389 A  
HETATM   37  C   UNL     1     -12.737  13.626  70.482  1.00  0.00    -0.260 A  
HETATM   38  C   UNL     1     -12.854  14.292  71.698  1.00  0.00    -0.424 A  
HETATM   39  C   UNL     1     -12.134  15.460  71.907  1.00  0.00    -0.463 A  
HETATM   40  C   UNL     1     -11.297  15.955  70.899  1.00  0.00    -0.428 A  
ENDBRANCH  34  35
ENDBRANCH  26  29
ENDBRANCH  21  25
ENDBRANCH  12  19
TORSDOF 4
ENDMDL
MODEL       72
REMARK 921   NORMALIZED FREE ENERGY PREDICTED BY IDOCK:   -5.54 KCAL/MOL
REMARK 922        TOTAL FREE ENERGY PREDICTED BY IDOCK:   -8.31 KCAL/MOL
REMARK 923 INTER-LIGAND FREE ENERGY PREDICTED BY IDOCK:   -7.35 KCAL/MOL
REMARK 924 INTRA-LIGAND FREE ENERGY PREDICTED BY IDOCK:   -0.96 KCAL/MOL
REMARK 927      BINDING AFFINITY PREDICTED BY RF-SCORE:    0.00 PKD
ROOT
HETATM    1  C   UNL     1     -10.701   4.382  65.286  1.00  0.00    -0.150 C  
HETATM    2  C   UNL     1      -9.668   5.197  65.965  1.00  0.00    -0.165 A  
HETATM    3  N   UNL     1      -9.867   6.143  66.862  1.00  0.00    -0.150 NA 
HETATM    4  C   UNL     1      -8.619   6.619  67.177  1.00  0.00    -0.112 A  
HETATM    5  H   UNL     1     -10.761   6.456  67.241  1.00  0.00     0.000 HD 
HETATM    6  C   UNL     1      -7.651   5.920  66.501  1.00  0.00    -0.095 A  
HETATM    7  N   UNL     1      -8.326   5.023  65.721  1.00  0.00    -0.115 NA 
HETATM    8  C   UNL     1      -6.188   6.098  66.571  1.00  0.00    -0.037 C  
HETATM    9  C   UNL     1      -5.834   7.528  66.169  1.00  0.00    -0.037 C  
HETATM   10  N   UNL     1      -6.417   8.660  66.912  1.00  0.00    -0.060 N  
HETATM   11  C   UNL     1      -7.164   8.453  68.122  1.00  0.00    -0.091 A  
HETATM   12  C   UNL     1      -6.092   9.932  66.367  1.00  0.00    -0.065 C  
HETATM   13  C   UNL     1      -6.858   9.232  69.253  1.00  0.00    -0.049 A  
HETATM   14  O   UNL     1      -5.322  10.028  65.405  1.00  0.00    -0.049 OA 
HETATM   15  C   UNL     1      -8.306   7.612  68.184  1.00  0.00    -0.124 A  
HETATM   16  C   UNL     1      -7.735   9.313  70.340  1.00  0.00    -0.150 A  
HETATM   17  C   UNL     1      -9.182   7.711  69.281  1.00  0.00    -0.145 A  
HETATM   18  C   UNL     1      -8.915   8.579  70.338  1.00  0.00    -0.161 A  
ENDROOT
BRANCH  12  19
HETATM   19  C   UNL     1      -6.618  11.218  66.922  1.00  0.00    -0.130 A  
HETATM   20  C   UNL     1      -8.007  11.392  66.939  1.00  0.00    -0.158 A  
HETATM   21  C   UNL     1      -7.748  13.731  67.525  1.00  0.00    -0.176 A  
HETATM   22  C   UNL     1      -6.365  13.541  67.581  1.00  0.00    -0.156 A  
HETATM   23  C   UNL     1      -8.567  12.634  67.256  1.00  0.00    -0.196 A  
HETATM   24  C   UNL     1      -5.813  12.270  67.364  1.00  0.00    -0.143 A  
BRANCH  21  25
HETATM   25  N   UNL     1      -8.256  15.035  67.715  1.00  0.00    -0.144 N  
HETATM   26  C   UNL     1      -8.936  15.767  66.746  1.00  0.00    -0.260 C  
HETATM   27  H   UNL     1      -8.114  15.472  68.626  1.00  0.00     0.000 HD 
HETATM   28  O   UNL     1      -9.256  15.335  65.647  1.00  0.00    -0.231 OA 
BRANCH  26  29
HETATM   29  C   UNL     1      -9.405  17.143  67.117  1.00  0.00    -0.249 A  
HETATM   30  C   UNL     1      -8.876  18.233  66.386  1.00  0.00    -0.256 A  
HETATM   31  C   UNL     1      -9.094  19.549  66.787  1.00  0.00    -0.396 A  
HETATM   32  C   UNL     1      -9.841  19.800  67.924  1.00  0.00    -0.522 A  
HETATM   33  C   UNL     1     -10.411  18.736  68.626  1.00  0.00    -0.261 A  
HETATM   34  C   UNL     1     -10.222  17.378  68.258  1.00  0.00    -0.362 A  
BRANCH  34  35
HETATM   35  C   UNL     1     -10.916  16.339  69.088  1.00  0.00    -0.324 A  
HETATM   36  C   UNL     1     -11.649  15.275  68.532  1.00  0.00    -0.368 A  
HETATM   37  C   UNL     1     -12.350  14.361  69.335  1.00  0.00    -0.228 A  
HETATM   38  C   UNL     1     -12.372  14.511  70.718  1.00  0.00    -0.410 A  
HETATM   39  C   UNL     1     -11.660  15.549  71.302  1.00  0.00    -0.462 A  
HETATM   40  C   UNL     1     -10.927  16.432  70.499  1.00  0.00    -0.164 A  
ENDBRANCH  34  35
ENDBRANCH  26  29
ENDBRANCH  21  25
ENDBRANCH  12  19
TORSDOF 4
ENDMDL
MODEL       73
REMARK 921   NORMALIZED FREE ENERGY PREDICTED BY IDOCK:   -5.53 KCAL/MOL
REMARK 922        TOTAL FREE ENERGY PREDICTED BY IDOCK:   -8.30 KCAL/MOL
REMARK 923 INTER-LIGAND FREE ENERGY PREDICTED BY IDOCK:   -7.79 KCAL/MOL
REMARK 924 INTRA-LIGAND FREE ENERGY PREDICTED BY IDOCK:   -0.51 KCAL/MOL
REMARK 927      BINDING AFFINITY PREDICTED BY RF-SCORE:    0.00 PKD
ROOT
HETATM    1  C   UNL     1     -10.383  19.847  69.174  1.00  0.00    -0.174 C  
HETATM    2  C   UNL     1      -9.995  18.655  68.386  1.00  0.00    -0.387 A  
HETATM    3  N   UNL     1     -10.691  17.546  68.231  1.00  0.00    -0.351 NA 
HETATM    4  C   UNL     1      -9.916  16.734  67.444  1.00  0.00    -0.267 A  
HETATM    5  H   UNL     1     -11.612  17.337  68.616  1.00  0.00     0.000 HD 
HETATM    6  C   UNL     1      -8.760  17.375  67.077  1.00  0.00    -0.234 A  
HETATM    7  N   UNL     1      -8.810  18.595  67.691  1.00  0.00    -0.273 NA 
HETATM    8  C   UNL     1      -7.672  16.866  66.221  1.00  0.00    -0.332 C  
HETATM    9  C   UNL     1      -7.101  15.590  66.836  1.00  0.00     0.124 C  
HETATM   10  N   UNL     1      -7.990  14.442  67.089  1.00  0.00    -0.171 N  
HETATM   11  C   UNL     1      -9.343  14.423  66.602  1.00  0.00    -0.278 A  
HETATM   12  C   UNL     1      -7.356  13.363  67.762  1.00  0.00    -0.157 C  
HETATM   13  C   UNL     1      -9.803  13.285  65.916  1.00  0.00    -0.241 A  
HETATM   14  O   UNL     1      -6.148  13.402  68.018  1.00  0.00    -0.100 OA 
HETATM   15  C   UNL     1     -10.287  15.434  66.922  1.00  0.00    -0.277 A  
HETATM   16  C   UNL     1     -11.169  13.066  65.702  1.00  0.00    -0.310 A  
HETATM   17  C   UNL     1     -11.657  15.196  66.708  1.00  0.00    -0.136 A  
HETATM   18  C   UNL     1     -12.098  14.007  66.131  1.00  0.00    -0.471 A  
ENDROOT
BRANCH  12  19
HETATM   19  C   UNL     1      -8.078  12.117  68.172  1.00  0.00    -0.161 A  
HETATM   20  C   UNL     1      -9.294  12.271  68.848  1.00  0.00     0.228 A  
HETATM   21  C   UNL     1      -9.339   9.906  69.387  1.00  0.00    -0.214 A  
HETATM   22  C   UNL     1      -8.164   9.739  68.650  1.00  0.00    -0.106 A  
HETATM   23  C   UNL     1      -9.928  11.170  69.435  1.00  0.00     0.055 A  
HETATM   24  C   UNL     1      -7.587  10.824  67.977  1.00  0.00    -0.092 A  
BRANCH  21  25
HETATM   25  N   UNL     1      -9.865   8.792  70.077  1.00  0.00    -0.174 N  
HETATM   26  C   UNL     1      -9.170   8.055  71.034  1.00  0.00    -0.149 C  
HETATM   27  H   UNL     1     -10.819   8.506  69.861  1.00  0.00     0.000 HD 
HETATM   28  O   UNL     1      -8.058   8.341  71.457  1.00  0.00    -0.107 OA 
BRANCH  26  29
HETATM   29  C   UNL     1      -9.881   6.897  71.668  1.00  0.00    -0.173 A  
HETATM   30  C   UNL     1     -10.111   6.955  73.063  1.00  0.00    -0.226 A  
HETATM   31  C   UNL     1     -10.578   5.848  73.768  1.00  0.00    -0.275 A  
HETATM   32  C   UNL     1     -10.820   4.664  73.094  1.00  0.00    -0.338 A  
HETATM   33  C   UNL     1     -10.645   4.607  71.710  1.00  0.00    -0.078 A  
HETATM   34  C   UNL     1     -10.176   5.706  70.945  1.00  0.00    -0.286 A  
BRANCH  34  35
HETATM   35  C   UNL     1     -10.061   5.512  69.462  1.00  0.00    -0.305 A  
HETATM   36  C   UNL     1     -10.873   6.187  68.533  1.00  0.00    -0.389 A  
HETATM   37  C   UNL     1     -10.794   5.928  67.156  1.00  0.00    -0.373 A  
HETATM   38  C   UNL     1      -9.927   4.954  66.671  1.00  0.00    -0.254 A  
HETATM   39  C   UNL     1      -9.110   4.267  67.559  1.00  0.00    -0.153 A  
HETATM   40  C   UNL     1      -9.163   4.560  68.927  1.00  0.00    -0.190 A  
ENDBRANCH  34  35
ENDBRANCH  26  29
ENDBRANCH  21  25
ENDBRANCH  12  19
TORSDOF 4
ENDMDL
MODEL       74
REMARK 921   NORMALIZED FREE ENERGY PREDICTED BY IDOCK:   -5.53 KCAL/MOL
REMARK 922        TOTAL FREE ENERGY PREDICTED BY IDOCK:   -8.30 KCAL/MOL
REMARK 923 INTER-LIGAND FREE ENERGY PREDICTED BY IDOCK:   -6.68 KCAL/MOL
REMARK 924 INTRA-LIGAND FREE ENERGY PREDICTED BY IDOCK:   -1.62 KCAL/MOL
REMARK 927      BINDING AFFINITY PREDICTED BY RF-SCORE:    0.00 PKD
ROOT
HETATM    1  C   UNL     1     -10.509  18.397  66.252  1.00  0.00    -0.421 C  
HETATM    2  C   UNL     1     -10.275  17.135  66.990  1.00  0.00    -0.313 A  
HETATM    3  N   UNL     1      -9.459  16.157  66.649  1.00  0.00    -0.232 NA 
HETATM    4  C   UNL     1      -9.603  15.202  67.623  1.00  0.00    -0.206 A  
HETATM    5  H   UNL     1      -8.849  16.119  65.832  1.00  0.00     0.000 HD 
HETATM    6  C   UNL     1     -10.478  15.627  68.590  1.00  0.00    -0.231 A  
HETATM    7  N   UNL     1     -10.913  16.854  68.175  1.00  0.00    -0.346 NA 
HETATM    8  C   UNL     1     -10.893  14.916  69.815  1.00  0.00    -0.255 C  
HETATM    9  C   UNL     1     -11.524  13.579  69.432  1.00  0.00    -0.282 C  
HETATM   10  N   UNL     1     -10.750  12.606  68.640  1.00  0.00    -0.245 N  
HETATM   11  C   UNL     1      -9.351  12.805  68.375  1.00  0.00    -0.143 A  
HETATM   12  C   UNL     1     -11.491  11.455  68.262  1.00  0.00    -0.299 C  
HETATM   13  C   UNL     1      -8.457  11.743  68.605  1.00  0.00    -0.068 A  
HETATM   14  O   UNL     1     -12.652  11.295  68.655  1.00  0.00    -0.295 OA 
HETATM   15  C   UNL     1      -8.849  13.971  67.739  1.00  0.00    -0.187 A  
HETATM   16  C   UNL     1      -7.162  11.754  68.076  1.00  0.00    -0.084 A  
HETATM   17  C   UNL     1      -7.547  13.963  67.206  1.00  0.00    -0.079 A  
HETATM   18  C   UNL     1      -6.719  12.851  67.346  1.00  0.00    -0.131 A  
ENDROOT
BRANCH  12  19
HETATM   19  C   UNL     1     -10.926  10.362  67.409  1.00  0.00    -0.335 A  
HETATM   20  C   UNL     1     -10.873   9.077  67.961  1.00  0.00    -0.102 A  
HETATM   21  C   UNL     1      -9.506   8.298  66.115  1.00  0.00    -0.171 A  
HETATM   22  C   UNL     1      -9.620   9.560  65.527  1.00  0.00    -0.349 A  
HETATM   23  C   UNL     1     -10.183   8.048  67.309  1.00  0.00    -0.345 A  
HETATM   24  C   UNL     1     -10.398  10.557  66.131  1.00  0.00    -0.276 A  
BRANCH  21  25
HETATM   25  N   UNL     1      -8.684   7.335  65.488  1.00  0.00    -0.332 N  
HETATM   26  C   UNL     1      -7.343   7.122  65.794  1.00  0.00    -0.075 C  
HETATM   27  H   UNL     1      -9.102   6.756  64.759  1.00  0.00     0.000 HD 
HETATM   28  O   UNL     1      -6.742   7.677  66.704  1.00  0.00    -0.059 OA 
BRANCH  26  29
HETATM   29  C   UNL     1      -6.616   6.059  65.026  1.00  0.00    -0.043 A  
HETATM   30  C   UNL     1      -5.903   6.459  63.870  1.00  0.00    -0.023 A  
HETATM   31  C   UNL     1      -5.370   5.522  62.987  1.00  0.00    -0.013 A  
HETATM   32  C   UNL     1      -5.541   4.173  63.240  1.00  0.00    -0.013 A  
HETATM   33  C   UNL     1      -6.199   3.764  64.402  1.00  0.00    -0.023 A  
HETATM   34  C   UNL     1      -6.757   4.676  65.335  1.00  0.00    -0.052 A  
BRANCH  34  35
HETATM   35  C   UNL     1      -7.412   4.097  66.554  1.00  0.00    -0.084 A  
HETATM   36  C   UNL     1      -6.733   3.896  67.769  1.00  0.00    -0.046 A  
HETATM   37  C   UNL     1      -7.352   3.283  68.869  1.00  0.00    -0.049 A  
HETATM   38  C   UNL     1      -8.658   2.814  68.771  1.00  0.00    -0.112 A  
HETATM   39  C   UNL     1      -9.360   2.995  67.587  1.00  0.00    -0.242 A  
HETATM   40  C   UNL     1      -8.751   3.646  66.507  1.00  0.00    -0.121 A  
ENDBRANCH  34  35
ENDBRANCH  26  29
ENDBRANCH  21  25
ENDBRANCH  12  19
TORSDOF 4
ENDMDL
MODEL       75
REMARK 921   NORMALIZED FREE ENERGY PREDICTED BY IDOCK:   -5.49 KCAL/MOL
REMARK 922        TOTAL FREE ENERGY PREDICTED BY IDOCK:   -8.26 KCAL/MOL
REMARK 923 INTER-LIGAND FREE ENERGY PREDICTED BY IDOCK:   -6.87 KCAL/MOL
REMARK 924 INTRA-LIGAND FREE ENERGY PREDICTED BY IDOCK:   -1.39 KCAL/MOL
REMARK 927      BINDING AFFINITY PREDICTED BY RF-SCORE:    0.00 PKD
ROOT
HETATM    1  C   UNL     1      -8.950  18.316  67.889  1.00  0.00    -0.285 C  
HETATM    2  C   UNL     1      -9.619  17.057  67.490  1.00  0.00    -0.249 A  
HETATM    3  N   UNL     1      -9.808  15.988  68.240  1.00  0.00    -0.216 NA 
HETATM    4  C   UNL     1     -10.446  15.082  67.431  1.00  0.00    -0.257 A  
HETATM    5  H   UNL     1      -9.538  15.863  69.215  1.00  0.00     0.000 HD 
HETATM    6  C   UNL     1     -10.689  15.625  66.195  1.00  0.00    -0.303 A  
HETATM    7  N   UNL     1     -10.150  16.880  66.234  1.00  0.00    -0.311 NA 
HETATM    8  C   UNL     1     -11.369  14.997  65.045  1.00  0.00    -0.395 C  
HETATM    9  C   UNL     1     -10.621  13.724  64.651  1.00  0.00    -0.425 C  
HETATM   10  N   UNL     1     -10.429  12.653  65.645  1.00  0.00    -0.270 N  
HETATM   11  C   UNL     1     -11.087  12.693  66.922  1.00  0.00    -0.273 A  
HETATM   12  C   UNL     1      -9.625  11.578  65.180  1.00  0.00    -0.210 C  
HETATM   13  C   UNL     1     -11.770  11.549  67.372  1.00  0.00    -0.231 A  
HETATM   14  O   UNL     1      -9.215  11.554  64.015  1.00  0.00    -0.070 OA 
HETATM   15  C   UNL     1     -10.945  13.780  67.824  1.00  0.00    -0.272 A  
HETATM   16  C   UNL     1     -12.149  11.406  68.712  1.00  0.00    -0.256 A  
HETATM   17  C   UNL     1     -11.325  13.619  69.169  1.00  0.00    -0.335 A  
HETATM   18  C   UNL     1     -11.894  12.429  69.618  1.00  0.00    -0.380 A  
ENDROOT
BRANCH  12  19
HETATM   19  C   UNL     1      -9.251  10.408  66.036  1.00  0.00    -0.200 A  
HETATM   20  C   UNL     1      -8.277  10.615  67.019  1.00  0.00    -0.124 A  
HETATM   21  C   UNL     1      -8.126   8.229  67.430  1.00  0.00    -0.121 A  
HETATM   22  C   UNL     1      -9.150   8.027  66.501  1.00  0.00    -0.213 A  
HETATM   23  C   UNL     1      -7.732   9.535  67.723  1.00  0.00    -0.088 A  
HETATM   24  C   UNL     1      -9.765   9.119  65.874  1.00  0.00    -0.336 A  
BRANCH  21  25
HETATM   25  N   UNL     1      -7.512   7.097  68.011  1.00  0.00    -0.097 N  
HETATM   26  C   UNL     1      -7.985   6.435  69.141  1.00  0.00    -0.111 C  
HETATM   27  H   UNL     1      -6.664   6.740  67.572  1.00  0.00     0.000 HD 
HETATM   28  O   UNL     1      -9.035   6.697  69.711  1.00  0.00    -0.142 OA 
BRANCH  26  29
HETATM   29  C   UNL     1      -7.206   5.249  69.627  1.00  0.00    -0.060 A  
HETATM   30  C   UNL     1      -6.753   5.269  70.968  1.00  0.00    -0.043 A  
HETATM   31  C   UNL     1      -5.858   4.314  71.444  1.00  0.00    -0.016 A  
HETATM   32  C   UNL     1      -5.398   3.326  70.593  1.00  0.00    -0.008 A  
HETATM   33  C   UNL     1      -5.874   3.266  69.282  1.00  0.00    -0.023 A  
HETATM   34  C   UNL     1      -6.788   4.210  68.748  1.00  0.00    -0.047 A  
BRANCH  34  35
HETATM   35  C   UNL     1      -7.237   4.007  67.331  1.00  0.00    -0.067 A  
HETATM   36  C   UNL     1      -6.392   4.199  66.222  1.00  0.00    -0.033 A  
HETATM   37  C   UNL     1      -6.862   4.074  64.905  1.00  0.00    -0.049 A  
HETATM   38  C   UNL     1      -8.202   3.792  64.659  1.00  0.00    -0.093 A  
HETATM   39  C   UNL     1      -9.065   3.596  65.728  1.00  0.00    -0.152 A  
HETATM   40  C   UNL     1      -8.581   3.680  67.040  1.00  0.00    -0.113 A  
ENDBRANCH  34  35
ENDBRANCH  26  29
ENDBRANCH  21  25
ENDBRANCH  12  19
TORSDOF 4
ENDMDL
MODEL       76
REMARK 921   NORMALIZED FREE ENERGY PREDICTED BY IDOCK:   -5.47 KCAL/MOL
REMARK 922        TOTAL FREE ENERGY PREDICTED BY IDOCK:   -8.23 KCAL/MOL
REMARK 923 INTER-LIGAND FREE ENERGY PREDICTED BY IDOCK:   -6.75 KCAL/MOL
REMARK 924 INTRA-LIGAND FREE ENERGY PREDICTED BY IDOCK:   -1.48 KCAL/MOL
REMARK 927      BINDING AFFINITY PREDICTED BY RF-SCORE:    0.00 PKD
ROOT
HETATM    1  C   UNL     1      -6.778  20.437  64.818  1.00  0.00    -0.259 C  
HETATM    2  C   UNL     1      -7.253  19.471  65.835  1.00  0.00    -0.296 A  
HETATM    3  N   UNL     1      -6.780  18.261  66.061  1.00  0.00    -0.242 NA 
HETATM    4  C   UNL     1      -7.550  17.750  67.074  1.00  0.00    -0.204 A  
HETATM    5  H   UNL     1      -6.005  17.802  65.583  1.00  0.00     0.000 HD 
HETATM    6  C   UNL     1      -8.466  18.678  67.501  1.00  0.00    -0.265 A  
HETATM    7  N   UNL     1      -8.280  19.769  66.700  1.00  0.00    -0.307 NA 
HETATM    8  C   UNL     1      -9.464  18.540  68.579  1.00  0.00    -0.375 C  
HETATM    9  C   UNL     1     -10.383  17.360  68.268  1.00  0.00    -0.374 C  
HETATM   10  N   UNL     1      -9.807  16.018  68.072  1.00  0.00    -0.221 N  
HETATM   11  C   UNL     1      -8.422  15.752  68.350  1.00  0.00    -0.170 A  
HETATM   12  C   UNL     1     -10.758  15.037  67.682  1.00  0.00    -0.274 C  
HETATM   13  C   UNL     1      -8.087  14.633  69.134  1.00  0.00    -0.078 A  
HETATM   14  O   UNL     1     -11.959  15.318  67.605  1.00  0.00    -0.185 OA 
HETATM   15  C   UNL     1      -7.365  16.475  67.737  1.00  0.00    -0.154 A  
HETATM   16  C   UNL     1      -6.779  14.138  69.175  1.00  0.00    -0.118 A  
HETATM   17  C   UNL     1      -6.056  15.959  67.781  1.00  0.00    -0.167 A  
HETATM   18  C   UNL     1      -5.770  14.782  68.468  1.00  0.00    -0.099 A  
ENDROOT
BRANCH  12  19
HETATM   19  C   UNL     1     -10.391  13.619  67.374  1.00  0.00    -0.244 A  
HETATM   20  C   UNL     1     -10.620  12.664  68.372  1.00  0.00    -0.258 A  
HETATM   21  C   UNL     1      -9.365  11.004  67.126  1.00  0.00    -0.164 A  
HETATM   22  C   UNL     1      -9.198  11.934  66.097  1.00  0.00    -0.204 A  
HETATM   23  C   UNL     1     -10.126  11.361  68.240  1.00  0.00    -0.204 A  
HETATM   24  C   UNL     1      -9.783  13.205  66.187  1.00  0.00    -0.254 A  
BRANCH  21  25
HETATM   25  N   UNL     1      -8.728   9.748  67.007  1.00  0.00    -0.134 N  
HETATM   26  C   UNL     1      -9.378   8.520  67.105  1.00  0.00    -0.152 C  
HETATM   27  H   UNL     1      -7.723   9.740  66.837  1.00  0.00     0.000 HD 
HETATM   28  O   UNL     1     -10.589   8.383  67.214  1.00  0.00    -0.302 OA 
BRANCH  26  29
HETATM   29  C   UNL     1      -8.546   7.281  66.957  1.00  0.00    -0.122 A  
HETATM   30  C   UNL     1      -8.795   6.458  65.832  1.00  0.00    -0.142 A  
HETATM   31  C   UNL     1      -8.218   5.195  65.717  1.00  0.00    -0.117 A  
HETATM   32  C   UNL     1      -7.388   4.731  66.721  1.00  0.00    -0.082 A  
HETATM   33  C   UNL     1      -7.096   5.552  67.812  1.00  0.00    -0.071 A  
HETATM   34  C   UNL     1      -7.652   6.847  67.975  1.00  0.00    -0.108 A  
BRANCH  34  35
HETATM   35  C   UNL     1      -7.228   7.629  69.183  1.00  0.00    -0.080 A  
HETATM   36  C   UNL     1      -7.956   7.639  70.387  1.00  0.00    -0.097 A  
HETATM   37  C   UNL     1      -7.574   8.440  71.474  1.00  0.00    -0.118 A  
HETATM   38  C   UNL     1      -6.474   9.287  71.374  1.00  0.00    -0.039 A  
HETATM   39  C   UNL     1      -5.732   9.303  70.201  1.00  0.00    -0.031 A  
HETATM   40  C   UNL     1      -6.093   8.470  69.135  1.00  0.00    -0.042 A  
ENDBRANCH  34  35
ENDBRANCH  26  29
ENDBRANCH  21  25
ENDBRANCH  12  19
TORSDOF 4
ENDMDL
MODEL       77
REMARK 921   NORMALIZED FREE ENERGY PREDICTED BY IDOCK:   -5.43 KCAL/MOL
REMARK 922        TOTAL FREE ENERGY PREDICTED BY IDOCK:   -8.18 KCAL/MOL
REMARK 923 INTER-LIGAND FREE ENERGY PREDICTED BY IDOCK:   -6.44 KCAL/MOL
REMARK 924 INTRA-LIGAND FREE ENERGY PREDICTED BY IDOCK:   -1.74 KCAL/MOL
REMARK 927      BINDING AFFINITY PREDICTED BY RF-SCORE:    0.00 PKD
ROOT
HETATM    1  C   UNL     1     -12.311  16.245  73.227  1.00  0.00    -0.615 C  
HETATM    2  C   UNL     1     -12.144  15.437  71.997  1.00  0.00    -0.399 A  
HETATM    3  N   UNL     1     -11.957  14.134  71.924  1.00  0.00    -0.206 NA 
HETATM    4  C   UNL     1     -11.836  13.855  70.587  1.00  0.00    -0.218 A  
HETATM    5  H   UNL     1     -11.912  13.473  72.699  1.00  0.00     0.000 HD 
HETATM    6  C   UNL     1     -12.001  14.993  69.839  1.00  0.00    -0.334 A  
HETATM    7  N   UNL     1     -12.185  16.001  70.743  1.00  0.00    -0.315 NA 
HETATM    8  C   UNL     1     -11.969  15.127  68.369  1.00  0.00    -0.216 C  
HETATM    9  C   UNL     1     -10.617  14.642  67.849  1.00  0.00    -0.244 C  
HETATM   10  N   UNL     1     -10.173  13.267  68.142  1.00  0.00    -0.237 N  
HETATM   11  C   UNL     1     -11.058  12.310  68.747  1.00  0.00    -0.251 A  
HETATM   12  C   UNL     1      -8.855  12.983  67.693  1.00  0.00    -0.191 C  
HETATM   13  C   UNL     1     -11.169  11.029  68.175  1.00  0.00    -0.364 A  
HETATM   14  O   UNL     1      -8.212  13.821  67.051  1.00  0.00    -0.144 OA 
HETATM   15  C   UNL     1     -11.704  12.541  69.990  1.00  0.00    -0.297 A  
HETATM   16  C   UNL     1     -11.747   9.966  68.878  1.00  0.00     0.240 A  
HETATM   17  C   UNL     1     -12.273  11.460  70.687  1.00  0.00    -0.484 A  
HETATM   18  C   UNL     1     -12.267  10.175  70.150  1.00  0.00    -0.188 A  
ENDROOT
BRANCH  12  19
HETATM   19  C   UNL     1      -8.176  11.670  67.931  1.00  0.00    -0.141 A  
HETATM   20  C   UNL     1      -8.129  10.767  66.862  1.00  0.00    -0.132 A  
HETATM   21  C   UNL     1      -7.329   9.010  68.331  1.00  0.00    -0.078 A  
HETATM   22  C   UNL     1      -7.305   9.929  69.382  1.00  0.00    -0.091 A  
HETATM   23  C   UNL     1      -7.692   9.452  67.058  1.00  0.00    -0.091 A  
HETATM   24  C   UNL     1      -7.645  11.271  69.160  1.00  0.00    -0.070 A  
BRANCH  21  25
HETATM   25  N   UNL     1      -7.013   7.662  68.610  1.00  0.00    -0.072 N  
HETATM   26  C   UNL     1      -7.927   6.712  69.058  1.00  0.00    -0.112 C  
HETATM   27  H   UNL     1      -6.047   7.362  68.472  1.00  0.00     0.000 HD 
HETATM   28  O   UNL     1      -9.129   6.907  69.177  1.00  0.00    -0.137 OA 
BRANCH  26  29
HETATM   29  C   UNL     1      -7.418   5.324  69.309  1.00  0.00    -0.062 A  
HETATM   30  C   UNL     1      -6.804   5.067  70.558  1.00  0.00    -0.041 A  
HETATM   31  C   UNL     1      -6.126   3.875  70.801  1.00  0.00    -0.018 A  
HETATM   32  C   UNL     1      -6.048   2.920  69.804  1.00  0.00    -0.024 A  
HETATM   33  C   UNL     1      -6.692   3.138  68.584  1.00  0.00    -0.040 A  
HETATM   34  C   UNL     1      -7.398   4.333  68.287  1.00  0.00    -0.064 A  
BRANCH  34  35
HETATM   35  C   UNL     1      -8.065   4.420  66.946  1.00  0.00    -0.102 A  
HETATM   36  C   UNL     1      -9.310   3.827  66.667  1.00  0.00    -0.207 A  
HETATM   37  C   UNL     1      -9.873   3.862  65.382  1.00  0.00    -0.167 A  
HETATM   38  C   UNL     1      -9.187   4.457  64.327  1.00  0.00    -0.145 A  
HETATM   39  C   UNL     1      -7.956   5.053  64.566  1.00  0.00    -0.106 A  
HETATM   40  C   UNL     1      -7.418   5.052  65.859  1.00  0.00    -0.082 A  
ENDBRANCH  34  35
ENDBRANCH  26  29
ENDBRANCH  21  25
ENDBRANCH  12  19
TORSDOF 4
ENDMDL
MODEL       78
REMARK 921   NORMALIZED FREE ENERGY PREDICTED BY IDOCK:   -5.43 KCAL/MOL
REMARK 922        TOTAL FREE ENERGY PREDICTED BY IDOCK:   -8.18 KCAL/MOL
REMARK 923 INTER-LIGAND FREE ENERGY PREDICTED BY IDOCK:   -7.45 KCAL/MOL
REMARK 924 INTRA-LIGAND FREE ENERGY PREDICTED BY IDOCK:   -0.74 KCAL/MOL
REMARK 927      BINDING AFFINITY PREDICTED BY RF-SCORE:    0.00 PKD
ROOT
HETATM    1  C   UNL     1     -10.552   5.645  71.347  1.00  0.00    -0.317 C  
HETATM    2  C   UNL     1     -10.103   6.452  70.190  1.00  0.00    -0.173 A  
HETATM    3  N   UNL     1      -9.111   7.321  70.167  1.00  0.00    -0.149 NA 
HETATM    4  C   UNL     1      -9.096   7.826  68.891  1.00  0.00    -0.141 A  
HETATM    5  H   UNL     1      -8.487   7.565  70.935  1.00  0.00     0.000 HD 
HETATM    6  C   UNL     1     -10.057   7.221  68.121  1.00  0.00    -0.173 A  
HETATM    7  N   UNL     1     -10.704   6.355  68.956  1.00  0.00    -0.254 NA 
HETATM    8  C   UNL     1     -10.359   7.457  66.696  1.00  0.00    -0.241 C  
HETATM    9  C   UNL     1     -10.721   8.928  66.493  1.00  0.00     0.187 C  
HETATM   10  N   UNL     1      -9.761   9.976  66.885  1.00  0.00    -0.181 N  
HETATM   11  C   UNL     1      -8.418   9.649  67.281  1.00  0.00    -0.132 A  
HETATM   12  C   UNL     1     -10.266  11.296  66.745  1.00  0.00    -0.226 C  
HETATM   13  C   UNL     1      -7.348  10.356  66.704  1.00  0.00    -0.114 A  
HETATM   14  O   UNL     1     -11.385  11.496  66.260  1.00  0.00    -0.283 OA 
HETATM   15  C   UNL     1      -8.129   8.756  68.346  1.00  0.00    -0.117 A  
HETATM   16  C   UNL     1      -6.065  10.319  67.263  1.00  0.00    -0.054 A  
HETATM   17  C   UNL     1      -6.837   8.737  68.902  1.00  0.00    -0.061 A  
HETATM   18  C   UNL     1      -5.819   9.536  68.385  1.00  0.00    -0.040 A  
ENDROOT
BRANCH  12  19
HETATM   19  C   UNL     1      -9.489  12.515  67.135  1.00  0.00    -0.208 A  
HETATM   20  C   UNL     1      -8.808  12.480  68.358  1.00  0.00    -0.123 A  
HETATM   21  C   UNL     1      -8.346  14.856  68.213  1.00  0.00    -0.148 A  
HETATM   22  C   UNL     1      -8.961  14.878  66.959  1.00  0.00    -0.256 A  
HETATM   23  C   UNL     1      -8.226  13.638  68.883  1.00  0.00     0.123 A  
HETATM   24  C   UNL     1      -9.451  13.695  66.389  1.00  0.00    -0.248 A  
BRANCH  21  25
HETATM   25  N   UNL     1      -7.898  16.078  68.763  1.00  0.00    -0.177 N  
HETATM   26  C   UNL     1      -6.906  16.880  68.205  1.00  0.00    -0.161 C  
HETATM   27  H   UNL     1      -8.331  16.396  69.630  1.00  0.00     0.000 HD 
HETATM   28  O   UNL     1      -6.370  16.669  67.125  1.00  0.00    -0.154 OA 
BRANCH  26  29
HETATM   29  C   UNL     1      -6.550  18.146  68.924  1.00  0.00    -0.243 A  
HETATM   30  C   UNL     1      -5.415  18.121  69.770  1.00  0.00    -0.216 A  
HETATM   31  C   UNL     1      -5.127  19.180  70.628  1.00  0.00    -0.224 A  
HETATM   32  C   UNL     1      -5.966  20.279  70.659  1.00  0.00    -0.348 A  
HETATM   33  C   UNL     1      -7.061  20.339  69.795  1.00  0.00     0.133 A  
HETATM   34  C   UNL     1      -7.396  19.290  68.900  1.00  0.00    -0.392 A  
BRANCH  34  35
HETATM   35  C   UNL     1      -8.585  19.502  68.009  1.00  0.00    -0.365 A  
HETATM   36  C   UNL     1      -9.878  19.054  68.335  1.00  0.00    -0.454 A  
HETATM   37  C   UNL     1     -10.956  19.200  67.448  1.00  0.00    -0.419 A  
HETATM   38  C   UNL     1     -10.762  19.763  66.190  1.00  0.00    -0.492 A  
HETATM   39  C   UNL     1      -9.499  20.216  65.835  1.00  0.00    -0.241 A  
HETATM   40  C   UNL     1      -8.437  20.107  66.741  1.00  0.00    -0.365 A  
ENDBRANCH  34  35
ENDBRANCH  26  29
ENDBRANCH  21  25
ENDBRANCH  12  19
TORSDOF 4
ENDMDL
MODEL       79
REMARK 921   NORMALIZED FREE ENERGY PREDICTED BY IDOCK:   -5.43 KCAL/MOL
REMARK 922        TOTAL FREE ENERGY PREDICTED BY IDOCK:   -8.18 KCAL/MOL
REMARK 923 INTER-LIGAND FREE ENERGY PREDICTED BY IDOCK:   -7.49 KCAL/MOL
REMARK 924 INTRA-LIGAND FREE ENERGY PREDICTED BY IDOCK:   -0.69 KCAL/MOL
REMARK 927      BINDING AFFINITY PREDICTED BY RF-SCORE:    0.00 PKD
ROOT
HETATM    1  C   UNL     1     -11.943   1.663  73.582  1.00  0.00    -0.262 C  
HETATM    2  C   UNL     1     -10.892   2.620  73.166  1.00  0.00    -0.141 A  
HETATM    3  N   UNL     1     -10.949   3.936  73.225  1.00  0.00    -0.206 NA 
HETATM    4  C   UNL     1      -9.757   4.378  72.711  1.00  0.00    -0.141 A  
HETATM    5  H   UNL     1     -11.718   4.505  73.578  1.00  0.00     0.000 HD 
HETATM    6  C   UNL     1      -8.949   3.319  72.383  1.00  0.00    -0.091 A  
HETATM    7  N   UNL     1      -9.682   2.200  72.664  1.00  0.00    -0.092 NA 
HETATM    8  C   UNL     1      -7.584   3.357  71.825  1.00  0.00    -0.053 C  
HETATM    9  C   UNL     1      -7.602   4.116  70.499  1.00  0.00    -0.045 C  
HETATM   10  N   UNL     1      -8.096   5.504  70.461  1.00  0.00    -0.102 N  
HETATM   11  C   UNL     1      -8.388   6.227  71.669  1.00  0.00    -0.129 A  
HETATM   12  C   UNL     1      -8.161   6.054  69.152  1.00  0.00    -0.111 C  
HETATM   13  C   UNL     1      -7.872   7.526  71.827  1.00  0.00    -0.088 A  
HETATM   14  O   UNL     1      -7.754   5.412  68.178  1.00  0.00    -0.083 OA 
HETATM   15  C   UNL     1      -9.307   5.753  72.642  1.00  0.00    -0.145 A  
HETATM   16  C   UNL     1      -8.369   8.393  72.807  1.00  0.00    -0.203 A  
HETATM   17  C   UNL     1      -9.802   6.640  73.616  1.00  0.00    -0.248 A  
HETATM   18  C   UNL     1      -9.360   7.960  73.679  1.00  0.00    -0.288 A  
ENDROOT
BRANCH  12  19
HETATM   19  C   UNL     1      -8.684   7.427  68.867  1.00  0.00    -0.132 A  
HETATM   20  C   UNL     1      -7.764   8.389  68.433  1.00  0.00    -0.105 A  
HETATM   21  C   UNL     1      -9.413  10.147  68.705  1.00  0.00    -0.171 A  
HETATM   22  C   UNL     1     -10.353   9.179  69.068  1.00  0.00    -0.229 A  
HETATM   23  C   UNL     1      -8.132   9.735  68.336  1.00  0.00    -0.104 A  
HETATM   24  C   UNL     1     -10.010   7.819  69.064  1.00  0.00    -0.182 A  
BRANCH  21  25
HETATM   25  N   UNL     1      -9.794  11.506  68.757  1.00  0.00    -0.339 N  
HETATM   26  C   UNL     1      -9.352  12.485  67.871  1.00  0.00    -0.200 C  
HETATM   27  H   UNL     1     -10.438  11.791  69.495  1.00  0.00     0.000 HD 
HETATM   28  O   UNL     1      -8.656  12.268  66.888  1.00  0.00    -0.193 OA 
BRANCH  26  29
HETATM   29  C   UNL     1      -9.855  13.883  68.074  1.00  0.00    -0.234 A  
HETATM   30  C   UNL     1      -9.354  14.603  69.185  1.00  0.00    -0.051 A  
HETATM   31  C   UNL     1      -9.908  15.823  69.568  1.00  0.00    -0.283 A  
HETATM   32  C   UNL     1     -10.972  16.342  68.853  1.00  0.00    -0.332 A  
HETATM   33  C   UNL     1     -11.444  15.667  67.726  1.00  0.00    -0.209 A  
HETATM   34  C   UNL     1     -10.913  14.425  67.291  1.00  0.00    -0.301 A  
BRANCH  34  35
HETATM   35  C   UNL     1     -11.499  13.825  66.047  1.00  0.00    -0.336 A  
HETATM   36  C   UNL     1     -11.793  12.455  65.919  1.00  0.00    -0.467 A  
HETATM   37  C   UNL     1     -12.271  11.911  64.716  1.00  0.00    -0.109 A  
HETATM   38  C   UNL     1     -12.429  12.716  63.593  1.00  0.00    -0.523 A  
HETATM   39  C   UNL     1     -12.149  14.073  63.682  1.00  0.00    -0.156 A  
HETATM   40  C   UNL     1     -11.714  14.618  64.896  1.00  0.00    -0.403 A  
ENDBRANCH  34  35
ENDBRANCH  26  29
ENDBRANCH  21  25
ENDBRANCH  12  19
TORSDOF 4
ENDMDL
MODEL       80
REMARK 921   NORMALIZED FREE ENERGY PREDICTED BY IDOCK:   -5.21 KCAL/MOL
REMARK 922        TOTAL FREE ENERGY PREDICTED BY IDOCK:   -7.90 KCAL/MOL
REMARK 923 INTER-LIGAND FREE ENERGY PREDICTED BY IDOCK:   -6.74 KCAL/MOL
REMARK 924 INTRA-LIGAND FREE ENERGY PREDICTED BY IDOCK:   -1.16 KCAL/MOL
REMARK 927      BINDING AFFINITY PREDICTED BY RF-SCORE:    0.00 PKD
ROOT
HETATM    1  C   UNL     1     -10.262  20.037  69.820  1.00  0.00     0.172 C  
HETATM    2  C   UNL     1      -9.891  18.994  68.837  1.00  0.00    -0.404 A  
HETATM    3  N   UNL     1     -10.541  17.874  68.585  1.00  0.00    -0.344 NA 
HETATM    4  C   UNL     1      -9.804  17.230  67.624  1.00  0.00    -0.279 A  
HETATM    5  H   UNL     1     -11.409  17.555  69.015  1.00  0.00     0.000 HD 
HETATM    6  C   UNL     1      -8.723  17.990  67.254  1.00  0.00    -0.243 A  
HETATM    7  N   UNL     1      -8.776  19.107  68.039  1.00  0.00    -0.300 NA 
HETATM    8  C   UNL     1      -7.697  17.676  66.242  1.00  0.00    -0.324 C  
HETATM    9  C   UNL     1      -7.005  16.365  66.614  1.00  0.00    -0.097 C  
HETATM   10  N   UNL     1      -7.806  15.139  66.776  1.00  0.00    -0.065 N  
HETATM   11  C   UNL     1      -9.196  15.101  66.411  1.00  0.00    -0.300 A  
HETATM   12  C   UNL     1      -7.056  14.020  67.228  1.00  0.00     0.089 C  
HETATM   13  C   UNL     1      -9.661  14.042  65.611  1.00  0.00    -0.181 A  
HETATM   14  O   UNL     1      -5.832  14.101  67.381  1.00  0.00    -0.350 OA 
HETATM   15  C   UNL     1     -10.156  15.995  66.955  1.00  0.00    -0.266 A  
HETATM   16  C   UNL     1     -11.028  13.767  65.488  1.00  0.00    -0.299 A  
HETATM   17  C   UNL     1     -11.526  15.701  66.829  1.00  0.00     0.113 A  
HETATM   18  C   UNL     1     -11.959  14.577  66.128  1.00  0.00    -0.323 A  
ENDROOT
BRANCH  12  19
HETATM   19  C   UNL     1      -7.670  12.686  67.515  1.00  0.00    -0.161 A  
HETATM   20  C   UNL     1      -8.715  12.645  68.446  1.00  0.00    -0.118 A  
HETATM   21  C   UNL     1      -8.638  10.222  68.488  1.00  0.00    -0.126 A  
HETATM   22  C   UNL     1      -7.645  10.258  67.506  1.00  0.00    -0.094 A  
HETATM   23  C   UNL     1      -9.207  11.422  68.914  1.00  0.00    -0.035 A  
HETATM   24  C   UNL     1      -7.228  11.482  66.963  1.00  0.00    -0.146 A  
BRANCH  21  25
HETATM   25  N   UNL     1      -9.001   8.969  69.030  1.00  0.00    -0.138 N  
HETATM   26  C   UNL     1     -10.094   8.214  68.612  1.00  0.00    -0.196 C  
HETATM   27  H   UNL     1      -8.423   8.590  69.781  1.00  0.00     0.000 HD 
HETATM   28  O   UNL     1     -10.814   8.501  67.665  1.00  0.00    -0.169 OA 
BRANCH  26  29
HETATM   29  C   UNL     1     -10.337   6.904  69.300  1.00  0.00    -0.212 A  
HETATM   30  C   UNL     1     -10.868   6.944  70.612  1.00  0.00    -0.280 A  
HETATM   31  C   UNL     1     -10.937   5.797  71.401  1.00  0.00    -0.304 A  
HETATM   32  C   UNL     1     -10.477   4.594  70.896  1.00  0.00    -0.028 A  
HETATM   33  C   UNL     1      -9.997   4.531  69.587  1.00  0.00    -0.251 A  
HETATM   34  C   UNL     1      -9.908   5.667  68.741  1.00  0.00    -0.193 A  
BRANCH  34  35
HETATM   35  C   UNL     1      -9.398   5.448  67.347  1.00  0.00    -0.117 A  
HETATM   36  C   UNL     1      -8.200   6.010  66.870  1.00  0.00    -0.105 A  
HETATM   37  C   UNL     1      -7.787   5.848  65.538  1.00  0.00    -0.103 A  
HETATM   38  C   UNL     1      -8.583   5.152  64.634  1.00  0.00    -0.142 A  
HETATM   39  C   UNL     1      -9.772   4.583  65.069  1.00  0.00    -0.135 A  
HETATM   40  C   UNL     1     -10.157   4.711  66.409  1.00  0.00    -0.289 A  
ENDBRANCH  34  35
ENDBRANCH  26  29
ENDBRANCH  21  25
ENDBRANCH  12  19
TORSDOF 4
ENDMDL
MODEL       81
REMARK 921   NORMALIZED FREE ENERGY PREDICTED BY IDOCK:   -5.17 KCAL/MOL
REMARK 922        TOTAL FREE ENERGY PREDICTED BY IDOCK:   -7.86 KCAL/MOL
REMARK 923 INTER-LIGAND FREE ENERGY PREDICTED BY IDOCK:   -6.34 KCAL/MOL
REMARK 924 INTRA-LIGAND FREE ENERGY PREDICTED BY IDOCK:   -1.52 KCAL/MOL
REMARK 927      BINDING AFFINITY PREDICTED BY RF-SCORE:    0.00 PKD
ROOT
HETATM    1  C   UNL     1     -11.333  16.579  68.491  1.00  0.00    -0.231 C  
HETATM    2  C   UNL     1     -10.407  15.472  68.162  1.00  0.00    -0.237 A  
HETATM    3  N   UNL     1     -10.727  14.215  67.921  1.00  0.00    -0.238 NA 
HETATM    4  C   UNL     1      -9.537  13.571  67.692  1.00  0.00    -0.222 A  
HETATM    5  H   UNL     1     -11.662  13.808  67.908  1.00  0.00     0.000 HD 
HETATM    6  C   UNL     1      -8.490  14.456  67.745  1.00  0.00    -0.173 A  
HETATM    7  N   UNL     1      -9.049  15.664  68.058  1.00  0.00    -0.182 NA 
HETATM    8  C   UNL     1      -7.056  14.180  67.535  1.00  0.00    -0.184 C  
HETATM    9  C   UNL     1      -6.591  13.133  68.546  1.00  0.00    -0.088 C  
HETATM   10  N   UNL     1      -7.256  11.818  68.593  1.00  0.00    -0.106 N  
HETATM   11  C   UNL     1      -8.208  11.427  67.589  1.00  0.00    -0.128 A  
HETATM   12  C   UNL     1      -6.800  10.982  69.647  1.00  0.00    -0.129 C  
HETATM   13  C   UNL     1      -8.076  10.165  66.981  1.00  0.00    -0.117 A  
HETATM   14  O   UNL     1      -5.873  11.342  70.381  1.00  0.00    -0.130 OA 
HETATM   15  C   UNL     1      -9.370  12.188  67.296  1.00  0.00    -0.183 A  
HETATM   16  C   UNL     1      -9.124   9.596  66.249  1.00  0.00    -0.197 A  
HETATM   17  C   UNL     1     -10.418  11.598  66.566  1.00  0.00    -0.276 A  
HETATM   18  C   UNL     1     -10.310  10.300  66.072  1.00  0.00    -0.248 A  
ENDROOT
BRANCH  12  19
HETATM   19  C   UNL     1      -7.372   9.626  69.921  1.00  0.00    -0.120 A  
HETATM   20  C   UNL     1      -8.617   9.570  70.559  1.00  0.00    -0.231 A  
HETATM   21  C   UNL     1      -8.381   7.179  70.894  1.00  0.00    -0.121 A  
HETATM   22  C   UNL     1      -7.173   7.222  70.193  1.00  0.00    -0.074 A  
HETATM   23  C   UNL     1      -9.125   8.352  71.025  1.00  0.00    -0.201 A  
HETATM   24  C   UNL     1      -6.717   8.426  69.637  1.00  0.00    -0.037 A  
BRANCH  21  25
HETATM   25  N   UNL     1      -8.783   5.951  71.466  1.00  0.00    -0.132 N  
HETATM   26  C   UNL     1      -9.854   5.184  71.017  1.00  0.00    -0.196 C  
HETATM   27  H   UNL     1      -8.252   5.603  72.264  1.00  0.00     0.000 HD 
HETATM   28  O   UNL     1     -10.516   5.433  70.018  1.00  0.00    -0.280 OA 
BRANCH  26  29
HETATM   29  C   UNL     1     -10.145   3.905  71.744  1.00  0.00    -0.186 A  
HETATM   30  C   UNL     1     -10.864   3.993  72.961  1.00  0.00    -0.234 A  
HETATM   31  C   UNL     1     -11.003   2.892  73.802  1.00  0.00    -0.313 A  
HETATM   32  C   UNL     1     -10.427   1.686  73.446  1.00  0.00    -0.189 A  
HETATM   33  C   UNL     1      -9.758   1.571  72.227  1.00  0.00    -0.170 A  
HETATM   34  C   UNL     1      -9.590   2.660  71.332  1.00  0.00    -0.222 A  
BRANCH  34  35
HETATM   35  C   UNL     1      -8.873   2.386  70.043  1.00  0.00    -0.139 A  
HETATM   36  C   UNL     1      -7.504   2.653  69.854  1.00  0.00    -0.043 A  
HETATM   37  C   UNL     1      -6.878   2.456  68.614  1.00  0.00    -0.040 A  
HETATM   38  C   UNL     1      -7.613   2.025  67.513  1.00  0.00    -0.060 A  
HETATM   39  C   UNL     1      -8.966   1.753  67.663  1.00  0.00    -0.167 A  
HETATM   40  C   UNL     1      -9.576   1.910  68.914  1.00  0.00    -0.112 A  
ENDBRANCH  34  35
ENDBRANCH  26  29
ENDBRANCH  21  25
ENDBRANCH  12  19
TORSDOF 4
ENDMDL
MODEL       82
REMARK 921   NORMALIZED FREE ENERGY PREDICTED BY IDOCK:   -5.16 KCAL/MOL
REMARK 922        TOTAL FREE ENERGY PREDICTED BY IDOCK:   -7.84 KCAL/MOL
REMARK 923 INTER-LIGAND FREE ENERGY PREDICTED BY IDOCK:   -6.79 KCAL/MOL
REMARK 924 INTRA-LIGAND FREE ENERGY PREDICTED BY IDOCK:   -1.06 KCAL/MOL
REMARK 927      BINDING AFFINITY PREDICTED BY RF-SCORE:    0.00 PKD
ROOT
HETATM    1  C   UNL     1      -9.252   1.781  68.923  1.00  0.00    -0.202 C  
HETATM    2  C   UNL     1      -9.079   3.062  69.645  1.00  0.00    -0.129 A  
HETATM    3  N   UNL     1      -9.876   4.112  69.599  1.00  0.00    -0.198 NA 
HETATM    4  C   UNL     1      -9.292   5.051  70.410  1.00  0.00    -0.158 A  
HETATM    5  H   UNL     1     -10.744   4.205  69.071  1.00  0.00     0.000 HD 
HETATM    6  C   UNL     1      -8.156   4.548  70.992  1.00  0.00    -0.081 A  
HETATM    7  N   UNL     1      -8.019   3.284  70.492  1.00  0.00    -0.043 NA 
HETATM    8  C   UNL     1      -7.250   5.220  71.943  1.00  0.00    -0.085 C  
HETATM    9  C   UNL     1      -6.696   6.490  71.300  1.00  0.00    -0.058 C  
HETATM   10  N   UNL     1      -7.625   7.529  70.821  1.00  0.00    -0.080 N  
HETATM   11  C   UNL     1      -9.032   7.464  71.109  1.00  0.00    -0.143 A  
HETATM   12  C   UNL     1      -6.985   8.605  70.148  1.00  0.00    -0.043 C  
HETATM   13  C   UNL     1      -9.677   8.606  71.617  1.00  0.00    -0.348 A  
HETATM   14  O   UNL     1      -5.753   8.655  70.069  1.00  0.00    -0.028 OA 
HETATM   15  C   UNL     1      -9.836   6.349  70.754  1.00  0.00    -0.206 A  
HETATM   16  C   UNL     1     -11.072   8.716  71.616  1.00  0.00    -0.375 A  
HETATM   17  C   UNL     1     -11.237   6.478  70.750  1.00  0.00    -0.377 A  
HETATM   18  C   UNL     1     -11.851   7.664  71.148  1.00  0.00    -0.314 A  
ENDROOT
BRANCH  12  19
HETATM   19  C   UNL     1      -7.734   9.743  69.529  1.00  0.00    -0.120 A  
HETATM   20  C   UNL     1      -8.823   9.427  68.709  1.00  0.00    -0.132 A  
HETATM   21  C   UNL     1      -8.972  11.726  67.951  1.00  0.00    -0.180 A  
HETATM   22  C   UNL     1      -7.933  12.058  68.823  1.00  0.00    -0.014 A  
HETATM   23  C   UNL     1      -9.449  10.415  67.940  1.00  0.00    -0.150 A  
HETATM   24  C   UNL     1      -7.377  11.086  69.668  1.00  0.00    -0.021 A  
BRANCH  21  25
HETATM   25  N   UNL     1      -9.477  12.730  67.094  1.00  0.00    -0.216 N  
HETATM   26  C   UNL     1     -10.490  13.622  67.434  1.00  0.00    -0.251 C  
HETATM   27  H   UNL     1      -9.071  12.806  66.162  1.00  0.00     0.000 HD 
HETATM   28  O   UNL     1     -11.000  13.705  68.543  1.00  0.00    -0.248 OA 
BRANCH  26  29
HETATM   29  C   UNL     1     -10.907  14.624  66.399  1.00  0.00    -0.315 A  
HETATM   30  C   UNL     1     -11.858  14.212  65.435  1.00  0.00    -0.362 A  
HETATM   31  C   UNL     1     -12.152  14.999  64.324  1.00  0.00    -0.323 A  
HETATM   32  C   UNL     1     -11.503  16.209  64.155  1.00  0.00     0.062 A  
HETATM   33  C   UNL     1     -10.600  16.651  65.123  1.00  0.00    -0.181 A  
HETATM   34  C   UNL     1     -10.267  15.890  66.274  1.00  0.00    -0.324 A  
BRANCH  34  35
HETATM   35  C   UNL     1      -9.301  16.501  67.246  1.00  0.00    -0.227 A  
HETATM   36  C   UNL     1      -9.672  17.481  68.185  1.00  0.00    -0.302 A  
HETATM   37  C   UNL     1      -8.731  18.088  69.030  1.00  0.00    -0.011 A  
HETATM   38  C   UNL     1      -7.382  17.761  68.932  1.00  0.00    -0.245 A  
HETATM   39  C   UNL     1      -6.979  16.799  68.016  1.00  0.00    -0.156 A  
HETATM   40  C   UNL     1      -7.929  16.165  67.206  1.00  0.00    -0.203 A  
ENDBRANCH  34  35
ENDBRANCH  26  29
ENDBRANCH  21  25
ENDBRANCH  12  19
TORSDOF 4
ENDMDL
MODEL       83
REMARK 921   NORMALIZED FREE ENERGY PREDICTED BY IDOCK:   -5.08 KCAL/MOL
REMARK 922        TOTAL FREE ENERGY PREDICTED BY IDOCK:   -7.74 KCAL/MOL
REMARK 923 INTER-LIGAND FREE ENERGY PREDICTED BY IDOCK:   -7.13 KCAL/MOL
REMARK 924 INTRA-LIGAND FREE ENERGY PREDICTED BY IDOCK:   -0.62 KCAL/MOL
REMARK 927      BINDING AFFINITY PREDICTED BY RF-SCORE:    0.00 PKD
ROOT
HETATM    1  C   UNL     1     -10.556   4.512  65.297  1.00  0.00    -0.164 C  
HETATM    2  C   UNL     1      -9.892   5.402  66.277  1.00  0.00    -0.164 A  
HETATM    3  N   UNL     1     -10.395   6.491  66.826  1.00  0.00    -0.342 NA 
HETATM    4  C   UNL     1      -9.406   6.980  67.642  1.00  0.00    -0.122 A  
HETATM    5  H   UNL     1     -11.323   6.886  66.676  1.00  0.00     0.000 HD 
HETATM    6  C   UNL     1      -8.312   6.152  67.625  1.00  0.00    -0.112 A  
HETATM    7  N   UNL     1      -8.623   5.154  66.744  1.00  0.00    -0.110 NA 
HETATM    8  C   UNL     1      -7.050   6.300  68.374  1.00  0.00    -0.083 C  
HETATM    9  C   UNL     1      -6.399   7.633  68.007  1.00  0.00    -0.049 C  
HETATM   10  N   UNL     1      -7.144   8.889  68.211  1.00  0.00    -0.077 N  
HETATM   11  C   UNL     1      -8.395   8.908  68.919  1.00  0.00    -0.122 A  
HETATM   12  C   UNL     1      -6.467  10.041  67.729  1.00  0.00    -0.066 C  
HETATM   13  C   UNL     1      -8.585   9.858  69.940  1.00  0.00    -0.216 A  
HETATM   14  O   UNL     1      -5.327   9.954  67.261  1.00  0.00    -0.041 OA 
HETATM   15  C   UNL     1      -9.509   8.120  68.529  1.00  0.00    -0.144 A  
HETATM   16  C   UNL     1      -9.860  10.144  70.440  1.00  0.00     0.073 A  
HETATM   17  C   UNL     1     -10.785   8.425  69.036  1.00  0.00    -0.101 A  
HETATM   18  C   UNL     1     -10.965   9.451  69.961  1.00  0.00    -0.267 A  
ENDROOT
BRANCH  12  19
HETATM   19  C   UNL     1      -7.057  11.416  67.779  1.00  0.00    -0.081 A  
HETATM   20  C   UNL     1      -8.107  11.699  66.897  1.00  0.00    -0.164 A  
HETATM   21  C   UNL     1      -7.981  14.059  67.440  1.00  0.00    -0.175 A  
HETATM   22  C   UNL     1      -6.983  13.769  68.374  1.00  0.00    -0.103 A  
HETATM   23  C   UNL     1      -8.577  13.007  66.743  1.00  0.00    -0.061 A  
HETATM   24  C   UNL     1      -6.587  12.443  68.600  1.00  0.00    -0.079 A  
BRANCH  21  25
HETATM   25  N   UNL     1      -8.323  15.412  67.221  1.00  0.00    -0.182 N  
HETATM   26  C   UNL     1      -9.209  16.141  68.010  1.00  0.00    -0.195 C  
HETATM   27  H   UNL     1      -7.892  15.888  66.429  1.00  0.00     0.000 HD 
HETATM   28  O   UNL     1      -9.724  15.726  69.039  1.00  0.00    -0.211 OA 
BRANCH  26  29
HETATM   29  C   UNL     1      -9.461  17.570  67.631  1.00  0.00    -0.256 A  
HETATM   30  C   UNL     1     -10.526  17.831  66.735  1.00  0.00    -0.300 A  
HETATM   31  C   UNL     1     -10.706  19.092  66.172  1.00  0.00    -0.442 A  
HETATM   32  C   UNL     1      -9.829  20.113  66.491  1.00  0.00    -0.574 A  
HETATM   33  C   UNL     1      -8.805  19.883  67.411  1.00  0.00    -0.411 A  
HETATM   34  C   UNL     1      -8.579  18.619  68.016  1.00  0.00    -0.321 A  
BRANCH  34  35
HETATM   35  C   UNL     1      -7.457  18.523  69.008  1.00  0.00    -0.226 A  
HETATM   36  C   UNL     1      -6.854  19.649  69.597  1.00  0.00    -0.308 A  
HETATM   37  C   UNL     1      -5.757  19.530  70.465  1.00  0.00    -0.273 A  
HETATM   38  C   UNL     1      -5.206  18.282  70.736  1.00  0.00    -0.277 A  
HETATM   39  C   UNL     1      -5.775  17.148  70.173  1.00  0.00    -0.221 A  
HETATM   40  C   UNL     1      -6.896  17.269  69.342  1.00  0.00    -0.159 A  
ENDBRANCH  34  35
ENDBRANCH  26  29
ENDBRANCH  21  25
ENDBRANCH  12  19
TORSDOF 4
ENDMDL
MODEL       84
REMARK 921   NORMALIZED FREE ENERGY PREDICTED BY IDOCK:   -5.07 KCAL/MOL
REMARK 922        TOTAL FREE ENERGY PREDICTED BY IDOCK:   -7.74 KCAL/MOL
REMARK 923 INTER-LIGAND FREE ENERGY PREDICTED BY IDOCK:   -5.99 KCAL/MOL
REMARK 924 INTRA-LIGAND FREE ENERGY PREDICTED BY IDOCK:   -1.74 KCAL/MOL
REMARK 927      BINDING AFFINITY PREDICTED BY RF-SCORE:    0.00 PKD
ROOT
HETATM    1  C   UNL     1     -12.524  14.264  63.906  1.00  0.00    -0.062 C  
HETATM    2  C   UNL     1     -11.777  13.847  65.114  1.00  0.00    -0.350 A  
HETATM    3  N   UNL     1     -10.874  12.889  65.197  1.00  0.00    -0.289 NA 
HETATM    4  C   UNL     1     -10.486  12.863  66.512  1.00  0.00    -0.265 A  
HETATM    5  H   UNL     1     -10.535  12.294  64.441  1.00  0.00     0.000 HD 
HETATM    6  C   UNL     1     -11.125  13.847  67.224  1.00  0.00    -0.299 A  
HETATM    7  N   UNL     1     -11.955  14.463  66.331  1.00  0.00    -0.404 NA 
HETATM    8  C   UNL     1     -10.976  14.174  68.655  1.00  0.00    -0.275 C  
HETATM    9  C   UNL     1     -11.332  12.946  69.492  1.00  0.00    -0.153 C  
HETATM   10  N   UNL     1     -10.598  11.684  69.284  1.00  0.00    -0.112 N  
HETATM   11  C   UNL     1      -9.432  11.628  68.446  1.00  0.00    -0.193 A  
HETATM   12  C   UNL     1     -11.101  10.597  70.048  1.00  0.00    -0.289 C  
HETATM   13  C   UNL     1      -8.272  11.000  68.934  1.00  0.00    -0.127 A  
HETATM   14  O   UNL     1     -12.020  10.765  70.857  1.00  0.00    -0.326 OA 
HETATM   15  C   UNL     1      -9.445  12.035  67.086  1.00  0.00    -0.187 A  
HETATM   16  C   UNL     1      -7.229  10.629  68.078  1.00  0.00    -0.087 A  
HETATM   17  C   UNL     1      -8.393  11.647  66.236  1.00  0.00    -0.027 A  
HETATM   18  C   UNL     1      -7.307  10.922  66.722  1.00  0.00    -0.134 A  
ENDROOT
BRANCH  12  19
HETATM   19  C   UNL     1     -10.548   9.209  69.957  1.00  0.00    -0.250 A  
HETATM   20  C   UNL     1      -9.828   8.729  71.057  1.00  0.00    -0.293 A  
HETATM   21  C   UNL     1      -9.082   6.806  69.781  1.00  0.00    -0.143 A  
HETATM   22  C   UNL     1      -9.858   7.246  68.706  1.00  0.00    -0.161 A  
HETATM   23  C   UNL     1      -9.115   7.527  70.975  1.00  0.00    -0.148 A  
HETATM   24  C   UNL     1     -10.652   8.394  68.827  1.00  0.00    -0.154 A  
BRANCH  21  25
HETATM   25  N   UNL     1      -8.271   5.663  69.602  1.00  0.00    -0.105 N  
HETATM   26  C   UNL     1      -8.676   4.358  69.865  1.00  0.00    -0.073 C  
HETATM   27  H   UNL     1      -7.322   5.804  69.255  1.00  0.00     0.000 HD 
HETATM   28  O   UNL     1      -9.809   4.036  70.195  1.00  0.00    -0.210 OA 
BRANCH  26  29
HETATM   29  C   UNL     1      -7.683   3.260  69.621  1.00  0.00    -0.044 A  
HETATM   30  C   UNL     1      -7.125   2.620  70.754  1.00  0.00    -0.033 A  
HETATM   31  C   UNL     1      -6.054   1.737  70.632  1.00  0.00    -0.019 A  
HETATM   32  C   UNL     1      -5.522   1.479  69.382  1.00  0.00    -0.013 A  
HETATM   33  C   UNL     1      -6.094   2.065  68.252  1.00  0.00    -0.024 A  
HETATM   34  C   UNL     1      -7.187   2.968  68.319  1.00  0.00    -0.049 A  
BRANCH  34  35
HETATM   35  C   UNL     1      -7.719   3.501  67.022  1.00  0.00    -0.080 A  
HETATM   36  C   UNL     1      -7.164   4.613  66.362  1.00  0.00    -0.076 A  
HETATM   37  C   UNL     1      -7.730   5.134  65.188  1.00  0.00    -0.084 A  
HETATM   38  C   UNL     1      -8.894   4.582  64.662  1.00  0.00    -0.151 A  
HETATM   39  C   UNL     1      -9.470   3.484  65.286  1.00  0.00    -0.154 A  
HETATM   40  C   UNL     1      -8.876   2.942  66.433  1.00  0.00    -0.149 A  
ENDBRANCH  34  35
ENDBRANCH  26  29
ENDBRANCH  21  25
ENDBRANCH  12  19
TORSDOF 4
ENDMDL
MODEL       85
REMARK 921   NORMALIZED FREE ENERGY PREDICTED BY IDOCK:   -5.07 KCAL/MOL
REMARK 922        TOTAL FREE ENERGY PREDICTED BY IDOCK:   -7.73 KCAL/MOL
REMARK 923 INTER-LIGAND FREE ENERGY PREDICTED BY IDOCK:   -6.17 KCAL/MOL
REMARK 924 INTRA-LIGAND FREE ENERGY PREDICTED BY IDOCK:   -1.56 KCAL/MOL
REMARK 927      BINDING AFFINITY PREDICTED BY RF-SCORE:    0.00 PKD
ROOT
HETATM    1  C   UNL     1     -10.965  16.702  64.727  1.00  0.00    -0.123 C  
HETATM    2  C   UNL     1     -10.574  15.750  65.792  1.00  0.00    -0.355 A  
HETATM    3  N   UNL     1      -9.781  14.704  65.667  1.00  0.00    -0.493 NA 
HETATM    4  C   UNL     1      -9.740  14.125  66.911  1.00  0.00    -0.269 A  
HETATM    5  H   UNL     1      -9.299  14.391  64.825  1.00  0.00     0.000 HD 
HETATM    6  C   UNL     1     -10.476  14.856  67.808  1.00  0.00    -0.255 A  
HETATM    7  N   UNL     1     -11.015  15.884  67.087  1.00  0.00    -0.267 NA 
HETATM    8  C   UNL     1     -10.673  14.593  69.247  1.00  0.00    -0.254 C  
HETATM    9  C   UNL     1     -11.302  13.213  69.426  1.00  0.00    -0.213 C  
HETATM   10  N   UNL     1     -10.618  12.024  68.885  1.00  0.00    -0.196 N  
HETATM   11  C   UNL     1      -9.284  12.106  68.357  1.00  0.00    -0.154 A  
HETATM   12  C   UNL     1     -11.363  10.822  69.025  1.00  0.00    -0.284 C  
HETATM   13  C   UNL     1      -8.325  11.168  68.780  1.00  0.00    -0.136 A  
HETATM   14  O   UNL     1     -12.444  10.815  69.623  1.00  0.00    -0.289 OA 
HETATM   15  C   UNL     1      -8.929  12.991  67.305  1.00  0.00    -0.212 A  
HETATM   16  C   UNL     1      -7.125  10.988  68.084  1.00  0.00    -0.074 A  
HETATM   17  C   UNL     1      -7.722  12.792  66.610  1.00  0.00     0.446 A  
HETATM   18  C   UNL     1      -6.840  11.778  66.976  1.00  0.00    -0.137 A  
ENDROOT
BRANCH  12  19
HETATM   19  C   UNL     1     -10.890   9.502  68.500  1.00  0.00    -0.175 A  
HETATM   20  C   UNL     1     -10.604   8.501  69.436  1.00  0.00    -0.203 A  
HETATM   21  C   UNL     1      -9.587   7.127  67.716  1.00  0.00    -0.129 A  
HETATM   22  C   UNL     1      -9.937   8.092  66.769  1.00  0.00    -0.344 A  
HETATM   23  C   UNL     1      -9.974   7.315  69.044  1.00  0.00    -0.177 A  
HETATM   24  C   UNL     1     -10.660   9.231  67.149  1.00  0.00    -0.286 A  
BRANCH  21  25
HETATM   25  N   UNL     1      -8.829   6.013  67.293  1.00  0.00    -0.108 N  
HETATM   26  C   UNL     1      -9.348   4.917  66.608  1.00  0.00    -0.140 C  
HETATM   27  H   UNL     1      -7.831   6.010  67.503  1.00  0.00     0.000 HD 
HETATM   28  O   UNL     1     -10.502   4.831  66.210  1.00  0.00    -0.288 OA 
BRANCH  26  29
HETATM   29  C   UNL     1      -8.399   3.817  66.236  1.00  0.00    -0.105 A  
HETATM   30  C   UNL     1      -8.072   3.671  64.866  1.00  0.00    -0.090 A  
HETATM   31  C   UNL     1      -7.365   2.563  64.405  1.00  0.00    -0.058 A  
HETATM   32  C   UNL     1      -6.975   1.582  65.299  1.00  0.00    -0.042 A  
HETATM   33  C   UNL     1      -7.248   1.738  66.659  1.00  0.00    -0.055 A  
HETATM   34  C   UNL     1      -7.960   2.848  67.182  1.00  0.00    -0.075 A  
BRANCH  34  35
HETATM   35  C   UNL     1      -8.157   2.900  68.669  1.00  0.00    -0.068 A  
HETATM   36  C   UNL     1      -9.307   2.402  69.309  1.00  0.00    -0.177 A  
HETATM   37  C   UNL     1      -9.496   2.533  70.694  1.00  0.00    -0.197 A  
HETATM   38  C   UNL     1      -8.557   3.202  71.473  1.00  0.00    -0.102 A  
HETATM   39  C   UNL     1      -7.411   3.706  70.875  1.00  0.00    -0.037 A  
HETATM   40  C   UNL     1      -7.207   3.535  69.500  1.00  0.00    -0.045 A  
ENDBRANCH  34  35
ENDBRANCH  26  29
ENDBRANCH  21  25
ENDBRANCH  12  19
TORSDOF 4
ENDMDL
MODEL       86
REMARK 921   NORMALIZED FREE ENERGY PREDICTED BY IDOCK:   -4.99 KCAL/MOL
REMARK 922        TOTAL FREE ENERGY PREDICTED BY IDOCK:   -7.63 KCAL/MOL
REMARK 923 INTER-LIGAND FREE ENERGY PREDICTED BY IDOCK:   -6.60 KCAL/MOL
REMARK 924 INTRA-LIGAND FREE ENERGY PREDICTED BY IDOCK:   -1.04 KCAL/MOL
REMARK 927      BINDING AFFINITY PREDICTED BY RF-SCORE:    0.00 PKD
ROOT
HETATM    1  C   UNL     1      -8.725   4.325  74.297  1.00  0.00    -0.095 C  
HETATM    2  C   UNL     1      -8.140   4.906  73.068  1.00  0.00    -0.101 A  
HETATM    3  N   UNL     1      -8.322   6.128  72.604  1.00  0.00    -0.121 NA 
HETATM    4  C   UNL     1      -7.600   6.188  71.439  1.00  0.00    -0.099 A  
HETATM    5  H   UNL     1      -8.881   6.870  73.023  1.00  0.00     0.000 HD 
HETATM    6  C   UNL     1      -6.935   5.008  71.220  1.00  0.00    -0.048 A  
HETATM    7  N   UNL     1      -7.293   4.191  72.255  1.00  0.00    -0.061 NA 
HETATM    8  C   UNL     1      -6.037   4.667  70.101  1.00  0.00    -0.021 C  
HETATM    9  C   UNL     1      -6.797   4.809  68.783  1.00  0.00    -0.051 C  
HETATM   10  N   UNL     1      -7.412   6.101  68.431  1.00  0.00    -0.085 N  
HETATM   11  C   UNL     1      -7.158   7.285  69.208  1.00  0.00    -0.079 A  
HETATM   12  C   UNL     1      -8.178   6.065  67.235  1.00  0.00    -0.106 C  
HETATM   13  C   UNL     1      -6.794   8.470  68.543  1.00  0.00    -0.064 A  
HETATM   14  O   UNL     1      -8.227   5.039  66.548  1.00  0.00    -0.108 OA 
HETATM   15  C   UNL     1      -7.414   7.356  70.602  1.00  0.00    -0.078 A  
HETATM   16  C   UNL     1      -6.847   9.711  69.186  1.00  0.00    -0.050 A  
HETATM   17  C   UNL     1      -7.471   8.612  71.233  1.00  0.00    -0.117 A  
HETATM   18  C   UNL     1      -7.221   9.785  70.523  1.00  0.00    -0.130 A  
ENDROOT
BRANCH  12  19
HETATM   19  C   UNL     1      -8.937   7.245  66.715  1.00  0.00    -0.154 A  
HETATM   20  C   UNL     1      -8.418   7.900  65.591  1.00  0.00    -0.160 A  
HETATM   21  C   UNL     1      -9.993   9.723  65.876  1.00  0.00    -0.275 A  
HETATM   22  C   UNL     1     -10.560   9.036  66.953  1.00  0.00    -0.243 A  
HETATM   23  C   UNL     1      -8.954   9.120  65.165  1.00  0.00    -0.238 A  
HETATM   24  C   UNL     1     -10.087   7.766  67.312  1.00  0.00    -0.307 A  
BRANCH  21  25
HETATM   25  N   UNL     1     -10.478  11.014  65.572  1.00  0.00    -0.257 N  
HETATM   26  C   UNL     1      -9.890  12.201  66.002  1.00  0.00    -0.243 C  
HETATM   27  H   UNL     1     -11.319  11.083  64.998  1.00  0.00     0.000 HD 
HETATM   28  O   UNL     1      -8.833  12.269  66.615  1.00  0.00    -0.204 OA 
BRANCH  26  29
HETATM   29  C   UNL     1     -10.541  13.487  65.589  1.00  0.00    -0.284 A  
HETATM   30  C   UNL     1     -11.529  13.425  64.577  1.00  0.00    -0.402 A  
HETATM   31  C   UNL     1     -12.039  14.581  63.990  1.00  0.00    -0.271 A  
HETATM   32  C   UNL     1     -11.572  15.816  64.400  1.00  0.00    -0.240 A  
HETATM   33  C   UNL     1     -10.634  15.894  65.432  1.00  0.00    -0.439 A  
HETATM   34  C   UNL     1     -10.085  14.749  66.065  1.00  0.00    -0.327 A  
BRANCH  34  35
HETATM   35  C   UNL     1      -9.107  14.982  67.178  1.00  0.00    -0.229 A  
HETATM   36  C   UNL     1      -9.449  14.869  68.538  1.00  0.00    -0.210 A  
HETATM   37  C   UNL     1      -8.532  15.167  69.558  1.00  0.00    -0.144 A  
HETATM   38  C   UNL     1      -7.256  15.627  69.246  1.00  0.00    -0.198 A  
HETATM   39  C   UNL     1      -6.883  15.750  67.915  1.00  0.00    -0.161 A  
HETATM   40  C   UNL     1      -7.788  15.411  66.901  1.00  0.00    -0.196 A  
ENDBRANCH  34  35
ENDBRANCH  26  29
ENDBRANCH  21  25
ENDBRANCH  12  19
TORSDOF 4
ENDMDL
MODEL       87
REMARK 921   NORMALIZED FREE ENERGY PREDICTED BY IDOCK:   -4.86 KCAL/MOL
REMARK 922        TOTAL FREE ENERGY PREDICTED BY IDOCK:   -7.48 KCAL/MOL
REMARK 923 INTER-LIGAND FREE ENERGY PREDICTED BY IDOCK:   -6.75 KCAL/MOL
REMARK 924 INTRA-LIGAND FREE ENERGY PREDICTED BY IDOCK:   -0.73 KCAL/MOL
REMARK 927      BINDING AFFINITY PREDICTED BY RF-SCORE:    0.00 PKD
ROOT
HETATM    1  C   UNL     1     -11.003   3.737  73.617  1.00  0.00    -0.334 C  
HETATM    2  C   UNL     1     -10.161   4.166  72.477  1.00  0.00    -0.174 A  
HETATM    3  N   UNL     1      -9.780   5.396  72.192  1.00  0.00    -0.160 NA 
HETATM    4  C   UNL     1      -9.040   5.293  71.042  1.00  0.00    -0.143 A  
HETATM    5  H   UNL     1      -9.991   6.245  72.717  1.00  0.00     0.000 HD 
HETATM    6  C   UNL     1      -8.930   3.982  70.654  1.00  0.00    -0.090 A  
HETATM    7  N   UNL     1      -9.657   3.269  71.565  1.00  0.00    -0.155 NA 
HETATM    8  C   UNL     1      -8.204   3.438  69.490  1.00  0.00    -0.071 C  
HETATM    9  C   UNL     1      -8.759   4.064  68.211  1.00  0.00    -0.100 C  
HETATM   10  N   UNL     1      -8.744   5.529  68.051  1.00  0.00    -0.107 N  
HETATM   11  C   UNL     1      -8.053   6.376  68.985  1.00  0.00    -0.111 A  
HETATM   12  C   UNL     1      -9.387   5.982  66.868  1.00  0.00    -0.131 C  
HETATM   13  C   UNL     1      -7.183   7.365  68.492  1.00  0.00    -0.087 A  
HETATM   14  O   UNL     1      -9.832   5.177  66.043  1.00  0.00    -0.166 OA 
HETATM   15  C   UNL     1      -8.329   6.366  70.378  1.00  0.00    -0.126 A  
HETATM   16  C   UNL     1      -6.737   8.413  69.305  1.00  0.00    -0.046 A  
HETATM   17  C   UNL     1      -7.878   7.431  71.180  1.00  0.00    -0.092 A  
HETATM   18  C   UNL     1      -7.114   8.464  70.642  1.00  0.00    -0.044 A  
ENDROOT
BRANCH  12  19
HETATM   19  C   UNL     1      -9.541   7.431  66.525  1.00  0.00    -0.228 A  
HETATM   20  C   UNL     1      -8.593   7.994  65.662  1.00  0.00    -0.167 A  
HETATM   21  C   UNL     1      -9.432  10.221  66.127  1.00  0.00    -0.181 A  
HETATM   22  C   UNL     1     -10.425   9.656  66.931  1.00  0.00    -0.282 A  
HETATM   23  C   UNL     1      -8.551   9.376  65.451  1.00  0.00    -0.176 A  
HETATM   24  C   UNL     1     -10.529   8.264  67.058  1.00  0.00    -0.384 A  
BRANCH  21  25
HETATM   25  N   UNL     1      -9.345  11.630  66.057  1.00  0.00    -0.227 N  
HETATM   26  C   UNL     1      -9.997  12.506  66.921  1.00  0.00    -0.224 C  
HETATM   27  H   UNL     1      -8.764  12.033  65.323  1.00  0.00     0.000 HD 
HETATM   28  O   UNL     1     -10.648  12.161  67.898  1.00  0.00    -0.197 OA 
BRANCH  26  29
HETATM   29  C   UNL     1      -9.796  13.975  66.701  1.00  0.00    -0.288 A  
HETATM   30  C   UNL     1     -10.714  14.642  65.854  1.00  0.00    -0.312 A  
HETATM   31  C   UNL     1     -10.492  15.950  65.432  1.00  0.00    -0.429 A  
HETATM   32  C   UNL     1      -9.352  16.616  65.845  1.00  0.00    -0.192 A  
HETATM   33  C   UNL     1      -8.463  15.988  66.720  1.00  0.00    -0.295 A  
HETATM   34  C   UNL     1      -8.644  14.659  67.183  1.00  0.00    -0.244 A  
BRANCH  34  35
HETATM   35  C   UNL     1      -7.624  14.121  68.143  1.00  0.00    -0.136 A  
HETATM   36  C   UNL     1      -7.034  12.851  68.006  1.00  0.00    -0.108 A  
HETATM   37  C   UNL     1      -6.139  12.345  68.961  1.00  0.00    -0.077 A  
HETATM   38  C   UNL     1      -5.839  13.080  70.104  1.00  0.00    -0.153 A  
HETATM   39  C   UNL     1      -6.401  14.338  70.272  1.00  0.00    -0.140 A  
HETATM   40  C   UNL     1      -7.261  14.855  69.295  1.00  0.00    -0.172 A  
ENDBRANCH  34  35
ENDBRANCH  26  29
ENDBRANCH  21  25
ENDBRANCH  12  19
TORSDOF 4
ENDMDL
MODEL       88
REMARK 921   NORMALIZED FREE ENERGY PREDICTED BY IDOCK:   -4.85 KCAL/MOL
REMARK 922        TOTAL FREE ENERGY PREDICTED BY IDOCK:   -7.47 KCAL/MOL
REMARK 923 INTER-LIGAND FREE ENERGY PREDICTED BY IDOCK:   -6.52 KCAL/MOL
REMARK 924 INTRA-LIGAND FREE ENERGY PREDICTED BY IDOCK:   -0.95 KCAL/MOL
REMARK 927      BINDING AFFINITY PREDICTED BY RF-SCORE:    0.00 PKD
ROOT
HETATM    1  C   UNL     1     -10.540  18.764  66.534  1.00  0.00    -0.436 C  
HETATM    2  C   UNL     1     -10.281  17.485  67.233  1.00  0.00    -0.335 A  
HETATM    3  N   UNL     1      -9.492  16.507  66.831  1.00  0.00    -0.230 NA 
HETATM    4  C   UNL     1      -9.596  15.534  67.792  1.00  0.00    -0.209 A  
HETATM    5  H   UNL     1      -8.925  16.481  65.984  1.00  0.00     0.000 HD 
HETATM    6  C   UNL     1     -10.417  15.946  68.811  1.00  0.00    -0.237 A  
HETATM    7  N   UNL     1     -10.860  17.186  68.444  1.00  0.00    -0.349 NA 
HETATM    8  C   UNL     1     -10.775  15.214  70.041  1.00  0.00    -0.259 C  
HETATM    9  C   UNL     1     -11.438  13.890  69.664  1.00  0.00    -0.248 C  
HETATM   10  N   UNL     1     -10.715  12.928  68.814  1.00  0.00    -0.242 N  
HETATM   11  C   UNL     1      -9.329  13.120  68.482  1.00  0.00    -0.085 A  
HETATM   12  C   UNL     1     -11.485  11.790  68.452  1.00  0.00    -0.294 C  
HETATM   13  C   UNL     1      -8.435  12.046  68.644  1.00  0.00    -0.022 A  
HETATM   14  O   UNL     1     -12.626  11.632  68.900  1.00  0.00    -0.127 OA 
HETATM   15  C   UNL     1      -8.849  14.294  67.845  1.00  0.00    -0.179 A  
HETATM   16  C   UNL     1      -7.168  12.057  68.051  1.00  0.00    -0.096 A  
HETATM   17  C   UNL     1      -7.576  14.286  67.246  1.00  0.00    -0.118 A  
HETATM   18  C   UNL     1      -6.753  13.164  67.321  1.00  0.00     0.020 A  
ENDROOT
BRANCH  12  19
HETATM   19  C   UNL     1     -10.975  10.711  67.549  1.00  0.00    -0.371 A  
HETATM   20  C   UNL     1     -10.644   9.484  68.136  1.00  0.00    -0.265 A  
HETATM   21  C   UNL     1      -9.603   8.734  66.078  1.00  0.00    -0.226 A  
HETATM   22  C   UNL     1      -9.997   9.929  65.470  1.00  0.00    -0.363 A  
HETATM   23  C   UNL     1      -9.980   8.497  67.400  1.00  0.00    -0.275 A  
HETATM   24  C   UNL     1     -10.753  10.872  66.180  1.00  0.00    -0.225 A  
BRANCH  21  25
HETATM   25  N   UNL     1      -8.813   7.830  65.334  1.00  0.00    -0.371 N  
HETATM   26  C   UNL     1      -8.357   6.603  65.810  1.00  0.00    -0.143 C  
HETATM   27  H   UNL     1      -8.558   8.093  64.382  1.00  0.00     0.000 HD 
HETATM   28  O   UNL     1      -8.662   6.122  66.893  1.00  0.00    -0.108 OA 
BRANCH  26  29
HETATM   29  C   UNL     1      -7.524   5.767  64.885  1.00  0.00    -0.079 A  
HETATM   30  C   UNL     1      -7.744   4.368  64.891  1.00  0.00    -0.081 A  
HETATM   31  C   UNL     1      -6.888   3.497  64.222  1.00  0.00    -0.044 A  
HETATM   32  C   UNL     1      -5.797   4.004  63.539  1.00  0.00    -0.014 A  
HETATM   33  C   UNL     1      -5.596   5.384  63.483  1.00  0.00    -0.014 A  
HETATM   34  C   UNL     1      -6.440   6.315  64.143  1.00  0.00    -0.030 A  
BRANCH  34  35
HETATM   35  C   UNL     1      -6.120   7.771  63.975  1.00  0.00    -0.057 A  
HETATM   36  C   UNL     1      -5.370   8.507  64.910  1.00  0.00    -0.035 A  
HETATM   37  C   UNL     1      -5.151   9.885  64.762  1.00  0.00    -0.058 A  
HETATM   38  C   UNL     1      -5.713  10.577  63.693  1.00  0.00    -0.109 A  
HETATM   39  C   UNL     1      -6.460   9.884  62.750  1.00  0.00    -0.117 A  
HETATM   40  C   UNL     1      -6.638   8.501  62.880  1.00  0.00    -0.090 A  
ENDBRANCH  34  35
ENDBRANCH  26  29
ENDBRANCH  21  25
ENDBRANCH  12  19
TORSDOF 4
ENDMDL
MODEL       89
REMARK 921   NORMALIZED FREE ENERGY PREDICTED BY IDOCK:   -4.84 KCAL/MOL
REMARK 922        TOTAL FREE ENERGY PREDICTED BY IDOCK:   -7.45 KCAL/MOL
REMARK 923 INTER-LIGAND FREE ENERGY PREDICTED BY IDOCK:   -6.24 KCAL/MOL
REMARK 924 INTRA-LIGAND FREE ENERGY PREDICTED BY IDOCK:   -1.21 KCAL/MOL
REMARK 927      BINDING AFFINITY PREDICTED BY RF-SCORE:    0.00 PKD
ROOT
HETATM    1  C   UNL     1     -11.293   2.026  62.635  1.00  0.00    -0.219 C  
HETATM    2  C   UNL     1     -10.507   2.798  63.625  1.00  0.00    -0.189 A  
HETATM    3  N   UNL     1     -10.937   3.793  64.376  1.00  0.00    -0.623 NA 
HETATM    4  C   UNL     1      -9.849   4.196  65.108  1.00  0.00    -0.205 A  
HETATM    5  H   UNL     1     -11.880   4.181  64.406  1.00  0.00     0.000 HD 
HETATM    6  C   UNL     1      -8.762   3.405  64.834  1.00  0.00    -0.112 A  
HETATM    7  N   UNL     1      -9.184   2.523  63.879  1.00  0.00    -0.106 NA 
HETATM    8  C   UNL     1      -7.410   3.486  65.418  1.00  0.00    -0.076 C  
HETATM    9  C   UNL     1      -6.825   4.871  65.146  1.00  0.00    -0.053 C  
HETATM   10  N   UNL     1      -7.543   6.071  65.613  1.00  0.00    -0.082 N  
HETATM   11  C   UNL     1      -8.685   5.967  66.481  1.00  0.00    -0.128 A  
HETATM   12  C   UNL     1      -6.947   7.293  65.200  1.00  0.00    -0.055 C  
HETATM   13  C   UNL     1      -8.739   6.771  67.634  1.00  0.00    -0.119 A  
HETATM   14  O   UNL     1      -5.881   7.295  64.575  1.00  0.00    -0.036 OA 
HETATM   15  C   UNL     1      -9.837   5.208  66.144  1.00  0.00    -0.204 A  
HETATM   16  C   UNL     1      -9.936   6.958  68.335  1.00  0.00    -0.150 A  
HETATM   17  C   UNL     1     -11.034   5.413  66.855  1.00  0.00     0.014 A  
HETATM   18  C   UNL     1     -11.092   6.306  67.923  1.00  0.00    -0.360 A  
ENDROOT
BRANCH  12  19
HETATM   19  C   UNL     1      -7.534   8.634  65.511  1.00  0.00    -0.085 A  
HETATM   20  C   UNL     1      -8.750   8.962  64.900  1.00  0.00    -0.184 A  
HETATM   21  C   UNL     1      -8.548  11.262  65.642  1.00  0.00    -0.023 A  
HETATM   22  C   UNL     1      -7.372  10.920  66.313  1.00  0.00    -0.127 A  
HETATM   23  C   UNL     1      -9.262  10.262  64.981  1.00  0.00    -0.259 A  
HETATM   24  C   UNL     1      -6.917   9.594  66.317  1.00  0.00    -0.092 A  
BRANCH  21  25
HETATM   25  N   UNL     1      -8.949  12.617  65.636  1.00  0.00    -0.208 N  
HETATM   26  C   UNL     1      -9.571  13.261  66.703  1.00  0.00    -0.262 C  
HETATM   27  H   UNL     1      -8.771  13.162  64.793  1.00  0.00     0.000 HD 
HETATM   28  O   UNL     1      -9.761  12.758  67.802  1.00  0.00    -0.195 OA 
BRANCH  26  29
HETATM   29  C   UNL     1      -9.933  14.706  66.525  1.00  0.00    -0.292 A  
HETATM   30  C   UNL     1     -11.077  15.002  65.745  1.00  0.00    -0.346 A  
HETATM   31  C   UNL     1     -11.372  16.307  65.360  1.00  0.00     0.188 A  
HETATM   32  C   UNL     1     -10.533  17.338  65.743  1.00  0.00    -0.237 A  
HETATM   33  C   UNL     1      -9.430  17.066  66.554  1.00  0.00    -0.295 A  
HETATM   34  C   UNL     1      -9.086  15.756  66.977  1.00  0.00    -0.240 A  
BRANCH  34  35
HETATM   35  C   UNL     1      -7.888  15.615  67.870  1.00  0.00    -0.143 A  
HETATM   36  C   UNL     1      -6.572  15.853  67.433  1.00  0.00    -0.222 A  
HETATM   37  C   UNL     1      -5.466  15.640  68.271  1.00  0.00    -0.115 A  
HETATM   38  C   UNL     1      -5.643  15.142  69.558  1.00  0.00    -0.096 A  
HETATM   39  C   UNL     1      -6.927  14.895  70.023  1.00  0.00    -0.095 A  
HETATM   40  C   UNL     1      -8.029  15.151  69.198  1.00  0.00    -0.205 A  
ENDBRANCH  34  35
ENDBRANCH  26  29
ENDBRANCH  21  25
ENDBRANCH  12  19
TORSDOF 4
ENDMDL
MODEL       90
REMARK 921   NORMALIZED FREE ENERGY PREDICTED BY IDOCK:   -4.80 KCAL/MOL
REMARK 922        TOTAL FREE ENERGY PREDICTED BY IDOCK:   -7.40 KCAL/MOL
REMARK 923 INTER-LIGAND FREE ENERGY PREDICTED BY IDOCK:   -6.12 KCAL/MOL
REMARK 924 INTRA-LIGAND FREE ENERGY PREDICTED BY IDOCK:   -1.28 KCAL/MOL
REMARK 927      BINDING AFFINITY PREDICTED BY RF-SCORE:    0.00 PKD
ROOT
HETATM    1  C   UNL     1      -5.135   3.416  73.659  1.00  0.00     0.000 C  
HETATM    2  C   UNL     1      -5.948   3.852  72.502  1.00  0.00    -0.008 A  
HETATM    3  N   UNL     1      -5.801   4.960  71.802  1.00  0.00    -0.015 NA 
HETATM    4  C   UNL     1      -6.795   4.931  70.856  1.00  0.00    -0.040 A  
HETATM    5  H   UNL     1      -5.097   5.685  71.935  1.00  0.00     0.000 HD 
HETATM    6  C   UNL     1      -7.520   3.770  70.953  1.00  0.00    -0.040 A  
HETATM    7  N   UNL     1      -6.984   3.092  72.011  1.00  0.00    -0.033 NA 
HETATM    8  C   UNL     1      -8.655   3.337  70.115  1.00  0.00    -0.107 C  
HETATM    9  C   UNL     1      -9.773   4.375  70.205  1.00  0.00    -0.211 C  
HETATM   10  N   UNL     1      -9.501   5.774  69.829  1.00  0.00    -0.145 N  
HETATM   11  C   UNL     1      -8.263   6.152  69.204  1.00  0.00    -0.113 A  
HETATM   12  C   UNL     1     -10.593   6.653  70.063  1.00  0.00    -0.224 C  
HETATM   13  C   UNL     1      -8.301   6.951  68.047  1.00  0.00    -0.121 A  
HETATM   14  O   UNL     1     -11.676   6.219  70.471  1.00  0.00    -0.354 OA 
HETATM   15  C   UNL     1      -6.997   5.892  69.791  1.00  0.00    -0.066 A  
HETATM   16  C   UNL     1      -7.159   7.613  67.581  1.00  0.00    -0.085 A  
HETATM   17  C   UNL     1      -5.860   6.570  69.315  1.00  0.00    -0.021 A  
HETATM   18  C   UNL     1      -5.945   7.450  68.238  1.00  0.00    -0.034 A  
ENDROOT
BRANCH  12  19
HETATM   19  C   UNL     1     -10.525   8.126  69.809  1.00  0.00    -0.227 A  
HETATM   20  C   UNL     1     -11.257   8.627  68.726  1.00  0.00     0.403 A  
HETATM   21  C   UNL     1     -10.166  10.783  68.934  1.00  0.00    -0.203 A  
HETATM   22  C   UNL     1      -9.489  10.308  70.059  1.00  0.00     0.039 A  
HETATM   23  C   UNL     1     -11.092   9.951  68.304  1.00  0.00    -0.207 A  
HETATM   24  C   UNL     1      -9.735   9.014  70.542  1.00  0.00    -0.262 A  
BRANCH  21  25
HETATM   25  N   UNL     1      -9.861  12.080  68.464  1.00  0.00    -0.295 N  
HETATM   26  C   UNL     1     -10.571  13.230  68.800  1.00  0.00    -0.201 C  
HETATM   27  H   UNL     1      -9.065  12.182  67.834  1.00  0.00     0.000 HD 
HETATM   28  O   UNL     1     -11.484  13.269  69.614  1.00  0.00    -0.258 OA 
BRANCH  26  29
HETATM   29  C   UNL     1     -10.110  14.528  68.207  1.00  0.00    -0.232 A  
HETATM   30  C   UNL     1      -9.407  15.421  69.052  1.00  0.00    -0.232 A  
HETATM   31  C   UNL     1      -9.120  16.723  68.651  1.00  0.00    -0.254 A  
HETATM   32  C   UNL     1      -9.531  17.159  67.404  1.00  0.00    -0.247 A  
HETATM   33  C   UNL     1     -10.181  16.274  66.541  1.00  0.00    -0.307 A  
HETATM   34  C   UNL     1     -10.494  14.937  66.899  1.00  0.00    -0.280 A  
BRANCH  34  35
HETATM   35  C   UNL     1     -11.171  14.089  65.862  1.00  0.00    -0.308 A  
HETATM   36  C   UNL     1     -12.204  13.184  66.164  1.00  0.00    -0.451 A  
HETATM   37  C   UNL     1     -12.766  12.350  65.185  1.00  0.00    -0.053 A  
HETATM   38  C   UNL     1     -12.282  12.370  63.881  1.00  0.00    -0.603 A  
HETATM   39  C   UNL     1     -11.263  13.251  63.545  1.00  0.00     0.003 A  
HETATM   40  C   UNL     1     -10.736  14.111  64.517  1.00  0.00    -0.323 A  
ENDBRANCH  34  35
ENDBRANCH  26  29
ENDBRANCH  21  25
ENDBRANCH  12  19
TORSDOF 4
ENDMDL
MODEL       91
REMARK 921   NORMALIZED FREE ENERGY PREDICTED BY IDOCK:   -4.68 KCAL/MOL
REMARK 922        TOTAL FREE ENERGY PREDICTED BY IDOCK:   -7.26 KCAL/MOL
REMARK 923 INTER-LIGAND FREE ENERGY PREDICTED BY IDOCK:   -5.95 KCAL/MOL
REMARK 924 INTRA-LIGAND FREE ENERGY PREDICTED BY IDOCK:   -1.30 KCAL/MOL
REMARK 927      BINDING AFFINITY PREDICTED BY RF-SCORE:    0.00 PKD
ROOT
HETATM    1  C   UNL     1     -12.779  16.336  73.757  1.00  0.00    -0.614 C  
HETATM    2  C   UNL     1     -12.691  15.438  72.583  1.00  0.00    -0.392 A  
HETATM    3  N   UNL     1     -12.568  14.125  72.598  1.00  0.00    -0.227 NA 
HETATM    4  C   UNL     1     -12.505  13.748  71.280  1.00  0.00    -0.345 A  
HETATM    5  H   UNL     1     -12.528  13.518  73.416  1.00  0.00     0.000 HD 
HETATM    6  C   UNL     1     -12.642  14.838  70.459  1.00  0.00    -0.359 A  
HETATM    7  N   UNL     1     -12.747  15.914  71.295  1.00  0.00    -0.427 NA 
HETATM    8  C   UNL     1     -12.652  14.868  68.983  1.00  0.00     0.207 C  
HETATM    9  C   UNL     1     -11.343  14.282  68.458  1.00  0.00    -0.282 C  
HETATM   10  N   UNL     1     -10.954  12.911  68.835  1.00  0.00    -0.244 N  
HETATM   11  C   UNL     1     -11.862  12.042  69.533  1.00  0.00    -0.326 A  
HETATM   12  C   UNL     1      -9.667  12.532  68.368  1.00  0.00    -0.189 C  
HETATM   13  C   UNL     1     -12.053  10.733  69.057  1.00  0.00    -0.170 A  
HETATM   14  O   UNL     1      -9.007  13.290  67.649  1.00  0.00    -0.178 OA 
HETATM   15  C   UNL     1     -12.454  12.391  70.775  1.00  0.00    -0.356 A  
HETATM   16  C   UNL     1     -12.656   9.750  69.850  1.00  0.00     0.516 A  
HETATM   17  C   UNL     1     -13.051  11.390  71.564  1.00  0.00    -0.438 A  
HETATM   18  C   UNL     1     -13.123  10.072  71.119  1.00  0.00    -0.472 A  
ENDROOT
BRANCH  12  19
HETATM   19  C   UNL     1      -9.042  11.207  68.678  1.00  0.00    -0.166 A  
HETATM   20  C   UNL     1      -8.788  10.348  67.602  1.00  0.00    -0.124 A  
HETATM   21  C   UNL     1      -8.281   8.528  69.123  1.00  0.00    -0.119 A  
HETATM   22  C   UNL     1      -8.463   9.404  70.196  1.00  0.00    -0.224 A  
HETATM   23  C   UNL     1      -8.393   9.024  67.824  1.00  0.00    -0.117 A  
HETATM   24  C   UNL     1      -8.757  10.755  69.968  1.00  0.00     0.855 A  
BRANCH  21  25
HETATM   25  N   UNL     1      -8.020   7.168  69.402  1.00  0.00    -0.123 N  
HETATM   26  C   UNL     1      -6.878   6.698  70.045  1.00  0.00    -0.054 C  
HETATM   27  H   UNL     1      -8.717   6.482  69.113  1.00  0.00     0.000 HD 
HETATM   28  O   UNL     1      -6.009   7.413  70.526  1.00  0.00    -0.030 OA 
BRANCH  26  29
HETATM   29  C   UNL     1      -6.761   5.218  70.258  1.00  0.00    -0.047 A  
HETATM   30  C   UNL     1      -5.806   4.519  69.480  1.00  0.00    -0.017 A  
HETATM   31  C   UNL     1      -5.765   3.127  69.463  1.00  0.00    -0.018 A  
HETATM   32  C   UNL     1      -6.676   2.409  70.216  1.00  0.00    -0.033 A  
HETATM   33  C   UNL     1      -7.591   3.086  71.026  1.00  0.00    -0.036 A  
HETATM   34  C   UNL     1      -7.672   4.501  71.083  1.00  0.00    -0.076 A  
BRANCH  34  35
HETATM   35  C   UNL     1      -8.685   5.094  72.018  1.00  0.00    -0.134 A  
HETATM   36  C   UNL     1     -10.017   4.647  72.091  1.00  0.00    -0.241 A  
HETATM   37  C   UNL     1     -10.960   5.271  72.922  1.00  0.00    -0.343 A  
HETATM   38  C   UNL     1     -10.608   6.387  73.674  1.00  0.00    -0.288 A  
HETATM   39  C   UNL     1      -9.303   6.856  73.627  1.00  0.00    -0.207 A  
HETATM   40  C   UNL     1      -8.354   6.203  72.830  1.00  0.00    -0.117 A  
ENDBRANCH  34  35
ENDBRANCH  26  29
ENDBRANCH  21  25
ENDBRANCH  12  19
TORSDOF 4
ENDMDL
MODEL       92
REMARK 921   NORMALIZED FREE ENERGY PREDICTED BY IDOCK:   -4.68 KCAL/MOL
REMARK 922        TOTAL FREE ENERGY PREDICTED BY IDOCK:   -7.25 KCAL/MOL
REMARK 923 INTER-LIGAND FREE ENERGY PREDICTED BY IDOCK:   -6.63 KCAL/MOL
REMARK 924 INTRA-LIGAND FREE ENERGY PREDICTED BY IDOCK:   -0.62 KCAL/MOL
REMARK 927      BINDING AFFINITY PREDICTED BY RF-SCORE:    0.00 PKD
ROOT
HETATM    1  C   UNL     1     -10.927   3.508  64.272  1.00  0.00     0.088 C  
HETATM    2  C   UNL     1     -10.270   4.101  65.458  1.00  0.00    -0.157 A  
HETATM    3  N   UNL     1     -10.714   5.103  66.193  1.00  0.00    -0.614 NA 
HETATM    4  C   UNL     1      -9.757   5.304  67.155  1.00  0.00    -0.151 A  
HETATM    5  H   UNL     1     -11.586   5.618  66.071  1.00  0.00     0.000 HD 
HETATM    6  C   UNL     1      -8.747   4.383  67.032  1.00  0.00    -0.108 A  
HETATM    7  N   UNL     1      -9.073   3.627  65.942  1.00  0.00    -0.146 NA 
HETATM    8  C   UNL     1      -7.545   4.237  67.875  1.00  0.00    -0.069 C  
HETATM    9  C   UNL     1      -6.745   5.539  67.842  1.00  0.00    -0.055 C  
HETATM   10  N   UNL     1      -7.385   6.799  68.261  1.00  0.00    -0.091 N  
HETATM   11  C   UNL     1      -8.684   6.808  68.876  1.00  0.00    -0.129 A  
HETATM   12  C   UNL     1      -6.565   7.945  68.078  1.00  0.00    -0.056 C  
HETATM   13  C   UNL     1      -8.871   7.544  70.060  1.00  0.00    -0.144 A  
HETATM   14  O   UNL     1      -5.403   7.833  67.676  1.00  0.00    -0.029 OA 
HETATM   15  C   UNL     1      -9.829   6.242  68.257  1.00  0.00    -0.134 A  
HETATM   16  C   UNL     1     -10.152   7.858  70.527  1.00  0.00    -0.192 A  
HETATM   17  C   UNL     1     -11.110   6.574  68.734  1.00  0.00    -0.357 A  
HETATM   18  C   UNL     1     -11.272   7.402  69.843  1.00  0.00    -0.155 A  
ENDROOT
BRANCH  12  19
HETATM   19  C   UNL     1      -7.027   9.336  68.381  1.00  0.00    -0.067 A  
HETATM   20  C   UNL     1      -8.065   9.856  67.598  1.00  0.00    -0.110 A  
HETATM   21  C   UNL     1      -7.715  12.068  68.529  1.00  0.00    -0.127 A  
HETATM   22  C   UNL     1      -6.729  11.536  69.364  1.00  0.00    -0.116 A  
HETATM   23  C   UNL     1      -8.418  11.207  67.685  1.00  0.00    -0.122 A  
HETATM   24  C   UNL     1      -6.450  10.163  69.348  1.00  0.00    -0.050 A  
BRANCH  21  25
HETATM   25  N   UNL     1      -7.938  13.462  68.555  1.00  0.00    -0.212 N  
HETATM   26  C   UNL     1      -7.125  14.404  67.929  1.00  0.00    -0.159 C  
HETATM   27  H   UNL     1      -8.751  13.804  69.067  1.00  0.00     0.000 HD 
HETATM   28  O   UNL     1      -6.175  14.131  67.208  1.00  0.00    -0.301 OA 
BRANCH  26  29
HETATM   29  C   UNL     1      -7.507  15.848  68.061  1.00  0.00    -0.135 A  
HETATM   30  C   UNL     1      -6.492  16.814  67.860  1.00  0.00    -0.151 A  
HETATM   31  C   UNL     1      -6.703  18.159  68.157  1.00  0.00    -0.206 A  
HETATM   32  C   UNL     1      -7.925  18.562  68.662  1.00  0.00    -0.334 A  
HETATM   33  C   UNL     1      -8.951  17.628  68.819  1.00  0.00    -0.207 A  
HETATM   34  C   UNL     1      -8.791  16.248  68.528  1.00  0.00    -0.219 A  
BRANCH  34  35
HETATM   35  C   UNL     1      -9.987  15.363  68.718  1.00  0.00    -0.208 A  
HETATM   36  C   UNL     1     -10.513  15.042  69.982  1.00  0.00    -0.139 A  
HETATM   37  C   UNL     1     -11.587  14.151  70.131  1.00  0.00    -0.292 A  
HETATM   38  C   UNL     1     -12.140  13.522  69.020  1.00  0.00    -0.330 A  
HETATM   39  C   UNL     1     -11.647  13.814  67.756  1.00  0.00    -0.381 A  
HETATM   40  C   UNL     1     -10.604  14.737  67.610  1.00  0.00    -0.262 A  
ENDBRANCH  34  35
ENDBRANCH  26  29
ENDBRANCH  21  25
ENDBRANCH  12  19
TORSDOF 4
ENDMDL
MODEL       93
REMARK 921   NORMALIZED FREE ENERGY PREDICTED BY IDOCK:   -4.64 KCAL/MOL
REMARK 922        TOTAL FREE ENERGY PREDICTED BY IDOCK:   -7.20 KCAL/MOL
REMARK 923 INTER-LIGAND FREE ENERGY PREDICTED BY IDOCK:   -6.41 KCAL/MOL
REMARK 924 INTRA-LIGAND FREE ENERGY PREDICTED BY IDOCK:   -0.79 KCAL/MOL
REMARK 927      BINDING AFFINITY PREDICTED BY RF-SCORE:    0.00 PKD
ROOT
HETATM    1  C   UNL     1      -7.131  17.854  65.632  1.00  0.00    -0.098 C  
HETATM    2  C   UNL     1      -7.685  16.745  66.440  1.00  0.00    -0.310 A  
HETATM    3  N   UNL     1      -7.105  15.590  66.705  1.00  0.00    -0.258 NA 
HETATM    4  C   UNL     1      -8.010  14.891  67.463  1.00  0.00    -0.178 A  
HETATM    5  H   UNL     1      -6.179  15.283  66.409  1.00  0.00     0.000 HD 
HETATM    6  C   UNL     1      -9.129  15.648  67.701  1.00  0.00    -0.192 A  
HETATM    7  N   UNL     1      -8.922  16.824  67.037  1.00  0.00    -0.200 NA 
HETATM    8  C   UNL     1     -10.323  15.281  68.487  1.00  0.00    -0.231 C  
HETATM    9  C   UNL     1     -10.955  14.026  67.888  1.00  0.00    -0.247 C  
HETATM   10  N   UNL     1     -10.155  12.794  67.764  1.00  0.00    -0.219 N  
HETATM   11  C   UNL     1      -8.852  12.687  68.362  1.00  0.00    -0.119 A  
HETATM   12  C   UNL     1     -10.829  11.739  67.092  1.00  0.00    -0.258 C  
HETATM   13  C   UNL     1      -8.551  11.552  69.138  1.00  0.00     0.237 A  
HETATM   14  O   UNL     1     -12.005  11.867  66.735  1.00  0.00    -0.613 OA 
HETATM   15  C   UNL     1      -7.799  13.594  68.075  1.00  0.00    -0.150 A  
HETATM   16  C   UNL     1      -7.232  11.230  69.474  1.00  0.00    -0.020 A  
HETATM   17  C   UNL     1      -6.478  13.252  68.413  1.00  0.00    -0.091 A  
HETATM   18  C   UNL     1      -6.191  12.062  69.080  1.00  0.00    -0.087 A  
ENDROOT
BRANCH  12  19
HETATM   19  C   UNL     1     -10.192  10.416  66.803  1.00  0.00    -0.282 A  
HETATM   20  C   UNL     1      -9.322  10.346  65.709  1.00  0.00    -0.230 A  
HETATM   21  C   UNL     1      -9.255   7.926  65.865  1.00  0.00    -0.042 A  
HETATM   22  C   UNL     1     -10.064   7.999  67.002  1.00  0.00    -0.350 A  
HETATM   23  C   UNL     1      -8.843   9.111  65.255  1.00  0.00    -0.240 A  
HETATM   24  C   UNL     1     -10.457   9.244  67.515  1.00  0.00    -0.338 A  
BRANCH  21  25
HETATM   25  N   UNL     1      -8.914   6.650  65.365  1.00  0.00    -0.365 N  
HETATM   26  C   UNL     1      -9.609   5.478  65.649  1.00  0.00     0.053 C  
HETATM   27  H   UNL     1      -8.101   6.583  64.752  1.00  0.00     0.000 HD 
HETATM   28  O   UNL     1     -10.650   5.426  66.290  1.00  0.00    -0.260 OA 
BRANCH  26  29
HETATM   29  C   UNL     1      -9.105   4.206  65.034  1.00  0.00    -0.143 A  
HETATM   30  C   UNL     1      -9.257   4.051  63.635  1.00  0.00    -0.138 A  
HETATM   31  C   UNL     1      -9.007   2.832  63.009  1.00  0.00    -0.088 A  
HETATM   32  C   UNL     1      -8.604   1.748  63.767  1.00  0.00    -0.081 A  
HETATM   33  C   UNL     1      -8.402   1.899  65.140  1.00  0.00    -0.085 A  
HETATM   34  C   UNL     1      -8.639   3.119  65.825  1.00  0.00    -0.118 A  
BRANCH  34  35
HETATM   35  C   UNL     1      -8.354   3.145  67.298  1.00  0.00    -0.089 A  
HETATM   36  C   UNL     1      -9.227   2.604  68.260  1.00  0.00    -0.255 A  
HETATM   37  C   UNL     1      -8.968   2.711  69.635  1.00  0.00    -0.168 A  
HETATM   38  C   UNL     1      -7.848   3.400  70.090  1.00  0.00    -0.049 A  
HETATM   39  C   UNL     1      -6.965   3.947  69.170  1.00  0.00    -0.046 A  
HETATM   40  C   UNL     1      -7.205   3.800  67.798  1.00  0.00    -0.062 A  
ENDBRANCH  34  35
ENDBRANCH  26  29
ENDBRANCH  21  25
ENDBRANCH  12  19
TORSDOF 4
ENDMDL
MODEL       94
REMARK 921   NORMALIZED FREE ENERGY PREDICTED BY IDOCK:   -4.57 KCAL/MOL
REMARK 922        TOTAL FREE ENERGY PREDICTED BY IDOCK:   -7.12 KCAL/MOL
REMARK 923 INTER-LIGAND FREE ENERGY PREDICTED BY IDOCK:   -6.15 KCAL/MOL
REMARK 924 INTRA-LIGAND FREE ENERGY PREDICTED BY IDOCK:   -0.97 KCAL/MOL
REMARK 927      BINDING AFFINITY PREDICTED BY RF-SCORE:    0.00 PKD
ROOT
HETATM    1  C   UNL     1     -10.337  19.772  69.532  1.00  0.00     0.090 C  
HETATM    2  C   UNL     1     -10.027  18.617  68.659  1.00  0.00    -0.388 A  
HETATM    3  N   UNL     1     -10.684  17.475  68.592  1.00  0.00    -0.308 NA 
HETATM    4  C   UNL     1     -10.011  16.720  67.665  1.00  0.00    -0.262 A  
HETATM    5  H   UNL     1     -11.516  17.211  69.118  1.00  0.00     0.000 HD 
HETATM    6  C   UNL     1      -8.966  17.429  67.130  1.00  0.00    -0.240 A  
HETATM    7  N   UNL     1      -8.973  18.633  67.776  1.00  0.00    -0.279 NA 
HETATM    8  C   UNL     1      -8.011  16.995  66.092  1.00  0.00    -0.299 C  
HETATM    9  C   UNL     1      -7.284  15.739  66.569  1.00  0.00     0.483 C  
HETATM   10  N   UNL     1      -8.060  14.541  66.935  1.00  0.00    -0.082 N  
HETATM   11  C   UNL     1      -9.472  14.459  66.679  1.00  0.00    -0.283 A  
HETATM   12  C   UNL     1      -7.269  13.486  67.465  1.00  0.00    -0.154 C  
HETATM   13  C   UNL     1      -9.983  13.310  66.047  1.00  0.00    -0.297 A  
HETATM   14  O   UNL     1      -6.039  13.585  67.518  1.00  0.00    -0.278 OA 
HETATM   15  C   UNL     1     -10.398  15.412  67.177  1.00  0.00    -0.271 A  
HETATM   16  C   UNL     1     -11.353  13.023  66.057  1.00  0.00    -0.343 A  
HETATM   17  C   UNL     1     -11.771  15.104  67.186  1.00  0.00    -0.141 A  
HETATM   18  C   UNL     1     -12.243  13.904  66.659  1.00  0.00    -0.465 A  
ENDROOT
BRANCH  12  19
HETATM   19  C   UNL     1      -7.850  12.196  67.955  1.00  0.00    -0.147 A  
HETATM   20  C   UNL     1      -8.994  12.269  68.758  1.00  0.00     0.132 A  
HETATM   21  C   UNL     1      -8.808   9.914  69.307  1.00  0.00    -0.174 A  
HETATM   22  C   UNL     1      -7.710   9.823  68.449  1.00  0.00    -0.081 A  
HETATM   23  C   UNL     1      -9.480  11.133  69.414  1.00  0.00     0.221 A  
HETATM   24  C   UNL     1      -7.289  10.940  67.713  1.00  0.00    -0.093 A  
BRANCH  21  25
HETATM   25  N   UNL     1      -9.174   8.772  70.055  1.00  0.00    -0.162 N  
HETATM   26  C   UNL     1     -10.230   7.924  69.735  1.00  0.00    -0.212 C  
HETATM   27  H   UNL     1      -8.626   8.554  70.887  1.00  0.00     0.000 HD 
HETATM   28  O   UNL     1     -10.909   8.012  68.721  1.00  0.00    -0.097 OA 
BRANCH  26  29
HETATM   29  C   UNL     1     -10.482   6.757  70.642  1.00  0.00    -0.243 A  
HETATM   30  C   UNL     1     -11.495   6.895  71.621  1.00  0.00    -0.312 A  
HETATM   31  C   UNL     1     -11.661   5.950  72.631  1.00  0.00    -0.247 A  
HETATM   32  C   UNL     1     -10.820   4.853  72.683  1.00  0.00    -0.264 A  
HETATM   33  C   UNL     1      -9.849   4.678  71.695  1.00  0.00    -0.253 A  
HETATM   34  C   UNL     1      -9.640   5.608  70.644  1.00  0.00    -0.213 A  
BRANCH  34  35
HETATM   35  C   UNL     1      -8.579   5.279  69.636  1.00  0.00    -0.101 A  
HETATM   36  C   UNL     1      -7.222   5.604  69.815  1.00  0.00    -0.069 A  
HETATM   37  C   UNL     1      -6.264   5.349  68.821  1.00  0.00    -0.033 A  
HETATM   38  C   UNL     1      -6.644   4.799  67.600  1.00  0.00    -0.047 A  
HETATM   39  C   UNL     1      -7.975   4.466  67.389  1.00  0.00    -0.100 A  
HETATM   40  C   UNL     1      -8.919   4.682  68.400  1.00  0.00    -0.140 A  
ENDBRANCH  34  35
ENDBRANCH  26  29
ENDBRANCH  21  25
ENDBRANCH  12  19
TORSDOF 4
ENDMDL
MODEL       95
REMARK 921   NORMALIZED FREE ENERGY PREDICTED BY IDOCK:   -4.56 KCAL/MOL
REMARK 922        TOTAL FREE ENERGY PREDICTED BY IDOCK:   -7.11 KCAL/MOL
REMARK 923 INTER-LIGAND FREE ENERGY PREDICTED BY IDOCK:   -7.01 KCAL/MOL
REMARK 924 INTRA-LIGAND FREE ENERGY PREDICTED BY IDOCK:   -0.10 KCAL/MOL
REMARK 927      BINDING AFFINITY PREDICTED BY RF-SCORE:    0.00 PKD
ROOT
HETATM    1  C   UNL     1     -10.616   4.952  74.112  1.00  0.00    -0.345 C  
HETATM    2  C   UNL     1     -10.032   5.308  72.799  1.00  0.00    -0.160 A  
HETATM    3  N   UNL     1      -9.226   6.319  72.538  1.00  0.00    -0.141 NA 
HETATM    4  C   UNL     1      -8.976   6.250  71.191  1.00  0.00    -0.146 A  
HETATM    5  H   UNL     1      -8.865   7.007  73.198  1.00  0.00     0.000 HD 
HETATM    6  C   UNL     1      -9.596   5.157  70.640  1.00  0.00    -0.180 A  
HETATM    7  N   UNL     1     -10.278   4.568  71.667  1.00  0.00    -0.177 NA 
HETATM    8  C   UNL     1      -9.564   4.708  69.235  1.00  0.00    -0.251 C  
HETATM    9  C   UNL     1     -10.105   5.820  68.338  1.00  0.00    -0.170 C  
HETATM   10  N   UNL     1      -9.464   7.148  68.355  1.00  0.00    -0.138 N  
HETATM   11  C   UNL     1      -8.229   7.372  69.056  1.00  0.00    -0.128 A  
HETATM   12  C   UNL     1     -10.132   8.116  67.558  1.00  0.00    -0.224 C  
HETATM   13  C   UNL     1      -7.182   8.037  68.393  1.00  0.00    -0.089 A  
HETATM   14  O   UNL     1     -11.110   7.803  66.871  1.00  0.00    -0.086 OA 
HETATM   15  C   UNL     1      -8.072   7.096  70.439  1.00  0.00    -0.118 A  
HETATM   16  C   UNL     1      -6.094   8.566  69.097  1.00  0.00    -0.042 A  
HETATM   17  C   UNL     1      -6.977   7.642  71.134  1.00  0.00    -0.050 A  
HETATM   18  C   UNL     1      -6.011   8.398  70.474  1.00  0.00    -0.031 A  
ENDROOT
BRANCH  12  19
HETATM   19  C   UNL     1      -9.693   9.545  67.469  1.00  0.00    -0.194 A  
HETATM   20  C   UNL     1      -9.929  10.361  68.582  1.00  0.00    -0.186 A  
HETATM   21  C   UNL     1      -9.329  12.337  67.310  1.00  0.00    -0.185 A  
HETATM   22  C   UNL     1      -9.023  11.516  66.221  1.00  0.00    -0.199 A  
HETATM   23  C   UNL     1      -9.730  11.744  68.507  1.00  0.00    -0.181 A  
HETATM   24  C   UNL     1      -9.123  10.123  66.333  1.00  0.00    -0.176 A  
BRANCH  21  25
HETATM   25  N   UNL     1      -9.246  13.737  67.141  1.00  0.00    -0.234 N  
HETATM   26  C   UNL     1      -9.794  14.672  68.015  1.00  0.00    -0.216 C  
HETATM   27  H   UNL     1      -8.751  14.088  66.321  1.00  0.00     0.000 HD 
HETATM   28  O   UNL     1     -10.331  14.396  69.079  1.00  0.00    -0.232 OA 
BRANCH  26  29
HETATM   29  C   UNL     1      -9.615  16.123  67.680  1.00  0.00    -0.222 A  
HETATM   30  C   UNL     1     -10.607  16.736  66.877  1.00  0.00    -0.219 A  
HETATM   31  C   UNL     1     -10.425  18.013  66.350  1.00  0.00    -0.345 A  
HETATM   32  C   UNL     1      -9.253  18.698  66.613  1.00  0.00    -0.321 A  
HETATM   33  C   UNL     1      -8.289  18.126  67.444  1.00  0.00    -0.239 A  
HETATM   34  C   UNL     1      -8.425  16.831  68.009  1.00  0.00    -0.205 A  
BRANCH  34  35
HETATM   35  C   UNL     1      -7.321  16.354  68.906  1.00  0.00    -0.214 A  
HETATM   36  C   UNL     1      -7.211  15.022  69.347  1.00  0.00    -0.194 A  
HETATM   37  C   UNL     1      -6.211  14.622  70.246  1.00  0.00    -0.173 A  
HETATM   38  C   UNL     1      -5.315  15.553  70.763  1.00  0.00    -0.130 A  
HETATM   39  C   UNL     1      -5.394  16.876  70.351  1.00  0.00    -0.223 A  
HETATM   40  C   UNL     1      -6.367  17.261  69.421  1.00  0.00    -0.244 A  
ENDBRANCH  34  35
ENDBRANCH  26  29
ENDBRANCH  21  25
ENDBRANCH  12  19
TORSDOF 4
ENDMDL
MODEL       96
REMARK 921   NORMALIZED FREE ENERGY PREDICTED BY IDOCK:   -4.55 KCAL/MOL
REMARK 922        TOTAL FREE ENERGY PREDICTED BY IDOCK:   -7.10 KCAL/MOL
REMARK 923 INTER-LIGAND FREE ENERGY PREDICTED BY IDOCK:   -6.46 KCAL/MOL
REMARK 924 INTRA-LIGAND FREE ENERGY PREDICTED BY IDOCK:   -0.64 KCAL/MOL
REMARK 927      BINDING AFFINITY PREDICTED BY RF-SCORE:    0.00 PKD
ROOT
HETATM    1  C   UNL     1      -6.282   2.970  66.740  1.00  0.00    -0.025 C  
HETATM    2  C   UNL     1      -7.244   4.066  66.483  1.00  0.00    -0.068 A  
HETATM    3  N   UNL     1      -6.971   5.264  66.004  1.00  0.00    -0.065 NA 
HETATM    4  C   UNL     1      -8.172   5.926  65.966  1.00  0.00    -0.123 A  
HETATM    5  H   UNL     1      -6.060   5.622  65.721  1.00  0.00     0.000 HD 
HETATM    6  C   UNL     1      -9.190   5.104  66.380  1.00  0.00    -0.141 A  
HETATM    7  N   UNL     1      -8.591   3.924  66.720  1.00  0.00    -0.105 NA 
HETATM    8  C   UNL     1     -10.630   5.416  66.468  1.00  0.00    -0.353 C  
HETATM    9  C   UNL     1     -10.832   6.607  67.403  1.00  0.00    -0.363 C  
HETATM   10  N   UNL     1     -10.156   7.884  67.114  1.00  0.00    -0.229 N  
HETATM   11  C   UNL     1      -9.459   8.097  65.875  1.00  0.00    -0.012 A  
HETATM   12  C   UNL     1     -10.342   8.871  68.120  1.00  0.00    -0.212 C  
HETATM   13  C   UNL     1      -9.711   9.272  65.145  1.00  0.00     0.003 A  
HETATM   14  O   UNL     1     -11.077   8.654  69.089  1.00  0.00    -0.013 OA 
HETATM   15  C   UNL     1      -8.407   7.252  65.432  1.00  0.00    -0.127 A  
HETATM   16  C   UNL     1      -8.854   9.692  64.121  1.00  0.00    -0.257 A  
HETATM   17  C   UNL     1      -7.550   7.692  64.407  1.00  0.00    -0.107 A  
HETATM   18  C   UNL     1      -7.753   8.918  63.777  1.00  0.00    -0.129 A  
ENDROOT
BRANCH  12  19
HETATM   19  C   UNL     1      -9.703  10.223  68.065  1.00  0.00    -0.167 A  
HETATM   20  C   UNL     1      -8.421  10.352  68.612  1.00  0.00    -0.129 A  
HETATM   21  C   UNL     1      -8.544  12.768  68.435  1.00  0.00    -0.123 A  
HETATM   22  C   UNL     1      -9.792  12.637  67.822  1.00  0.00    -0.212 A  
HETATM   23  C   UNL     1      -7.839  11.614  68.779  1.00  0.00    -0.096 A  
HETATM   24  C   UNL     1     -10.327  11.367  67.563  1.00  0.00    -0.224 A  
BRANCH  21  25
HETATM   25  N   UNL     1      -8.061  14.067  68.708  1.00  0.00    -0.266 N  
HETATM   26  C   UNL     1      -6.973  14.656  68.070  1.00  0.00    -0.139 C  
HETATM   27  H   UNL     1      -8.544  14.613  69.422  1.00  0.00     0.000 HD 
HETATM   28  O   UNL     1      -6.363  14.156  67.134  1.00  0.00    -0.195 OA 
BRANCH  26  29
HETATM   29  C   UNL     1      -6.593  16.046  68.486  1.00  0.00    -0.123 A  
HETATM   30  C   UNL     1      -5.489  16.188  69.360  1.00  0.00    -0.119 A  
HETATM   31  C   UNL     1      -5.190  17.411  69.956  1.00  0.00    -0.208 A  
HETATM   32  C   UNL     1      -5.987  18.511  69.694  1.00  0.00    -0.270 A  
HETATM   33  C   UNL     1      -7.049  18.397  68.796  1.00  0.00    -0.299 A  
HETATM   34  C   UNL     1      -7.395  17.177  68.158  1.00  0.00    -0.202 A  
BRANCH  34  35
HETATM   35  C   UNL     1      -8.544  17.206  67.195  1.00  0.00    -0.221 A  
HETATM   36  C   UNL     1      -8.877  16.123  66.361  1.00  0.00    -0.355 A  
HETATM   37  C   UNL     1      -9.911  16.207  65.417  1.00  0.00    -0.141 A  
HETATM   38  C   UNL     1     -10.617  17.395  65.250  1.00  0.00     0.061 A  
HETATM   39  C   UNL     1     -10.317  18.485  66.055  1.00  0.00    -0.423 A  
HETATM   40  C   UNL     1      -9.312  18.381  67.025  1.00  0.00    -0.281 A  
ENDBRANCH  34  35
ENDBRANCH  26  29
ENDBRANCH  21  25
ENDBRANCH  12  19
TORSDOF 4
ENDMDL
MODEL       97
REMARK 921   NORMALIZED FREE ENERGY PREDICTED BY IDOCK:   -4.38 KCAL/MOL
REMARK 922        TOTAL FREE ENERGY PREDICTED BY IDOCK:   -6.89 KCAL/MOL
REMARK 923 INTER-LIGAND FREE ENERGY PREDICTED BY IDOCK:   -5.64 KCAL/MOL
REMARK 924 INTRA-LIGAND FREE ENERGY PREDICTED BY IDOCK:   -1.25 KCAL/MOL
REMARK 927      BINDING AFFINITY PREDICTED BY RF-SCORE:    0.00 PKD
ROOT
HETATM    1  C   UNL     1      -6.585   4.326  66.112  1.00  0.00    -0.041 C  
HETATM    2  C   UNL     1      -7.034   5.364  67.068  1.00  0.00    -0.065 A  
HETATM    3  N   UNL     1      -7.687   6.474  66.784  1.00  0.00    -0.098 NA 
HETATM    4  C   UNL     1      -7.859   7.115  67.985  1.00  0.00    -0.118 A  
HETATM    5  H   UNL     1      -7.999   6.789  65.866  1.00  0.00     0.000 HD 
HETATM    6  C   UNL     1      -7.348   6.363  69.012  1.00  0.00    -0.089 A  
HETATM    7  N   UNL     1      -6.813   5.253  68.421  1.00  0.00    -0.054 NA 
HETATM    8  C   UNL     1      -7.348   6.677  70.454  1.00  0.00    -0.082 C  
HETATM    9  C   UNL     1      -6.614   7.998  70.682  1.00  0.00    -0.037 C  
HETATM   10  N   UNL     1      -7.081   9.218  70.000  1.00  0.00    -0.061 N  
HETATM   11  C   UNL     1      -8.320   9.239  69.271  1.00  0.00    -0.124 A  
HETATM   12  C   UNL     1      -6.247  10.349  70.214  1.00  0.00    -0.122 C  
HETATM   13  C   UNL     1      -9.230  10.285  69.506  1.00  0.00    -0.191 A  
HETATM   14  O   UNL     1      -5.275  10.281  70.974  1.00  0.00    -0.063 OA 
HETATM   15  C   UNL     1      -8.598   8.341  68.207  1.00  0.00    -0.133 A  
HETATM   16  C   UNL     1     -10.285  10.545  68.623  1.00  0.00    -0.197 A  
HETATM   17  C   UNL     1      -9.657   8.620  67.324  1.00  0.00    -0.216 A  
HETATM   18  C   UNL     1     -10.476   9.732  67.511  1.00  0.00    -0.309 A  
ENDROOT
BRANCH  12  19
HETATM   19  C   UNL     1      -6.495  11.680  69.576  1.00  0.00    -0.122 A  
HETATM   20  C   UNL     1      -6.755  12.762  70.424  1.00  0.00     0.907 A  
HETATM   21  C   UNL     1      -7.404  14.138  68.536  1.00  0.00    -0.120 A  
HETATM   22  C   UNL     1      -7.075  13.083  67.682  1.00  0.00    -0.156 A  
HETATM   23  C   UNL     1      -7.189  13.987  69.906  1.00  0.00     0.327 A  
HETATM   24  C   UNL     1      -6.543  11.893  68.196  1.00  0.00    -0.057 A  
BRANCH  21  25
HETATM   25  N   UNL     1      -7.970  15.305  67.976  1.00  0.00    -0.126 N  
HETATM   26  C   UNL     1      -7.356  16.095  67.008  1.00  0.00    -0.231 C  
HETATM   27  H   UNL     1      -8.894  15.589  68.302  1.00  0.00     0.000 HD 
HETATM   28  O   UNL     1      -6.295  15.824  66.461  1.00  0.00     0.073 OA 
BRANCH  26  29
HETATM   29  C   UNL     1      -8.099  17.305  66.525  1.00  0.00    -0.313 A  
HETATM   30  C   UNL     1      -7.398  18.534  66.493  1.00  0.00    -0.258 A  
HETATM   31  C   UNL     1      -8.057  19.738  66.254  1.00  0.00    -0.356 A  
HETATM   32  C   UNL     1      -9.424  19.737  66.045  1.00  0.00    -0.393 A  
HETATM   33  C   UNL     1     -10.120  18.527  66.024  1.00  0.00    -0.309 A  
HETATM   34  C   UNL     1      -9.497  17.274  66.258  1.00  0.00    -0.256 A  
BRANCH  34  35
HETATM   35  C   UNL     1     -10.363  16.051  66.178  1.00  0.00    -0.340 A  
HETATM   36  C   UNL     1     -11.080  15.543  67.277  1.00  0.00    -0.271 A  
HETATM   37  C   UNL     1     -11.822  14.355  67.190  1.00  0.00    -0.437 A  
HETATM   38  C   UNL     1     -11.834  13.617  66.011  1.00  0.00    -0.415 A  
HETATM   39  C   UNL     1     -11.138  14.087  64.906  1.00  0.00    -0.378 A  
HETATM   40  C   UNL     1     -10.435  15.295  64.985  1.00  0.00    -0.411 A  
ENDBRANCH  34  35
ENDBRANCH  26  29
ENDBRANCH  21  25
ENDBRANCH  12  19
TORSDOF 4
ENDMDL
MODEL       98
REMARK 921   NORMALIZED FREE ENERGY PREDICTED BY IDOCK:   -4.34 KCAL/MOL
REMARK 922        TOTAL FREE ENERGY PREDICTED BY IDOCK:   -6.83 KCAL/MOL
REMARK 923 INTER-LIGAND FREE ENERGY PREDICTED BY IDOCK:   -5.87 KCAL/MOL
REMARK 924 INTRA-LIGAND FREE ENERGY PREDICTED BY IDOCK:   -0.97 KCAL/MOL
REMARK 927      BINDING AFFINITY PREDICTED BY RF-SCORE:    0.00 PKD
ROOT
HETATM    1  C   UNL     1      -5.844   1.524  66.134  1.00  0.00    -0.018 C  
HETATM    2  C   UNL     1      -6.255   2.560  67.109  1.00  0.00    -0.028 A  
HETATM    3  N   UNL     1      -7.343   3.303  67.065  1.00  0.00    -0.069 NA 
HETATM    4  C   UNL     1      -7.273   4.122  68.163  1.00  0.00    -0.060 A  
HETATM    5  H   UNL     1      -8.082   3.275  66.362  1.00  0.00     0.000 HD 
HETATM    6  C   UNL     1      -6.156   3.837  68.907  1.00  0.00    -0.028 A  
HETATM    7  N   UNL     1      -5.504   2.849  68.224  1.00  0.00    -0.017 NA 
HETATM    8  C   UNL     1      -5.721   4.467  70.169  1.00  0.00    -0.013 C  
HETATM    9  C   UNL     1      -5.535   5.967  69.945  1.00  0.00    -0.013 C  
HETATM   10  N   UNL     1      -6.665   6.777  69.454  1.00  0.00    -0.048 N  
HETATM   11  C   UNL     1      -7.990   6.228  69.357  1.00  0.00    -0.109 A  
HETATM   12  C   UNL     1      -6.326   8.131  69.187  1.00  0.00    -0.039 C  
HETATM   13  C   UNL     1      -9.068   6.954  69.894  1.00  0.00    -0.144 A  
HETATM   14  O   UNL     1      -5.194   8.559  69.435  1.00  0.00    -0.030 OA 
HETATM   15  C   UNL     1      -8.283   5.063  68.600  1.00  0.00    -0.085 A  
HETATM   16  C   UNL     1     -10.392   6.647  69.559  1.00  0.00    -0.232 A  
HETATM   17  C   UNL     1      -9.619   4.773  68.266  1.00  0.00    -0.204 A  
HETATM   18  C   UNL     1     -10.664   5.577  68.715  1.00  0.00    -0.195 A  
ENDROOT
BRANCH  12  19
HETATM   19  C   UNL     1      -7.299   9.122  68.629  1.00  0.00    -0.076 A  
HETATM   20  C   UNL     1      -7.889   8.821  67.396  1.00  0.00    -0.098 A  
HETATM   21  C   UNL     1      -8.805  11.061  67.242  1.00  0.00    -0.135 A  
HETATM   22  C   UNL     1      -8.279  11.340  68.506  1.00  0.00    -0.150 A  
HETATM   23  C   UNL     1      -8.651   9.778  66.717  1.00  0.00    -0.133 A  
HETATM   24  C   UNL     1      -7.605  10.346  69.229  1.00  0.00    -0.132 A  
BRANCH  21  25
HETATM   25  N   UNL     1      -9.447  12.103  66.536  1.00  0.00    -0.226 N  
HETATM   26  C   UNL     1     -10.486  12.879  67.044  1.00  0.00    -0.238 C  
HETATM   27  H   UNL     1      -9.127  12.302  65.588  1.00  0.00     0.000 HD 
HETATM   28  O   UNL     1     -10.904  12.812  68.192  1.00  0.00    -0.213 OA 
BRANCH  26  29
HETATM   29  C   UNL     1     -11.055  13.944  66.155  1.00  0.00    -0.299 A  
HETATM   30  C   UNL     1     -12.073  13.563  65.248  1.00  0.00    -0.439 A  
HETATM   31  C   UNL     1     -12.517  14.429  64.251  1.00  0.00    -0.303 A  
HETATM   32  C   UNL     1     -11.952  15.687  64.141  1.00  0.00    -0.048 A  
HETATM   33  C   UNL     1     -10.983  16.094  65.059  1.00  0.00    -0.357 A  
HETATM   34  C   UNL     1     -10.499  15.253  66.095  1.00  0.00    -0.318 A  
BRANCH  34  35
HETATM   35  C   UNL     1      -9.476  15.831  67.028  1.00  0.00    -0.235 A  
HETATM   36  C   UNL     1      -9.769  16.847  67.955  1.00  0.00    -0.256 A  
HETATM   37  C   UNL     1      -8.773  17.420  68.762  1.00  0.00    -0.223 A  
HETATM   38  C   UNL     1      -7.447  17.021  68.634  1.00  0.00    -0.229 A  
HETATM   39  C   UNL     1      -7.120  16.020  67.730  1.00  0.00    -0.163 A  
HETATM   40  C   UNL     1      -8.124  15.422  66.958  1.00  0.00    -0.265 A  
ENDBRANCH  34  35
ENDBRANCH  26  29
ENDBRANCH  21  25
ENDBRANCH  12  19
TORSDOF 4
ENDMDL
MODEL       99
REMARK 921   NORMALIZED FREE ENERGY PREDICTED BY IDOCK:   -4.29 KCAL/MOL
REMARK 922        TOTAL FREE ENERGY PREDICTED BY IDOCK:   -6.78 KCAL/MOL
REMARK 923 INTER-LIGAND FREE ENERGY PREDICTED BY IDOCK:   -6.40 KCAL/MOL
REMARK 924 INTRA-LIGAND FREE ENERGY PREDICTED BY IDOCK:   -0.38 KCAL/MOL
REMARK 927      BINDING AFFINITY PREDICTED BY RF-SCORE:    0.00 PKD
ROOT
HETATM    1  C   UNL     1      -6.059  19.179  64.248  1.00  0.00    -0.102 C  
HETATM    2  C   UNL     1      -6.747  18.529  65.388  1.00  0.00    -0.180 A  
HETATM    3  N   UNL     1      -6.307  17.513  66.104  1.00  0.00    -0.230 NA 
HETATM    4  C   UNL     1      -7.295  17.257  67.021  1.00  0.00    -0.185 A  
HETATM    5  H   UNL     1      -5.420  17.022  65.999  1.00  0.00     0.000 HD 
HETATM    6  C   UNL     1      -8.321  18.158  66.891  1.00  0.00    -0.245 A  
HETATM    7  N   UNL     1      -7.972  18.959  65.841  1.00  0.00    -0.473 NA 
HETATM    8  C   UNL     1      -9.557  18.247  67.691  1.00  0.00    -0.287 C  
HETATM    9  C   UNL     1     -10.324  16.930  67.583  1.00  0.00    -0.317 C  
HETATM   10  N   UNL     1      -9.671  15.671  67.982  1.00  0.00    -0.204 N  
HETATM   11  C   UNL     1      -8.396  15.669  68.646  1.00  0.00    -0.177 A  
HETATM   12  C   UNL     1     -10.456  14.513  67.729  1.00  0.00    -0.242 C  
HETATM   13  C   UNL     1      -8.237  14.896  69.811  1.00  0.00     0.141 A  
HETATM   14  O   UNL     1     -11.605  14.614  67.286  1.00  0.00    -0.365 OA 
HETATM   15  C   UNL     1      -7.242  16.282  68.092  1.00  0.00    -0.147 A  
HETATM   16  C   UNL     1      -6.967  14.595  70.317  1.00  0.00     0.107 A  
HETATM   17  C   UNL     1      -5.973  15.962  68.607  1.00  0.00    -0.101 A  
HETATM   18  C   UNL     1      -5.833  15.100  69.692  1.00  0.00    -0.112 A  
ENDROOT
BRANCH  12  19
HETATM   19  C   UNL     1      -9.973  13.123  68.002  1.00  0.00    -0.233 A  
HETATM   20  C   UNL     1      -9.130  12.536  67.051  1.00  0.00    -0.213 A  
HETATM   21  C   UNL     1      -9.330  10.380  68.145  1.00  0.00    -0.145 A  
HETATM   22  C   UNL     1     -10.111  10.980  69.135  1.00  0.00    -0.167 A  
HETATM   23  C   UNL     1      -8.797  11.179  67.132  1.00  0.00    -0.143 A  
HETATM   24  C   UNL     1     -10.357  12.360  69.107  1.00  0.00     0.132 A  
BRANCH  21  25
HETATM   25  N   UNL     1      -9.138   8.982  68.195  1.00  0.00    -0.133 N  
HETATM   26  C   UNL     1      -8.252   8.336  69.053  1.00  0.00    -0.119 C  
HETATM   27  H   UNL     1      -9.687   8.404  67.559  1.00  0.00     0.000 HD 
HETATM   28  O   UNL     1      -7.603   8.893  69.928  1.00  0.00    -0.057 OA 
BRANCH  26  29
HETATM   29  C   UNL     1      -8.172   6.841  68.972  1.00  0.00    -0.117 A  
HETATM   30  C   UNL     1      -7.383   6.284  67.936  1.00  0.00    -0.088 A  
HETATM   31  C   UNL     1      -7.411   4.919  67.658  1.00  0.00    -0.079 A  
HETATM   32  C   UNL     1      -8.226   4.088  68.406  1.00  0.00    -0.088 A  
HETATM   33  C   UNL     1      -8.970   4.616  69.462  1.00  0.00    -0.137 A  
HETATM   34  C   UNL     1      -8.975   5.997  69.789  1.00  0.00    -0.135 A  
BRANCH  34  35
HETATM   35  C   UNL     1      -9.802   6.421  70.968  1.00  0.00    -0.200 A  
HETATM   36  C   UNL     1     -10.690   5.557  71.634  1.00  0.00    -0.296 A  
HETATM   37  C   UNL     1     -11.505   6.003  72.686  1.00  0.00    -0.297 A  
HETATM   38  C   UNL     1     -11.485   7.339  73.075  1.00  0.00    -0.164 A  
HETATM   39  C   UNL     1     -10.621   8.220  72.440  1.00  0.00    -0.408 A  
HETATM   40  C   UNL     1      -9.779   7.760  71.420  1.00  0.00    -0.194 A  
ENDBRANCH  34  35
ENDBRANCH  26  29
ENDBRANCH  21  25
ENDBRANCH  12  19
TORSDOF 4
ENDMDL
MODEL      100
REMARK 921   NORMALIZED FREE ENERGY PREDICTED BY IDOCK:   -4.26 KCAL/MOL
REMARK 922        TOTAL FREE ENERGY PREDICTED BY IDOCK:   -6.74 KCAL/MOL
REMARK 923 INTER-LIGAND FREE ENERGY PREDICTED BY IDOCK:   -5.96 KCAL/MOL
REMARK 924 INTRA-LIGAND FREE ENERGY PREDICTED BY IDOCK:   -0.77 KCAL/MOL
REMARK 927      BINDING AFFINITY PREDICTED BY RF-SCORE:    0.00 PKD
ROOT
HETATM    1  C   UNL     1     -10.168   2.889  74.507  1.00  0.00    -0.201 C  
HETATM    2  C   UNL     1      -9.183   3.368  73.510  1.00  0.00    -0.096 A  
HETATM    3  N   UNL     1      -8.877   4.621  73.237  1.00  0.00    -0.107 NA 
HETATM    4  C   UNL     1      -7.940   4.560  72.238  1.00  0.00    -0.097 A  
HETATM    5  H   UNL     1      -9.257   5.459  73.677  1.00  0.00     0.000 HD 
HETATM    6  C   UNL     1      -7.638   3.256  71.937  1.00  0.00    -0.053 A  
HETATM    7  N   UNL     1      -8.443   2.500  72.742  1.00  0.00    -0.069 NA 
HETATM    8  C   UNL     1      -6.670   2.754  70.943  1.00  0.00    -0.032 C  
HETATM    9  C   UNL     1      -7.048   3.281  69.560  1.00  0.00    -0.041 C  
HETATM   10  N   UNL     1      -7.146   4.735  69.335  1.00  0.00    -0.051 N  
HETATM   11  C   UNL     1      -6.714   5.675  70.333  1.00  0.00    -0.048 A  
HETATM   12  C   UNL     1      -7.610   5.084  68.038  1.00  0.00    -0.083 C  
HETATM   13  C   UNL     1      -5.870   6.734  69.950  1.00  0.00    -0.023 A  
HETATM   14  O   UNL     1      -7.824   4.213  67.188  1.00  0.00    -0.094 OA 
HETATM   15  C   UNL     1      -7.229   5.680  71.656  1.00  0.00    -0.082 A  
HETATM   16  C   UNL     1      -5.676   7.846  70.777  1.00  0.00    -0.030 A  
HETATM   17  C   UNL     1      -7.031   6.809  72.472  1.00  0.00    -0.064 A  
HETATM   18  C   UNL     1      -6.286   7.898  72.025  1.00  0.00    -0.043 A  
ENDROOT
BRANCH  12  19
HETATM   19  C   UNL     1      -7.840   6.499  67.606  1.00  0.00    -0.110 A  
HETATM   20  C   UNL     1      -7.035   6.995  66.574  1.00  0.00    -0.069 A  
HETATM   21  C   UNL     1      -7.843   9.247  66.973  1.00  0.00    -0.098 A  
HETATM   22  C   UNL     1      -8.701   8.742  67.953  1.00  0.00    -0.136 A  
HETATM   23  C   UNL     1      -7.050   8.356  66.248  1.00  0.00    -0.077 A  
HETATM   24  C   UNL     1      -8.758   7.364  68.205  1.00  0.00    -0.122 A  
BRANCH  21  25
HETATM   25  N   UNL     1      -7.794  10.645  66.778  1.00  0.00    -0.121 N  
HETATM   26  C   UNL     1      -8.674  11.555  67.358  1.00  0.00    -0.147 C  
HETATM   27  H   UNL     1      -7.063  11.015  66.170  1.00  0.00     0.000 HD 
HETATM   28  O   UNL     1      -9.536  11.263  68.176  1.00  0.00    -0.170 OA 
BRANCH  26  29
HETATM   29  C   UNL     1      -8.480  13.008  67.040  1.00  0.00    -0.142 A  
HETATM   30  C   UNL     1      -7.478  13.706  67.756  1.00  0.00    -0.172 A  
HETATM   31  C   UNL     1      -7.362  15.091  67.676  1.00  0.00    -0.209 A  
HETATM   32  C   UNL     1      -8.243  15.804  66.883  1.00  0.00    -0.288 A  
HETATM   33  C   UNL     1      -9.204  15.124  66.132  1.00  0.00    -0.318 A  
HETATM   34  C   UNL     1      -9.362  13.715  66.175  1.00  0.00    -0.093 A  
BRANCH  34  35
HETATM   35  C   UNL     1     -10.419  13.115  65.294  1.00  0.00    -0.319 A  
HETATM   36  C   UNL     1     -10.126  12.267  64.212  1.00  0.00    -0.311 A  
HETATM   37  C   UNL     1     -11.131  11.782  63.360  1.00  0.00    -0.448 A  
HETATM   38  C   UNL     1     -12.456  12.166  63.543  1.00  0.00    -0.666 A  
HETATM   39  C   UNL     1     -12.782  13.003  64.602  1.00  0.00    -0.367 A  
HETATM   40  C   UNL     1     -11.781  13.449  65.474  1.00  0.00    -0.366 A  
ENDBRANCH  34  35
ENDBRANCH  26  29
ENDBRANCH  21  25
ENDBRANCH  12  19
TORSDOF 4
ENDMDL
MODEL      101
REMARK 921   NORMALIZED FREE ENERGY PREDICTED BY IDOCK:   -4.21 KCAL/MOL
REMARK 922        TOTAL FREE ENERGY PREDICTED BY IDOCK:   -6.68 KCAL/MOL
REMARK 923 INTER-LIGAND FREE ENERGY PREDICTED BY IDOCK:   -5.35 KCAL/MOL
REMARK 924 INTRA-LIGAND FREE ENERGY PREDICTED BY IDOCK:   -1.33 KCAL/MOL
REMARK 927      BINDING AFFINITY PREDICTED BY RF-SCORE:    0.00 PKD
ROOT
HETATM    1  C   UNL     1     -11.803  16.203  68.515  1.00  0.00    -0.040 C  
HETATM    2  C   UNL     1     -10.720  15.263  68.147  1.00  0.00    -0.257 A  
HETATM    3  N   UNL     1     -10.822  13.957  67.992  1.00  0.00    -0.242 NA 
HETATM    4  C   UNL     1      -9.558  13.526  67.678  1.00  0.00    -0.222 A  
HETATM    5  H   UNL     1     -11.663  13.389  68.085  1.00  0.00     0.000 HD 
HETATM    6  C   UNL     1      -8.692  14.587  67.593  1.00  0.00    -0.183 A  
HETATM    7  N   UNL     1      -9.435  15.690  67.906  1.00  0.00    -0.204 NA 
HETATM    8  C   UNL     1      -7.255  14.561  67.259  1.00  0.00    -0.053 C  
HETATM    9  C   UNL     1      -6.519  13.676  68.265  1.00  0.00    -0.109 C  
HETATM   10  N   UNL     1      -6.924  12.269  68.431  1.00  0.00    -0.076 N  
HETATM   11  C   UNL     1      -7.870  11.653  67.540  1.00  0.00    -0.137 A  
HETATM   12  C   UNL     1      -6.232  11.593  69.472  1.00  0.00    -0.113 C  
HETATM   13  C   UNL     1      -7.560  10.402  66.977  1.00  0.00    -0.101 A  
HETATM   14  O   UNL     1      -5.328  12.156  70.098  1.00  0.00    -0.085 OA 
HETATM   15  C   UNL     1      -9.173  12.174  67.328  1.00  0.00    -0.185 A  
HETATM   16  C   UNL     1      -8.544   9.611  66.373  1.00  0.00    -0.136 A  
HETATM   17  C   UNL     1     -10.153  11.363  66.726  1.00  0.00    -0.250 A  
HETATM   18  C   UNL     1      -9.850  10.078  66.280  1.00  0.00    -0.297 A  
ENDROOT
BRANCH  12  19
HETATM   19  C   UNL     1      -6.518  10.175  69.857  1.00  0.00    -0.086 A  
HETATM   20  C   UNL     1      -5.770   9.173  69.226  1.00  0.00    -0.035 A  
HETATM   21  C   UNL     1      -7.222   7.458  70.140  1.00  0.00    -0.070 A  
HETATM   22  C   UNL     1      -7.924   8.450  70.829  1.00  0.00    -0.106 A  
HETATM   23  C   UNL     1      -6.109   7.825  69.381  1.00  0.00    -0.034 A  
HETATM   24  C   UNL     1      -7.518   9.790  70.753  1.00  0.00     0.045 A  
BRANCH  21  25
HETATM   25  N   UNL     1      -7.688   6.127  70.218  1.00  0.00    -0.095 N  
HETATM   26  C   UNL     1      -8.909   5.687  69.714  1.00  0.00    -0.124 C  
HETATM   27  H   UNL     1      -7.089   5.440  70.675  1.00  0.00     0.000 HD 
HETATM   28  O   UNL     1      -9.682   6.378  69.064  1.00  0.00    -0.134 OA 
BRANCH  26  29
HETATM   29  C   UNL     1      -9.249   4.237  69.887  1.00  0.00    -0.208 A  
HETATM   30  C   UNL     1      -9.596   3.797  71.187  1.00  0.00    -0.246 A  
HETATM   31  C   UNL     1      -9.729   2.442  71.482  1.00  0.00    -0.225 A  
HETATM   32  C   UNL     1      -9.516   1.504  70.488  1.00  0.00    -0.164 A  
HETATM   33  C   UNL     1      -9.222   1.926  69.190  1.00  0.00    -0.190 A  
HETATM   34  C   UNL     1      -9.079   3.292  68.836  1.00  0.00    -0.207 A  
BRANCH  34  35
HETATM   35  C   UNL     1      -8.789   3.602  67.396  1.00  0.00    -0.144 A  
HETATM   36  C   UNL     1      -9.752   4.125  66.514  1.00  0.00    -0.228 A  
HETATM   37  C   UNL     1      -9.472   4.334  65.154  1.00  0.00    -0.172 A  
HETATM   38  C   UNL     1      -8.231   3.986  64.629  1.00  0.00    -0.097 A  
HETATM   39  C   UNL     1      -7.256   3.468  65.470  1.00  0.00    -0.071 A  
HETATM   40  C   UNL     1      -7.527   3.302  66.834  1.00  0.00    -0.075 A  
ENDBRANCH  34  35
ENDBRANCH  26  29
ENDBRANCH  21  25
ENDBRANCH  12  19
TORSDOF 4
ENDMDL
MODEL      102
REMARK 921   NORMALIZED FREE ENERGY PREDICTED BY IDOCK:   -4.15 KCAL/MOL
REMARK 922        TOTAL FREE ENERGY PREDICTED BY IDOCK:   -6.60 KCAL/MOL
REMARK 923 INTER-LIGAND FREE ENERGY PREDICTED BY IDOCK:   -5.38 KCAL/MOL
REMARK 924 INTRA-LIGAND FREE ENERGY PREDICTED BY IDOCK:   -1.23 KCAL/MOL
REMARK 927      BINDING AFFINITY PREDICTED BY RF-SCORE:    0.00 PKD
ROOT
HETATM    1  C   UNL     1     -11.801  16.199  68.417  1.00  0.00     0.018 C  
HETATM    2  C   UNL     1     -10.613  15.394  68.052  1.00  0.00    -0.263 A  
HETATM    3  N   UNL     1     -10.588  14.111  67.750  1.00  0.00    -0.241 NA 
HETATM    4  C   UNL     1      -9.270  13.817  67.509  1.00  0.00    -0.216 A  
HETATM    5  H   UNL     1     -11.381  13.472  67.704  1.00  0.00     0.000 HD 
HETATM    6  C   UNL     1      -8.496  14.944  67.618  1.00  0.00    -0.167 A  
HETATM    7  N   UNL     1      -9.355  15.944  67.977  1.00  0.00    -0.200 NA 
HETATM    8  C   UNL     1      -7.039  15.068  67.417  1.00  0.00    -0.206 C  
HETATM    9  C   UNL     1      -6.315  14.135  68.385  1.00  0.00    -0.101 C  
HETATM   10  N   UNL     1      -6.607  12.690  68.362  1.00  0.00    -0.074 N  
HETATM   11  C   UNL     1      -7.419  12.109  67.328  1.00  0.00    -0.152 A  
HETATM   12  C   UNL     1      -5.948  11.956  69.384  1.00  0.00    -0.084 C  
HETATM   13  C   UNL     1      -6.955  10.958  66.665  1.00  0.00    -0.135 A  
HETATM   14  O   UNL     1      -5.151  12.512  70.147  1.00  0.00    -0.080 OA 
HETATM   15  C   UNL     1      -8.741  12.547  67.053  1.00  0.00    -0.205 A  
HETATM   16  C   UNL     1      -7.813  10.167  65.893  1.00  0.00    -0.132 A  
HETATM   17  C   UNL     1      -9.593  11.737  66.281  1.00  0.00    -0.242 A  
HETATM   18  C   UNL     1      -9.143  10.539  65.730  1.00  0.00    -0.204 A  
ENDROOT
BRANCH  12  19
HETATM   19  C   UNL     1      -6.139  10.485  69.588  1.00  0.00    -0.056 A  
HETATM   20  C   UNL     1      -5.205   9.626  68.996  1.00  0.00    -0.036 A  
HETATM   21  C   UNL     1      -6.592   7.702  69.506  1.00  0.00    -0.036 A  
HETATM   22  C   UNL     1      -7.489   8.550  70.160  1.00  0.00    -0.060 A  
HETATM   23  C   UNL     1      -5.422   8.244  68.972  1.00  0.00    -0.031 A  
HETATM   24  C   UNL     1      -7.218   9.921  70.273  1.00  0.00    -0.160 A  
BRANCH  21  25
HETATM   25  N   UNL     1      -6.924   6.335  69.387  1.00  0.00    -0.065 N  
HETATM   26  C   UNL     1      -6.989   5.441  70.453  1.00  0.00    -0.057 C  
HETATM   27  H   UNL     1      -7.131   5.976  68.455  1.00  0.00     0.000 HD 
HETATM   28  O   UNL     1      -6.856   5.753  71.629  1.00  0.00    -0.063 OA 
BRANCH  26  29
HETATM   29  C   UNL     1      -7.355   4.020  70.146  1.00  0.00    -0.045 A  
HETATM   30  C   UNL     1      -6.403   3.234  69.452  1.00  0.00    -0.029 A  
HETATM   31  C   UNL     1      -6.729   1.977  68.949  1.00  0.00    -0.029 A  
HETATM   32  C   UNL     1      -8.009   1.483  69.127  1.00  0.00    -0.054 A  
HETATM   33  C   UNL     1      -8.943   2.225  69.852  1.00  0.00    -0.157 A  
HETATM   34  C   UNL     1      -8.661   3.509  70.388  1.00  0.00    -0.127 A  
BRANCH  34  35
HETATM   35  C   UNL     1      -9.751   4.181  71.169  1.00  0.00    -0.258 A  
HETATM   36  C   UNL     1     -10.327   5.407  70.788  1.00  0.00    -0.322 A  
HETATM   37  C   UNL     1     -11.292   6.048  71.579  1.00  0.00    -0.309 A  
HETATM   38  C   UNL     1     -11.681   5.501  72.798  1.00  0.00    -0.240 A  
HETATM   39  C   UNL     1     -11.134   4.292  73.207  1.00  0.00    -0.342 A  
HETATM   40  C   UNL     1     -10.203   3.635  72.393  1.00  0.00    -0.215 A  
ENDBRANCH  34  35
ENDBRANCH  26  29
ENDBRANCH  21  25
ENDBRANCH  12  19
TORSDOF 4
ENDMDL
MODEL      103
REMARK 921   NORMALIZED FREE ENERGY PREDICTED BY IDOCK:   -3.96 KCAL/MOL
REMARK 922        TOTAL FREE ENERGY PREDICTED BY IDOCK:   -6.36 KCAL/MOL
REMARK 923 INTER-LIGAND FREE ENERGY PREDICTED BY IDOCK:   -6.15 KCAL/MOL
REMARK 924 INTRA-LIGAND FREE ENERGY PREDICTED BY IDOCK:   -0.21 KCAL/MOL
REMARK 927      BINDING AFFINITY PREDICTED BY RF-SCORE:    0.00 PKD
ROOT
HETATM    1  C   UNL     1     -12.273  15.153  63.481  1.00  0.00     0.844 C  
HETATM    2  C   UNL     1     -11.631  14.730  64.747  1.00  0.00    -0.418 A  
HETATM    3  N   UNL     1     -11.008  13.591  64.978  1.00  0.00    -0.318 NA 
HETATM    4  C   UNL     1     -10.608  13.651  66.288  1.00  0.00    -0.289 A  
HETATM    5  H   UNL     1     -10.857  12.826  64.320  1.00  0.00     0.000 HD 
HETATM    6  C   UNL     1     -10.947  14.859  66.843  1.00  0.00    -0.327 A  
HETATM    7  N   UNL     1     -11.610  15.538  65.859  1.00  0.00     0.081 NA 
HETATM    8  C   UNL     1     -10.682  15.335  68.214  1.00  0.00    -0.254 C  
HETATM    9  C   UNL     1     -11.326  14.376  69.214  1.00  0.00    -0.284 C  
HETATM   10  N   UNL     1     -10.954  12.950  69.200  1.00  0.00    -0.183 N  
HETATM   11  C   UNL     1      -9.865  12.470  68.393  1.00  0.00    -0.202 A  
HETATM   12  C   UNL     1     -11.705  12.153  70.106  1.00  0.00    -0.218 C  
HETATM   13  C   UNL     1      -8.899  11.635  68.982  1.00  0.00     0.195 A  
HETATM   14  O   UNL     1     -12.527  12.671  70.870  1.00  0.00    -0.369 OA 
HETATM   15  C   UNL     1      -9.806  12.668  66.989  1.00  0.00    -0.225 A  
HETATM   16  C   UNL     1      -8.012  10.884  68.202  1.00  0.00    -0.117 A  
HETATM   17  C   UNL     1      -8.914  11.900  66.218  1.00  0.00    -0.157 A  
HETATM   18  C   UNL     1      -8.045  10.991  66.817  1.00  0.00    -0.151 A  
ENDROOT
BRANCH  12  19
HETATM   19  C   UNL     1     -11.538  10.670  70.222  1.00  0.00    -0.424 A  
HETATM   20  C   UNL     1     -11.485  10.128  71.512  1.00  0.00    -0.096 A  
HETATM   21  C   UNL     1     -10.797   7.979  70.622  1.00  0.00    -0.234 A  
HETATM   22  C   UNL     1     -10.920   8.498  69.331  1.00  0.00    -0.020 A  
HETATM   23  C   UNL     1     -11.135   8.787  71.708  1.00  0.00    -0.417 A  
HETATM   24  C   UNL     1     -11.371   9.811  69.134  1.00  0.00    -0.031 A  
BRANCH  21  25
HETATM   25  N   UNL     1     -10.306   6.663  70.773  1.00  0.00    -0.200 N  
HETATM   26  C   UNL     1     -10.834   5.718  71.649  1.00  0.00    -0.255 C  
HETATM   27  H   UNL     1      -9.509   6.385  70.201  1.00  0.00     0.000 HD 
HETATM   28  O   UNL     1     -11.841   5.884  72.324  1.00  0.00    -0.303 OA 
BRANCH  26  29
HETATM   29  C   UNL     1     -10.186   4.366  71.685  1.00  0.00    -0.186 A  
HETATM   30  C   UNL     1     -10.309   3.613  72.877  1.00  0.00    -0.244 A  
HETATM   31  C   UNL     1      -9.578   2.444  73.075  1.00  0.00    -0.135 A  
HETATM   32  C   UNL     1      -8.710   2.008  72.090  1.00  0.00    -0.091 A  
HETATM   33  C   UNL     1      -8.615   2.715  70.889  1.00  0.00    -0.104 A  
HETATM   34  C   UNL     1      -9.340   3.908  70.636  1.00  0.00    -0.225 A  
BRANCH  34  35
HETATM   35  C   UNL     1      -9.162   4.547  69.290  1.00  0.00    -0.195 A  
HETATM   36  C   UNL     1      -8.197   5.537  69.032  1.00  0.00    -0.099 A  
HETATM   37  C   UNL     1      -8.104   6.170  67.782  1.00  0.00    -0.113 A  
HETATM   38  C   UNL     1      -9.002   5.859  66.766  1.00  0.00    -0.120 A  
HETATM   39  C   UNL     1      -9.968   4.886  66.985  1.00  0.00    -0.238 A  
HETATM   40  C   UNL     1     -10.028   4.228  68.220  1.00  0.00    -0.034 A  
ENDBRANCH  34  35
ENDBRANCH  26  29
ENDBRANCH  21  25
ENDBRANCH  12  19
TORSDOF 4
ENDMDL
MODEL      104
REMARK 921   NORMALIZED FREE ENERGY PREDICTED BY IDOCK:   -3.45 KCAL/MOL
REMARK 922        TOTAL FREE ENERGY PREDICTED BY IDOCK:   -5.74 KCAL/MOL
REMARK 923 INTER-LIGAND FREE ENERGY PREDICTED BY IDOCK:   -5.79 KCAL/MOL
REMARK 924 INTRA-LIGAND FREE ENERGY PREDICTED BY IDOCK:    0.05 KCAL/MOL
REMARK 927      BINDING AFFINITY PREDICTED BY RF-SCORE:    0.00 PKD
ROOT
HETATM    1  C   UNL     1     -11.192  16.197  64.501  1.00  0.00    -0.275 C  
HETATM    2  C   UNL     1     -10.824  15.336  65.647  1.00  0.00    -0.363 A  
HETATM    3  N   UNL     1      -9.968  14.332  65.642  1.00  0.00    -0.421 NA 
HETATM    4  C   UNL     1      -9.981  13.833  66.920  1.00  0.00    -0.264 A  
HETATM    5  H   UNL     1      -9.413  13.998  64.854  1.00  0.00     0.000 HD 
HETATM    6  C   UNL     1     -10.816  14.572  67.719  1.00  0.00    -0.264 A  
HETATM    7  N   UNL     1     -11.360  15.521  66.900  1.00  0.00    -0.161 NA 
HETATM    8  C   UNL     1     -11.098  14.385  69.156  1.00  0.00    -0.290 C  
HETATM    9  C   UNL     1     -11.662  12.983  69.381  1.00  0.00    -0.326 C  
HETATM   10  N   UNL     1     -10.878  11.806  68.963  1.00  0.00    -0.213 N  
HETATM   11  C   UNL     1      -9.517  11.934  68.519  1.00  0.00    -0.148 A  
HETATM   12  C   UNL     1     -11.564  10.573  69.130  1.00  0.00    -0.224 C  
HETATM   13  C   UNL     1      -8.540  11.081  69.063  1.00  0.00    -0.076 A  
HETATM   14  O   UNL     1     -12.682  10.538  69.655  1.00  0.00    -0.169 OA 
HETATM   15  C   UNL     1      -9.140  12.774  67.438  1.00  0.00    -0.192 A  
HETATM   16  C   UNL     1      -7.287  10.930  68.459  1.00  0.00    -0.098 A  
HETATM   17  C   UNL     1      -7.879  12.604  66.837  1.00  0.00     0.047 A  
HETATM   18  C   UNL     1      -6.970  11.667  67.324  1.00  0.00    -0.131 A  
ENDROOT
BRANCH  12  19
HETATM   19  C   UNL     1     -10.985   9.254  68.722  1.00  0.00    -0.047 A  
HETATM   20  C   UNL     1     -10.565   8.392  69.743  1.00  0.00    -0.221 A  
HETATM   21  C   UNL     1      -9.488   6.940  68.127  1.00  0.00    -0.122 A  
HETATM   22  C   UNL     1      -9.968   7.759  67.102  1.00  0.00    -0.298 A  
HETATM   23  C   UNL     1      -9.838   7.235  69.445  1.00  0.00    -0.163 A  
HETATM   24  C   UNL     1     -10.784   8.860  67.398  1.00  0.00    -0.225 A  
BRANCH  21  25
HETATM   25  N   UNL     1      -8.641   5.862  67.784  1.00  0.00    -0.106 N  
HETATM   26  C   UNL     1      -8.747   5.115  66.614  1.00  0.00    -0.109 C  
HETATM   27  H   UNL     1      -7.899   5.614  68.439  1.00  0.00     0.000 HD 
HETATM   28  O   UNL     1      -9.525   5.359  65.702  1.00  0.00    -0.137 OA 
BRANCH  26  29
HETATM   29  C   UNL     1      -7.764   4.000  66.411  1.00  0.00    -0.090 A  
HETATM   30  C   UNL     1      -6.678   3.913  67.315  1.00  0.00    -0.047 A  
HETATM   31  C   UNL     1      -5.615   3.043  67.088  1.00  0.00    -0.021 A  
HETATM   32  C   UNL     1      -5.614   2.249  65.956  1.00  0.00    -0.017 A  
HETATM   33  C   UNL     1      -6.701   2.288  65.081  1.00  0.00    -0.031 A  
HETATM   34  C   UNL     1      -7.811   3.153  65.268  1.00  0.00    -0.082 A  
BRANCH  34  35
HETATM   35  C   UNL     1      -8.923   3.070  64.264  1.00  0.00    -0.110 A  
HETATM   36  C   UNL     1      -9.105   4.018  63.240  1.00  0.00    -0.121 A  
HETATM   37  C   UNL     1     -10.198   3.955  62.362  1.00  0.00    -0.171 A  
HETATM   38  C   UNL     1     -11.164   2.964  62.508  1.00  0.00    -0.009 A  
HETATM   39  C   UNL     1     -11.016   2.012  63.507  1.00  0.00    -0.097 A  
HETATM   40  C   UNL     1      -9.901   2.054  64.353  1.00  0.00     0.006 A  
ENDBRANCH  34  35
ENDBRANCH  26  29
ENDBRANCH  21  25
ENDBRANCH  12  19
TORSDOF 4
ENDMDL
MODEL      105
REMARK 921   NORMALIZED FREE ENERGY PREDICTED BY IDOCK:   -3.41 KCAL/MOL
REMARK 922        TOTAL FREE ENERGY PREDICTED BY IDOCK:   -5.69 KCAL/MOL
REMARK 923 INTER-LIGAND FREE ENERGY PREDICTED BY IDOCK:   -5.53 KCAL/MOL
REMARK 924 INTRA-LIGAND FREE ENERGY PREDICTED BY IDOCK:   -0.16 KCAL/MOL
REMARK 927      BINDING AFFINITY PREDICTED BY RF-SCORE:    0.00 PKD
ROOT
HETATM    1  C   UNL     1     -10.673   1.868  73.177  1.00  0.00    -0.238 C  
HETATM    2  C   UNL     1     -10.347   3.312  73.177  1.00  0.00    -0.159 A  
HETATM    3  N   UNL     1     -10.905   4.251  72.436  1.00  0.00    -0.007 NA 
HETATM    4  C   UNL     1     -10.259   5.414  72.772  1.00  0.00    -0.187 A  
HETATM    5  H   UNL     1     -11.657   4.135  71.757  1.00  0.00     0.000 HD 
HETATM    6  C   UNL     1      -9.336   5.186  73.761  1.00  0.00    -0.132 A  
HETATM    7  N   UNL     1      -9.388   3.843  74.006  1.00  0.00    -0.095 NA 
HETATM    8  C   UNL     1      -8.450   6.166  74.418  1.00  0.00    -0.121 C  
HETATM    9  C   UNL     1      -7.573   6.839  73.364  1.00  0.00    -0.085 C  
HETATM   10  N   UNL     1      -8.202   7.552  72.237  1.00  0.00    -0.100 N  
HETATM   11  C   UNL     1      -9.620   7.789  72.203  1.00  0.00    -0.176 A  
HETATM   12  C   UNL     1      -7.275   8.036  71.276  1.00  0.00    -0.062 C  
HETATM   13  C   UNL     1     -10.086   9.085  71.913  1.00  0.00    -0.323 A  
HETATM   14  O   UNL     1      -6.059   7.914  71.454  1.00  0.00    -0.035 OA 
HETATM   15  C   UNL     1     -10.575   6.743  72.288  1.00  0.00    -0.241 A  
HETATM   16  C   UNL     1     -11.418   9.315  71.551  1.00  0.00    -0.454 A  
HETATM   17  C   UNL     1     -11.908   6.989  71.913  1.00  0.00    -0.341 A  
HETATM   18  C   UNL     1     -12.321   8.259  71.516  1.00  0.00    -0.336 A  
ENDROOT
BRANCH  12  19
HETATM   19  C   UNL     1      -7.691   8.740  70.022  1.00  0.00    -0.082 A  
HETATM   20  C   UNL     1      -7.377  10.100  69.913  1.00  0.00    -0.169 A  
HETATM   21  C   UNL     1      -8.773  10.305  67.940  1.00  0.00    -0.122 A  
HETATM   22  C   UNL     1      -9.028   8.933  68.005  1.00  0.00    -0.140 A  
HETATM   23  C   UNL     1      -7.900  10.872  68.869  1.00  0.00    -0.142 A  
HETATM   24  C   UNL     1      -8.420   8.144  68.991  1.00  0.00    -0.129 A  
BRANCH  21  25
HETATM   25  N   UNL     1      -9.435  11.066  66.951  1.00  0.00    -0.175 N  
HETATM   26  C   UNL     1     -10.688  11.651  67.112  1.00  0.00    -0.247 C  
HETATM   27  H   UNL     1      -8.963  11.196  66.056  1.00  0.00     0.000 HD 
HETATM   28  O   UNL     1     -11.323  11.655  68.158  1.00  0.00    -0.244 OA 
BRANCH  26  29
HETATM   29  C   UNL     1     -11.246  12.425  65.955  1.00  0.00    -0.373 A  
HETATM   30  C   UNL     1     -12.062  13.545  66.249  1.00  0.00    -0.476 A  
HETATM   31  C   UNL     1     -12.783  14.197  65.253  1.00  0.00    -0.425 A  
HETATM   32  C   UNL     1     -12.707  13.744  63.948  1.00  0.00     0.107 A  
HETATM   33  C   UNL     1     -11.868  12.673  63.636  1.00  0.00    -0.606 A  
HETATM   34  C   UNL     1     -11.109  11.976  64.611  1.00  0.00    -0.375 A  
BRANCH  34  35
HETATM   35  C   UNL     1     -10.229  10.861  64.129  1.00  0.00    -0.424 A  
HETATM   36  C   UNL     1      -9.431  10.956  62.974  1.00  0.00    -0.369 A  
HETATM   37  C   UNL     1      -8.676   9.870  62.506  1.00  0.00    -0.225 A  
HETATM   38  C   UNL     1      -8.729   8.642  63.158  1.00  0.00     0.064 A  
HETATM   39  C   UNL     1      -9.506   8.510  64.301  1.00  0.00     1.434 A  
HETATM   40  C   UNL     1     -10.224   9.610  64.788  1.00  0.00     0.686 A  
ENDBRANCH  34  35
ENDBRANCH  26  29
ENDBRANCH  21  25
ENDBRANCH  12  19
TORSDOF 4
ENDMDL
MODEL      106
REMARK 921   NORMALIZED FREE ENERGY PREDICTED BY IDOCK:   -3.33 KCAL/MOL
REMARK 922        TOTAL FREE ENERGY PREDICTED BY IDOCK:   -5.59 KCAL/MOL
REMARK 923 INTER-LIGAND FREE ENERGY PREDICTED BY IDOCK:   -4.19 KCAL/MOL
REMARK 924 INTRA-LIGAND FREE ENERGY PREDICTED BY IDOCK:   -1.41 KCAL/MOL
REMARK 927      BINDING AFFINITY PREDICTED BY RF-SCORE:    0.00 PKD
ROOT
HETATM    1  C   UNL     1     -13.392  14.322  65.637  1.00  0.00     0.482 C  
HETATM    2  C   UNL     1     -11.982  13.885  65.755  1.00  0.00    -0.400 A  
HETATM    3  N   UNL     1     -11.526  12.650  65.680  1.00  0.00    -0.332 NA 
HETATM    4  C   UNL     1     -10.171  12.748  65.870  1.00  0.00    -0.287 A  
HETATM    5  H   UNL     1     -12.066  11.802  65.515  1.00  0.00     0.000 HD 
HETATM    6  C   UNL     1      -9.796  14.060  66.012  1.00  0.00    -0.297 A  
HETATM    7  N   UNL     1     -10.956  14.780  65.950  1.00  0.00    -0.327 NA 
HETATM    8  C   UNL     1      -8.437  14.600  66.213  1.00  0.00     0.425 C  
HETATM    9  C   UNL     1      -7.837  13.997  67.482  1.00  0.00    -0.184 C  
HETATM   10  N   UNL     1      -7.717  12.533  67.608  1.00  0.00    -0.139 N  
HETATM   11  C   UNL     1      -7.977  11.664  66.493  1.00  0.00    -0.053 A  
HETATM   12  C   UNL     1      -7.245  12.104  68.877  1.00  0.00    -0.079 C  
HETATM   13  C   UNL     1      -7.042  10.661  66.179  1.00  0.00    -0.138 A  
HETATM   14  O   UNL     1      -6.906  12.926  69.736  1.00  0.00     0.074 OA 
HETATM   15  C   UNL     1      -9.210  11.666  65.790  1.00  0.00    -0.184 A  
HETATM   16  C   UNL     1      -7.372   9.597  65.333  1.00  0.00    -0.108 A  
HETATM   17  C   UNL     1      -9.530  10.585  64.948  1.00  0.00    -0.304 A  
HETATM   18  C   UNL     1      -8.631   9.541  64.745  1.00  0.00    -0.196 A  
ENDROOT
BRANCH  12  19
HETATM   19  C   UNL     1      -7.097  10.662  69.250  1.00  0.00    -0.107 A  
HETATM   20  C   UNL     1      -8.271   9.918  69.419  1.00  0.00    -0.147 A  
HETATM   21  C   UNL     1      -7.011   8.073  70.365  1.00  0.00    -0.041 A  
HETATM   22  C   UNL     1      -5.833   8.786  70.130  1.00  0.00    -0.027 A  
HETATM   23  C   UNL     1      -8.225   8.626  69.956  1.00  0.00    -0.122 A  
HETATM   24  C   UNL     1      -5.874  10.036  69.497  1.00  0.00    -0.037 A  
BRANCH  21  25
HETATM   25  N   UNL     1      -6.925   6.834  71.037  1.00  0.00    -0.065 N  
HETATM   26  C   UNL     1      -6.943   5.591  70.409  1.00  0.00    -0.057 C  
HETATM   27  H   UNL     1      -6.842   6.849  72.054  1.00  0.00     0.000 HD 
HETATM   28  O   UNL     1      -6.944   5.427  69.196  1.00  0.00    -0.053 OA 
BRANCH  26  29
HETATM   29  C   UNL     1      -6.845   4.373  71.277  1.00  0.00    -0.035 A  
HETATM   30  C   UNL     1      -5.767   3.486  71.040  1.00  0.00    -0.013 A  
HETATM   31  C   UNL     1      -5.707   2.237  71.654  1.00  0.00    -0.009 A  
HETATM   32  C   UNL     1      -6.720   1.851  72.512  1.00  0.00    -0.018 A  
HETATM   33  C   UNL     1      -7.764   2.734  72.793  1.00  0.00    -0.053 A  
HETATM   34  C   UNL     1      -7.870   4.018  72.198  1.00  0.00    -0.080 A  
BRANCH  34  35
HETATM   35  C   UNL     1      -9.030   4.874  72.614  1.00  0.00    -0.135 A  
HETATM   36  C   UNL     1     -10.271   4.861  71.951  1.00  0.00    -0.267 A  
HETATM   37  C   UNL     1     -11.313   5.728  72.317  1.00  0.00    -0.334 A  
HETATM   38  C   UNL     1     -11.129   6.662  73.332  1.00  0.00    -0.073 A  
HETATM   39  C   UNL     1      -9.918   6.703  74.008  1.00  0.00    -0.346 A  
HETATM   40  C   UNL     1      -8.897   5.807  73.668  1.00  0.00    -0.121 A  
ENDBRANCH  34  35
ENDBRANCH  26  29
ENDBRANCH  21  25
ENDBRANCH  12  19
TORSDOF 4
ENDMDL
MODEL      107
REMARK 921   NORMALIZED FREE ENERGY PREDICTED BY IDOCK:   -3.07 KCAL/MOL
REMARK 922        TOTAL FREE ENERGY PREDICTED BY IDOCK:   -5.27 KCAL/MOL
REMARK 923 INTER-LIGAND FREE ENERGY PREDICTED BY IDOCK:   -3.76 KCAL/MOL
REMARK 924 INTRA-LIGAND FREE ENERGY PREDICTED BY IDOCK:   -1.51 KCAL/MOL
REMARK 927      BINDING AFFINITY PREDICTED BY RF-SCORE:    0.00 PKD
ROOT
HETATM    1  C   UNL     1     -11.784  15.174  66.286  1.00  0.00    -0.002 C  
HETATM    2  C   UNL     1     -10.466  14.547  66.535  1.00  0.00    -0.285 A  
HETATM    3  N   UNL     1     -10.179  13.260  66.492  1.00  0.00    -0.277 NA 
HETATM    4  C   UNL     1      -8.848  13.170  66.813  1.00  0.00    -0.132 A  
HETATM    5  H   UNL     1     -10.813  12.494  66.267  1.00  0.00     0.000 HD 
HETATM    6  C   UNL     1      -8.312  14.418  67.005  1.00  0.00    -0.145 A  
HETATM    7  N   UNL     1      -9.350  15.291  66.838  1.00  0.00    -0.225 NA 
HETATM    8  C   UNL     1      -6.918  14.765  67.341  1.00  0.00    -0.141 C  
HETATM    9  C   UNL     1      -6.533  14.089  68.656  1.00  0.00    -0.091 C  
HETATM   10  N   UNL     1      -6.628  12.624  68.778  1.00  0.00    -0.084 N  
HETATM   11  C   UNL     1      -6.896  11.795  67.634  1.00  0.00    -0.099 A  
HETATM   12  C   UNL     1      -6.346  12.137  70.083  1.00  0.00     0.027 C  
HETATM   13  C   UNL     1      -6.083  10.671  67.402  1.00  0.00    -0.053 A  
HETATM   14  O   UNL     1      -5.982  12.907  70.978  1.00  0.00    -0.276 OA 
HETATM   15  C   UNL     1      -8.044  11.966  66.816  1.00  0.00    -0.108 A  
HETATM   16  C   UNL     1      -6.473   9.660  66.516  1.00  0.00    -0.070 A  
HETATM   17  C   UNL     1      -8.426  10.937  65.936  1.00  0.00    -0.158 A  
HETATM   18  C   UNL     1      -7.664   9.777  65.810  1.00  0.00    -0.110 A  
ENDROOT
BRANCH  12  19
HETATM   19  C   UNL     1      -6.435  10.690  70.453  1.00  0.00    -0.102 A  
HETATM   20  C   UNL     1      -5.293  10.094  71.001  1.00  0.00    -0.079 A  
HETATM   21  C   UNL     1      -6.295   7.894  70.798  1.00  0.00    -0.037 A  
HETATM   22  C   UNL     1      -7.462   8.494  70.319  1.00  0.00    -0.064 A  
HETATM   23  C   UNL     1      -5.231   8.709  71.189  1.00  0.00    -0.028 A  
HETATM   24  C   UNL     1      -7.558   9.890  70.230  1.00  0.00    -0.172 A  
BRANCH  21  25
HETATM   25  N   UNL     1      -6.231   6.484  70.837  1.00  0.00    -0.031 N  
HETATM   26  C   UNL     1      -6.907   5.688  71.758  1.00  0.00    -0.067 C  
HETATM   27  H   UNL     1      -5.650   6.015  70.142  1.00  0.00     0.000 HD 
HETATM   28  O   UNL     1      -7.706   6.107  72.583  1.00  0.00    -0.101 OA 
BRANCH  26  29
HETATM   29  C   UNL     1      -6.723   4.202  71.658  1.00  0.00    -0.026 A  
HETATM   30  C   UNL     1      -6.001   3.561  72.693  1.00  0.00    -0.009 A  
HETATM   31  C   UNL     1      -5.609   2.229  72.585  1.00  0.00    -0.004 A  
HETATM   32  C   UNL     1      -5.928   1.515  71.445  1.00  0.00    -0.013 A  
HETATM   33  C   UNL     1      -6.683   2.120  70.438  1.00  0.00    -0.032 A  
HETATM   34  C   UNL     1      -7.110   3.472  70.499  1.00  0.00    -0.034 A  
BRANCH  34  35
HETATM   35  C   UNL     1      -7.939   3.982  69.358  1.00  0.00    -0.057 A  
HETATM   36  C   UNL     1      -7.392   4.352  68.116  1.00  0.00    -0.065 A  
HETATM   37  C   UNL     1      -8.183   4.898  67.093  1.00  0.00    -0.106 A  
HETATM   38  C   UNL     1      -9.540   5.127  67.298  1.00  0.00    -0.155 A  
HETATM   39  C   UNL     1     -10.115   4.774  68.511  1.00  0.00    -0.115 A  
HETATM   40  C   UNL     1      -9.329   4.191  69.513  1.00  0.00    -0.238 A  
ENDBRANCH  34  35
ENDBRANCH  26  29
ENDBRANCH  21  25
ENDBRANCH  12  19
TORSDOF 4
ENDMDL
MODEL      108
REMARK 921   NORMALIZED FREE ENERGY PREDICTED BY IDOCK:   -3.00 KCAL/MOL
REMARK 922        TOTAL FREE ENERGY PREDICTED BY IDOCK:   -5.19 KCAL/MOL
REMARK 923 INTER-LIGAND FREE ENERGY PREDICTED BY IDOCK:   -5.91 KCAL/MOL
REMARK 924 INTRA-LIGAND FREE ENERGY PREDICTED BY IDOCK:    0.72 KCAL/MOL
REMARK 927      BINDING AFFINITY PREDICTED BY RF-SCORE:    0.00 PKD
ROOT
HETATM    1  C   UNL     1      -8.513   1.469  65.757  1.00  0.00    -0.100 C  
HETATM    2  C   UNL     1      -8.883   2.420  66.829  1.00  0.00    -0.130 A  
HETATM    3  N   UNL     1      -9.065   3.721  66.707  1.00  0.00    -0.146 NA 
HETATM    4  C   UNL     1      -9.369   4.168  67.968  1.00  0.00    -0.162 A  
HETATM    5  H   UNL     1      -8.994   4.276  65.855  1.00  0.00     0.000 HD 
HETATM    6  C   UNL     1      -9.421   3.121  68.853  1.00  0.00    -0.113 A  
HETATM    7  N   UNL     1      -9.098   2.011  68.124  1.00  0.00    -0.147 NA 
HETATM    8  C   UNL     1      -9.735   3.166  70.294  1.00  0.00    -0.089 C  
HETATM    9  C   UNL     1      -8.736   4.081  71.000  1.00  0.00    -0.085 C  
HETATM   10  N   UNL     1      -8.603   5.485  70.569  1.00  0.00    -0.122 N  
HETATM   11  C   UNL     1      -9.519   6.067  69.626  1.00  0.00    -0.144 A  
HETATM   12  C   UNL     1      -7.565   6.192  71.234  1.00  0.00    -0.094 C  
HETATM   13  C   UNL     1     -10.101   7.312  69.922  1.00  0.00    -0.196 A  
HETATM   14  O   UNL     1      -6.916   5.657  72.138  1.00  0.00    -0.076 OA 
HETATM   15  C   UNL     1      -9.740   5.520  68.334  1.00  0.00    -0.168 A  
HETATM   16  C   UNL     1     -10.734   8.074  68.933  1.00  0.00    -0.091 A  
HETATM   17  C   UNL     1     -10.370   6.302  67.349  1.00  0.00    -0.262 A  
HETATM   18  C   UNL     1     -10.836   7.583  67.637  1.00  0.00    -0.197 A  
ENDROOT
BRANCH  12  19
HETATM   19  C   UNL     1      -7.212   7.612  70.918  1.00  0.00    -0.062 A  
HETATM   20  C   UNL     1      -8.163   8.594  71.218  1.00  0.00    -0.194 A  
HETATM   21  C   UNL     1      -6.888  10.258  69.998  1.00  0.00    -0.146 A  
HETATM   22  C   UNL     1      -5.903   9.297  69.761  1.00  0.00    -0.035 A  
HETATM   23  C   UNL     1      -7.993   9.911  70.776  1.00  0.00     0.382 A  
HETATM   24  C   UNL     1      -6.027   8.006  70.293  1.00  0.00    -0.029 A  
BRANCH  21  25
HETATM   25  N   UNL     1      -6.737  11.535  69.412  1.00  0.00    -0.122 N  
HETATM   26  C   UNL     1      -7.546  12.039  68.397  1.00  0.00    -0.128 C  
HETATM   27  H   UNL     1      -5.984  12.129  69.757  1.00  0.00     0.000 HD 
HETATM   28  O   UNL     1      -8.538  11.476  67.956  1.00  0.00    -0.137 OA 
BRANCH  26  29
HETATM   29  C   UNL     1      -7.242  13.417  67.888  1.00  0.00    -0.133 A  
HETATM   30  C   UNL     1      -5.972  13.963  68.196  1.00  0.00    -0.125 A  
HETATM   31  C   UNL     1      -5.678  15.300  67.942  1.00  0.00    -0.154 A  
HETATM   32  C   UNL     1      -6.644  16.116  67.380  1.00  0.00    -0.219 A  
HETATM   33  C   UNL     1      -7.883  15.579  67.026  1.00  0.00    -0.260 A  
HETATM   34  C   UNL     1      -8.232  14.223  67.259  1.00  0.00    -0.212 A  
BRANCH  34  35
HETATM   35  C   UNL     1      -9.590  13.776  66.802  1.00  0.00    -0.283 A  
HETATM   36  C   UNL     1      -9.785  12.890  65.727  1.00  0.00    -0.155 A  
HETATM   37  C   UNL     1     -11.069  12.548  65.275  1.00  0.00    -0.332 A  
HETATM   38  C   UNL     1     -12.196  13.117  65.861  1.00  0.00    -0.497 A  
HETATM   39  C   UNL     1     -12.042  13.995  66.924  1.00  0.00    -0.465 A  
HETATM   40  C   UNL     1     -10.760  14.299  67.399  1.00  0.00    -0.282 A  
ENDBRANCH  34  35
ENDBRANCH  26  29
ENDBRANCH  21  25
ENDBRANCH  12  19
TORSDOF 4
ENDMDL
MODEL      109
REMARK 921   NORMALIZED FREE ENERGY PREDICTED BY IDOCK:   -2.71 KCAL/MOL
REMARK 922        TOTAL FREE ENERGY PREDICTED BY IDOCK:   -4.82 KCAL/MOL
REMARK 923 INTER-LIGAND FREE ENERGY PREDICTED BY IDOCK:   -4.19 KCAL/MOL
REMARK 924 INTRA-LIGAND FREE ENERGY PREDICTED BY IDOCK:   -0.63 KCAL/MOL
REMARK 927      BINDING AFFINITY PREDICTED BY RF-SCORE:    0.00 PKD
ROOT
HETATM    1  C   UNL     1     -10.635  15.483  66.474  1.00  0.00    -0.307 C  
HETATM    2  C   UNL     1     -10.502  14.025  66.253  1.00  0.00    -0.286 A  
HETATM    3  N   UNL     1     -10.554  13.076  67.168  1.00  0.00    -0.245 NA 
HETATM    4  C   UNL     1     -10.357  11.900  66.489  1.00  0.00    -0.216 A  
HETATM    5  H   UNL     1     -10.707  13.192  68.169  1.00  0.00     0.000 HD 
HETATM    6  C   UNL     1     -10.235  12.135  65.142  1.00  0.00    -0.278 A  
HETATM    7  N   UNL     1     -10.316  13.491  64.999  1.00  0.00    -0.360 NA 
HETATM    8  C   UNL     1     -10.036  11.148  64.064  1.00  0.00    -0.392 C  
HETATM    9  C   UNL     1      -8.754  10.361  64.330  1.00  0.00    -0.196 C  
HETATM   10  N   UNL     1      -8.602   9.619  65.594  1.00  0.00    -0.130 N  
HETATM   11  C   UNL     1      -9.704   9.461  66.504  1.00  0.00    -0.236 A  
HETATM   12  C   UNL     1      -7.323   9.023  65.759  1.00  0.00    -0.089 C  
HETATM   13  C   UNL     1      -9.995   8.180  67.006  1.00  0.00    -0.329 A  
HETATM   14  O   UNL     1      -6.477   9.086  64.861  1.00  0.00    -0.065 OA 
HETATM   15  C   UNL     1     -10.413  10.565  67.047  1.00  0.00    -0.304 A  
HETATM   16  C   UNL     1     -10.826   8.005  68.118  1.00  0.00     0.013 A  
HETATM   17  C   UNL     1     -11.238  10.373  68.170  1.00  0.00    -0.333 A  
HETATM   18  C   UNL     1     -11.419   9.107  68.722  1.00  0.00     0.580 A  
ENDROOT
BRANCH  12  19
HETATM   19  C   UNL     1      -6.925   8.268  66.989  1.00  0.00    -0.071 A  
HETATM   20  C   UNL     1      -6.775   6.881  66.873  1.00  0.00    -0.056 A  
HETATM   21  C   UNL     1      -6.610   6.657  69.282  1.00  0.00    -0.048 A  
HETATM   22  C   UNL     1      -6.686   8.047  69.395  1.00  0.00    -0.039 A  
HETATM   23  C   UNL     1      -6.600   6.085  68.009  1.00  0.00    -0.055 A  
HETATM   24  C   UNL     1      -6.757   8.850  68.248  1.00  0.00    -0.065 A  
BRANCH  21  25
HETATM   25  N   UNL     1      -6.575   5.887  70.466  1.00  0.00    -0.045 N  
HETATM   26  C   UNL     1      -5.874   4.694  70.612  1.00  0.00    -0.017 C  
HETATM   27  H   UNL     1      -7.101   6.229  71.270  1.00  0.00     0.000 HD 
HETATM   28  O   UNL     1      -5.130   4.217  69.765  1.00  0.00     0.000 OA 
BRANCH  26  29
HETATM   29  C   UNL     1      -5.949   4.003  71.941  1.00  0.00    -0.013 A  
HETATM   30  C   UNL     1      -5.609   2.629  71.984  1.00  0.00    -0.008 A  
HETATM   31  C   UNL     1      -5.842   1.860  73.123  1.00  0.00    -0.004 A  
HETATM   32  C   UNL     1      -6.418   2.447  74.235  1.00  0.00    -0.017 A  
HETATM   33  C   UNL     1      -6.713   3.811  74.224  1.00  0.00    -0.045 A  
HETATM   34  C   UNL     1      -6.493   4.640  73.092  1.00  0.00    -0.050 A  
BRANCH  34  35
HETATM   35  C   UNL     1      -6.830   6.095  73.231  1.00  0.00    -0.075 A  
HETATM   36  C   UNL     1      -5.882   7.074  73.580  1.00  0.00    -0.057 A  
HETATM   37  C   UNL     1      -6.243   8.416  73.775  1.00  0.00    -0.130 A  
HETATM   38  C   UNL     1      -7.573   8.810  73.667  1.00  0.00     0.166 A  
HETATM   39  C   UNL     1      -8.536   7.872  73.324  1.00  0.00    -0.276 A  
HETATM   40  C   UNL     1      -8.163   6.543  73.088  1.00  0.00    -0.114 A  
ENDBRANCH  34  35
ENDBRANCH  26  29
ENDBRANCH  21  25
ENDBRANCH  12  19
TORSDOF 4
ENDMDL
MODEL      110
REMARK 921   NORMALIZED FREE ENERGY PREDICTED BY IDOCK:   -2.62 KCAL/MOL
REMARK 922        TOTAL FREE ENERGY PREDICTED BY IDOCK:   -4.71 KCAL/MOL
REMARK 923 INTER-LIGAND FREE ENERGY PREDICTED BY IDOCK:   -6.19 KCAL/MOL
REMARK 924 INTRA-LIGAND FREE ENERGY PREDICTED BY IDOCK:    1.47 KCAL/MOL
REMARK 927      BINDING AFFINITY PREDICTED BY RF-SCORE:    0.00 PKD
ROOT
HETATM    1  C   UNL     1      -9.058   2.609  69.291  1.00  0.00    -0.188 C  
HETATM    2  C   UNL     1      -8.182   3.714  68.841  1.00  0.00    -0.064 A  
HETATM    3  N   UNL     1      -8.142   4.941  69.324  1.00  0.00    -0.078 NA 
HETATM    4  C   UNL     1      -7.198   5.599  68.577  1.00  0.00    -0.075 A  
HETATM    5  H   UNL     1      -8.695   5.320  70.092  1.00  0.00     0.000 HD 
HETATM    6  C   UNL     1      -6.626   4.749  67.664  1.00  0.00    -0.047 A  
HETATM    7  N   UNL     1      -7.265   3.552  67.829  1.00  0.00    -0.058 NA 
HETATM    8  C   UNL     1      -5.561   5.049  66.688  1.00  0.00    -0.017 C  
HETATM    9  C   UNL     1      -6.022   6.179  65.769  1.00  0.00    -0.025 C  
HETATM   10  N   UNL     1      -6.419   7.474  66.349  1.00  0.00    -0.048 N  
HETATM   11  C   UNL     1      -6.208   7.766  67.741  1.00  0.00    -0.050 A  
HETATM   12  C   UNL     1      -6.928   8.397  65.396  1.00  0.00    -0.074 C  
HETATM   13  C   UNL     1      -5.599   8.983  68.097  1.00  0.00    -0.038 A  
HETATM   14  O   UNL     1      -6.943   8.117  64.192  1.00  0.00    -0.068 OA 
HETATM   15  C   UNL     1      -6.730   6.954  68.782  1.00  0.00    -0.056 A  
HETATM   16  C   UNL     1      -5.654   9.468  69.408  1.00  0.00    -0.035 A  
HETATM   17  C   UNL     1      -6.785   7.460  70.094  1.00  0.00    -0.050 A  
HETATM   18  C   UNL     1      -6.279   8.721  70.400  1.00  0.00    -0.038 A  
ENDROOT
BRANCH  12  19
HETATM   19  C   UNL     1      -7.444   9.753  65.765  1.00  0.00    -0.105 A  
HETATM   20  C   UNL     1      -6.518  10.681  66.256  1.00  0.00    -0.126 A  
HETATM   21  C   UNL     1      -8.309  12.183  66.905  1.00  0.00    -0.151 A  
HETATM   22  C   UNL     1      -9.229  11.290  66.350  1.00  0.00    -0.206 A  
HETATM   23  C   UNL     1      -6.947  11.894  66.805  1.00  0.00    -0.003 A  
HETATM   24  C   UNL     1      -8.789  10.124  65.708  1.00  0.00    -0.177 A  
BRANCH  21  25
HETATM   25  N   UNL     1      -8.801  13.327  67.572  1.00  0.00    -0.194 N  
HETATM   26  C   UNL     1     -10.089  13.834  67.426  1.00  0.00    -0.244 C  
HETATM   27  H   UNL     1      -8.168  13.816  68.206  1.00  0.00     0.000 HD 
HETATM   28  O   UNL     1     -10.976  13.298  66.776  1.00  0.00    -0.281 OA 
BRANCH  26  29
HETATM   29  C   UNL     1     -10.444  15.062  68.210  1.00  0.00    -0.237 A  
HETATM   30  C   UNL     1      -9.939  16.302  67.747  1.00  0.00    -0.246 A  
HETATM   31  C   UNL     1     -10.046  17.459  68.514  1.00  0.00    -0.352 A  
HETATM   32  C   UNL     1     -10.655  17.401  69.755  1.00  0.00     0.329 A  
HETATM   33  C   UNL     1     -11.201  16.196  70.202  1.00  0.00    -0.374 A  
HETATM   34  C   UNL     1     -11.123  14.990  69.459  1.00  0.00    -0.292 A  
BRANCH  34  35
HETATM   35  C   UNL     1     -11.779  13.776  70.049  1.00  0.00    -0.327 A  
HETATM   36  C   UNL     1     -12.584  13.822  71.201  1.00  0.00    -0.452 A  
HETATM   37  C   UNL     1     -13.123  12.658  71.773  1.00  0.00    -0.461 A  
HETATM   38  C   UNL     1     -12.836  11.409  71.230  1.00  0.00    -0.481 A  
HETATM   39  C   UNL     1     -12.045  11.326  70.093  1.00  0.00    -0.448 A  
HETATM   40  C   UNL     1     -11.546  12.494  69.502  1.00  0.00    -0.348 A  
ENDBRANCH  34  35
ENDBRANCH  26  29
ENDBRANCH  21  25
ENDBRANCH  12  19
TORSDOF 4
ENDMDL
MODEL      111
REMARK 921   NORMALIZED FREE ENERGY PREDICTED BY IDOCK:   -2.62 KCAL/MOL
REMARK 922        TOTAL FREE ENERGY PREDICTED BY IDOCK:   -4.71 KCAL/MOL
REMARK 923 INTER-LIGAND FREE ENERGY PREDICTED BY IDOCK:   -3.72 KCAL/MOL
REMARK 924 INTRA-LIGAND FREE ENERGY PREDICTED BY IDOCK:   -0.99 KCAL/MOL
REMARK 927      BINDING AFFINITY PREDICTED BY RF-SCORE:    0.00 PKD
ROOT
HETATM    1  C   UNL     1     -11.534   2.324  73.705  1.00  0.00    -0.254 C  
HETATM    2  C   UNL     1     -10.661   2.986  72.710  1.00  0.00    -0.082 A  
HETATM    3  N   UNL     1     -10.002   4.119  72.862  1.00  0.00    -0.143 NA 
HETATM    4  C   UNL     1      -9.358   4.331  71.669  1.00  0.00    -0.139 A  
HETATM    5  H   UNL     1      -9.976   4.711  73.691  1.00  0.00     0.000 HD 
HETATM    6  C   UNL     1      -9.589   3.292  70.803  1.00  0.00    -0.158 A  
HETATM    7  N   UNL     1     -10.430   2.444  71.467  1.00  0.00     0.408 NA 
HETATM    8  C   UNL     1      -9.068   3.119  69.434  1.00  0.00    -0.198 C  
HETATM    9  C   UNL     1      -9.505   4.304  68.574  1.00  0.00    -0.153 C  
HETATM   10  N   UNL     1      -9.138   5.673  68.979  1.00  0.00    -0.111 N  
HETATM   11  C   UNL     1      -8.222   5.912  70.061  1.00  0.00    -0.121 A  
HETATM   12  C   UNL     1      -9.699   6.684  68.153  1.00  0.00    -0.130 C  
HETATM   13  C   UNL     1      -7.158   6.811  69.866  1.00  0.00    -0.071 A  
HETATM   14  O   UNL     1     -10.361   6.387  67.153  1.00  0.00    -0.174 OA 
HETATM   15  C   UNL     1      -8.434   5.406  71.370  1.00  0.00    -0.126 A  
HETATM   16  C   UNL     1      -6.435   7.329  70.946  1.00  0.00    -0.043 A  
HETATM   17  C   UNL     1      -7.704   5.942  72.447  1.00  0.00    -0.102 A  
HETATM   18  C   UNL     1      -6.733   6.920  72.241  1.00  0.00    -0.058 A  
ENDROOT
BRANCH  12  19
HETATM   19  C   UNL     1      -9.508   8.147  68.408  1.00  0.00    -0.146 A  
HETATM   20  C   UNL     1      -8.892   8.900  67.401  1.00  0.00    -0.136 A  
HETATM   21  C   UNL     1      -8.685  10.800  68.895  1.00  0.00    -0.152 A  
HETATM   22  C   UNL     1      -9.365  10.075  69.876  1.00  0.00    -0.207 A  
HETATM   23  C   UNL     1      -8.501  10.223  67.638  1.00  0.00    -0.118 A  
HETATM   24  C   UNL     1      -9.847   8.787  69.601  1.00  0.00    -0.183 A  
BRANCH  21  25
HETATM   25  N   UNL     1      -8.187  12.079  69.228  1.00  0.00    -0.163 N  
HETATM   26  C   UNL     1      -6.841  12.436  69.196  1.00  0.00    -0.069 C  
HETATM   27  H   UNL     1      -8.859  12.791  69.512  1.00  0.00     0.000 HD 
HETATM   28  O   UNL     1      -5.941  11.714  68.788  1.00  0.00    -0.047 OA 
BRANCH  26  29
HETATM   29  C   UNL     1      -6.486  13.840  69.586  1.00  0.00    -0.094 A  
HETATM   30  C   UNL     1      -5.420  14.015  70.501  1.00  0.00    -0.129 A  
HETATM   31  C   UNL     1      -5.152  15.256  71.072  1.00  0.00    -0.147 A  
HETATM   32  C   UNL     1      -5.943  16.343  70.744  1.00  0.00     0.396 A  
HETATM   33  C   UNL     1      -6.965  16.195  69.805  1.00  0.00    -0.006 A  
HETATM   34  C   UNL     1      -7.278  14.955  69.191  1.00  0.00    -0.153 A  
BRANCH  34  35
HETATM   35  C   UNL     1      -8.386  14.949  68.179  1.00  0.00    -0.144 A  
HETATM   36  C   UNL     1      -9.747  14.928  68.531  1.00  0.00    -0.215 A  
HETATM   37  C   UNL     1     -10.760  14.847  67.562  1.00  0.00    -0.276 A  
HETATM   38  C   UNL     1     -10.437  14.742  66.213  1.00  0.00    -0.300 A  
HETATM   39  C   UNL     1      -9.103  14.759  65.829  1.00  0.00     0.235 A  
HETATM   40  C   UNL     1      -8.099  14.884  66.797  1.00  0.00    -0.008 A  
ENDBRANCH  34  35
ENDBRANCH  26  29
ENDBRANCH  21  25
ENDBRANCH  12  19
TORSDOF 4
ENDMDL
MODEL      112
REMARK 921   NORMALIZED FREE ENERGY PREDICTED BY IDOCK:   -2.57 KCAL/MOL
REMARK 922        TOTAL FREE ENERGY PREDICTED BY IDOCK:   -4.65 KCAL/MOL
REMARK 923 INTER-LIGAND FREE ENERGY PREDICTED BY IDOCK:   -4.39 KCAL/MOL
REMARK 924 INTRA-LIGAND FREE ENERGY PREDICTED BY IDOCK:   -0.27 KCAL/MOL
REMARK 927      BINDING AFFINITY PREDICTED BY RF-SCORE:    0.00 PKD
ROOT
HETATM    1  C   UNL     1      -7.916   1.793  72.221  1.00  0.00    -0.045 C  
HETATM    2  C   UNL     1      -7.472   2.926  71.378  1.00  0.00    -0.040 A  
HETATM    3  N   UNL     1      -7.676   4.210  71.603  1.00  0.00    -0.068 NA 
HETATM    4  C   UNL     1      -7.103   4.864  70.542  1.00  0.00    -0.052 A  
HETATM    5  H   UNL     1      -8.157   4.628  72.399  1.00  0.00     0.000 HD 
HETATM    6  C   UNL     1      -6.503   3.971  69.691  1.00  0.00    -0.033 A  
HETATM    7  N   UNL     1      -6.752   2.737  70.222  1.00  0.00    -0.033 NA 
HETATM    8  C   UNL     1      -5.760   4.259  68.449  1.00  0.00    -0.021 C  
HETATM    9  C   UNL     1      -6.673   5.004  67.477  1.00  0.00    -0.055 C  
HETATM   10  N   UNL     1      -7.291   6.278  67.887  1.00  0.00    -0.086 N  
HETATM   11  C   UNL     1      -6.910   6.933  69.109  1.00  0.00    -0.068 A  
HETATM   12  C   UNL     1      -8.199   6.808  66.932  1.00  0.00    -0.113 C  
HETATM   13  C   UNL     1      -6.598   8.305  69.077  1.00  0.00    -0.048 A  
HETATM   14  O   UNL     1      -8.362   6.254  65.840  1.00  0.00    -0.128 OA 
HETATM   15  C   UNL     1      -6.989   6.298  70.376  1.00  0.00    -0.063 A  
HETATM   16  C   UNL     1      -6.536   9.065  70.251  1.00  0.00    -0.045 A  
HETATM   17  C   UNL     1      -6.932   7.077  71.546  1.00  0.00    -0.065 A  
HETATM   18  C   UNL     1      -6.739   8.456  71.484  1.00  0.00    -0.070 A  
ENDROOT
BRANCH  12  19
HETATM   19  C   UNL     1      -8.984   8.063  67.159  1.00  0.00    -0.150 A  
HETATM   20  C   UNL     1      -8.555   9.219  66.497  1.00  0.00    -0.139 A  
HETATM   21  C   UNL     1     -10.073  10.582  67.808  1.00  0.00    -0.175 A  
HETATM   22  C   UNL     1     -10.555   9.421  68.417  1.00  0.00    -0.247 A  
HETATM   23  C   UNL     1      -9.109  10.466  66.806  1.00  0.00    -0.161 A  
HETATM   24  C   UNL     1     -10.071   8.163  68.030  1.00  0.00    -0.241 A  
BRANCH  21  25
HETATM   25  N   UNL     1     -10.565  11.829  68.254  1.00  0.00    -0.203 N  
HETATM   26  C   UNL     1      -9.771  12.857  68.756  1.00  0.00     0.069 C  
HETATM   27  H   UNL     1     -11.571  11.987  68.207  1.00  0.00     0.000 HD 
HETATM   28  O   UNL     1      -8.548  12.840  68.783  1.00  0.00     0.001 OA 
BRANCH  26  29
HETATM   29  C   UNL     1     -10.460  14.117  69.189  1.00  0.00    -0.143 A  
HETATM   30  C   UNL     1     -11.646  13.985  69.952  1.00  0.00    -0.320 A  
HETATM   31  C   UNL     1     -12.458  15.083  70.225  1.00  0.00    -0.385 A  
HETATM   32  C   UNL     1     -12.104  16.329  69.741  1.00  0.00     0.224 A  
HETATM   33  C   UNL     1     -10.912  16.483  69.030  1.00  0.00    -0.306 A  
HETATM   34  C   UNL     1     -10.048  15.399  68.728  1.00  0.00    -0.213 A  
BRANCH  34  35
HETATM   35  C   UNL     1      -8.786  15.714  67.980  1.00  0.00    -0.169 A  
HETATM   36  C   UNL     1      -7.510  15.323  68.425  1.00  0.00    -0.111 A  
HETATM   37  C   UNL     1      -6.343  15.698  67.743  1.00  0.00    -0.179 A  
HETATM   38  C   UNL     1      -6.415  16.511  66.616  1.00  0.00    -0.021 A  
HETATM   39  C   UNL     1      -7.658  16.916  66.147  1.00  0.00    -0.230 A  
HETATM   40  C   UNL     1      -8.822  16.503  66.807  1.00  0.00    -0.255 A  
ENDBRANCH  34  35
ENDBRANCH  26  29
ENDBRANCH  21  25
ENDBRANCH  12  19
TORSDOF 4
ENDMDL
MODEL      113
REMARK 921   NORMALIZED FREE ENERGY PREDICTED BY IDOCK:   -2.55 KCAL/MOL
REMARK 922        TOTAL FREE ENERGY PREDICTED BY IDOCK:   -4.63 KCAL/MOL
REMARK 923 INTER-LIGAND FREE ENERGY PREDICTED BY IDOCK:   -5.67 KCAL/MOL
REMARK 924 INTRA-LIGAND FREE ENERGY PREDICTED BY IDOCK:    1.05 KCAL/MOL
REMARK 927      BINDING AFFINITY PREDICTED BY RF-SCORE:    0.00 PKD
ROOT
HETATM    1  C   UNL     1     -11.164   3.748  73.991  1.00  0.00    -0.053 C  
HETATM    2  C   UNL     1     -10.049   4.336  73.213  1.00  0.00    -0.145 A  
HETATM    3  N   UNL     1      -9.738   5.613  73.115  1.00  0.00    -0.153 NA 
HETATM    4  C   UNL     1      -8.654   5.663  72.275  1.00  0.00    -0.129 A  
HETATM    5  H   UNL     1     -10.205   6.399  73.568  1.00  0.00     0.000 HD 
HETATM    6  C   UNL     1      -8.274   4.399  71.901  1.00  0.00    -0.102 A  
HETATM    7  N   UNL     1      -9.174   3.557  72.492  1.00  0.00    -0.099 NA 
HETATM    8  C   UNL     1      -7.150   4.010  71.028  1.00  0.00    -0.033 C  
HETATM    9  C   UNL     1      -7.321   4.669  69.660  1.00  0.00    -0.051 C  
HETATM   10  N   UNL     1      -7.422   6.136  69.565  1.00  0.00    -0.090 N  
HETATM   11  C   UNL     1      -7.177   6.977  70.705  1.00  0.00    -0.068 A  
HETATM   12  C   UNL     1      -7.687   6.608  68.251  1.00  0.00    -0.105 C  
HETATM   13  C   UNL     1      -6.312   8.078  70.565  1.00  0.00    -0.036 A  
HETATM   14  O   UNL     1      -7.742   5.823  67.298  1.00  0.00    -0.098 OA 
HETATM   15  C   UNL     1      -7.891   6.844  71.924  1.00  0.00    -0.095 A  
HETATM   16  C   UNL     1      -6.280   9.104  71.516  1.00  0.00    -0.069 A  
HETATM   17  C   UNL     1      -7.854   7.887  72.867  1.00  0.00    -0.169 A  
HETATM   18  C   UNL     1      -7.079   9.024  72.651  1.00  0.00     0.325 A  
ENDROOT
BRANCH  12  19
HETATM   19  C   UNL     1      -7.885   8.056  67.927  1.00  0.00    -0.126 A  
HETATM   20  C   UNL     1      -8.711   8.799  68.778  1.00  0.00    -0.137 A  
HETATM   21  C   UNL     1      -8.705  10.661  67.224  1.00  0.00    -0.129 A  
HETATM   22  C   UNL     1      -7.823   9.949  66.408  1.00  0.00    -0.107 A  
HETATM   23  C   UNL     1      -9.103  10.098  68.437  1.00  0.00    -0.133 A  
HETATM   24  C   UNL     1      -7.350   8.689  66.803  1.00  0.00    -0.079 A  
BRANCH  21  25
HETATM   25  N   UNL     1      -9.182  11.910  66.769  1.00  0.00    -0.189 N  
HETATM   26  C   UNL     1     -10.231  12.616  67.352  1.00  0.00    -0.217 C  
HETATM   27  H   UNL     1      -8.726  12.325  65.956  1.00  0.00     0.000 HD 
HETATM   28  O   UNL     1     -10.804  12.284  68.381  1.00  0.00    -0.210 OA 
BRANCH  26  29
HETATM   29  C   UNL     1     -10.610  13.930  66.737  1.00  0.00    -0.277 A  
HETATM   30  C   UNL     1     -10.439  14.071  65.338  1.00  0.00    -0.365 A  
HETATM   31  C   UNL     1     -10.572  15.309  64.713  1.00  0.00    -0.283 A  
HETATM   32  C   UNL     1     -10.873  16.426  65.471  1.00  0.00    -0.224 A  
HETATM   33  C   UNL     1     -11.094  16.293  66.843  1.00  0.00     0.055 A  
HETATM   34  C   UNL     1     -10.975  15.055  67.528  1.00  0.00    -0.307 A  
BRANCH  34  35
HETATM   35  C   UNL     1     -11.267  15.054  69.000  1.00  0.00    -0.279 A  
HETATM   36  C   UNL     1     -10.540  15.822  69.928  1.00  0.00    -0.332 A  
HETATM   37  C   UNL     1     -10.788  15.742  71.307  1.00  0.00     0.027 A  
HETATM   38  C   UNL     1     -11.744  14.861  71.802  1.00  0.00    -0.398 A  
HETATM   39  C   UNL     1     -12.481  14.088  70.915  1.00  0.00    -0.439 A  
HETATM   40  C   UNL     1     -12.260  14.203  69.537  1.00  0.00    -0.351 A  
ENDBRANCH  34  35
ENDBRANCH  26  29
ENDBRANCH  21  25
ENDBRANCH  12  19
TORSDOF 4
ENDMDL
MODEL      114
REMARK 921   NORMALIZED FREE ENERGY PREDICTED BY IDOCK:   -2.26 KCAL/MOL
REMARK 922        TOTAL FREE ENERGY PREDICTED BY IDOCK:   -4.27 KCAL/MOL
REMARK 923 INTER-LIGAND FREE ENERGY PREDICTED BY IDOCK:   -3.22 KCAL/MOL
REMARK 924 INTRA-LIGAND FREE ENERGY PREDICTED BY IDOCK:   -1.05 KCAL/MOL
REMARK 927      BINDING AFFINITY PREDICTED BY RF-SCORE:    0.00 PKD
ROOT
HETATM    1  C   UNL     1      -6.692   5.727  66.030  1.00  0.00    -0.056 C  
HETATM    2  C   UNL     1      -7.743   6.765  66.129  1.00  0.00    -0.091 A  
HETATM    3  N   UNL     1      -7.686   7.998  65.665  1.00  0.00    -0.090 NA 
HETATM    4  C   UNL     1      -8.878   8.578  66.017  1.00  0.00    -0.173 A  
HETATM    5  H   UNL     1      -6.917   8.429  65.152  1.00  0.00     0.000 HD 
HETATM    6  C   UNL     1      -9.686   7.673  66.657  1.00  0.00    -0.213 A  
HETATM    7  N   UNL     1      -8.953   6.522  66.736  1.00  0.00    -0.127 NA 
HETATM    8  C   UNL     1     -11.051   7.882  67.176  1.00  0.00     0.271 C  
HETATM    9  C   UNL     1     -11.032   9.016  68.201  1.00  0.00     0.076 C  
HETATM   10  N   UNL     1     -10.538  10.347  67.806  1.00  0.00    -0.230 N  
HETATM   11  C   UNL     1     -10.246  10.659  66.434  1.00  0.00    -0.234 A  
HETATM   12  C   UNL     1     -10.473  11.275  68.880  1.00  0.00    -0.206 C  
HETATM   13  C   UNL     1     -10.762  11.845  65.881  1.00  0.00    -0.326 A  
HETATM   14  O   UNL     1     -10.880  10.968  70.006  1.00  0.00    -0.172 OA 
HETATM   15  C   UNL     1      -9.328   9.907  65.655  1.00  0.00    -0.269 A  
HETATM   16  C   UNL     1     -10.266  12.365  64.680  1.00  0.00    -0.312 A  
HETATM   17  C   UNL     1      -8.833  10.447  64.454  1.00  0.00    -0.223 A  
HETATM   18  C   UNL     1      -9.275  11.683  63.985  1.00  0.00     0.136 A  
ENDROOT
BRANCH  12  19
HETATM   19  C   UNL     1      -9.950  12.669  68.726  1.00  0.00    -0.023 A  
HETATM   20  C   UNL     1      -8.561  12.831  68.656  1.00  0.00     0.054 A  
HETATM   21  C   UNL     1      -8.790  15.236  68.871  1.00  0.00    -0.209 A  
HETATM   22  C   UNL     1     -10.179  15.082  68.867  1.00  0.00    -0.235 A  
HETATM   23  C   UNL     1      -7.987  14.106  68.710  1.00  0.00    -0.102 A  
HETATM   24  C   UNL     1     -10.752  13.812  68.708  1.00  0.00    -0.267 A  
BRANCH  21  25
HETATM   25  N   UNL     1      -8.258  16.530  69.069  1.00  0.00    -0.232 N  
HETATM   26  C   UNL     1      -7.304  17.125  68.249  1.00  0.00    -0.214 C  
HETATM   27  H   UNL     1      -8.597  17.065  69.868  1.00  0.00     0.000 HD 
HETATM   28  O   UNL     1      -6.880  16.638  67.209  1.00  0.00    -0.143 OA 
BRANCH  26  29
HETATM   29  C   UNL     1      -6.845  18.507  68.607  1.00  0.00    -0.279 A  
HETATM   30  C   UNL     1      -5.598  18.633  69.265  1.00  0.00    -0.214 A  
HETATM   31  C   UNL     1      -5.187  19.845  69.814  1.00  0.00    -0.224 A  
HETATM   32  C   UNL     1      -6.012  20.951  69.718  1.00  0.00     0.064 A  
HETATM   33  C   UNL     1      -7.222  20.854  69.029  1.00  0.00     0.986 A  
HETATM   34  C   UNL     1      -7.686  19.645  68.449  1.00  0.00    -0.366 A  
BRANCH  34  35
HETATM   35  C   UNL     1      -8.993  19.693  67.714  1.00  0.00    -0.385 A  
HETATM   36  C   UNL     1      -9.208  20.499  66.581  1.00  0.00    -0.286 A  
HETATM   37  C   UNL     1     -10.464  20.580  65.959  1.00  0.00     0.074 A  
HETATM   38  C   UNL     1     -11.553  19.887  66.479  1.00  0.00     1.127 A  
HETATM   39  C   UNL     1     -11.378  19.082  67.596  1.00  0.00     0.366 A  
HETATM   40  C   UNL     1     -10.113  18.972  68.186  1.00  0.00    -0.467 A  
ENDBRANCH  34  35
ENDBRANCH  26  29
ENDBRANCH  21  25
ENDBRANCH  12  19
TORSDOF 4
ENDMDL
MODEL      115
REMARK 921   NORMALIZED FREE ENERGY PREDICTED BY IDOCK:   -2.09 KCAL/MOL
REMARK 922        TOTAL FREE ENERGY PREDICTED BY IDOCK:   -4.06 KCAL/MOL
REMARK 923 INTER-LIGAND FREE ENERGY PREDICTED BY IDOCK:   -4.84 KCAL/MOL
REMARK 924 INTRA-LIGAND FREE ENERGY PREDICTED BY IDOCK:    0.78 KCAL/MOL
REMARK 927      BINDING AFFINITY PREDICTED BY RF-SCORE:    0.00 PKD
ROOT
HETATM    1  C   UNL     1      -6.684   3.484  73.250  1.00  0.00    -0.034 C  
HETATM    2  C   UNL     1      -6.905   3.833  71.828  1.00  0.00    -0.026 A  
HETATM    3  N   UNL     1      -6.561   4.954  71.225  1.00  0.00    -0.033 NA 
HETATM    4  C   UNL     1      -6.992   4.821  69.929  1.00  0.00    -0.052 A  
HETATM    5  H   UNL     1      -6.076   5.752  71.635  1.00  0.00     0.000 HD 
HETATM    6  C   UNL     1      -7.558   3.587  69.733  1.00  0.00    -0.048 A  
HETATM    7  N   UNL     1      -7.512   2.966  70.950  1.00  0.00    -0.036 NA 
HETATM    8  C   UNL     1      -8.124   3.036  68.487  1.00  0.00    -0.071 C  
HETATM    9  C   UNL     1      -9.252   3.944  68.000  1.00  0.00    -0.163 C  
HETATM   10  N   UNL     1      -8.978   5.366  67.728  1.00  0.00    -0.109 N  
HETATM   11  C   UNL     1      -7.636   5.881  67.730  1.00  0.00    -0.089 A  
HETATM   12  C   UNL     1     -10.134   6.118  67.388  1.00  0.00    -0.156 C  
HETATM   13  C   UNL     1      -7.210   6.677  66.651  1.00  0.00    -0.073 A  
HETATM   14  O   UNL     1     -11.233   5.566  67.268  1.00  0.00     0.169 OA 
HETATM   15  C   UNL     1      -6.769   5.759  68.848  1.00  0.00    -0.060 A  
HETATM   16  C   UNL     1      -6.055   7.462  66.736  1.00  0.00    -0.043 A  
HETATM   17  C   UNL     1      -5.616   6.561  68.922  1.00  0.00    -0.016 A  
HETATM   18  C   UNL     1      -5.277   7.430  67.887  1.00  0.00    -0.025 A  
ENDROOT
BRANCH  12  19
HETATM   19  C   UNL     1     -10.103   7.591  67.125  1.00  0.00    -0.317 A  
HETATM   20  C   UNL     1     -11.084   8.376  67.744  1.00  0.00     0.321 A  
HETATM   21  C   UNL     1     -10.453  10.294  66.401  1.00  0.00    -0.163 A  
HETATM   22  C   UNL     1      -9.427   9.533  65.835  1.00  0.00    -0.307 A  
HETATM   23  C   UNL     1     -11.245   9.722  67.397  1.00  0.00     0.146 A  
HETATM   24  C   UNL     1      -9.203   8.217  66.260  1.00  0.00    -0.245 A  
BRANCH  21  25
HETATM   25  N   UNL     1     -10.664  11.605  65.916  1.00  0.00    -0.271 N  
HETATM   26  C   UNL     1     -11.270  12.627  66.641  1.00  0.00    -0.300 C  
HETATM   27  H   UNL     1     -10.350  11.817  64.969  1.00  0.00     0.000 HD 
HETATM   28  O   UNL     1     -11.609  12.540  67.814  1.00  0.00    -0.303 OA 
BRANCH  26  29
HETATM   29  C   UNL     1     -11.417  13.960  65.971  1.00  0.00    -0.345 A  
HETATM   30  C   UNL     1     -12.398  14.077  64.956  1.00  0.00    -0.458 A  
HETATM   31  C   UNL     1     -12.469  15.207  64.144  1.00  0.00     0.005 A  
HETATM   32  C   UNL     1     -11.564  16.237  64.328  1.00  0.00     0.033 A  
HETATM   33  C   UNL     1     -10.624  16.156  65.357  1.00  0.00    -0.399 A  
HETATM   34  C   UNL     1     -10.511  15.031  66.214  1.00  0.00    -0.309 A  
BRANCH  34  35
HETATM   35  C   UNL     1      -9.473  15.092  67.296  1.00  0.00    -0.214 A  
HETATM   36  C   UNL     1      -9.672  15.766  68.514  1.00  0.00    -0.206 A  
HETATM   37  C   UNL     1      -8.655  15.870  69.476  1.00  0.00    -0.095 A  
HETATM   38  C   UNL     1      -7.394  15.337  69.227  1.00  0.00    -0.191 A  
HETATM   39  C   UNL     1      -7.161  14.665  68.035  1.00  0.00    -0.147 A  
HETATM   40  C   UNL     1      -8.193  14.527  67.098  1.00  0.00    -0.214 A  
ENDBRANCH  34  35
ENDBRANCH  26  29
ENDBRANCH  21  25
ENDBRANCH  12  19
TORSDOF 4
ENDMDL
MODEL      116
REMARK 921   NORMALIZED FREE ENERGY PREDICTED BY IDOCK:   -2.03 KCAL/MOL
REMARK 922        TOTAL FREE ENERGY PREDICTED BY IDOCK:   -3.99 KCAL/MOL
REMARK 923 INTER-LIGAND FREE ENERGY PREDICTED BY IDOCK:   -3.77 KCAL/MOL
REMARK 924 INTRA-LIGAND FREE ENERGY PREDICTED BY IDOCK:   -0.21 KCAL/MOL
REMARK 927      BINDING AFFINITY PREDICTED BY RF-SCORE:    0.00 PKD
ROOT
HETATM    1  C   UNL     1     -10.842  20.879  69.828  1.00  0.00     1.300 C  
HETATM    2  C   UNL     1     -10.002  19.846  69.179  1.00  0.00    -0.247 A  
HETATM    3  N   UNL     1     -10.405  18.689  68.692  1.00  0.00    -0.425 NA 
HETATM    4  C   UNL     1      -9.272  18.076  68.219  1.00  0.00    -0.293 A  
HETATM    5  H   UNL     1     -11.358  18.326  68.671  1.00  0.00     0.000 HD 
HETATM    6  C   UNL     1      -8.180  18.892  68.376  1.00  0.00    -0.342 A  
HETATM    7  N   UNL     1      -8.649  20.014  68.999  1.00  0.00     0.084 NA 
HETATM    8  C   UNL     1      -6.783  18.624  67.983  1.00  0.00    -0.230 C  
HETATM    9  C   UNL     1      -6.294  17.360  68.688  1.00  0.00    -0.179 C  
HETATM   10  N   UNL     1      -7.020  16.092  68.498  1.00  0.00    -0.127 N  
HETATM   11  C   UNL     1      -8.067  15.970  67.521  1.00  0.00    -0.148 A  
HETATM   12  C   UNL     1      -6.525  15.024  69.294  1.00  0.00    -0.124 C  
HETATM   13  C   UNL     1      -8.049  14.876  66.637  1.00  0.00     0.134 A  
HETATM   14  O   UNL     1      -5.525  15.177  70.004  1.00  0.00    -0.108 OA 
HETATM   15  C   UNL     1      -9.208  16.814  67.511  1.00  0.00    -0.215 A  
HETATM   16  C   UNL     1      -9.180  14.522  65.893  1.00  0.00    -0.003 A  
HETATM   17  C   UNL     1     -10.340  16.440  66.764  1.00  0.00    -0.293 A  
HETATM   18  C   UNL     1     -10.338  15.285  65.984  1.00  0.00    -0.327 A  
ENDROOT
BRANCH  12  19
HETATM   19  C   UNL     1      -7.142  13.660  69.307  1.00  0.00     0.018 A  
HETATM   20  C   UNL     1      -6.274  12.561  69.326  1.00  0.00    -0.105 A  
HETATM   21  C   UNL     1      -8.120  11.047  68.898  1.00  0.00    -0.135 A  
HETATM   22  C   UNL     1      -8.996  12.134  68.952  1.00  0.00     0.237 A  
HETATM   23  C   UNL     1      -6.763  11.263  69.141  1.00  0.00    -0.099 A  
HETATM   24  C   UNL     1      -8.516  13.419  69.241  1.00  0.00     0.734 A  
BRANCH  21  25
HETATM   25  N   UNL     1      -8.644   9.777  68.570  1.00  0.00    -0.118 N  
HETATM   26  C   UNL     1      -9.410   8.992  69.428  1.00  0.00    -0.158 C  
HETATM   27  H   UNL     1      -8.448   9.408  67.639  1.00  0.00     0.000 HD 
HETATM   28  O   UNL     1      -9.798   9.347  70.533  1.00  0.00    -0.234 OA 
BRANCH  26  29
HETATM   29  C   UNL     1      -9.884   7.664  68.916  1.00  0.00    -0.164 A  
HETATM   30  C   UNL     1     -10.080   6.631  69.864  1.00  0.00    -0.198 A  
HETATM   31  C   UNL     1     -10.321   5.318  69.465  1.00  0.00    -0.333 A  
HETATM   32  C   UNL     1     -10.369   5.014  68.117  1.00  0.00    -0.091 A  
HETATM   33  C   UNL     1     -10.227   6.031  67.172  1.00  0.00    -0.248 A  
HETATM   34  C   UNL     1      -9.983   7.384  67.524  1.00  0.00    -0.225 A  
BRANCH  34  35
HETATM   35  C   UNL     1      -9.879   8.378  66.405  1.00  0.00    -0.310 A  
HETATM   36  C   UNL     1      -8.898   8.302  65.399  1.00  0.00    -0.116 A  
HETATM   37  C   UNL     1      -8.780   9.288  64.407  1.00  0.00    -0.211 A  
HETATM   38  C   UNL     1      -9.614  10.402  64.418  1.00  0.00    -0.375 A  
HETATM   39  C   UNL     1     -10.593  10.510  65.395  1.00  0.00    -0.143 A  
HETATM   40  C   UNL     1     -10.735   9.502  66.357  1.00  0.00     0.044 A  
ENDBRANCH  34  35
ENDBRANCH  26  29
ENDBRANCH  21  25
ENDBRANCH  12  19
TORSDOF 4
ENDMDL
MODEL      117
REMARK 921   NORMALIZED FREE ENERGY PREDICTED BY IDOCK:   -1.74 KCAL/MOL
REMARK 922        TOTAL FREE ENERGY PREDICTED BY IDOCK:   -3.63 KCAL/MOL
REMARK 923 INTER-LIGAND FREE ENERGY PREDICTED BY IDOCK:   -5.92 KCAL/MOL
REMARK 924 INTRA-LIGAND FREE ENERGY PREDICTED BY IDOCK:    2.28 KCAL/MOL
REMARK 927      BINDING AFFINITY PREDICTED BY RF-SCORE:    0.00 PKD
ROOT
HETATM    1  C   UNL     1     -12.224  16.675  73.398  1.00  0.00    -0.366 C  
HETATM    2  C   UNL     1     -12.169  15.708  72.278  1.00  0.00    -0.439 A  
HETATM    3  N   UNL     1     -12.179  14.392  72.366  1.00  0.00    -0.155 NA 
HETATM    4  C   UNL     1     -12.089  13.938  71.075  1.00  0.00    -0.277 A  
HETATM    5  H   UNL     1     -12.242  13.831  73.215  1.00  0.00     0.000 HD 
HETATM    6  C   UNL     1     -12.074  14.989  70.193  1.00  0.00    -0.331 A  
HETATM    7  N   UNL     1     -12.112  16.115  70.966  1.00  0.00    -0.314 NA 
HETATM    8  C   UNL     1     -12.008  14.936  68.719  1.00  0.00    -0.284 C  
HETATM    9  C   UNL     1     -10.740  14.196  68.297  1.00  0.00    -0.249 C  
HETATM   10  N   UNL     1     -10.510  12.817  68.764  1.00  0.00    -0.201 N  
HETATM   11  C   UNL     1     -11.535  12.082  69.454  1.00  0.00    -0.296 A  
HETATM   12  C   UNL     1      -9.246  12.288  68.389  1.00  0.00    -0.145 C  
HETATM   13  C   UNL     1     -11.833  10.773  69.036  1.00  0.00    -0.325 A  
HETATM   14  O   UNL     1      -8.479  12.937  67.670  1.00  0.00    -0.158 OA 
HETATM   15  C   UNL     1     -12.151  12.557  70.643  1.00  0.00    -0.312 A  
HETATM   16  C   UNL     1     -12.571   9.900  69.843  1.00  0.00     0.373 A  
HETATM   17  C   UNL     1     -12.883  11.665  71.447  1.00  0.00    -0.461 A  
HETATM   18  C   UNL     1     -13.066  10.337  71.066  1.00  0.00    -0.458 A  
ENDROOT
BRANCH  12  19
HETATM   19  C   UNL     1      -8.775  10.928  68.800  1.00  0.00    -0.158 A  
HETATM   20  C   UNL     1      -9.589  10.203  69.679  1.00  0.00    -0.237 A  
HETATM   21  C   UNL     1      -7.838   8.556  70.004  1.00  0.00    -0.102 A  
HETATM   22  C   UNL     1      -7.053   9.238  69.072  1.00  0.00    -0.067 A  
HETATM   23  C   UNL     1      -9.130   9.017  70.262  1.00  0.00    -0.227 A  
HETATM   24  C   UNL     1      -7.556  10.368  68.412  1.00  0.00    -0.093 A  
BRANCH  21  25
HETATM   25  N   UNL     1      -7.277   7.444  70.670  1.00  0.00    -0.067 N  
HETATM   26  C   UNL     1      -7.448   6.119  70.277  1.00  0.00    -0.090 C  
HETATM   27  H   UNL     1      -6.706   7.623  71.496  1.00  0.00     0.000 HD 
HETATM   28  O   UNL     1      -8.027   5.766  69.258  1.00  0.00    -0.097 OA 
BRANCH  26  29
HETATM   29  C   UNL     1      -6.782   5.059  71.103  1.00  0.00    -0.039 A  
HETATM   30  C   UNL     1      -5.940   5.484  72.158  1.00  0.00    -0.030 A  
HETATM   31  C   UNL     1      -5.127   4.585  72.844  1.00  0.00    -0.004 A  
HETATM   32  C   UNL     1      -5.138   3.248  72.488  1.00  0.00     0.000 A  
HETATM   33  C   UNL     1      -6.000   2.807  71.483  1.00  0.00    -0.014 A  
HETATM   34  C   UNL     1      -6.850   3.680  70.756  1.00  0.00    -0.033 A  
BRANCH  34  35
HETATM   35  C   UNL     1      -7.745   3.063  69.721  1.00  0.00    -0.045 A  
HETATM   36  C   UNL     1      -9.094   2.747  69.961  1.00  0.00    -0.189 A  
HETATM   37  C   UNL     1      -9.885   2.102  68.998  1.00  0.00     0.254 A  
HETATM   38  C   UNL     1      -9.336   1.717  67.779  1.00  0.00    -0.165 A  
HETATM   39  C   UNL     1      -8.007   2.012  67.507  1.00  0.00    -0.064 A  
HETATM   40  C   UNL     1      -7.235   2.694  68.455  1.00  0.00    -0.048 A  
ENDBRANCH  34  35
ENDBRANCH  26  29
ENDBRANCH  21  25
ENDBRANCH  12  19
TORSDOF 4
ENDMDL
MODEL      118
REMARK 921   NORMALIZED FREE ENERGY PREDICTED BY IDOCK:   -1.59 KCAL/MOL
REMARK 922        TOTAL FREE ENERGY PREDICTED BY IDOCK:   -3.44 KCAL/MOL
REMARK 923 INTER-LIGAND FREE ENERGY PREDICTED BY IDOCK:   -2.30 KCAL/MOL
REMARK 924 INTRA-LIGAND FREE ENERGY PREDICTED BY IDOCK:   -1.14 KCAL/MOL
REMARK 927      BINDING AFFINITY PREDICTED BY RF-SCORE:    0.00 PKD
ROOT
HETATM    1  C   UNL     1     -11.934   6.741  70.972  1.00  0.00    -0.431 C  
HETATM    2  C   UNL     1     -11.138   7.485  69.969  1.00  0.00    -0.204 A  
HETATM    3  N   UNL     1     -10.709   8.729  70.061  1.00  0.00    -0.227 NA 
HETATM    4  C   UNL     1     -10.044   8.975  68.887  1.00  0.00    -0.196 A  
HETATM    5  H   UNL     1     -10.843   9.371  70.842  1.00  0.00     0.000 HD 
HETATM    6  C   UNL     1     -10.028   7.854  68.097  1.00  0.00    -0.180 A  
HETATM    7  N   UNL     1     -10.737   6.911  68.786  1.00  0.00    -0.224 NA 
HETATM    8  C   UNL     1      -9.401   7.687  66.771  1.00  0.00    -0.218 C  
HETATM    9  C   UNL     1      -9.996   8.706  65.801  1.00  0.00     0.274 C  
HETATM   10  N   UNL     1      -9.912  10.145  66.112  1.00  0.00    -0.233 N  
HETATM   11  C   UNL     1      -9.123  10.626  67.213  1.00  0.00    -0.143 A  
HETATM   12  C   UNL     1     -10.598  10.973  65.183  1.00  0.00    -0.226 C  
HETATM   13  C   UNL     1      -8.232  11.693  66.997  1.00  0.00    -0.170 A  
HETATM   14  O   UNL     1     -11.132  10.488  64.180  1.00  0.00     0.472 OA 
HETATM   15  C   UNL     1      -9.317  10.181  68.547  1.00  0.00    -0.151 A  
HETATM   16  C   UNL     1      -7.683  12.411  68.066  1.00  0.00    -0.135 A  
HETATM   17  C   UNL     1      -8.764  10.918  69.610  1.00  0.00     0.390 A  
HETATM   18  C   UNL     1      -7.979  12.044  69.373  1.00  0.00     0.631 A  
ENDROOT
BRANCH  12  19
HETATM   19  C   UNL     1     -10.694  12.459  65.329  1.00  0.00    -0.322 A  
HETATM   20  C   UNL     1      -9.645  13.227  64.809  1.00  0.00     0.334 A  
HETATM   21  C   UNL     1     -10.507  15.215  65.899  1.00  0.00    -0.336 A  
HETATM   22  C   UNL     1     -11.594  14.466  66.357  1.00  0.00    -0.383 A  
HETATM   23  C   UNL     1      -9.563  14.598  65.077  1.00  0.00     0.363 A  
HETATM   24  C   UNL     1     -11.727  13.117  66.001  1.00  0.00    -0.424 A  
BRANCH  21  25
HETATM   25  N   UNL     1     -10.396  16.561  66.312  1.00  0.00    -0.319 N  
HETATM   26  C   UNL     1      -9.565  17.007  67.337  1.00  0.00    -0.246 C  
HETATM   27  H   UNL     1     -10.964  17.256  65.827  1.00  0.00     0.000 HD 
HETATM   28  O   UNL     1      -8.765  16.303  67.938  1.00  0.00    -0.173 OA 
BRANCH  26  29
HETATM   29  C   UNL     1      -9.573  18.474  67.648  1.00  0.00    -0.304 A  
HETATM   30  C   UNL     1     -10.646  18.972  68.426  1.00  0.00    -0.146 A  
HETATM   31  C   UNL     1     -10.846  20.340  68.594  1.00  0.00     0.491 A  
HETATM   32  C   UNL     1      -9.982  21.234  67.989  1.00  0.00     0.518 A  
HETATM   33  C   UNL     1      -8.890  20.757  67.260  1.00  0.00    -0.259 A  
HETATM   34  C   UNL     1      -8.639  19.374  67.062  1.00  0.00    -0.318 A  
BRANCH  34  35
HETATM   35  C   UNL     1      -7.413  19.004  66.280  1.00  0.00    -0.288 A  
HETATM   36  C   UNL     1      -7.261  19.286  64.910  1.00  0.00     0.732 A  
HETATM   37  C   UNL     1      -6.135  18.860  64.189  1.00  0.00     0.222 A  
HETATM   38  C   UNL     1      -5.145  18.104  64.810  1.00  0.00    -0.048 A  
HETATM   39  C   UNL     1      -5.261  17.808  66.161  1.00  0.00    -0.225 A  
HETATM   40  C   UNL     1      -6.367  18.272  66.885  1.00  0.00    -0.198 A  
ENDBRANCH  34  35
ENDBRANCH  26  29
ENDBRANCH  21  25
ENDBRANCH  12  19
TORSDOF 4
ENDMDL
MODEL      119
REMARK 921   NORMALIZED FREE ENERGY PREDICTED BY IDOCK:   -1.39 KCAL/MOL
REMARK 922        TOTAL FREE ENERGY PREDICTED BY IDOCK:   -3.20 KCAL/MOL
REMARK 923 INTER-LIGAND FREE ENERGY PREDICTED BY IDOCK:   -6.22 KCAL/MOL
REMARK 924 INTRA-LIGAND FREE ENERGY PREDICTED BY IDOCK:    3.02 KCAL/MOL
REMARK 927      BINDING AFFINITY PREDICTED BY RF-SCORE:    0.00 PKD
ROOT
HETATM    1  C   UNL     1      -5.906  17.671  68.829  1.00  0.00    -0.174 C  
HETATM    2  C   UNL     1      -7.077  16.805  68.566  1.00  0.00    -0.183 A  
HETATM    3  N   UNL     1      -7.099  15.487  68.537  1.00  0.00    -0.112 NA 
HETATM    4  C   UNL     1      -8.393  15.148  68.234  1.00  0.00    -0.149 A  
HETATM    5  H   UNL     1      -6.317  14.853  68.705  1.00  0.00     0.000 HD 
HETATM    6  C   UNL     1      -9.174  16.270  68.128  1.00  0.00    -0.199 A  
HETATM    7  N   UNL     1      -8.329  17.324  68.328  1.00  0.00    -0.234 NA 
HETATM    8  C   UNL     1     -10.619  16.346  67.837  1.00  0.00    -0.320 C  
HETATM    9  C   UNL     1     -10.899  15.680  66.491  1.00  0.00    -0.260 C  
HETATM   10  N   UNL     1     -10.515  14.273  66.280  1.00  0.00    -0.285 N  
HETATM   11  C   UNL     1     -10.052  13.454  67.367  1.00  0.00    -0.237 A  
HETATM   12  C   UNL     1     -10.732  13.813  64.953  1.00  0.00    -0.399 C  
HETATM   13  C   UNL     1     -10.616  12.177  67.545  1.00  0.00    -0.240 A  
HETATM   14  O   UNL     1     -11.269  14.541  64.112  1.00  0.00    -0.138 OA 
HETATM   15  C   UNL     1      -8.939  13.807  68.174  1.00  0.00    -0.190 A  
HETATM   16  C   UNL     1     -10.005  11.219  68.361  1.00  0.00    -0.201 A  
HETATM   17  C   UNL     1      -8.332  12.830  68.983  1.00  0.00     0.426 A  
HETATM   18  C   UNL     1      -8.842  11.535  69.053  1.00  0.00     0.139 A  
ENDROOT
BRANCH  12  19
HETATM   19  C   UNL     1     -10.364  12.436  64.495  1.00  0.00    -0.351 A  
HETATM   20  C   UNL     1     -10.492  11.394  65.421  1.00  0.00    -0.336 A  
HETATM   21  C   UNL     1      -9.313   9.878  63.939  1.00  0.00    -0.207 A  
HETATM   22  C   UNL     1      -9.249  10.896  62.985  1.00  0.00    -0.329 A  
HETATM   23  C   UNL     1      -9.986  10.120  65.138  1.00  0.00    -0.379 A  
HETATM   24  C   UNL     1      -9.849  12.139  63.231  1.00  0.00    -0.125 A  
BRANCH  21  25
HETATM   25  N   UNL     1      -8.665   8.654  63.661  1.00  0.00    -0.425 N  
HETATM   26  C   UNL     1      -8.226   7.755  64.629  1.00  0.00    -0.076 C  
HETATM   27  H   UNL     1      -8.507   8.412  62.683  1.00  0.00     0.000 HD 
HETATM   28  O   UNL     1      -8.430   7.873  65.830  1.00  0.00    -0.129 OA 
BRANCH  26  29
HETATM   29  C   UNL     1      -7.552   6.501  64.157  1.00  0.00    -0.100 A  
HETATM   30  C   UNL     1      -6.796   6.575  62.962  1.00  0.00    -0.046 A  
HETATM   31  C   UNL     1      -6.307   5.428  62.342  1.00  0.00    -0.018 A  
HETATM   32  C   UNL     1      -6.564   4.189  62.900  1.00  0.00    -0.030 A  
HETATM   33  C   UNL     1      -7.265   4.105  64.104  1.00  0.00    -0.051 A  
HETATM   34  C   UNL     1      -7.782   5.242  64.778  1.00  0.00    -0.087 A  
BRANCH  34  35
HETATM   35  C   UNL     1      -8.492   5.005  66.079  1.00  0.00    -0.116 A  
HETATM   36  C   UNL     1      -9.889   5.087  66.217  1.00  0.00    -0.217 A  
HETATM   37  C   UNL     1     -10.518   4.934  67.463  1.00  0.00    -0.036 A  
HETATM   38  C   UNL     1      -9.763   4.736  68.614  1.00  0.00    -0.223 A  
HETATM   39  C   UNL     1      -8.381   4.650  68.516  1.00  0.00    -0.088 A  
HETATM   40  C   UNL     1      -7.762   4.760  67.265  1.00  0.00    -0.091 A  
ENDBRANCH  34  35
ENDBRANCH  26  29
ENDBRANCH  21  25
ENDBRANCH  12  19
TORSDOF 4
ENDMDL
MODEL      120
REMARK 921   NORMALIZED FREE ENERGY PREDICTED BY IDOCK:   -1.38 KCAL/MOL
REMARK 922        TOTAL FREE ENERGY PREDICTED BY IDOCK:   -3.19 KCAL/MOL
REMARK 923 INTER-LIGAND FREE ENERGY PREDICTED BY IDOCK:   -2.20 KCAL/MOL
REMARK 924 INTRA-LIGAND FREE ENERGY PREDICTED BY IDOCK:   -0.98 KCAL/MOL
REMARK 927      BINDING AFFINITY PREDICTED BY RF-SCORE:    0.00 PKD
ROOT
HETATM    1  C   UNL     1     -10.358   5.184  67.723  1.00  0.00    -0.157 C  
HETATM    2  C   UNL     1      -9.146   6.034  67.755  1.00  0.00    -0.109 A  
HETATM    3  N   UNL     1      -8.869   6.986  68.624  1.00  0.00    -0.129 NA 
HETATM    4  C   UNL     1      -7.657   7.498  68.233  1.00  0.00    -0.114 A  
HETATM    5  H   UNL     1      -9.435   7.280  69.419  1.00  0.00     0.000 HD 
HETATM    6  C   UNL     1      -7.173   6.815  67.146  1.00  0.00    -0.085 A  
HETATM    7  N   UNL     1      -8.131   5.892  66.838  1.00  0.00    -0.102 NA 
HETATM    8  C   UNL     1      -5.899   7.031  66.433  1.00  0.00    -0.034 C  
HETATM    9  C   UNL     1      -5.852   8.466  65.908  1.00  0.00    -0.044 C  
HETATM   10  N   UNL     1      -5.987   9.591  66.850  1.00  0.00    -0.055 N  
HETATM   11  C   UNL     1      -5.976   9.381  68.272  1.00  0.00    -0.044 A  
HETATM   12  C   UNL     1      -6.035  10.864  66.219  1.00  0.00    -0.139 C  
HETATM   13  C   UNL     1      -5.140  10.181  69.072  1.00  0.00    -0.035 A  
HETATM   14  O   UNL     1      -5.894  10.967  64.996  1.00  0.00     0.006 OA 
HETATM   15  C   UNL     1      -6.888   8.511  68.926  1.00  0.00    -0.061 A  
HETATM   16  C   UNL     1      -5.312  10.254  70.459  1.00  0.00    -0.058 A  
HETATM   17  C   UNL     1      -7.054   8.602  70.320  1.00  0.00    -0.042 A  
HETATM   18  C   UNL     1      -6.294   9.490  71.078  1.00  0.00    -0.077 A  
ENDROOT
BRANCH  12  19
HETATM   19  C   UNL     1      -6.225  12.143  66.972  1.00  0.00    -0.098 A  
HETATM   20  C   UNL     1      -7.486  12.748  66.906  1.00  0.00     0.199 A  
HETATM   21  C   UNL     1      -6.623  14.753  67.964  1.00  0.00    -0.147 A  
HETATM   22  C   UNL     1      -5.383  14.123  68.097  1.00  0.00    -0.120 A  
HETATM   23  C   UNL     1      -7.687  14.036  67.415  1.00  0.00    -0.177 A  
HETATM   24  C   UNL     1      -5.213  12.795  67.681  1.00  0.00    -0.101 A  
BRANCH  21  25
HETATM   25  N   UNL     1      -6.738  16.103  68.366  1.00  0.00    -0.124 N  
HETATM   26  C   UNL     1      -6.317  17.191  67.607  1.00  0.00    -0.143 C  
HETATM   27  H   UNL     1      -7.158  16.293  69.275  1.00  0.00     0.000 HD 
HETATM   28  O   UNL     1      -5.883  17.116  66.465  1.00  0.00    -0.191 OA 
BRANCH  26  29
HETATM   29  C   UNL     1      -6.512  18.560  68.188  1.00  0.00    -0.212 A  
HETATM   30  C   UNL     1      -5.359  19.256  68.623  1.00  0.00    -0.200 A  
HETATM   31  C   UNL     1      -5.459  20.437  69.355  1.00  0.00    -0.335 A  
HETATM   32  C   UNL     1      -6.708  20.942  69.668  1.00  0.00     1.061 A  
HETATM   33  C   UNL     1      -7.853  20.292  69.204  1.00  0.00     0.364 A  
HETATM   34  C   UNL     1      -7.807  19.089  68.452  1.00  0.00    -0.372 A  
BRANCH  34  35
HETATM   35  C   UNL     1      -9.116  18.515  67.994  1.00  0.00    -0.319 A  
HETATM   36  C   UNL     1      -9.940  17.728  68.819  1.00  0.00    -0.367 A  
HETATM   37  C   UNL     1     -11.122  17.143  68.339  1.00  0.00    -0.107 A  
HETATM   38  C   UNL     1     -11.493  17.294  67.006  1.00  0.00     0.956 A  
HETATM   39  C   UNL     1     -10.704  18.064  66.163  1.00  0.00    -0.142 A  
HETATM   40  C   UNL     1      -9.548  18.682  66.658  1.00  0.00    -0.347 A  
ENDBRANCH  34  35
ENDBRANCH  26  29
ENDBRANCH  21  25
ENDBRANCH  12  19
TORSDOF 4
ENDMDL
MODEL      121
REMARK 921   NORMALIZED FREE ENERGY PREDICTED BY IDOCK:   -0.57 KCAL/MOL
REMARK 922        TOTAL FREE ENERGY PREDICTED BY IDOCK:   -2.19 KCAL/MOL
REMARK 923 INTER-LIGAND FREE ENERGY PREDICTED BY IDOCK:   -1.89 KCAL/MOL
REMARK 924 INTRA-LIGAND FREE ENERGY PREDICTED BY IDOCK:   -0.30 KCAL/MOL
REMARK 927      BINDING AFFINITY PREDICTED BY RF-SCORE:    0.00 PKD
ROOT
HETATM    1  C   UNL     1     -13.397  15.978  68.687  1.00  0.00     3.748 C  
HETATM    2  C   UNL     1     -12.209  15.259  68.173  1.00  0.00     0.251 A  
HETATM    3  N   UNL     1     -12.158  14.009  67.754  1.00  0.00    -0.509 NA 
HETATM    4  C   UNL     1     -10.850  13.795  67.400  1.00  0.00    -0.277 A  
HETATM    5  H   UNL     1     -12.928  13.343  67.704  1.00  0.00     0.000 HD 
HETATM    6  C   UNL     1     -10.112  14.940  67.559  1.00  0.00    -0.228 A  
HETATM    7  N   UNL     1     -10.980  15.867  68.063  1.00  0.00    -0.326 NA 
HETATM    8  C   UNL     1      -8.678  15.144  67.273  1.00  0.00    -0.221 C  
HETATM    9  C   UNL     1      -7.854  14.161  68.103  1.00  0.00    -0.142 C  
HETATM   10  N   UNL     1      -8.094  12.713  67.969  1.00  0.00    -0.150 N  
HETATM   11  C   UNL     1      -8.955  12.190  66.943  1.00  0.00    -0.201 A  
HETATM   12  C   UNL     1      -7.338  11.921  68.874  1.00  0.00    -0.080 C  
HETATM   13  C   UNL     1      -8.497  11.122  66.149  1.00  0.00    -0.156 A  
HETATM   14  O   UNL     1      -6.511  12.442  69.630  1.00  0.00    -0.119 OA 
HETATM   15  C   UNL     1     -10.308  12.594  66.798  1.00  0.00    -0.246 A  
HETATM   16  C   UNL     1      -9.378  10.366  65.368  1.00  0.00    -0.252 A  
HETATM   17  C   UNL     1     -11.182  11.818  66.014  1.00  0.00    -0.352 A  
HETATM   18  C   UNL     1     -10.728  10.693  65.329  1.00  0.00    -0.100 A  
ENDROOT
BRANCH  12  19
HETATM   19  C   UNL     1      -7.461  10.431  68.957  1.00  0.00    -0.106 A  
HETATM   20  C   UNL     1      -6.523   9.668  68.251  1.00  0.00    -0.056 A  
HETATM   21  C   UNL     1      -7.805   7.649  68.652  1.00  0.00    -0.121 A  
HETATM   22  C   UNL     1      -8.703   8.397  69.418  1.00  0.00    -0.137 A  
HETATM   23  C   UNL     1      -6.685   8.285  68.116  1.00  0.00    -0.065 A  
HETATM   24  C   UNL     1      -8.481   9.763  69.638  1.00  0.00    -0.194 A  
BRANCH  21  25
HETATM   25  N   UNL     1      -8.088   6.283  68.429  1.00  0.00    -0.111 N  
HETATM   26  C   UNL     1      -8.054   5.662  67.183  1.00  0.00    -0.102 C  
HETATM   27  H   UNL     1      -8.335   5.710  69.236  1.00  0.00     0.000 HD 
HETATM   28  O   UNL     1      -7.686   6.202  66.148  1.00  0.00    -0.095 OA 
BRANCH  26  29
HETATM   29  C   UNL     1      -8.386   4.201  67.126  1.00  0.00    -0.100 A  
HETATM   30  C   UNL     1      -8.454   3.595  65.848  1.00  0.00    -0.111 A  
HETATM   31  C   UNL     1      -8.949   2.303  65.684  1.00  0.00    -0.118 A  
HETATM   32  C   UNL     1      -9.387   1.596  66.789  1.00  0.00     0.079 A  
HETATM   33  C   UNL     1      -9.279   2.162  68.060  1.00  0.00    -0.242 A  
HETATM   34  C   UNL     1      -8.779   3.471  68.283  1.00  0.00    -0.136 A  
BRANCH  34  35
HETATM   35  C   UNL     1      -8.694   3.942  69.705  1.00  0.00    -0.124 A  
HETATM   36  C   UNL     1      -7.581   3.697  70.530  1.00  0.00    -0.041 A  
HETATM   37  C   UNL     1      -7.563   4.084  71.879  1.00  0.00    -0.066 A  
HETATM   38  C   UNL     1      -8.675   4.691  72.454  1.00  0.00    -0.124 A  
HETATM   39  C   UNL     1      -9.792   4.948  71.670  1.00  0.00    -0.245 A  
HETATM   40  C   UNL     1      -9.788   4.599  70.314  1.00  0.00    -0.314 A  
ENDBRANCH  34  35
ENDBRANCH  26  29
ENDBRANCH  21  25
ENDBRANCH  12  19
TORSDOF 4
ENDMDL
MODEL      122
REMARK 921   NORMALIZED FREE ENERGY PREDICTED BY IDOCK:   -0.07 KCAL/MOL
REMARK 922        TOTAL FREE ENERGY PREDICTED BY IDOCK:   -1.57 KCAL/MOL
REMARK 923 INTER-LIGAND FREE ENERGY PREDICTED BY IDOCK:   -4.64 KCAL/MOL
REMARK 924 INTRA-LIGAND FREE ENERGY PREDICTED BY IDOCK:    3.07 KCAL/MOL
REMARK 927      BINDING AFFINITY PREDICTED BY RF-SCORE:    0.00 PKD
ROOT
HETATM    1  C   UNL     1      -5.768  17.384  68.422  1.00  0.00    -0.154 C  
HETATM    2  C   UNL     1      -6.692  16.241  68.607  1.00  0.00    -0.138 A  
HETATM    3  N   UNL     1      -6.382  14.959  68.584  1.00  0.00    -0.082 NA 
HETATM    4  C   UNL     1      -7.565  14.293  68.779  1.00  0.00    -0.130 A  
HETATM    5  H   UNL     1      -5.458  14.550  68.449  1.00  0.00     0.000 HD 
HETATM    6  C   UNL     1      -8.593  15.180  68.973  1.00  0.00    -0.219 A  
HETATM    7  N   UNL     1      -8.034  16.420  68.850  1.00  0.00    -0.226 NA 
HETATM    8  C   UNL     1     -10.014  14.879  69.238  1.00  0.00    -0.181 C  
HETATM    9  C   UNL     1     -10.575  14.045  68.087  1.00  0.00    -0.248 C  
HETATM   10  N   UNL     1      -9.944  12.758  67.744  1.00  0.00    -0.213 N  
HETATM   11  C   UNL     1      -8.929  12.177  68.581  1.00  0.00    -0.000 A  
HETATM   12  C   UNL     1     -10.495  12.139  66.590  1.00  0.00    -0.220 C  
HETATM   13  C   UNL     1      -9.043  10.825  68.950  1.00  0.00    -0.170 A  
HETATM   14  O   UNL     1     -11.466  12.637  66.010  1.00  0.00    -0.328 OA 
HETATM   15  C   UNL     1      -7.732  12.861  68.920  1.00  0.00     0.096 A  
HETATM   16  C   UNL     1      -7.956  10.120  69.480  1.00  0.00    -0.170 A  
HETATM   17  C   UNL     1      -6.646  12.137  69.445  1.00  0.00    -0.090 A  
HETATM   18  C   UNL     1      -6.746  10.769  69.693  1.00  0.00    -0.122 A  
ENDROOT
BRANCH  12  19
HETATM   19  C   UNL     1      -9.975  10.855  66.024  1.00  0.00    -0.290 A  
HETATM   20  C   UNL     1      -9.425   9.932  66.922  1.00  0.00    -0.202 A  
HETATM   21  C   UNL     1      -8.569   8.597  65.086  1.00  0.00    -0.173 A  
HETATM   22  C   UNL     1      -9.179   9.478  64.190  1.00  0.00    -0.142 A  
HETATM   23  C   UNL     1      -8.743   8.802  66.455  1.00  0.00    -0.137 A  
HETATM   24  C   UNL     1      -9.949  10.550  64.661  1.00  0.00    -0.415 A  
BRANCH  21  25
HETATM   25  N   UNL     1      -7.774   7.552  64.566  1.00  0.00    -0.116 N  
HETATM   26  C   UNL     1      -7.601   6.312  65.175  1.00  0.00    -0.092 C  
HETATM   27  H   UNL     1      -7.294   7.716  63.681  1.00  0.00     0.000 HD 
HETATM   28  O   UNL     1      -8.188   5.947  66.185  1.00  0.00    -0.109 OA 
BRANCH  26  29
HETATM   29  C   UNL     1      -6.718   5.316  64.485  1.00  0.00    -0.047 A  
HETATM   30  C   UNL     1      -6.425   5.539  63.118  1.00  0.00    -0.025 A  
HETATM   31  C   UNL     1      -5.786   4.571  62.346  1.00  0.00    -0.013 A  
HETATM   32  C   UNL     1      -5.431   3.365  62.923  1.00  0.00    -0.008 A  
HETATM   33  C   UNL     1      -5.669   3.151  64.282  1.00  0.00    -0.010 A  
HETATM   34  C   UNL     1      -6.313   4.104  65.113  1.00  0.00    -0.031 A  
BRANCH  34  35
HETATM   35  C   UNL     1      -6.479   3.751  66.562  1.00  0.00    -0.037 A  
HETATM   36  C   UNL     1      -5.637   4.246  67.574  1.00  0.00    -0.021 A  
HETATM   37  C   UNL     1      -5.771   3.838  68.911  1.00  0.00    -0.022 A  
HETATM   38  C   UNL     1      -6.727   2.892  69.266  1.00  0.00    -0.034 A  
HETATM   39  C   UNL     1      -7.576   2.382  68.293  1.00  0.00    -0.054 A  
HETATM   40  C   UNL     1      -7.466   2.825  66.969  1.00  0.00    -0.069 A  
ENDBRANCH  34  35
ENDBRANCH  26  29
ENDBRANCH  21  25
ENDBRANCH  12  19
TORSDOF 4
ENDMDL
MODEL      123
REMARK 921   NORMALIZED FREE ENERGY PREDICTED BY IDOCK:   -0.03 KCAL/MOL
REMARK 922        TOTAL FREE ENERGY PREDICTED BY IDOCK:   -1.51 KCAL/MOL
REMARK 923 INTER-LIGAND FREE ENERGY PREDICTED BY IDOCK:   -0.55 KCAL/MOL
REMARK 924 INTRA-LIGAND FREE ENERGY PREDICTED BY IDOCK:   -0.97 KCAL/MOL
REMARK 927      BINDING AFFINITY PREDICTED BY RF-SCORE:    0.00 PKD
ROOT
HETATM    1  C   UNL     1     -10.435  21.017  69.728  1.00  0.00     1.089 C  
HETATM    2  C   UNL     1      -9.200  20.222  69.544  1.00  0.00     0.777 A  
HETATM    3  N   UNL     1      -8.941  19.373  68.568  1.00  0.00    -0.364 NA 
HETATM    4  C   UNL     1      -7.694  18.871  68.840  1.00  0.00    -0.286 A  
HETATM    5  H   UNL     1      -9.542  19.140  67.778  1.00  0.00     0.000 HD 
HETATM    6  C   UNL     1      -7.171  19.458  69.964  1.00  0.00     0.280 A  
HETATM    7  N   UNL     1      -8.140  20.309  70.416  1.00  0.00     1.117 NA 
HETATM    8  C   UNL     1      -5.853  19.219  70.584  1.00  0.00    -0.173 C  
HETATM    9  C   UNL     1      -5.731  17.741  70.954  1.00  0.00     0.214 C  
HETATM   10  N   UNL     1      -5.882  16.713  69.910  1.00  0.00    -0.211 N  
HETATM   11  C   UNL     1      -5.957  17.066  68.518  1.00  0.00    -0.145 A  
HETATM   12  C   UNL     1      -5.854  15.382  70.408  1.00  0.00    -0.106 C  
HETATM   13  C   UNL     1      -5.143  16.383  67.597  1.00  0.00    -0.146 A  
HETATM   14  O   UNL     1      -5.640  15.160  71.604  1.00  0.00     0.045 OA 
HETATM   15  C   UNL     1      -6.932  17.963  68.007  1.00  0.00    -0.202 A  
HETATM   16  C   UNL     1      -5.390  16.445  66.221  1.00  0.00     1.084 A  
HETATM   17  C   UNL     1      -7.173  18.007  66.622  1.00  0.00    -0.248 A  
HETATM   18  C   UNL     1      -6.429  17.230  65.737  1.00  0.00     0.245 A  
ENDROOT
BRANCH  12  19
HETATM   19  C   UNL     1      -6.044  14.179  69.537  1.00  0.00    -0.113 A  
HETATM   20  C   UNL     1      -7.235  14.096  68.806  1.00  0.00    -0.120 A  
HETATM   21  C   UNL     1      -6.749  11.798  68.200  1.00  0.00    -0.064 A  
HETATM   22  C   UNL     1      -5.526  11.904  68.867  1.00  0.00    -0.050 A  
HETATM   23  C   UNL     1      -7.576  12.920  68.128  1.00  0.00    -0.135 A  
HETATM   24  C   UNL     1      -5.142  13.116  69.458  1.00  0.00    -0.076 A  
BRANCH  21  25
HETATM   25  N   UNL     1      -7.109  10.548  67.650  1.00  0.00    -0.083 N  
HETATM   26  C   UNL     1      -8.202   9.789  68.062  1.00  0.00    -0.109 C  
HETATM   27  H   UNL     1      -6.529  10.174  66.900  1.00  0.00     0.000 HD 
HETATM   28  O   UNL     1      -9.033  10.157  68.882  1.00  0.00    -0.137 OA 
BRANCH  26  29
HETATM   29  C   UNL     1      -8.438   8.479  67.371  1.00  0.00    -0.127 A  
HETATM   30  C   UNL     1      -8.022   7.303  68.040  1.00  0.00    -0.119 A  
HETATM   31  C   UNL     1      -8.014   6.068  67.396  1.00  0.00    -0.102 A  
HETATM   32  C   UNL     1      -8.417   5.985  66.076  1.00  0.00    -0.139 A  
HETATM   33  C   UNL     1      -8.876   7.128  65.419  1.00  0.00     0.080 A  
HETATM   34  C   UNL     1      -8.908   8.409  66.029  1.00  0.00    -0.202 A  
BRANCH  34  35
HETATM   35  C   UNL     1      -9.452   9.545  65.214  1.00  0.00    -0.326 A  
HETATM   36  C   UNL     1     -10.361  10.490  65.723  1.00  0.00    -0.270 A  
HETATM   37  C   UNL     1     -10.910  11.497  64.914  1.00  0.00    -0.345 A  
HETATM   38  C   UNL     1     -10.597  11.562  63.560  1.00  0.00    -0.487 A  
HETATM   39  C   UNL     1      -9.703  10.646  63.023  1.00  0.00    -0.362 A  
HETATM   40  C   UNL     1      -9.125   9.670  63.844  1.00  0.00    -0.229 A  
ENDBRANCH  34  35
ENDBRANCH  26  29
ENDBRANCH  21  25
ENDBRANCH  12  19
TORSDOF 4
ENDMDL
MODEL      124
REMARK 921   NORMALIZED FREE ENERGY PREDICTED BY IDOCK:    0.19 KCAL/MOL
REMARK 922        TOTAL FREE ENERGY PREDICTED BY IDOCK:   -1.25 KCAL/MOL
REMARK 923 INTER-LIGAND FREE ENERGY PREDICTED BY IDOCK:   -0.80 KCAL/MOL
REMARK 924 INTRA-LIGAND FREE ENERGY PREDICTED BY IDOCK:   -0.45 KCAL/MOL
REMARK 927      BINDING AFFINITY PREDICTED BY RF-SCORE:    0.00 PKD
ROOT
HETATM    1  C   UNL     1     -10.401  21.123  69.798  1.00  0.00     1.307 C  
HETATM    2  C   UNL     1      -9.183  20.311  69.575  1.00  0.00     0.777 A  
HETATM    3  N   UNL     1      -9.033  19.329  68.708  1.00  0.00    -0.370 NA 
HETATM    4  C   UNL     1      -7.751  18.874  68.888  1.00  0.00    -0.286 A  
HETATM    5  H   UNL     1      -9.724  18.981  68.043  1.00  0.00     0.000 HD 
HETATM    6  C   UNL     1      -7.102  19.620  69.839  1.00  0.00    -0.002 A  
HETATM    7  N   UNL     1      -8.023  20.527  70.282  1.00  0.00     1.197 NA 
HETATM    8  C   UNL     1      -5.712  19.477  70.312  1.00  0.00    -0.284 C  
HETATM    9  C   UNL     1      -5.513  18.071  70.875  1.00  0.00    -0.140 C  
HETATM   10  N   UNL     1      -5.774  16.899  70.019  1.00  0.00    -0.220 N  
HETATM   11  C   UNL     1      -6.032  17.045  68.612  1.00  0.00    -0.148 A  
HETATM   12  C   UNL     1      -5.656  15.656  70.698  1.00  0.00    -0.081 C  
HETATM   13  C   UNL     1      -5.327  16.235  67.704  1.00  0.00    -0.155 A  
HETATM   14  O   UNL     1      -5.289  15.613  71.876  1.00  0.00     0.041 OA 
HETATM   15  C   UNL     1      -7.082  17.854  68.105  1.00  0.00    -0.224 A  
HETATM   16  C   UNL     1      -5.747  16.093  66.376  1.00  0.00     1.264 A  
HETATM   17  C   UNL     1      -7.498  17.695  66.771  1.00  0.00    -0.249 A  
HETATM   18  C   UNL     1      -6.856  16.797  65.920  1.00  0.00     0.723 A  
ENDROOT
BRANCH  12  19
HETATM   19  C   UNL     1      -5.931  14.338  70.043  1.00  0.00    -0.141 A  
HETATM   20  C   UNL     1      -7.085  14.238  69.257  1.00  0.00    -0.107 A  
HETATM   21  C   UNL     1      -6.819  11.832  69.103  1.00  0.00    -0.106 A  
HETATM   22  C   UNL     1      -5.628  11.939  69.825  1.00  0.00    -0.096 A  
HETATM   23  C   UNL     1      -7.515  12.997  68.776  1.00  0.00    -0.049 A  
HETATM   24  C   UNL     1      -5.146  13.196  70.217  1.00  0.00    -0.095 A  
BRANCH  21  25
HETATM   25  N   UNL     1      -7.284  10.543  68.761  1.00  0.00    -0.078 N  
HETATM   26  C   UNL     1      -7.662   9.569  69.681  1.00  0.00    -0.112 C  
HETATM   27  H   UNL     1      -7.347  10.308  67.770  1.00  0.00     0.000 HD 
HETATM   28  O   UNL     1      -7.725   9.744  70.890  1.00  0.00    -0.312 OA 
BRANCH  26  29
HETATM   29  C   UNL     1      -8.130   8.250  69.143  1.00  0.00    -0.120 A  
HETATM   30  C   UNL     1      -7.186   7.456  68.447  1.00  0.00    -0.093 A  
HETATM   31  C   UNL     1      -7.575   6.319  67.743  1.00  0.00    -0.101 A  
HETATM   32  C   UNL     1      -8.909   5.956  67.717  1.00  0.00    -0.109 A  
HETATM   33  C   UNL     1      -9.843   6.701  68.439  1.00  0.00    -0.138 A  
HETATM   34  C   UNL     1      -9.499   7.865  69.176  1.00  0.00    -0.155 A  
BRANCH  34  35
HETATM   35  C   UNL     1     -10.601   8.552  69.927  1.00  0.00    -0.228 A  
HETATM   36  C   UNL     1     -10.968   9.891  69.700  1.00  0.00    -0.285 A  
HETATM   37  C   UNL     1     -11.952  10.528  70.471  1.00  0.00    -0.436 A  
HETATM   38  C   UNL     1     -12.570   9.856  71.521  1.00  0.00    -0.513 A  
HETATM   39  C   UNL     1     -12.234   8.534  71.774  1.00  0.00    -0.388 A  
HETATM   40  C   UNL     1     -11.282   7.889  70.974  1.00  0.00    -0.288 A  
ENDBRANCH  34  35
ENDBRANCH  26  29
ENDBRANCH  21  25
ENDBRANCH  12  19
TORSDOF 4
ENDMDL
MODEL      125
REMARK 921   NORMALIZED FREE ENERGY PREDICTED BY IDOCK:    1.61 KCAL/MOL
REMARK 922        TOTAL FREE ENERGY PREDICTED BY IDOCK:    0.51 KCAL/MOL
REMARK 923 INTER-LIGAND FREE ENERGY PREDICTED BY IDOCK:    0.50 KCAL/MOL
REMARK 924 INTRA-LIGAND FREE ENERGY PREDICTED BY IDOCK:    0.01 KCAL/MOL
REMARK 927      BINDING AFFINITY PREDICTED BY RF-SCORE:    0.00 PKD
ROOT
HETATM    1  C   UNL     1     -10.398  21.119  69.798  1.00  0.00     1.307 C  
HETATM    2  C   UNL     1      -9.175  20.313  69.582  1.00  0.00     0.862 A  
HETATM    3  N   UNL     1      -9.009  19.345  68.701  1.00  0.00    -0.373 NA 
HETATM    4  C   UNL     1      -7.730  18.889  68.895  1.00  0.00    -0.286 A  
HETATM    5  H   UNL     1      -9.688  19.007  68.020  1.00  0.00     0.000 HD 
HETATM    6  C   UNL     1      -7.098  19.621  69.868  1.00  0.00    -0.002 A  
HETATM    7  N   UNL     1      -8.027  20.519  70.311  1.00  0.00     1.197 NA 
HETATM    8  C   UNL     1      -5.715  19.472  70.362  1.00  0.00    -0.283 C  
HETATM    9  C   UNL     1      -5.524  18.057  70.905  1.00  0.00    -0.140 C  
HETATM   10  N   UNL     1      -5.769  16.899  70.026  1.00  0.00    -0.220 N  
HETATM   11  C   UNL     1      -6.004  17.067  68.618  1.00  0.00    -0.148 A  
HETATM   12  C   UNL     1      -5.659  15.645  70.686  1.00  0.00    -0.081 C  
HETATM   13  C   UNL     1      -5.283  16.272  67.708  1.00  0.00    -0.142 A  
HETATM   14  O   UNL     1      -5.311  15.584  71.870  1.00  0.00     0.017 OA 
HETATM   15  C   UNL     1      -7.047  17.883  68.107  1.00  0.00    -0.224 A  
HETATM   16  C   UNL     1      -5.681  16.152  66.372  1.00  0.00     1.264 A  
HETATM   17  C   UNL     1      -7.440  17.744  66.763  1.00  0.00    -0.244 A  
HETATM   18  C   UNL     1      -6.783  16.862  65.909  1.00  0.00     0.563 A  
ENDROOT
BRANCH  12  19
HETATM   19  C   UNL     1      -5.921  14.338  70.006  1.00  0.00    -0.141 A  
HETATM   20  C   UNL     1      -7.059  14.250  69.195  1.00  0.00    -0.117 A  
HETATM   21  C   UNL     1      -6.791  11.847  69.010  1.00  0.00    -0.105 A  
HETATM   22  C   UNL     1      -5.615  11.942  69.758  1.00  0.00    -0.096 A  
HETATM   23  C   UNL     1      -7.480  13.017  68.687  1.00  0.00    -0.093 A  
HETATM   24  C   UNL     1      -5.140  13.193  70.178  1.00  0.00    -0.091 A  
BRANCH  21  25
HETATM   25  N   UNL     1      -7.249  10.563  68.639  1.00  0.00    -0.083 N  
HETATM   26  C   UNL     1      -7.657   9.580  69.536  1.00  0.00    -0.096 C  
HETATM   27  H   UNL     1      -7.284  10.341  67.644  1.00  0.00     0.000 HD 
HETATM   28  O   UNL     1      -7.755   9.740  70.745  1.00  0.00    -0.308 OA 
BRANCH  26  29
HETATM   29  C   UNL     1      -8.113   8.268  68.968  1.00  0.00    -0.117 A  
HETATM   30  C   UNL     1      -8.368   8.212  67.576  1.00  0.00    -0.123 A  
HETATM   31  C   UNL     1      -8.983   7.104  66.997  1.00  0.00    -0.137 A  
HETATM   32  C   UNL     1      -9.355   6.037  67.794  1.00  0.00    -0.106 A  
HETATM   33  C   UNL     1      -9.064   6.058  69.159  1.00  0.00    -0.124 A  
HETATM   34  C   UNL     1      -8.437   7.159  69.798  1.00  0.00    -0.137 A  
BRANCH  34  35
HETATM   35  C   UNL     1      -8.160   7.034  71.268  1.00  0.00    -0.108 A  
HETATM   36  C   UNL     1      -6.931   6.585  71.783  1.00  0.00    -0.076 A  
HETATM   37  C   UNL     1      -6.727   6.407  73.160  1.00  0.00    -0.073 A  
HETATM   38  C   UNL     1      -7.764   6.634  74.060  1.00  0.00    -0.099 A  
HETATM   39  C   UNL     1      -8.991   7.078  73.588  1.00  0.00    -0.188 A  
HETATM   40  C   UNL     1      -9.175   7.295  72.217  1.00  0.00    -0.154 A  
ENDBRANCH  34  35
ENDBRANCH  26  29
ENDBRANCH  21  25
ENDBRANCH  12  19
TORSDOF 4
ENDMDL
MODEL      126
REMARK 921   NORMALIZED FREE ENERGY PREDICTED BY IDOCK:    1.69 KCAL/MOL
REMARK 922        TOTAL FREE ENERGY PREDICTED BY IDOCK:    0.60 KCAL/MOL
REMARK 923 INTER-LIGAND FREE ENERGY PREDICTED BY IDOCK:    0.91 KCAL/MOL
REMARK 924 INTRA-LIGAND FREE ENERGY PREDICTED BY IDOCK:   -0.31 KCAL/MOL
REMARK 927      BINDING AFFINITY PREDICTED BY RF-SCORE:    0.00 PKD
ROOT
HETATM    1  C   UNL     1      -5.525   6.236  69.658  1.00  0.00    -0.013 C  
HETATM    2  C   UNL     1      -6.373   6.786  68.576  1.00  0.00    -0.031 A  
HETATM    3  N   UNL     1      -6.088   7.801  67.784  1.00  0.00    -0.044 NA 
HETATM    4  C   UNL     1      -7.180   7.947  66.968  1.00  0.00    -0.090 A  
HETATM    5  H   UNL     1      -5.235   8.360  67.780  1.00  0.00     0.000 HD 
HETATM    6  C   UNL     1      -8.116   6.979  67.234  1.00  0.00    -0.115 A  
HETATM    7  N   UNL     1      -7.601   6.249  68.268  1.00  0.00    -0.097 NA 
HETATM    8  C   UNL     1      -9.417   6.767  66.571  1.00  0.00    -0.193 C  
HETATM    9  C   UNL     1     -10.268   8.028  66.716  1.00  0.00    -0.297 C  
HETATM   10  N   UNL     1      -9.758   9.314  66.209  1.00  0.00    -0.250 N  
HETATM   11  C   UNL     1      -8.561   9.383  65.415  1.00  0.00    -0.156 A  
HETATM   12  C   UNL     1     -10.599  10.421  66.504  1.00  0.00    -0.151 C  
HETATM   13  C   UNL     1      -8.581  10.116  64.215  1.00  0.00    -0.200 A  
HETATM   14  O   UNL     1     -11.685  10.255  67.068  1.00  0.00     0.221 OA 
HETATM   15  C   UNL     1      -7.313   8.878  65.866  1.00  0.00    -0.093 A  
HETATM   16  C   UNL     1      -7.396  10.489  63.570  1.00  0.00     0.061 A  
HETATM   17  C   UNL     1      -6.130   9.268  65.210  1.00  0.00    -0.063 A  
HETATM   18  C   UNL     1      -6.169  10.094  64.089  1.00  0.00    -0.132 A  
ENDROOT
BRANCH  12  19
HETATM   19  C   UNL     1     -10.254  11.830  66.136  1.00  0.00    -0.255 A  
HETATM   20  C   UNL     1      -9.760  12.658  67.151  1.00  0.00    -0.211 A  
HETATM   21  C   UNL     1      -9.971  14.606  65.721  1.00  0.00    -0.338 A  
HETATM   22  C   UNL     1     -10.395  13.771  64.684  1.00  0.00    -0.393 A  
HETATM   23  C   UNL     1      -9.602  14.032  66.939  1.00  0.00    -0.275 A  
HETATM   24  C   UNL     1     -10.453  12.382  64.869  1.00  0.00    -0.327 A  
BRANCH  21  25
HETATM   25  N   UNL     1      -9.962  16.001  65.500  1.00  0.00    -0.302 N  
HETATM   26  C   UNL     1     -10.147  16.959  66.493  1.00  0.00    -0.315 C  
HETATM   27  H   UNL     1      -9.809  16.330  64.547  1.00  0.00     0.000 HD 
HETATM   28  O   UNL     1     -10.247  16.711  67.687  1.00  0.00    -0.269 OA 
BRANCH  26  29
HETATM   29  C   UNL     1     -10.111  18.401  66.082  1.00  0.00    -0.376 A  
HETATM   30  C   UNL     1     -10.986  18.807  65.046  1.00  0.00     1.347 A  
HETATM   31  C   UNL     1     -10.882  20.068  64.462  1.00  0.00     2.370 A  
HETATM   32  C   UNL     1      -9.904  20.942  64.899  1.00  0.00     1.931 A  
HETATM   33  C   UNL     1      -9.066  20.573  65.953  1.00  0.00     0.180 A  
HETATM   34  C   UNL     1      -9.133  19.304  66.585  1.00  0.00    -0.374 A  
BRANCH  34  35
HETATM   35  C   UNL     1      -8.189  19.053  67.724  1.00  0.00    -0.305 A  
HETATM   36  C   UNL     1      -6.938  18.430  67.563  1.00  0.00    -0.206 A  
HETATM   37  C   UNL     1      -6.110  18.141  68.658  1.00  0.00    -0.197 A  
HETATM   38  C   UNL     1      -6.528  18.431  69.953  1.00  0.00     0.001 A  
HETATM   39  C   UNL     1      -7.756  19.047  70.151  1.00  0.00     1.117 A  
HETATM   40  C   UNL     1      -8.560  19.372  69.050  1.00  0.00    -0.248 A  
ENDBRANCH  34  35
ENDBRANCH  26  29
ENDBRANCH  21  25
ENDBRANCH  12  19
TORSDOF 4
ENDMDL
MODEL      127
REMARK 921   NORMALIZED FREE ENERGY PREDICTED BY IDOCK:    1.74 KCAL/MOL
REMARK 922        TOTAL FREE ENERGY PREDICTED BY IDOCK:    0.66 KCAL/MOL
REMARK 923 INTER-LIGAND FREE ENERGY PREDICTED BY IDOCK:   -0.03 KCAL/MOL
REMARK 924 INTRA-LIGAND FREE ENERGY PREDICTED BY IDOCK:    0.69 KCAL/MOL
REMARK 927      BINDING AFFINITY PREDICTED BY RF-SCORE:    0.00 PKD
ROOT
HETATM    1  C   UNL     1     -11.222  21.012  69.208  1.00  0.00     1.724 C  
HETATM    2  C   UNL     1      -9.879  20.403  69.070  1.00  0.00     0.237 A  
HETATM    3  N   UNL     1      -9.492  19.534  68.157  1.00  0.00    -0.344 NA 
HETATM    4  C   UNL     1      -8.183  19.250  68.452  1.00  0.00    -0.347 A  
HETATM    5  H   UNL     1     -10.049  19.153  67.392  1.00  0.00     0.000 HD 
HETATM    6  C   UNL     1      -7.757  19.993  69.525  1.00  0.00     0.265 A  
HETATM    7  N   UNL     1      -8.846  20.716  69.922  1.00  0.00     1.608 NA 
HETATM    8  C   UNL     1      -6.419  20.005  70.147  1.00  0.00    -0.324 C  
HETATM    9  C   UNL     1      -6.072  18.596  70.624  1.00  0.00     0.218 C  
HETATM   10  N   UNL     1      -6.062  17.481  69.660  1.00  0.00    -0.253 N  
HETATM   11  C   UNL     1      -6.189  17.714  68.247  1.00  0.00    -0.177 A  
HETATM   12  C   UNL     1      -5.830  16.212  70.255  1.00  0.00    -0.117 C  
HETATM   13  C   UNL     1      -5.279  17.096  67.371  1.00  0.00    -0.148 A  
HETATM   14  O   UNL     1      -5.587  16.115  71.463  1.00  0.00     0.228 OA 
HETATM   15  C   UNL     1      -7.290  18.410  67.681  1.00  0.00    -0.219 A  
HETATM   16  C   UNL     1      -5.531  17.017  65.997  1.00  0.00     0.400 A  
HETATM   17  C   UNL     1      -7.533  18.313  66.299  1.00  0.00    -0.295 A  
HETATM   18  C   UNL     1      -6.678  17.595  65.466  1.00  0.00     0.146 A  
ENDROOT
BRANCH  12  19
HETATM   19  C   UNL     1      -5.833  14.932  69.478  1.00  0.00    -0.103 A  
HETATM   20  C   UNL     1      -6.565  14.905  68.285  1.00  0.00    -0.117 A  
HETATM   21  C   UNL     1      -6.297  12.499  68.129  1.00  0.00    -0.076 A  
HETATM   22  C   UNL     1      -5.505  12.535  69.279  1.00  0.00    -0.072 A  
HETATM   23  C   UNL     1      -6.780  13.700  67.607  1.00  0.00    -0.185 A  
HETATM   24  C   UNL     1      -5.206  13.757  69.898  1.00  0.00    -0.094 A  
BRANCH  21  25
HETATM   25  N   UNL     1      -6.601  11.242  67.560  1.00  0.00    -0.068 N  
HETATM   26  C   UNL     1      -7.720  10.980  66.774  1.00  0.00    -0.146 C  
HETATM   27  H   UNL     1      -5.956  10.473  67.737  1.00  0.00     0.000 HD 
HETATM   28  O   UNL     1      -8.523  11.827  66.406  1.00  0.00    -0.166 OA 
BRANCH  26  29
HETATM   29  C   UNL     1      -7.890   9.585  66.252  1.00  0.00    -0.100 A  
HETATM   30  C   UNL     1      -7.325   9.286  64.989  1.00  0.00    -0.102 A  
HETATM   31  C   UNL     1      -7.602   8.086  64.337  1.00  0.00    -0.116 A  
HETATM   32  C   UNL     1      -8.448   7.167  64.931  1.00  0.00     0.065 A  
HETATM   33  C   UNL     1      -8.973   7.428  66.198  1.00  0.00    -0.182 A  
HETATM   34  C   UNL     1      -8.719   8.631  66.907  1.00  0.00    -0.133 A  
BRANCH  34  35
HETATM   35  C   UNL     1      -9.326   8.765  68.272  1.00  0.00    -0.143 A  
HETATM   36  C   UNL     1      -8.673   8.350  69.447  1.00  0.00    -0.137 A  
HETATM   37  C   UNL     1      -9.297   8.419  70.703  1.00  0.00    -0.182 A  
HETATM   38  C   UNL     1     -10.610   8.867  70.813  1.00  0.00    -0.281 A  
HETATM   39  C   UNL     1     -11.286   9.284  69.675  1.00  0.00    -0.061 A  
HETATM   40  C   UNL     1     -10.643   9.254  68.431  1.00  0.00    -0.234 A  
ENDBRANCH  34  35
ENDBRANCH  26  29
ENDBRANCH  21  25
ENDBRANCH  12  19
TORSDOF 4
ENDMDL
MODEL      128
REMARK 921   NORMALIZED FREE ENERGY PREDICTED BY IDOCK:    1.88 KCAL/MOL
REMARK 922        TOTAL FREE ENERGY PREDICTED BY IDOCK:    0.84 KCAL/MOL
REMARK 923 INTER-LIGAND FREE ENERGY PREDICTED BY IDOCK:   -0.78 KCAL/MOL
REMARK 924 INTRA-LIGAND FREE ENERGY PREDICTED BY IDOCK:    1.62 KCAL/MOL
REMARK 927      BINDING AFFINITY PREDICTED BY RF-SCORE:    0.00 PKD
ROOT
HETATM    1  C   UNL     1     -14.095  14.184  70.705  1.00  0.00     0.567 C  
HETATM    2  C   UNL     1     -13.154  13.048  70.833  1.00  0.00     0.063 A  
HETATM    3  N   UNL     1     -12.141  12.764  70.036  1.00  0.00    -0.318 NA 
HETATM    4  C   UNL     1     -11.585  11.617  70.545  1.00  0.00     0.071 A  
HETATM    5  H   UNL     1     -11.836  13.287  69.216  1.00  0.00     0.000 HD 
HETATM    6  C   UNL     1     -12.236  11.231  71.689  1.00  0.00     0.175 A  
HETATM    7  N   UNL     1     -13.243  12.139  71.861  1.00  0.00    -0.451 NA 
HETATM    8  C   UNL     1     -11.942  10.071  72.553  1.00  0.00     1.320 C  
HETATM    9  C   UNL     1     -12.040   8.790  71.727  1.00  0.00    -0.350 C  
HETATM   10  N   UNL     1     -11.197   8.628  70.529  1.00  0.00    -0.253 N  
HETATM   11  C   UNL     1     -10.151   9.565  70.220  1.00  0.00    -0.262 A  
HETATM   12  C   UNL     1     -11.465   7.441  69.795  1.00  0.00     0.063 C  
HETATM   13  C   UNL     1      -8.872   9.075  69.898  1.00  0.00    -0.164 A  
HETATM   14  O   UNL     1     -12.285   6.615  70.210  1.00  0.00    -0.294 OA 
HETATM   15  C   UNL     1     -10.389  10.956  70.066  1.00  0.00     0.272 A  
HETATM   16  C   UNL     1      -7.914   9.890  69.285  1.00  0.00    -0.121 A  
HETATM   17  C   UNL     1      -9.418  11.760  69.441  1.00  0.00     0.723 A  
HETATM   18  C   UNL     1      -8.201  11.225  69.024  1.00  0.00    -0.026 A  
ENDROOT
BRANCH  12  19
HETATM   19  C   UNL     1     -10.770   7.097  68.515  1.00  0.00    -0.191 A  
HETATM   20  C   UNL     1     -11.255   5.998  67.795  1.00  0.00    -0.014 A  
HETATM   21  C   UNL     1      -9.323   6.056  66.330  1.00  0.00    -0.145 A  
HETATM   22  C   UNL     1      -8.875   7.196  67.001  1.00  0.00    -0.125 A  
HETATM   23  C   UNL     1     -10.545   5.494  66.700  1.00  0.00    -0.365 A  
HETATM   24  C   UNL     1      -9.641   7.760  68.031  1.00  0.00    -0.166 A  
BRANCH  21  25
HETATM   25  N   UNL     1      -8.501   5.502  65.322  1.00  0.00    -0.144 N  
HETATM   26  C   UNL     1      -7.829   4.288  65.430  1.00  0.00    -0.086 C  
HETATM   27  H   UNL     1      -8.393   6.029  64.456  1.00  0.00     0.000 HD 
HETATM   28  O   UNL     1      -7.942   3.513  66.370  1.00  0.00    -0.087 OA 
BRANCH  26  29
HETATM   29  C   UNL     1      -6.994   3.851  64.263  1.00  0.00    -0.046 A  
HETATM   30  C   UNL     1      -6.889   2.461  64.019  1.00  0.00    -0.036 A  
HETATM   31  C   UNL     1      -5.982   1.955  63.090  1.00  0.00    -0.009 A  
HETATM   32  C   UNL     1      -5.164   2.825  62.393  1.00  0.00    -0.004 A  
HETATM   33  C   UNL     1      -5.292   4.202  62.587  1.00  0.00    -0.009 A  
HETATM   34  C   UNL     1      -6.202   4.769  63.517  1.00  0.00    -0.022 A  
BRANCH  34  35
HETATM   35  C   UNL     1      -6.253   6.266  63.603  1.00  0.00    -0.026 A  
HETATM   36  C   UNL     1      -5.583   7.002  64.596  1.00  0.00    -0.032 A  
HETATM   37  C   UNL     1      -5.710   8.396  64.695  1.00  0.00    -0.048 A  
HETATM   38  C   UNL     1      -6.546   9.091  63.826  1.00  0.00    -0.089 A  
HETATM   39  C   UNL     1      -7.223   8.397  62.833  1.00  0.00    -0.096 A  
HETATM   40  C   UNL     1      -7.059   7.012  62.712  1.00  0.00    -0.060 A  
ENDBRANCH  34  35
ENDBRANCH  26  29
ENDBRANCH  21  25
ENDBRANCH  12  19
TORSDOF 4
ENDMDL
MODEL      129
REMARK 921   NORMALIZED FREE ENERGY PREDICTED BY IDOCK:    2.43 KCAL/MOL
REMARK 922        TOTAL FREE ENERGY PREDICTED BY IDOCK:    1.52 KCAL/MOL
REMARK 923 INTER-LIGAND FREE ENERGY PREDICTED BY IDOCK:    1.99 KCAL/MOL
REMARK 924 INTRA-LIGAND FREE ENERGY PREDICTED BY IDOCK:   -0.48 KCAL/MOL
REMARK 927      BINDING AFFINITY PREDICTED BY RF-SCORE:    0.00 PKD
ROOT
HETATM    1  C   UNL     1     -10.855   5.414  74.297  1.00  0.00     0.085 C  
HETATM    2  C   UNL     1      -9.888   5.850  73.264  1.00  0.00    -0.170 A  
HETATM    3  N   UNL     1      -9.431   7.073  73.072  1.00  0.00    -0.144 NA 
HETATM    4  C   UNL     1      -8.586   6.982  71.995  1.00  0.00    -0.119 A  
HETATM    5  H   UNL     1      -9.658   7.908  73.610  1.00  0.00     0.000 HD 
HETATM    6  C   UNL     1      -8.491   5.684  71.563  1.00  0.00    -0.128 A  
HETATM    7  N   UNL     1      -9.333   4.969  72.367  1.00  0.00    -0.136 NA 
HETATM    8  C   UNL     1      -7.677   5.154  70.452  1.00  0.00    -0.074 C  
HETATM    9  C   UNL     1      -8.077   5.855  69.154  1.00  0.00    -0.106 C  
HETATM   10  N   UNL     1      -7.987   7.323  69.061  1.00  0.00    -0.118 N  
HETATM   11  C   UNL     1      -7.358   8.100  70.093  1.00  0.00    -0.060 A  
HETATM   12  C   UNL     1      -8.491   7.851  67.841  1.00  0.00    -0.126 C  
HETATM   13  C   UNL     1      -6.405   9.069  69.730  1.00  0.00    -0.038 A  
HETATM   14  O   UNL     1      -8.884   7.099  66.943  1.00  0.00    -0.121 OA 
HETATM   15  C   UNL     1      -7.770   8.048  71.451  1.00  0.00    -0.092 A  
HETATM   16  C   UNL     1      -5.998  10.063  70.628  1.00  0.00    -0.094 A  
HETATM   17  C   UNL     1      -7.359   9.059  72.339  1.00  0.00     0.311 A  
HETATM   18  C   UNL     1      -6.504  10.078  71.923  1.00  0.00     0.832 A  
ENDROOT
BRANCH  12  19
HETATM   19  C   UNL     1      -8.552   9.318  67.549  1.00  0.00    -0.116 A  
HETATM   20  C   UNL     1      -7.481   9.879  66.845  1.00  0.00    -0.092 A  
HETATM   21  C   UNL     1      -8.302  12.116  67.299  1.00  0.00    -0.179 A  
HETATM   22  C   UNL     1      -9.410  11.555  67.939  1.00  0.00    -0.171 A  
HETATM   23  C   UNL     1      -7.367  11.267  66.706  1.00  0.00    -0.146 A  
HETATM   24  C   UNL     1      -9.574  10.164  67.986  1.00  0.00    -0.160 A  
BRANCH  21  25
HETATM   25  N   UNL     1      -8.161  13.521  67.306  1.00  0.00    -0.264 N  
HETATM   26  C   UNL     1      -6.993  14.200  66.970  1.00  0.00     0.689 C  
HETATM   27  H   UNL     1      -8.972  14.078  67.577  1.00  0.00     0.000 HD 
HETATM   28  O   UNL     1      -5.980  13.666  66.540  1.00  0.00     1.524 OA 
BRANCH  26  29
HETATM   29  C   UNL     1      -7.018  15.698  67.035  1.00  0.00    -0.073 A  
HETATM   30  C   UNL     1      -7.404  16.398  65.866  1.00  0.00     1.008 A  
HETATM   31  C   UNL     1      -7.263  17.780  65.770  1.00  0.00    -0.154 A  
HETATM   32  C   UNL     1      -6.734  18.487  66.834  1.00  0.00    -0.205 A  
HETATM   33  C   UNL     1      -6.395  17.817  68.011  1.00  0.00    -0.176 A  
HETATM   34  C   UNL     1      -6.522  16.412  68.163  1.00  0.00    -0.135 A  
BRANCH  34  35
HETATM   35  C   UNL     1      -6.146  15.828  69.493  1.00  0.00    -0.147 A  
HETATM   36  C   UNL     1      -6.003  14.446  69.713  1.00  0.00    -0.119 A  
HETATM   37  C   UNL     1      -5.724  13.926  70.986  1.00  0.00    -0.216 A  
HETATM   38  C   UNL     1      -5.621  14.772  72.086  1.00  0.00     0.135 A  
HETATM   39  C   UNL     1      -5.756  16.142  71.907  1.00  0.00     0.965 A  
HETATM   40  C   UNL     1      -5.991  16.658  70.626  1.00  0.00     0.324 A  
ENDBRANCH  34  35
ENDBRANCH  26  29
ENDBRANCH  21  25
ENDBRANCH  12  19
TORSDOF 4
ENDMDL
MODEL      130
REMARK 921   NORMALIZED FREE ENERGY PREDICTED BY IDOCK:    2.81 KCAL/MOL
REMARK 922        TOTAL FREE ENERGY PREDICTED BY IDOCK:    1.99 KCAL/MOL
REMARK 923 INTER-LIGAND FREE ENERGY PREDICTED BY IDOCK:    1.07 KCAL/MOL
REMARK 924 INTRA-LIGAND FREE ENERGY PREDICTED BY IDOCK:    0.92 KCAL/MOL
REMARK 927      BINDING AFFINITY PREDICTED BY RF-SCORE:    0.00 PKD
ROOT
HETATM    1  C   UNL     1      -7.874   3.733  70.746  1.00  0.00    -0.051 C  
HETATM    2  C   UNL     1      -7.912   4.600  69.547  1.00  0.00    -0.062 A  
HETATM    3  N   UNL     1      -7.241   5.720  69.357  1.00  0.00    -0.065 NA 
HETATM    4  C   UNL     1      -7.620   6.168  68.117  1.00  0.00    -0.098 A  
HETATM    5  H   UNL     1      -6.579   6.159  69.997  1.00  0.00     0.000 HD 
HETATM    6  C   UNL     1      -8.491   5.286  67.530  1.00  0.00    -0.105 A  
HETATM    7  N   UNL     1      -8.684   4.295  68.450  1.00  0.00    -0.094 NA 
HETATM    8  C   UNL     1      -9.117   5.381  66.197  1.00  0.00    -0.154 C  
HETATM    9  C   UNL     1      -9.924   6.675  66.109  1.00  0.00     0.200 C  
HETATM   10  N   UNL     1      -9.256   7.968  66.337  1.00  0.00    -0.184 N  
HETATM   11  C   UNL     1      -7.826   8.059  66.457  1.00  0.00    -0.097 A  
HETATM   12  C   UNL     1     -10.142   9.079  66.333  1.00  0.00    -0.281 C  
HETATM   13  C   UNL     1      -7.140   9.030  65.704  1.00  0.00    -0.081 A  
HETATM   14  O   UNL     1     -11.341   8.929  66.079  1.00  0.00     2.185 OA 
HETATM   15  C   UNL     1      -7.089   7.323  67.421  1.00  0.00    -0.088 A  
HETATM   16  C   UNL     1      -5.821   9.386  66.004  1.00  0.00    -0.053 A  
HETATM   17  C   UNL     1      -5.766   7.698  67.717  1.00  0.00    -0.036 A  
HETATM   18  C   UNL     1      -5.146   8.743  67.035  1.00  0.00    -0.032 A  
ENDROOT
BRANCH  12  19
HETATM   19  C   UNL     1      -9.694  10.483  66.599  1.00  0.00    -0.232 A  
HETATM   20  C   UNL     1      -8.522  10.654  67.346  1.00  0.00    -0.122 A  
HETATM   21  C   UNL     1      -8.953  13.032  67.553  1.00  0.00    -0.193 A  
HETATM   22  C   UNL     1     -10.083  12.875  66.746  1.00  0.00    -0.238 A  
HETATM   23  C   UNL     1      -8.146  11.921  67.804  1.00  0.00    -0.146 A  
HETATM   24  C   UNL     1     -10.399  11.621  66.204  1.00  0.00    -0.280 A  
BRANCH  21  25
HETATM   25  N   UNL     1      -8.693  14.305  68.105  1.00  0.00    -0.167 N  
HETATM   26  C   UNL     1      -8.815  15.507  67.413  1.00  0.00    -0.190 C  
HETATM   27  H   UNL     1      -8.396  14.349  69.080  1.00  0.00     0.000 HD 
HETATM   28  O   UNL     1      -9.250  15.610  66.273  1.00  0.00    -0.275 OA 
BRANCH  26  29
HETATM   29  C   UNL     1      -8.496  16.771  68.154  1.00  0.00    -0.213 A  
HETATM   30  C   UNL     1      -7.295  17.441  67.816  1.00  0.00    -0.184 A  
HETATM   31  C   UNL     1      -6.818  18.502  68.583  1.00  0.00    -0.279 A  
HETATM   32  C   UNL     1      -7.526  18.910  69.698  1.00  0.00     0.223 A  
HETATM   33  C   UNL     1      -8.737  18.291  70.014  1.00  0.00     1.952 A  
HETATM   34  C   UNL     1      -9.270  17.209  69.265  1.00  0.00     0.084 A  
BRANCH  34  35
HETATM   35  C   UNL     1     -10.595  16.658  69.703  1.00  0.00    -0.274 A  
HETATM   36  C   UNL     1     -11.627  16.334  68.803  1.00  0.00    -0.223 A  
HETATM   37  C   UNL     1     -12.882  15.891  69.248  1.00  0.00     0.964 A  
HETATM   38  C   UNL     1     -13.155  15.798  70.609  1.00  0.00    -0.061 A  
HETATM   39  C   UNL     1     -12.160  16.109  71.526  1.00  0.00    -0.438 A  
HETATM   40  C   UNL     1     -10.896  16.509  71.076  1.00  0.00     0.456 A  
ENDBRANCH  34  35
ENDBRANCH  26  29
ENDBRANCH  21  25
ENDBRANCH  12  19
TORSDOF 4
ENDMDL
MODEL      131
REMARK 921   NORMALIZED FREE ENERGY PREDICTED BY IDOCK:    2.96 KCAL/MOL
REMARK 922        TOTAL FREE ENERGY PREDICTED BY IDOCK:    2.18 KCAL/MOL
REMARK 923 INTER-LIGAND FREE ENERGY PREDICTED BY IDOCK:    0.38 KCAL/MOL
REMARK 924 INTRA-LIGAND FREE ENERGY PREDICTED BY IDOCK:    1.79 KCAL/MOL
REMARK 927      BINDING AFFINITY PREDICTED BY RF-SCORE:    0.00 PKD
ROOT
HETATM    1  C   UNL     1      -9.756   3.467  73.374  1.00  0.00    -0.153 C  
HETATM    2  C   UNL     1      -8.860   4.416  72.677  1.00  0.00    -0.109 A  
HETATM    3  N   UNL     1      -9.136   5.658  72.329  1.00  0.00    -0.139 NA 
HETATM    4  C   UNL     1      -8.011   6.121  71.695  1.00  0.00    -0.103 A  
HETATM    5  H   UNL     1     -10.004   6.167  72.497  1.00  0.00     0.000 HD 
HETATM    6  C   UNL     1      -7.026   5.166  71.702  1.00  0.00    -0.057 A  
HETATM    7  N   UNL     1      -7.576   4.078  72.318  1.00  0.00    -0.073 NA 
HETATM    8  C   UNL     1      -5.662   5.266  71.147  1.00  0.00    -0.016 C  
HETATM    9  C   UNL     1      -5.746   5.573  69.653  1.00  0.00    -0.012 C  
HETATM   10  N   UNL     1      -6.460   6.778  69.195  1.00  0.00    -0.035 N  
HETATM   11  C   UNL     1      -6.922   7.772  70.125  1.00  0.00    -0.050 A  
HETATM   12  C   UNL     1      -6.556   6.884  67.781  1.00  0.00    -0.055 C  
HETATM   13  C   UNL     1      -6.635   9.125  69.873  1.00  0.00    -0.047 A  
HETATM   14  O   UNL     1      -6.005   6.057  67.047  1.00  0.00    -0.017 OA 
HETATM   15  C   UNL     1      -7.792   7.466  71.204  1.00  0.00    -0.092 A  
HETATM   16  C   UNL     1      -7.312  10.150  70.544  1.00  0.00     0.097 A  
HETATM   17  C   UNL     1      -8.471   8.508  71.863  1.00  0.00    -0.234 A  
HETATM   18  C   UNL     1      -8.256   9.839  71.515  1.00  0.00     1.434 A  
ENDROOT
BRANCH  12  19
HETATM   19  C   UNL     1      -7.285   7.995  67.092  1.00  0.00    -0.087 A  
HETATM   20  C   UNL     1      -6.907   9.306  67.406  1.00  0.00    -0.077 A  
HETATM   21  C   UNL     1      -8.832  10.188  66.225  1.00  0.00    -0.148 A  
HETATM   22  C   UNL     1      -9.171   8.886  65.849  1.00  0.00    -0.290 A  
HETATM   23  C   UNL     1      -7.665  10.394  66.960  1.00  0.00    -0.105 A  
HETATM   24  C   UNL     1      -8.352   7.807  66.210  1.00  0.00    -0.131 A  
BRANCH  21  25
HETATM   25  N   UNL     1      -9.706  11.239  65.868  1.00  0.00    -0.215 N  
HETATM   26  C   UNL     1     -10.546  11.226  64.758  1.00  0.00    -0.312 C  
HETATM   27  H   UNL     1      -9.723  12.066  66.465  1.00  0.00     0.000 HD 
HETATM   28  O   UNL     1     -10.695  10.268  64.012  1.00  0.00     0.411 OA 
BRANCH  26  29
HETATM   29  C   UNL     1     -11.408  12.431  64.525  1.00  0.00    -0.381 A  
HETATM   30  C   UNL     1     -11.504  12.920  63.200  1.00  0.00    -0.010 A  
HETATM   31  C   UNL     1     -12.112  14.142  62.921  1.00  0.00     1.450 A  
HETATM   32  C   UNL     1     -12.631  14.897  63.957  1.00  0.00     0.198 A  
HETATM   33  C   UNL     1     -12.587  14.404  65.263  1.00  0.00    -0.333 A  
HETATM   34  C   UNL     1     -11.983  13.165  65.600  1.00  0.00    -0.462 A  
BRANCH  34  35
HETATM   35  C   UNL     1     -12.033  12.746  67.040  1.00  0.00    -0.364 A  
HETATM   36  C   UNL     1     -12.350  11.438  67.450  1.00  0.00     1.367 A  
HETATM   37  C   UNL     1     -12.462  11.096  68.806  1.00  0.00     0.410 A  
HETATM   38  C   UNL     1     -12.301  12.063  69.793  1.00  0.00    -0.112 A  
HETATM   39  C   UNL     1     -11.988  13.365  69.426  1.00  0.00    -0.369 A  
HETATM   40  C   UNL     1     -11.835  13.691  68.073  1.00  0.00    -0.397 A  
ENDBRANCH  34  35
ENDBRANCH  26  29
ENDBRANCH  21  25
ENDBRANCH  12  19
TORSDOF 4
ENDMDL
MODEL      132
REMARK 921   NORMALIZED FREE ENERGY PREDICTED BY IDOCK:    3.71 KCAL/MOL
REMARK 922        TOTAL FREE ENERGY PREDICTED BY IDOCK:    3.10 KCAL/MOL
REMARK 923 INTER-LIGAND FREE ENERGY PREDICTED BY IDOCK:    0.17 KCAL/MOL
REMARK 924 INTRA-LIGAND FREE ENERGY PREDICTED BY IDOCK:    2.93 KCAL/MOL
REMARK 927      BINDING AFFINITY PREDICTED BY RF-SCORE:    0.00 PKD
ROOT
HETATM    1  C   UNL     1      -9.747   3.625  73.993  1.00  0.00    -0.141 C  
HETATM    2  C   UNL     1      -8.654   4.495  73.503  1.00  0.00    -0.100 A  
HETATM    3  N   UNL     1      -8.686   5.806  73.364  1.00  0.00    -0.121 NA 
HETATM    4  C   UNL     1      -7.457   6.151  72.862  1.00  0.00    -0.097 A  
HETATM    5  H   UNL     1      -9.461   6.431  73.585  1.00  0.00     0.000 HD 
HETATM    6  C   UNL     1      -6.656   5.045  72.741  1.00  0.00    -0.060 A  
HETATM    7  N   UNL     1      -7.427   3.990  73.140  1.00  0.00    -0.072 NA 
HETATM    8  C   UNL     1      -5.260   4.982  72.264  1.00  0.00    -0.005 C  
HETATM    9  C   UNL     1      -5.188   5.537  70.843  1.00  0.00    -0.009 C  
HETATM   10  N   UNL     1      -5.649   6.910  70.572  1.00  0.00    -0.023 N  
HETATM   11  C   UNL     1      -5.992   7.807  71.642  1.00  0.00    -0.035 A  
HETATM   12  C   UNL     1      -5.628   7.261  69.195  1.00  0.00    -0.018 C  
HETATM   13  C   UNL     1      -5.458   9.109  71.637  1.00  0.00    -0.058 A  
HETATM   14  O   UNL     1      -5.181   6.477  68.351  1.00  0.00    -0.007 OA 
HETATM   15  C   UNL     1      -6.974   7.495  72.618  1.00  0.00    -0.070 A  
HETATM   16  C   UNL     1      -5.990  10.117  72.448  1.00  0.00     0.752 A  
HETATM   17  C   UNL     1      -7.504   8.522  73.421  1.00  0.00    -0.044 A  
HETATM   18  C   UNL     1      -7.038   9.831  73.315  1.00  0.00     2.176 A  
ENDROOT
BRANCH  12  19
HETATM   19  C   UNL     1      -6.105   8.583  68.681  1.00  0.00    -0.045 A  
HETATM   20  C   UNL     1      -6.361   9.586  69.624  1.00  0.00    -0.040 A  
HETATM   21  C   UNL     1      -7.410  10.967  67.928  1.00  0.00    -0.092 A  
HETATM   22  C   UNL     1      -7.089  10.000  66.973  1.00  0.00    -0.089 A  
HETATM   23  C   UNL     1      -6.992  10.776  69.246  1.00  0.00    -0.102 A  
HETATM   24  C   UNL     1      -6.365   8.856  67.336  1.00  0.00    -0.056 A  
BRANCH  21  25
HETATM   25  N   UNL     1      -8.171  12.086  67.523  1.00  0.00    -0.150 N  
HETATM   26  C   UNL     1      -7.766  13.411  67.666  1.00  0.00    -0.177 C  
HETATM   27  H   UNL     1      -9.080  11.912  67.095  1.00  0.00     0.000 HD 
HETATM   28  O   UNL     1      -6.667  13.761  68.074  1.00  0.00    -0.105 OA 
BRANCH  26  29
HETATM   29  C   UNL     1      -8.702  14.478  67.183  1.00  0.00    -0.237 A  
HETATM   30  C   UNL     1      -8.613  15.752  67.795  1.00  0.00    -0.164 A  
HETATM   31  C   UNL     1      -9.567  16.738  67.556  1.00  0.00    -0.240 A  
HETATM   32  C   UNL     1     -10.626  16.472  66.708  1.00  0.00    -0.224 A  
HETATM   33  C   UNL     1     -10.699  15.238  66.059  1.00  0.00    -0.324 A  
HETATM   34  C   UNL     1      -9.753  14.200  66.264  1.00  0.00    -0.315 A  
BRANCH  34  35
HETATM   35  C   UNL     1      -9.940  12.935  65.479  1.00  0.00    -0.226 A  
HETATM   36  C   UNL     1      -9.138  12.589  64.376  1.00  0.00     1.057 A  
HETATM   37  C   UNL     1      -9.385  11.436  63.616  1.00  0.00    -0.146 A  
HETATM   38  C   UNL     1     -10.470  10.615  63.912  1.00  0.00    -0.108 A  
HETATM   39  C   UNL     1     -11.282  10.925  64.994  1.00  0.00     0.233 A  
HETATM   40  C   UNL     1     -11.005  12.054  65.775  1.00  0.00    -0.351 A  
ENDBRANCH  34  35
ENDBRANCH  26  29
ENDBRANCH  21  25
ENDBRANCH  12  19
TORSDOF 4
ENDMDL
MODEL      133
REMARK 921   NORMALIZED FREE ENERGY PREDICTED BY IDOCK:    4.18 KCAL/MOL
REMARK 922        TOTAL FREE ENERGY PREDICTED BY IDOCK:    3.68 KCAL/MOL
REMARK 923 INTER-LIGAND FREE ENERGY PREDICTED BY IDOCK:   -0.71 KCAL/MOL
REMARK 924 INTRA-LIGAND FREE ENERGY PREDICTED BY IDOCK:    4.39 KCAL/MOL
REMARK 927      BINDING AFFINITY PREDICTED BY RF-SCORE:    0.00 PKD
ROOT
HETATM    1  C   UNL     1      -8.578   2.616  63.394  1.00  0.00    -0.086 C  
HETATM    2  C   UNL     1      -8.696   3.161  64.766  1.00  0.00    -0.103 A  
HETATM    3  N   UNL     1      -8.927   4.415  65.103  1.00  0.00    -0.137 NA 
HETATM    4  C   UNL     1      -8.926   4.431  66.475  1.00  0.00    -0.117 A  
HETATM    5  H   UNL     1      -9.076   5.205  64.476  1.00  0.00     0.000 HD 
HETATM    6  C   UNL     1      -8.741   3.167  66.974  1.00  0.00    -0.124 A  
HETATM    7  N   UNL     1      -8.583   2.363  65.880  1.00  0.00    -0.108 NA 
HETATM    8  C   UNL     1      -8.697   2.746  68.387  1.00  0.00    -0.138 C  
HETATM    9  C   UNL     1      -7.575   3.496  69.102  1.00  0.00    -0.052 C  
HETATM   10  N   UNL     1      -7.578   4.970  69.117  1.00  0.00    -0.071 N  
HETATM   11  C   UNL     1      -8.706   5.720  68.635  1.00  0.00    -0.108 A  
HETATM   12  C   UNL     1      -6.424   5.539  69.720  1.00  0.00    -0.041 C  
HETATM   13  C   UNL     1      -9.224   6.758  69.432  1.00  0.00    -0.143 A  
HETATM   14  O   UNL     1      -5.564   4.820  70.240  1.00  0.00    -0.014 OA 
HETATM   15  C   UNL     1      -9.223   5.569  67.322  1.00  0.00    -0.110 A  
HETATM   16  C   UNL     1     -10.091   7.719  68.901  1.00  0.00    -0.201 A  
HETATM   17  C   UNL     1     -10.088   6.548  66.801  1.00  0.00    -0.239 A  
HETATM   18  C   UNL     1     -10.495   7.633  67.574  1.00  0.00    -0.336 A  
ENDROOT
BRANCH  12  19
HETATM   19  C   UNL     1      -6.185   7.015  69.797  1.00  0.00    -0.034 A  
HETATM   20  C   UNL     1      -6.695   7.693  70.911  1.00  0.00    -0.042 A  
HETATM   21  C   UNL     1      -6.204   9.834  69.883  1.00  0.00    -0.051 A  
HETATM   22  C   UNL     1      -5.629   9.159  68.804  1.00  0.00    -0.040 A  
HETATM   23  C   UNL     1      -6.687   9.091  70.961  1.00  0.00    -0.087 A  
HETATM   24  C   UNL     1      -5.544   7.760  68.804  1.00  0.00    -0.027 A  
BRANCH  21  25
HETATM   25  N   UNL     1      -6.298  11.242  69.823  1.00  0.00    -0.123 N  
HETATM   26  C   UNL     1      -6.801  11.954  68.737  1.00  0.00    -0.093 C  
HETATM   27  H   UNL     1      -5.976  11.775  70.630  1.00  0.00     0.000 HD 
HETATM   28  O   UNL     1      -7.305  11.444  67.746  1.00  0.00    -0.090 OA 
BRANCH  26  29
HETATM   29  C   UNL     1      -6.825  13.450  68.840  1.00  0.00    -0.111 A  
HETATM   30  C   UNL     1      -7.145  14.181  67.670  1.00  0.00    -0.199 A  
HETATM   31  C   UNL     1      -6.996  15.565  67.617  1.00  0.00    -0.203 A  
HETATM   32  C   UNL     1      -6.524  16.243  68.727  1.00  0.00    -0.128 A  
HETATM   33  C   UNL     1      -6.252  15.541  69.902  1.00  0.00    -0.157 A  
HETATM   34  C   UNL     1      -6.391  14.133  70.011  1.00  0.00    -0.135 A  
BRANCH  34  35
HETATM   35  C   UNL     1      -6.090  13.514  71.344  1.00  0.00     0.395 A  
HETATM   36  C   UNL     1      -6.079  14.245  72.546  1.00  0.00     0.529 A  
HETATM   37  C   UNL     1      -5.720  13.654  73.767  1.00  0.00     0.145 A  
HETATM   38  C   UNL     1      -5.322  12.321  73.815  1.00  0.00     0.728 A  
HETATM   39  C   UNL     1      -5.321  11.569  72.649  1.00  0.00     0.750 A  
HETATM   40  C   UNL     1      -5.721  12.153  71.440  1.00  0.00     0.393 A  
ENDBRANCH  34  35
ENDBRANCH  26  29
ENDBRANCH  21  25
ENDBRANCH  12  19
TORSDOF 4
ENDMDL
MODEL      134
REMARK 921   NORMALIZED FREE ENERGY PREDICTED BY IDOCK:    5.30 KCAL/MOL
REMARK 922        TOTAL FREE ENERGY PREDICTED BY IDOCK:    5.06 KCAL/MOL
REMARK 923 INTER-LIGAND FREE ENERGY PREDICTED BY IDOCK:    5.28 KCAL/MOL
REMARK 924 INTRA-LIGAND FREE ENERGY PREDICTED BY IDOCK:   -0.22 KCAL/MOL
REMARK 927      BINDING AFFINITY PREDICTED BY RF-SCORE:    0.00 PKD
ROOT
HETATM    1  C   UNL     1      -8.443   3.285  64.268  1.00  0.00    -0.089 C  
HETATM    2  C   UNL     1      -8.634   3.898  65.602  1.00  0.00    -0.111 A  
HETATM    3  N   UNL     1      -8.864   5.170  65.865  1.00  0.00    -0.137 NA 
HETATM    4  C   UNL     1      -8.946   5.253  67.232  1.00  0.00    -0.111 A  
HETATM    5  H   UNL     1      -8.961   5.930  65.193  1.00  0.00     0.000 HD 
HETATM    6  C   UNL     1      -8.814   4.011  67.800  1.00  0.00    -0.115 A  
HETATM    7  N   UNL     1      -8.603   3.153  66.758  1.00  0.00    -0.111 NA 
HETATM    8  C   UNL     1      -8.864   3.659  69.232  1.00  0.00    -0.157 C  
HETATM    9  C   UNL     1      -7.774   4.427  69.979  1.00  0.00    -0.053 C  
HETATM   10  N   UNL     1      -7.752   5.900  69.923  1.00  0.00    -0.086 N  
HETATM   11  C   UNL     1      -8.836   6.641  69.338  1.00  0.00    -0.134 A  
HETATM   12  C   UNL     1      -6.627   6.481  70.569  1.00  0.00    -0.049 C  
HETATM   13  C   UNL     1      -9.383   7.724  70.050  1.00  0.00    -0.157 A  
HETATM   14  O   UNL     1      -5.813   5.776  71.174  1.00  0.00    -0.022 OA 
HETATM   15  C   UNL     1      -9.274   6.434  68.003  1.00  0.00    -0.110 A  
HETATM   16  C   UNL     1     -10.200   8.671  69.422  1.00  0.00    -0.211 A  
HETATM   17  C   UNL     1     -10.089   7.399  67.384  1.00  0.00    -0.274 A  
HETATM   18  C   UNL     1     -10.524   8.526  68.078  1.00  0.00    -0.249 A  
ENDROOT
BRANCH  12  19
HETATM   19  C   UNL     1      -6.368   7.955  70.589  1.00  0.00    -0.037 A  
HETATM   20  C   UNL     1      -7.041   8.713  71.555  1.00  0.00    -0.098 A  
HETATM   21  C   UNL     1      -6.331  10.773  70.490  1.00  0.00    -0.051 A  
HETATM   22  C   UNL     1      -5.599  10.019  69.569  1.00  0.00    -0.037 A  
HETATM   23  C   UNL     1      -7.007  10.111  71.515  1.00  0.00     1.224 A  
HETATM   24  C   UNL     1      -5.551   8.622  69.674  1.00  0.00    -0.030 A  
BRANCH  21  25
HETATM   25  N   UNL     1      -6.378  12.175  70.324  1.00  0.00    -0.344 N  
HETATM   26  C   UNL     1      -5.823  13.095  71.209  1.00  0.00     0.154 C  
HETATM   27  H   UNL     1      -6.852  12.540  69.497  1.00  0.00     0.000 HD 
HETATM   28  O   UNL     1      -5.149  12.798  72.187  1.00  0.00    -0.324 OA 
BRANCH  26  29
HETATM   29  C   UNL     1      -5.969  14.551  70.880  1.00  0.00    -0.152 A  
HETATM   30  C   UNL     1      -5.675  15.485  71.902  1.00  0.00     0.650 A  
HETATM   31  C   UNL     1      -5.973  16.838  71.755  1.00  0.00     1.820 A  
HETATM   32  C   UNL     1      -6.571  17.281  70.589  1.00  0.00     1.587 A  
HETATM   33  C   UNL     1      -6.821  16.379  69.553  1.00  0.00    -0.187 A  
HETATM   34  C   UNL     1      -6.534  14.993  69.650  1.00  0.00    -0.154 A  
BRANCH  34  35
HETATM   35  C   UNL     1      -6.830  14.144  68.449  1.00  0.00    -0.098 A  
HETATM   36  C   UNL     1      -5.828  13.513  67.688  1.00  0.00    -0.075 A  
HETATM   37  C   UNL     1      -6.131  12.787  66.525  1.00  0.00     1.650 A  
HETATM   38  C   UNL     1      -7.442  12.707  66.066  1.00  0.00     2.097 A  
HETATM   39  C   UNL     1      -8.456  13.317  66.791  1.00  0.00     0.011 A  
HETATM   40  C   UNL     1      -8.154  14.003  67.974  1.00  0.00    -0.152 A  
ENDBRANCH  34  35
ENDBRANCH  26  29
ENDBRANCH  21  25
ENDBRANCH  12  19
TORSDOF 4
ENDMDL
MODEL      135
REMARK 921   NORMALIZED FREE ENERGY PREDICTED BY IDOCK:    6.61 KCAL/MOL
REMARK 922        TOTAL FREE ENERGY PREDICTED BY IDOCK:    6.67 KCAL/MOL
REMARK 923 INTER-LIGAND FREE ENERGY PREDICTED BY IDOCK:    7.02 KCAL/MOL
REMARK 924 INTRA-LIGAND FREE ENERGY PREDICTED BY IDOCK:   -0.35 KCAL/MOL
REMARK 927      BINDING AFFINITY PREDICTED BY RF-SCORE:    0.00 PKD
ROOT
HETATM    1  C   UNL     1     -10.836  18.436  72.901  1.00  0.00     2.993 C  
HETATM    2  C   UNL     1     -11.178  17.485  71.819  1.00  0.00     1.968 A  
HETATM    3  N   UNL     1     -11.047  16.173  71.846  1.00  0.00     0.180 NA 
HETATM    4  C   UNL     1     -11.471  15.737  70.616  1.00  0.00    -0.390 A  
HETATM    5  H   UNL     1     -10.703  15.603  72.619  1.00  0.00     0.000 HD 
HETATM    6  C   UNL     1     -11.909  16.790  69.855  1.00  0.00     1.063 A  
HETATM    7  N   UNL     1     -11.709  17.903  70.621  1.00  0.00     3.912 NA 
HETATM    8  C   UNL     1     -12.463  16.753  68.487  1.00  0.00     2.233 C  
HETATM    9  C   UNL     1     -11.434  16.133  67.544  1.00  0.00     0.113 C  
HETATM   10  N   UNL     1     -10.922  14.777  67.812  1.00  0.00    -0.282 N  
HETATM   11  C   UNL     1     -11.501  13.949  68.834  1.00  0.00    -0.301 A  
HETATM   12  C   UNL     1      -9.893  14.366  66.922  1.00  0.00    -0.261 C  
HETATM   13  C   UNL     1     -11.843  12.620  68.521  1.00  0.00    -0.342 A  
HETATM   14  O   UNL     1      -9.551  15.086  65.977  1.00  0.00    -0.295 OA 
HETATM   15  C   UNL     1     -11.598  14.358  70.190  1.00  0.00    -0.327 A  
HETATM   16  C   UNL     1     -12.103  11.680  69.524  1.00  0.00    -0.336 A  
HETATM   17  C   UNL     1     -11.853  13.399  71.187  1.00  0.00     0.331 A  
HETATM   18  C   UNL     1     -12.073  12.063  70.860  1.00  0.00    -0.203 A  
ENDROOT
BRANCH  12  19
HETATM   19  C   UNL     1      -9.188  13.051  67.039  1.00  0.00    -0.232 A  
HETATM   20  C   UNL     1      -9.614  12.014  66.201  1.00  0.00    -0.252 A  
HETATM   21  C   UNL     1      -8.270  10.413  67.431  1.00  0.00    -0.117 A  
HETATM   22  C   UNL     1      -7.787  11.459  68.221  1.00  0.00    -0.132 A  
HETATM   23  C   UNL     1      -9.145  10.709  66.385  1.00  0.00    -0.183 A  
HETATM   24  C   UNL     1      -8.180  12.780  67.968  1.00  0.00    -0.168 A  
BRANCH  21  25
HETATM   25  N   UNL     1      -7.873   9.094  67.745  1.00  0.00    -0.100 N  
HETATM   26  C   UNL     1      -7.464   8.672  69.007  1.00  0.00    -0.089 C  
HETATM   27  H   UNL     1      -7.887   8.403  66.995  1.00  0.00     0.000 HD 
HETATM   28  O   UNL     1      -7.487   9.368  70.013  1.00  0.00    -0.078 OA 
BRANCH  26  29
HETATM   29  C   UNL     1      -7.073   7.233  69.164  1.00  0.00    -0.080 A  
HETATM   30  C   UNL     1      -6.080   6.726  68.291  1.00  0.00    -0.029 A  
HETATM   31  C   UNL     1      -5.799   5.363  68.227  1.00  0.00    -0.017 A  
HETATM   32  C   UNL     1      -6.504   4.483  69.029  1.00  0.00    -0.040 A  
HETATM   33  C   UNL     1      -7.451   4.974  69.929  1.00  0.00    -0.060 A  
HETATM   34  C   UNL     1      -7.772   6.352  70.037  1.00  0.00    -0.102 A  
BRANCH  34  35
HETATM   35  C   UNL     1      -8.790   6.741  71.068  1.00  0.00    -0.141 A  
HETATM   36  C   UNL     1      -9.827   7.658  70.817  1.00  0.00    -0.177 A  
HETATM   37  C   UNL     1     -10.719   8.059  71.823  1.00  0.00    -0.296 A  
HETATM   38  C   UNL     1     -10.574   7.584  73.123  1.00  0.00    -0.442 A  
HETATM   39  C   UNL     1      -9.563   6.678  73.408  1.00  0.00    -0.183 A  
HETATM   40  C   UNL     1      -8.702   6.248  72.390  1.00  0.00    -0.121 A  
ENDBRANCH  34  35
ENDBRANCH  26  29
ENDBRANCH  21  25
ENDBRANCH  12  19
TORSDOF 4
ENDMDL
MODEL      136
REMARK 921   NORMALIZED FREE ENERGY PREDICTED BY IDOCK:    7.44 KCAL/MOL
REMARK 922        TOTAL FREE ENERGY PREDICTED BY IDOCK:    7.70 KCAL/MOL
REMARK 923 INTER-LIGAND FREE ENERGY PREDICTED BY IDOCK:    2.59 KCAL/MOL
REMARK 924 INTRA-LIGAND FREE ENERGY PREDICTED BY IDOCK:    5.12 KCAL/MOL
REMARK 927      BINDING AFFINITY PREDICTED BY RF-SCORE:    0.00 PKD
ROOT
HETATM    1  C   UNL     1     -10.736   4.965  65.277  1.00  0.00     0.089 C  
HETATM    2  C   UNL     1     -10.568   5.700  66.552  1.00  0.00    -0.255 A  
HETATM    3  N   UNL     1     -10.976   6.925  66.821  1.00  0.00    -0.554 NA 
HETATM    4  C   UNL     1     -10.575   7.170  68.109  1.00  0.00    -0.192 A  
HETATM    5  H   UNL     1     -11.483   7.556  66.201  1.00  0.00     0.000 HD 
HETATM    6  C   UNL     1      -9.962   6.065  68.644  1.00  0.00    -0.149 A  
HETATM    7  N   UNL     1      -9.950   5.135  67.643  1.00  0.00    -0.161 NA 
HETATM    8  C   UNL     1      -9.407   5.902  70.001  1.00  0.00    -0.171 C  
HETATM    9  C   UNL     1      -8.332   6.962  70.237  1.00  0.00    -0.134 C  
HETATM   10  N   UNL     1      -8.674   8.390  70.106  1.00  0.00    -0.133 N  
HETATM   11  C   UNL     1     -10.036   8.820  69.944  1.00  0.00    -0.187 A  
HETATM   12  C   UNL     1      -7.559   9.260  70.244  1.00  0.00    -0.123 C  
HETATM   13  C   UNL     1     -10.523   9.858  70.758  1.00  0.00    -0.253 A  
HETATM   14  O   UNL     1      -6.442   8.815  70.526  1.00  0.00    -0.035 OA 
HETATM   15  C   UNL     1     -10.866   8.356  68.890  1.00  0.00     0.002 A  
HETATM   16  C   UNL     1     -11.708  10.534  70.445  1.00  0.00    -0.434 A  
HETATM   17  C   UNL     1     -12.050   9.051  68.583  1.00  0.00     2.598 A  
HETATM   18  C   UNL     1     -12.452  10.153  69.335  1.00  0.00     0.535 A  
ENDROOT
BRANCH  12  19
HETATM   19  C   UNL     1      -7.659  10.746  70.093  1.00  0.00     0.497 A  
HETATM   20  C   UNL     1      -8.942  11.299  70.007  1.00  0.00     1.818 A  
HETATM   21  C   UNL     1      -8.016  13.450  69.376  1.00  0.00     0.689 A  
HETATM   22  C   UNL     1      -6.733  12.919  69.533  1.00  0.00     0.031 A  
HETATM   23  C   UNL     1      -9.118  12.646  69.668  1.00  0.00     2.026 A  
HETATM   24  C   UNL     1      -6.560  11.599  69.973  1.00  0.00     0.040 A  
BRANCH  21  25
HETATM   25  N   UNL     1      -8.142  14.773  68.897  1.00  0.00    -0.157 N  
HETATM   26  C   UNL     1      -7.139  15.470  68.228  1.00  0.00    -0.114 C  
HETATM   27  H   UNL     1      -9.029  15.252  69.053  1.00  0.00     0.000 HD 
HETATM   28  O   UNL     1      -6.065  14.990  67.893  1.00  0.00    -0.137 OA 
BRANCH  26  29
HETATM   29  C   UNL     1      -7.442  16.873  67.791  1.00  0.00    -0.176 A  
HETATM   30  C   UNL     1      -6.475  17.868  68.072  1.00  0.00    -0.186 A  
HETATM   31  C   UNL     1      -6.754  19.220  67.888  1.00  0.00    -0.254 A  
HETATM   32  C   UNL     1      -7.999  19.603  67.423  1.00  0.00    -0.313 A  
HETATM   33  C   UNL     1      -8.944  18.629  67.095  1.00  0.00    -0.288 A  
HETATM   34  C   UNL     1      -8.710  17.239  67.260  1.00  0.00    -0.221 A  
BRANCH  34  35
HETATM   35  C   UNL     1      -9.806  16.304  66.840  1.00  0.00    -0.253 A  
HETATM   36  C   UNL     1     -10.607  16.520  65.703  1.00  0.00    -0.317 A  
HETATM   37  C   UNL     1     -11.673  15.667  65.378  1.00  0.00     0.273 A  
HETATM   38  C   UNL     1     -11.995  14.595  66.205  1.00  0.00    -0.250 A  
HETATM   39  C   UNL     1     -11.227  14.352  67.335  1.00  0.00    -0.337 A  
HETATM   40  C   UNL     1     -10.138  15.181  67.631  1.00  0.00    -0.231 A  
ENDBRANCH  34  35
ENDBRANCH  26  29
ENDBRANCH  21  25
ENDBRANCH  12  19
TORSDOF 4
ENDMDL
MODEL      137
REMARK 921   NORMALIZED FREE ENERGY PREDICTED BY IDOCK:    7.55 KCAL/MOL
REMARK 922        TOTAL FREE ENERGY PREDICTED BY IDOCK:    7.84 KCAL/MOL
REMARK 923 INTER-LIGAND FREE ENERGY PREDICTED BY IDOCK:    6.84 KCAL/MOL
REMARK 924 INTRA-LIGAND FREE ENERGY PREDICTED BY IDOCK:    1.00 KCAL/MOL
REMARK 927      BINDING AFFINITY PREDICTED BY RF-SCORE:    0.00 PKD
ROOT
HETATM    1  C   UNL     1     -12.152   5.877  71.635  1.00  0.00     0.202 C  
HETATM    2  C   UNL     1     -11.277   6.389  70.556  1.00  0.00    -0.352 A  
HETATM    3  N   UNL     1     -10.633   7.540  70.536  1.00  0.00    -0.221 NA 
HETATM    4  C   UNL     1      -9.980   7.573  69.330  1.00  0.00    -0.179 A  
HETATM    5  H   UNL     1     -10.622   8.254  71.264  1.00  0.00     0.000 HD 
HETATM    6  C   UNL     1     -10.191   6.410  68.633  1.00  0.00    -0.174 A  
HETATM    7  N   UNL     1     -11.028   5.664  69.414  1.00  0.00    -0.276 NA 
HETATM    8  C   UNL     1      -9.654   6.033  67.311  1.00  0.00    -0.124 C  
HETATM    9  C   UNL     1     -10.097   7.065  66.275  1.00  0.00     0.163 C  
HETATM   10  N   UNL     1      -9.750   8.485  66.466  1.00  0.00    -0.240 N  
HETATM   11  C   UNL     1      -8.848   8.901  67.504  1.00  0.00    -0.130 A  
HETATM   12  C   UNL     1     -10.315   9.349  65.488  1.00  0.00     0.550 C  
HETATM   13  C   UNL     1      -7.793   9.773  67.180  1.00  0.00    -0.099 A  
HETATM   14  O   UNL     1     -10.964   8.892  64.542  1.00  0.00     5.681 OA 
HETATM   15  C   UNL     1      -9.066   8.601  68.875  1.00  0.00    -0.145 A  
HETATM   16  C   UNL     1      -7.086  10.461  68.173  1.00  0.00    -0.082 A  
HETATM   17  C   UNL     1      -8.353   9.307  69.860  1.00  0.00    -0.161 A  
HETATM   18  C   UNL     1      -7.391  10.254  69.513  1.00  0.00    -0.132 A  
ENDROOT
BRANCH  12  19
HETATM   19  C   UNL     1     -10.144  10.835  65.515  1.00  0.00    -0.335 A  
HETATM   20  C   UNL     1     -10.181  11.466  66.765  1.00  0.00    -0.258 A  
HETATM   21  C   UNL     1     -10.273  13.646  65.707  1.00  0.00    -0.308 A  
HETATM   22  C   UNL     1     -10.163  13.023  64.462  1.00  0.00    -0.331 A  
HETATM   23  C   UNL     1     -10.226  12.861  66.859  1.00  0.00    -0.243 A  
HETATM   24  C   UNL     1     -10.012  11.632  64.375  1.00  0.00    -0.298 A  
BRANCH  21  25
HETATM   25  N   UNL     1     -10.458  15.046  65.744  1.00  0.00    -0.315 N  
HETATM   26  C   UNL     1      -9.823  15.904  66.638  1.00  0.00    -0.254 C  
HETATM   27  H   UNL     1     -11.101  15.458  65.068  1.00  0.00     0.000 HD 
HETATM   28  O   UNL     1      -8.962  15.560  67.437  1.00  0.00    -0.184 OA 
BRANCH  26  29
HETATM   29  C   UNL     1     -10.138  17.367  66.540  1.00  0.00    -0.320 A  
HETATM   30  C   UNL     1     -10.088  17.961  65.256  1.00  0.00     0.817 A  
HETATM   31  C   UNL     1     -10.166  19.343  65.094  1.00  0.00     1.016 A  
HETATM   32  C   UNL     1     -10.292  20.154  66.207  1.00  0.00    -0.512 A  
HETATM   33  C   UNL     1     -10.392  19.578  67.475  1.00  0.00    -0.567 A  
HETATM   34  C   UNL     1     -10.322  18.178  67.695  1.00  0.00    -0.411 A  
BRANCH  34  35
HETATM   35  C   UNL     1     -10.472  17.696  69.108  1.00  0.00    -0.128 A  
HETATM   36  C   UNL     1     -10.709  16.350  69.440  1.00  0.00    -0.324 A  
HETATM   37  C   UNL     1     -10.920  15.942  70.767  1.00  0.00    -0.271 A  
HETATM   38  C   UNL     1     -10.941  16.878  71.796  1.00  0.00     1.306 A  
HETATM   39  C   UNL     1     -10.712  18.216  71.506  1.00  0.00     2.974 A  
HETATM   40  C   UNL     1     -10.459  18.611  70.186  1.00  0.00     1.504 A  
ENDBRANCH  34  35
ENDBRANCH  26  29
ENDBRANCH  21  25
ENDBRANCH  12  19
TORSDOF 4
ENDMDL
MODEL      138
REMARK 921   NORMALIZED FREE ENERGY PREDICTED BY IDOCK:    9.36 KCAL/MOL
REMARK 922        TOTAL FREE ENERGY PREDICTED BY IDOCK:   10.07 KCAL/MOL
REMARK 923 INTER-LIGAND FREE ENERGY PREDICTED BY IDOCK:    8.96 KCAL/MOL
REMARK 924 INTRA-LIGAND FREE ENERGY PREDICTED BY IDOCK:    1.11 KCAL/MOL
REMARK 927      BINDING AFFINITY PREDICTED BY RF-SCORE:    0.00 PKD
ROOT
HETATM    1  C   UNL     1     -11.595  15.399  65.132  1.00  0.00    -0.127 C  
HETATM    2  C   UNL     1     -11.245  14.887  66.477  1.00  0.00    -0.335 A  
HETATM    3  N   UNL     1     -10.759  13.696  66.770  1.00  0.00    -0.272 NA 
HETATM    4  C   UNL     1     -10.620  13.683  68.134  1.00  0.00    -0.247 A  
HETATM    5  H   UNL     1     -10.534  12.944  66.119  1.00  0.00     0.000 HD 
HETATM    6  C   UNL     1     -10.978  14.895  68.668  1.00  0.00    -0.257 A  
HETATM    7  N   UNL     1     -11.387  15.655  67.609  1.00  0.00    -0.280 NA 
HETATM    8  C   UNL     1     -10.954  15.305  70.086  1.00  0.00    -0.312 C  
HETATM    9  C   UNL     1     -11.845  14.366  70.897  1.00  0.00    -0.283 C  
HETATM   10  N   UNL     1     -11.577  12.917  70.888  1.00  0.00     0.624 N  
HETATM   11  C   UNL     1     -10.387  12.382  70.286  1.00  0.00     2.717 A  
HETATM   12  C   UNL     1     -12.543  12.151  71.594  1.00  0.00    -0.098 C  
HETATM   13  C   UNL     1      -9.614  11.456  71.010  1.00  0.00     6.600 A  
HETATM   14  O   UNL     1     -13.462  12.705  72.208  1.00  0.00    -0.561 OA 
HETATM   15  C   UNL     1     -10.040  12.620  68.930  1.00  0.00     0.047 A  
HETATM   16  C   UNL     1      -8.645  10.666  70.382  1.00  0.00     1.500 A  
HETATM   17  C   UNL     1      -9.070  11.812  68.310  1.00  0.00    -0.187 A  
HETATM   18  C   UNL     1      -8.399  10.820  69.023  1.00  0.00    -0.138 A  
ENDROOT
BRANCH  12  19
HETATM   19  C   UNL     1     -12.505  10.657  71.671  1.00  0.00    -0.416 A  
HETATM   20  C   UNL     1     -12.977  10.060  72.847  1.00  0.00     1.096 A  
HETATM   21  C   UNL     1     -12.103   7.907  72.152  1.00  0.00    -0.326 A  
HETATM   22  C   UNL     1     -11.697   8.485  70.947  1.00  0.00    -0.274 A  
HETATM   23  C   UNL     1     -12.793   8.692  73.076  1.00  0.00     0.360 A  
HETATM   24  C   UNL     1     -11.975   9.832  70.677  1.00  0.00    -0.340 A  
BRANCH  21  25
HETATM   25  N   UNL     1     -11.771   6.556  72.395  1.00  0.00    -0.431 N  
HETATM   26  C   UNL     1     -10.877   5.812  71.630  1.00  0.00    -0.255 C  
HETATM   27  H   UNL     1     -12.217   6.092  73.187  1.00  0.00     0.000 HD 
HETATM   28  O   UNL     1     -10.204   6.264  70.713  1.00  0.00    -0.186 OA 
BRANCH  26  29
HETATM   29  C   UNL     1     -10.642   4.385  72.028  1.00  0.00    -0.058 A  
HETATM   30  C   UNL     1     -11.780   3.577  72.267  1.00  0.00     1.858 A  
HETATM   31  C   UNL     1     -11.662   2.310  72.833  1.00  0.00     0.353 A  
HETATM   32  C   UNL     1     -10.411   1.828  73.171  1.00  0.00    -0.194 A  
HETATM   33  C   UNL     1      -9.276   2.593  72.894  1.00  0.00    -0.116 A  
HETATM   34  C   UNL     1      -9.340   3.888  72.317  1.00  0.00    -0.173 A  
BRANCH  34  35
HETATM   35  C   UNL     1      -8.039   4.585  72.049  1.00  0.00    -0.100 A  
HETATM   36  C   UNL     1      -7.822   5.944  72.340  1.00  0.00    -0.102 A  
HETATM   37  C   UNL     1      -6.619   6.587  72.010  1.00  0.00    -0.058 A  
HETATM   38  C   UNL     1      -5.612   5.898  71.340  1.00  0.00    -0.021 A  
HETATM   39  C   UNL     1      -5.791   4.556  71.037  1.00  0.00    -0.017 A  
HETATM   40  C   UNL     1      -6.976   3.908  71.408  1.00  0.00    -0.032 A  
ENDBRANCH  34  35
ENDBRANCH  26  29
ENDBRANCH  21  25
ENDBRANCH  12  19
TORSDOF 4
ENDMDL
MODEL      139
REMARK 921   NORMALIZED FREE ENERGY PREDICTED BY IDOCK:    9.93 KCAL/MOL
REMARK 922        TOTAL FREE ENERGY PREDICTED BY IDOCK:   10.77 KCAL/MOL
REMARK 923 INTER-LIGAND FREE ENERGY PREDICTED BY IDOCK:    9.95 KCAL/MOL
REMARK 924 INTRA-LIGAND FREE ENERGY PREDICTED BY IDOCK:    0.83 KCAL/MOL
REMARK 927      BINDING AFFINITY PREDICTED BY RF-SCORE:    0.00 PKD
ROOT
HETATM    1  C   UNL     1      -5.695   3.906  66.292  1.00  0.00    -0.018 C  
HETATM    2  C   UNL     1      -6.470   4.983  65.634  1.00  0.00    -0.036 A  
HETATM    3  N   UNL     1      -6.151   6.261  65.568  1.00  0.00    -0.029 NA 
HETATM    4  C   UNL     1      -7.179   6.860  64.885  1.00  0.00    -0.078 A  
HETATM    5  H   UNL     1      -5.316   6.709  65.945  1.00  0.00     0.000 HD 
HETATM    6  C   UNL     1      -8.105   5.928  64.491  1.00  0.00    -0.132 A  
HETATM    7  N   UNL     1      -7.654   4.736  64.982  1.00  0.00    -0.076 NA 
HETATM    8  C   UNL     1      -9.343   6.149  63.719  1.00  0.00     1.586 C  
HETATM    9  C   UNL     1     -10.237   7.134  64.471  1.00  0.00     5.641 C  
HETATM   10  N   UNL     1      -9.724   8.473  64.810  1.00  0.00     1.189 N  
HETATM   11  C   UNL     1      -8.471   8.946  64.289  1.00  0.00    -0.149 A  
HETATM   12  C   UNL     1     -10.616   9.246  65.601  1.00  0.00     1.146 C  
HETATM   13  C   UNL     1      -8.415  10.224  63.703  1.00  0.00    -0.183 A  
HETATM   14  O   UNL     1     -11.739   8.817  65.887  1.00  0.00     4.676 OA 
HETATM   15  C   UNL     1      -7.249   8.250  64.482  1.00  0.00    -0.083 A  
HETATM   16  C   UNL     1      -7.194  10.868  63.473  1.00  0.00     0.483 A  
HETATM   17  C   UNL     1      -6.029   8.914  64.253  1.00  0.00    -0.070 A  
HETATM   18  C   UNL     1      -6.001  10.225  63.782  1.00  0.00    -0.138 A  
ENDROOT
BRANCH  12  19
HETATM   19  C   UNL     1     -10.283  10.614  66.110  1.00  0.00    -0.308 A  
HETATM   20  C   UNL     1     -11.337  11.526  66.240  1.00  0.00    -0.222 A  
HETATM   21  C   UNL     1      -9.772  13.338  66.632  1.00  0.00    -0.270 A  
HETATM   22  C   UNL     1      -8.724  12.416  66.575  1.00  0.00    -0.059 A  
HETATM   23  C   UNL     1     -11.083  12.874  66.517  1.00  0.00    -0.318 A  
HETATM   24  C   UNL     1      -8.989  11.050  66.400  1.00  0.00    -0.190 A  
BRANCH  21  25
HETATM   25  N   UNL     1      -9.456  14.707  66.774  1.00  0.00    -0.248 N  
HETATM   26  C   UNL     1     -10.318  15.754  66.459  1.00  0.00    -0.294 C  
HETATM   27  H   UNL     1      -8.531  14.946  67.133  1.00  0.00     0.000 HD 
HETATM   28  O   UNL     1     -11.482  15.613  66.109  1.00  0.00    -0.037 OA 
BRANCH  26  29
HETATM   29  C   UNL     1      -9.817  17.152  66.668  1.00  0.00    -0.295 A  
HETATM   30  C   UNL     1     -10.466  18.192  65.960  1.00  0.00    -0.346 A  
HETATM   31  C   UNL     1      -9.947  19.484  65.934  1.00  0.00    -0.382 A  
HETATM   32  C   UNL     1      -8.773  19.761  66.611  1.00  0.00    -0.406 A  
HETATM   33  C   UNL     1      -8.150  18.757  67.354  1.00  0.00    -0.265 A  
HETATM   34  C   UNL     1      -8.638  17.426  67.417  1.00  0.00    -0.221 A  
BRANCH  34  35
HETATM   35  C   UNL     1      -7.882  16.457  68.277  1.00  0.00    -0.168 A  
HETATM   36  C   UNL     1      -8.363  15.990  69.514  1.00  0.00    -0.017 A  
HETATM   37  C   UNL     1      -7.599  15.142  70.331  1.00  0.00     0.670 A  
HETATM   38  C   UNL     1      -6.313  14.770  69.953  1.00  0.00    -0.158 A  
HETATM   39  C   UNL     1      -5.805  15.212  68.739  1.00  0.00    -0.089 A  
HETATM   40  C   UNL     1      -6.588  16.023  67.908  1.00  0.00    -0.161 A  
ENDBRANCH  34  35
ENDBRANCH  26  29
ENDBRANCH  21  25
ENDBRANCH  12  19
TORSDOF 4
ENDMDL
MODEL      140
REMARK 921   NORMALIZED FREE ENERGY PREDICTED BY IDOCK:    9.98 KCAL/MOL
REMARK 922        TOTAL FREE ENERGY PREDICTED BY IDOCK:   10.83 KCAL/MOL
REMARK 923 INTER-LIGAND FREE ENERGY PREDICTED BY IDOCK:   11.94 KCAL/MOL
REMARK 924 INTRA-LIGAND FREE ENERGY PREDICTED BY IDOCK:   -1.10 KCAL/MOL
REMARK 927      BINDING AFFINITY PREDICTED BY RF-SCORE:    0.00 PKD
ROOT
HETATM    1  C   UNL     1      -7.553  17.594  64.800  1.00  0.00     4.237 C  
HETATM    2  C   UNL     1      -8.401  16.891  65.789  1.00  0.00     0.282 A  
HETATM    3  N   UNL     1      -7.991  16.139  66.792  1.00  0.00    -0.247 NA 
HETATM    4  C   UNL     1      -9.134  15.692  67.406  1.00  0.00    -0.194 A  
HETATM    5  H   UNL     1      -7.028  15.934  67.056  1.00  0.00     0.000 HD 
HETATM    6  C   UNL     1     -10.246  16.219  66.799  1.00  0.00    -0.280 A  
HETATM    7  N   UNL     1      -9.774  16.972  65.761  1.00  0.00    -0.547 NA 
HETATM    8  C   UNL     1     -11.662  16.011  67.160  1.00  0.00     0.530 C  
HETATM    9  C   UNL     1     -11.985  14.519  67.095  1.00  0.00    -0.345 C  
HETATM   10  N   UNL     1     -11.212  13.568  67.914  1.00  0.00    -0.263 N  
HETATM   11  C   UNL     1     -10.285  14.025  68.913  1.00  0.00    -0.152 A  
HETATM   12  C   UNL     1     -11.542  12.207  67.676  1.00  0.00    -0.343 C  
HETATM   13  C   UNL     1     -10.345  13.467  70.203  1.00  0.00     1.802 A  
HETATM   14  O   UNL     1     -12.455  11.905  66.901  1.00  0.00     0.106 OA 
HETATM   15  C   UNL     1      -9.207  14.899  68.616  1.00  0.00    -0.193 A  
HETATM   16  C   UNL     1      -9.293  13.622  71.113  1.00  0.00     7.892 A  
HETATM   17  C   UNL     1      -8.153  15.038  69.538  1.00  0.00    -0.122 A  
HETATM   18  C   UNL     1      -8.180  14.379  70.766  1.00  0.00     2.766 A  
ENDROOT
BRANCH  12  19
HETATM   19  C   UNL     1     -10.846  11.067  68.353  1.00  0.00    -0.264 A  
HETATM   20  C   UNL     1      -9.567  10.730  67.894  1.00  0.00    -0.171 A  
HETATM   21  C   UNL     1      -9.587   8.695  69.214  1.00  0.00    -0.166 A  
HETATM   22  C   UNL     1     -10.832   9.067  69.728  1.00  0.00    -0.215 A  
HETATM   23  C   UNL     1      -8.936   9.562  68.336  1.00  0.00    -0.127 A  
HETATM   24  C   UNL     1     -11.415  10.288  69.363  1.00  0.00    -0.248 A  
BRANCH  21  25
HETATM   25  N   UNL     1      -9.055   7.440  69.583  1.00  0.00    -0.141 N  
HETATM   26  C   UNL     1      -9.799   6.268  69.697  1.00  0.00    -0.163 C  
HETATM   27  H   UNL     1      -8.056   7.387  69.781  1.00  0.00     0.000 HD 
HETATM   28  O   UNL     1     -10.982   6.166  69.402  1.00  0.00    -0.314 OA 
BRANCH  26  29
HETATM   29  C   UNL     1      -9.072   5.021  70.104  1.00  0.00    -0.163 A  
HETATM   30  C   UNL     1      -8.873   4.803  71.489  1.00  0.00    -0.151 A  
HETATM   31  C   UNL     1      -8.040   3.786  71.950  1.00  0.00    -0.071 A  
HETATM   32  C   UNL     1      -7.391   2.972  71.040  1.00  0.00    -0.033 A  
HETATM   33  C   UNL     1      -7.617   3.144  69.673  1.00  0.00    -0.044 A  
HETATM   34  C   UNL     1      -8.458   4.161  69.151  1.00  0.00    -0.098 A  
BRANCH  34  35
HETATM   35  C   UNL     1      -8.631   4.212  67.662  1.00  0.00    -0.108 A  
HETATM   36  C   UNL     1      -9.573   3.428  66.970  1.00  0.00    -0.117 A  
HETATM   37  C   UNL     1      -9.660   3.443  65.570  1.00  0.00    -0.087 A  
HETATM   38  C   UNL     1      -8.778   4.211  64.817  1.00  0.00    -0.127 A  
HETATM   39  C   UNL     1      -7.835   4.997  65.465  1.00  0.00    -0.092 A  
HETATM   40  C   UNL     1      -7.781   5.012  66.864  1.00  0.00    -0.092 A  
ENDBRANCH  34  35
ENDBRANCH  26  29
ENDBRANCH  21  25
ENDBRANCH  12  19
TORSDOF 4
ENDMDL
MODEL      141
REMARK 921   NORMALIZED FREE ENERGY PREDICTED BY IDOCK:   11.78 KCAL/MOL
REMARK 922        TOTAL FREE ENERGY PREDICTED BY IDOCK:   13.06 KCAL/MOL
REMARK 923 INTER-LIGAND FREE ENERGY PREDICTED BY IDOCK:    9.95 KCAL/MOL
REMARK 924 INTRA-LIGAND FREE ENERGY PREDICTED BY IDOCK:    3.11 KCAL/MOL
REMARK 927      BINDING AFFINITY PREDICTED BY RF-SCORE:    0.00 PKD
ROOT
HETATM    1  C   UNL     1     -10.026   5.517  71.750  1.00  0.00    -0.228 C  
HETATM    2  C   UNL     1      -9.107   6.278  70.873  1.00  0.00    -0.151 A  
HETATM    3  N   UNL     1      -8.621   7.484  71.090  1.00  0.00    -0.121 NA 
HETATM    4  C   UNL     1      -7.844   7.769  69.996  1.00  0.00    -0.103 A  
HETATM    5  H   UNL     1      -8.788   8.080  71.901  1.00  0.00     0.000 HD 
HETATM    6  C   UNL     1      -7.819   6.705  69.131  1.00  0.00    -0.111 A  
HETATM    7  N   UNL     1      -8.635   5.762  69.688  1.00  0.00    -0.115 NA 
HETATM    8  C   UNL     1      -7.089   6.590  67.853  1.00  0.00    -0.085 C  
HETATM    9  C   UNL     1      -7.541   7.706  66.913  1.00  0.00    -0.102 C  
HETATM   10  N   UNL     1      -7.408   9.113  67.333  1.00  0.00    -0.083 N  
HETATM   11  C   UNL     1      -6.693   9.471  68.528  1.00  0.00    -0.053 A  
HETATM   12  C   UNL     1      -7.964  10.041  66.412  1.00  0.00    -0.116 C  
HETATM   13  C   UNL     1      -5.730  10.495  68.464  1.00  0.00    -0.040 A  
HETATM   14  O   UNL     1      -8.435   9.658  65.336  1.00  0.00    -0.133 OA 
HETATM   15  C   UNL     1      -7.026   8.949  69.806  1.00  0.00    -0.050 A  
HETATM   16  C   UNL     1      -5.239  11.105  69.624  1.00  0.00    -0.042 A  
HETATM   17  C   UNL     1      -6.529   9.579  70.962  1.00  0.00    -0.071 A  
HETATM   18  C   UNL     1      -5.667  10.670  70.872  1.00  0.00    -0.074 A  
ENDROOT
BRANCH  12  19
HETATM   19  C   UNL     1      -7.993  11.518  66.657  1.00  0.00    -0.127 A  
HETATM   20  C   UNL     1      -8.867  12.283  65.876  1.00  0.00     0.238 A  
HETATM   21  C   UNL     1      -7.859  14.335  66.685  1.00  0.00     0.706 A  
HETATM   22  C   UNL     1      -7.036  13.575  67.520  1.00  0.00    -0.157 A  
HETATM   23  C   UNL     1      -8.812  13.681  65.904  1.00  0.00     0.739 A  
HETATM   24  C   UNL     1      -7.165  12.180  67.566  1.00  0.00    -0.133 A  
BRANCH  21  25
HETATM   25  N   UNL     1      -7.669  15.734  66.646  1.00  0.00    -0.224 N  
HETATM   26  C   UNL     1      -8.478  16.622  65.941  1.00  0.00     0.011 C  
HETATM   27  H   UNL     1      -6.885  16.122  67.171  1.00  0.00     0.000 HD 
HETATM   28  O   UNL     1      -9.501  16.308  65.348  1.00  0.00    -0.405 OA 
BRANCH  26  29
HETATM   29  C   UNL     1      -8.129  18.079  66.007  1.00  0.00    -0.124 A  
HETATM   30  C   UNL     1      -7.621  18.683  64.832  1.00  0.00     2.014 A  
HETATM   31  C   UNL     1      -7.084  19.968  64.852  1.00  0.00     0.053 A  
HETATM   32  C   UNL     1      -7.044  20.672  66.042  1.00  0.00    -0.142 A  
HETATM   33  C   UNL     1      -7.587  20.107  67.198  1.00  0.00    -0.334 A  
HETATM   34  C   UNL     1      -8.148  18.804  67.231  1.00  0.00    -0.256 A  
BRANCH  34  35
HETATM   35  C   UNL     1      -8.721  18.336  68.537  1.00  0.00    -0.325 A  
HETATM   36  C   UNL     1      -8.690  19.110  69.711  1.00  0.00     0.704 A  
HETATM   37  C   UNL     1      -9.167  18.615  70.935  1.00  0.00     4.417 A  
HETATM   38  C   UNL     1      -9.651  17.314  71.028  1.00  0.00     4.821 A  
HETATM   39  C   UNL     1      -9.697  16.521  69.890  1.00  0.00     0.417 A  
HETATM   40  C   UNL     1      -9.260  17.035  68.662  1.00  0.00    -0.266 A  
ENDBRANCH  34  35
ENDBRANCH  26  29
ENDBRANCH  21  25
ENDBRANCH  12  19
TORSDOF 4
ENDMDL
MODEL      142
REMARK 921   NORMALIZED FREE ENERGY PREDICTED BY IDOCK:   11.86 KCAL/MOL
REMARK 922        TOTAL FREE ENERGY PREDICTED BY IDOCK:   13.15 KCAL/MOL
REMARK 923 INTER-LIGAND FREE ENERGY PREDICTED BY IDOCK:   11.77 KCAL/MOL
REMARK 924 INTRA-LIGAND FREE ENERGY PREDICTED BY IDOCK:    1.38 KCAL/MOL
REMARK 927      BINDING AFFINITY PREDICTED BY RF-SCORE:    0.00 PKD
ROOT
HETATM    1  C   UNL     1      -9.162   2.212  70.230  1.00  0.00    -0.187 C  
HETATM    2  C   UNL     1      -9.335   3.379  69.335  1.00  0.00    -0.166 A  
HETATM    3  N   UNL     1      -8.541   4.428  69.238  1.00  0.00    -0.080 NA 
HETATM    4  C   UNL     1      -9.124   5.244  68.302  1.00  0.00    -0.110 A  
HETATM    5  H   UNL     1      -7.676   4.597  69.752  1.00  0.00     0.000 HD 
HETATM    6  C   UNL     1     -10.255   4.660  67.790  1.00  0.00     0.038 A  
HETATM    7  N   UNL     1     -10.392   3.478  68.461  1.00  0.00     1.027 NA 
HETATM    8  C   UNL     1     -11.159   5.190  66.751  1.00  0.00     0.457 C  
HETATM    9  C   UNL     1     -11.719   6.536  67.208  1.00  0.00     1.056 C  
HETATM   10  N   UNL     1     -10.795   7.635  67.542  1.00  0.00    -0.188 N  
HETATM   11  C   UNL     1      -9.387   7.534  67.272  1.00  0.00    -0.140 A  
HETATM   12  C   UNL     1     -11.442   8.791  68.055  1.00  0.00     1.227 C  
HETATM   13  C   UNL     1      -8.743   8.597  66.613  1.00  0.00    -0.137 A  
HETATM   14  O   UNL     1     -12.675   8.848  68.121  1.00  0.00     5.739 OA 
HETATM   15  C   UNL     1      -8.582   6.483  67.783  1.00  0.00    -0.117 A  
HETATM   16  C   UNL     1      -7.348   8.711  66.605  1.00  0.00    -0.081 A  
HETATM   17  C   UNL     1      -7.181   6.616  67.775  1.00  0.00    -0.091 A  
HETATM   18  C   UNL     1      -6.569   7.737  67.218  1.00  0.00    -0.063 A  
ENDROOT
BRANCH  12  19
HETATM   19  C   UNL     1     -10.700  10.007  68.513  1.00  0.00    -0.264 A  
HETATM   20  C   UNL     1     -11.427  11.197  68.635  1.00  0.00    -0.363 A  
HETATM   21  C   UNL     1      -9.381  12.464  68.939  1.00  0.00     0.265 A  
HETATM   22  C   UNL     1      -8.660  11.268  68.890  1.00  0.00    -0.056 A  
HETATM   23  C   UNL     1     -10.774  12.413  68.865  1.00  0.00    -0.202 A  
HETATM   24  C   UNL     1      -9.327  10.041  68.764  1.00  0.00    -0.162 A  
BRANCH  21  25
HETATM   25  N   UNL     1      -8.665  13.678  69.031  1.00  0.00    -0.352 N  
HETATM   26  C   UNL     1      -7.844  14.032  70.099  1.00  0.00     1.354 C  
HETATM   27  H   UNL     1      -8.755  14.342  68.262  1.00  0.00     0.000 HD 
HETATM   28  O   UNL     1      -7.573  13.297  71.039  1.00  0.00     3.297 OA 
BRANCH  26  29
HETATM   29  C   UNL     1      -7.159  15.364  70.036  1.00  0.00     0.010 A  
HETATM   30  C   UNL     1      -5.929  15.501  70.724  1.00  0.00     0.143 A  
HETATM   31  C   UNL     1      -5.326  16.745  70.890  1.00  0.00    -0.109 A  
HETATM   32  C   UNL     1      -5.939  17.873  70.376  1.00  0.00     0.053 A  
HETATM   33  C   UNL     1      -7.126  17.747  69.652  1.00  0.00     0.242 A  
HETATM   34  C   UNL     1      -7.780  16.504  69.451  1.00  0.00    -0.037 A  
BRANCH  34  35
HETATM   35  C   UNL     1      -9.035  16.513  68.629  1.00  0.00    -0.236 A  
HETATM   36  C   UNL     1      -9.112  15.963  67.337  1.00  0.00    -0.205 A  
HETATM   37  C   UNL     1     -10.279  16.053  66.563  1.00  0.00    -0.301 A  
HETATM   38  C   UNL     1     -11.393  16.734  67.045  1.00  0.00     0.509 A  
HETATM   39  C   UNL     1     -11.354  17.289  68.317  1.00  0.00     0.289 A  
HETATM   40  C   UNL     1     -10.201  17.159  69.101  1.00  0.00    -0.284 A  
ENDBRANCH  34  35
ENDBRANCH  26  29
ENDBRANCH  21  25
ENDBRANCH  12  19
TORSDOF 4
ENDMDL
MODEL      143
REMARK 921   NORMALIZED FREE ENERGY PREDICTED BY IDOCK:   13.50 KCAL/MOL
REMARK 922        TOTAL FREE ENERGY PREDICTED BY IDOCK:   15.17 KCAL/MOL
REMARK 923 INTER-LIGAND FREE ENERGY PREDICTED BY IDOCK:   12.24 KCAL/MOL
REMARK 924 INTRA-LIGAND FREE ENERGY PREDICTED BY IDOCK:    2.93 KCAL/MOL
REMARK 927      BINDING AFFINITY PREDICTED BY RF-SCORE:    0.00 PKD
ROOT
HETATM    1  C   UNL     1     -11.380   5.014  67.783  1.00  0.00     2.310 C  
HETATM    2  C   UNL     1     -10.878   6.272  67.184  1.00  0.00    -0.381 A  
HETATM    3  N   UNL     1      -9.865   7.003  67.607  1.00  0.00    -0.142 NA 
HETATM    4  C   UNL     1      -9.801   8.072  66.750  1.00  0.00    -0.257 A  
HETATM    5  H   UNL     1      -9.258   6.813  68.404  1.00  0.00     0.000 HD 
HETATM    6  C   UNL     1     -10.753   7.961  65.768  1.00  0.00     2.865 A  
HETATM    7  N   UNL     1     -11.445   6.819  66.057  1.00  0.00     2.296 NA 
HETATM    8  C   UNL     1     -11.008   8.882  64.643  1.00  0.00     7.217 C  
HETATM    9  C   UNL     1     -11.328  10.271  65.191  1.00  0.00     1.881 C  
HETATM   10  N   UNL     1     -10.355  10.954  66.063  1.00  0.00    -0.249 N  
HETATM   11  C   UNL     1      -9.033  10.427  66.262  1.00  0.00    -0.155 A  
HETATM   12  C   UNL     1     -10.824  12.188  66.588  1.00  0.00    -0.268 C  
HETATM   13  C   UNL     1      -7.929  11.288  66.125  1.00  0.00    -0.038 A  
HETATM   14  O   UNL     1     -11.923  12.641  66.251  1.00  0.00    -0.448 OA 
HETATM   15  C   UNL     1      -8.796   9.114  66.749  1.00  0.00    -0.143 A  
HETATM   16  C   UNL     1      -6.665  10.934  66.609  1.00  0.00    -0.127 A  
HETATM   17  C   UNL     1      -7.521   8.777  67.239  1.00  0.00    -0.089 A  
HETATM   18  C   UNL     1      -6.470   9.691  67.199  1.00  0.00    -0.070 A  
ENDROOT
BRANCH  12  19
HETATM   19  C   UNL     1     -10.029  13.026  67.540  1.00  0.00    -0.212 A  
HETATM   20  C   UNL     1     -10.637  14.182  68.044  1.00  0.00    -0.241 A  
HETATM   21  C   UNL     1      -8.531  14.928  68.988  1.00  0.00    -0.178 A  
HETATM   22  C   UNL     1      -7.939  13.741  68.549  1.00  0.00    -0.131 A  
HETATM   23  C   UNL     1      -9.898  15.116  68.777  1.00  0.00    -0.223 A  
HETATM   24  C   UNL     1      -8.707  12.760  67.906  1.00  0.00    -0.185 A  
BRANCH  21  25
HETATM   25  N   UNL     1      -7.711  15.901  69.600  1.00  0.00    -0.105 N  
HETATM   26  C   UNL     1      -7.429  17.152  69.057  1.00  0.00    -0.203 C  
HETATM   27  H   UNL     1      -7.297  15.673  70.504  1.00  0.00     0.000 HD 
HETATM   28  O   UNL     1      -7.929  17.592  68.031  1.00  0.00    -0.220 OA 
BRANCH  26  29
HETATM   29  C   UNL     1      -6.534  18.064  69.842  1.00  0.00     0.039 A  
HETATM   30  C   UNL     1      -6.143  17.641  71.136  1.00  0.00     1.320 A  
HETATM   31  C   UNL     1      -5.486  18.503  72.011  1.00  0.00     0.355 A  
HETATM   32  C   UNL     1      -5.210  19.798  71.614  1.00  0.00    -0.417 A  
HETATM   33  C   UNL     1      -5.545  20.213  70.323  1.00  0.00    -0.334 A  
HETATM   34  C   UNL     1      -6.211  19.375  69.392  1.00  0.00    -0.332 A  
BRANCH  34  35
HETATM   35  C   UNL     1      -6.485  19.943  68.030  1.00  0.00    -0.277 A  
HETATM   36  C   UNL     1      -7.784  20.129  67.523  1.00  0.00    -0.342 A  
HETATM   37  C   UNL     1      -8.007  20.593  66.217  1.00  0.00     0.081 A  
HETATM   38  C   UNL     1      -6.935  20.844  65.366  1.00  0.00     0.065 A  
HETATM   39  C   UNL     1      -5.640  20.672  65.833  1.00  0.00    -0.233 A  
HETATM   40  C   UNL     1      -5.423  20.250  67.150  1.00  0.00    -0.186 A  
ENDBRANCH  34  35
ENDBRANCH  26  29
ENDBRANCH  21  25
ENDBRANCH  12  19
TORSDOF 4
ENDMDL
MODEL      144
REMARK 921   NORMALIZED FREE ENERGY PREDICTED BY IDOCK:   13.88 KCAL/MOL
REMARK 922        TOTAL FREE ENERGY PREDICTED BY IDOCK:   15.65 KCAL/MOL
REMARK 923 INTER-LIGAND FREE ENERGY PREDICTED BY IDOCK:   14.13 KCAL/MOL
REMARK 924 INTRA-LIGAND FREE ENERGY PREDICTED BY IDOCK:    1.52 KCAL/MOL
REMARK 927      BINDING AFFINITY PREDICTED BY RF-SCORE:    0.00 PKD
ROOT
HETATM    1  C   UNL     1      -9.236  20.194  65.741  1.00  0.00    -0.032 C  
HETATM    2  C   UNL     1      -9.980  18.921  65.607  1.00  0.00     0.264 A  
HETATM    3  N   UNL     1     -10.451  18.172  66.585  1.00  0.00    -0.360 NA 
HETATM    4  C   UNL     1     -11.038  17.095  65.971  1.00  0.00     0.390 A  
HETATM    5  H   UNL     1     -10.393  18.356  67.586  1.00  0.00     0.000 HD 
HETATM    6  C   UNL     1     -10.965  17.217  64.606  1.00  0.00     0.590 A  
HETATM    7  N   UNL     1     -10.278  18.377  64.380  1.00  0.00     3.361 NA 
HETATM    8  C   UNL     1     -11.489  16.293  63.582  1.00  0.00     1.630 C  
HETATM    9  C   UNL     1     -10.858  14.915  63.775  1.00  0.00     1.816 C  
HETATM   10  N   UNL     1     -11.006  14.219  65.066  1.00  0.00    -0.364 N  
HETATM   11  C   UNL     1     -11.886  14.719  66.087  1.00  0.00    -0.199 A  
HETATM   12  C   UNL     1     -10.281  13.000  65.147  1.00  0.00    -0.272 C  
HETATM   13  C   UNL     1     -12.790  13.833  66.700  1.00  0.00     0.286 A  
HETATM   14  O   UNL     1      -9.661  12.568  64.168  1.00  0.00    -0.130 OA 
HETATM   15  C   UNL     1     -11.775  16.030  66.621  1.00  0.00     0.764 A  
HETATM   16  C   UNL     1     -13.435  14.163  67.898  1.00  0.00     5.106 A  
HETATM   17  C   UNL     1     -12.423  16.344  67.829  1.00  0.00     2.077 A  
HETATM   18  C   UNL     1     -13.223  15.407  68.480  1.00  0.00     2.765 A  
ENDROOT
BRANCH  12  19
HETATM   19  C   UNL     1     -10.239  12.153  66.380  1.00  0.00    -0.245 A  
HETATM   20  C   UNL     1      -9.006  11.594  66.736  1.00  0.00    -0.189 A  
HETATM   21  C   UNL     1     -10.075  10.200  68.408  1.00  0.00    -0.164 A  
HETATM   22  C   UNL     1     -11.295  10.810  68.105  1.00  0.00    -0.377 A  
HETATM   23  C   UNL     1      -8.923  10.638  67.754  1.00  0.00    -0.140 A  
HETATM   24  C   UNL     1     -11.357  11.841  67.157  1.00  0.00    -0.387 A  
BRANCH  21  25
HETATM   25  N   UNL     1     -10.067   9.142  69.344  1.00  0.00    -0.190 N  
HETATM   26  C   UNL     1     -10.644   9.202  70.610  1.00  0.00    -0.246 C  
HETATM   27  H   UNL     1      -9.606   8.273  69.074  1.00  0.00     0.000 HD 
HETATM   28  O   UNL     1     -11.305  10.144  71.027  1.00  0.00    -0.347 OA 
BRANCH  26  29
HETATM   29  C   UNL     1     -10.539   7.985  71.479  1.00  0.00    -0.273 A  
HETATM   30  C   UNL     1     -11.587   7.748  72.401  1.00  0.00    -0.410 A  
HETATM   31  C   UNL     1     -11.481   6.764  73.382  1.00  0.00     0.386 A  
HETATM   32  C   UNL     1     -10.329   6.003  73.461  1.00  0.00    -0.255 A  
HETATM   33  C   UNL     1      -9.308   6.192  72.527  1.00  0.00    -0.140 A  
HETATM   34  C   UNL     1      -9.367   7.177  71.507  1.00  0.00    -0.156 A  
BRANCH  34  35
HETATM   35  C   UNL     1      -8.210   7.251  70.556  1.00  0.00    -0.124 A  
HETATM   36  C   UNL     1      -8.267   6.764  69.237  1.00  0.00    -0.124 A  
HETATM   37  C   UNL     1      -7.144   6.779  68.395  1.00  0.00    -0.083 A  
HETATM   38  C   UNL     1      -5.919   7.245  68.862  1.00  0.00    -0.026 A  
HETATM   39  C   UNL     1      -5.825   7.733  70.158  1.00  0.00    -0.023 A  
HETATM   40  C   UNL     1      -6.959   7.755  70.980  1.00  0.00    -0.049 A  
ENDBRANCH  34  35
ENDBRANCH  26  29
ENDBRANCH  21  25
ENDBRANCH  12  19
TORSDOF 4
ENDMDL
MODEL      145
REMARK 921   NORMALIZED FREE ENERGY PREDICTED BY IDOCK:   13.91 KCAL/MOL
REMARK 922        TOTAL FREE ENERGY PREDICTED BY IDOCK:   15.69 KCAL/MOL
REMARK 923 INTER-LIGAND FREE ENERGY PREDICTED BY IDOCK:   15.33 KCAL/MOL
REMARK 924 INTRA-LIGAND FREE ENERGY PREDICTED BY IDOCK:    0.36 KCAL/MOL
REMARK 927      BINDING AFFINITY PREDICTED BY RF-SCORE:    0.00 PKD
ROOT
HETATM    1  C   UNL     1     -11.013   4.813  67.917  1.00  0.00     1.236 C  
HETATM    2  C   UNL     1      -9.927   5.798  67.706  1.00  0.00    -0.140 A  
HETATM    3  N   UNL     1      -9.490   6.692  68.571  1.00  0.00    -0.124 NA 
HETATM    4  C   UNL     1      -8.501   7.382  67.916  1.00  0.00    -0.122 A  
HETATM    5  H   UNL     1      -9.817   6.840  69.525  1.00  0.00     0.000 HD 
HETATM    6  C   UNL     1      -8.304   6.868  66.659  1.00  0.00    -0.118 A  
HETATM    7  N   UNL     1      -9.224   5.866  66.526  1.00  0.00    -0.142 NA 
HETATM    8  C   UNL     1      -7.326   7.303  65.643  1.00  0.00    -0.075 C  
HETATM    9  C   UNL     1      -7.567   8.775  65.311  1.00  0.00    -0.091 C  
HETATM   10  N   UNL     1      -7.514   9.783  66.384  1.00  0.00    -0.098 N  
HETATM   11  C   UNL     1      -7.060   9.445  67.705  1.00  0.00    -0.082 A  
HETATM   12  C   UNL     1      -7.863  11.093  65.957  1.00  0.00    -0.020 C  
HETATM   13  C   UNL     1      -6.099  10.264  68.325  1.00  0.00    -0.044 A  
HETATM   14  O   UNL     1      -8.102  11.326  64.768  1.00  0.00     0.356 OA 
HETATM   15  C   UNL     1      -7.654   8.413  68.479  1.00  0.00    -0.096 A  
HETATM   16  C   UNL     1      -5.855  10.186  69.701  1.00  0.00    -0.042 A  
HETATM   17  C   UNL     1      -7.404   8.354  69.862  1.00  0.00    -0.060 A  
HETATM   18  C   UNL     1      -6.535   9.254  70.476  1.00  0.00    -0.067 A  
ENDROOT
BRANCH  12  19
HETATM   19  C   UNL     1      -7.932  12.264  66.887  1.00  0.00    -0.068 A  
HETATM   20  C   UNL     1      -9.186  12.856  67.084  1.00  0.00    -0.225 A  
HETATM   21  C   UNL     1      -8.166  14.723  68.249  1.00  0.00    -0.142 A  
HETATM   22  C   UNL     1      -6.924  14.098  68.118  1.00  0.00    -0.126 A  
HETATM   23  C   UNL     1      -9.303  14.066  67.776  1.00  0.00    -0.205 A  
HETATM   24  C   UNL     1      -6.824  12.836  67.516  1.00  0.00    -0.153 A  
BRANCH  21  25
HETATM   25  N   UNL     1      -8.214  16.009  68.832  1.00  0.00    -0.209 N  
HETATM   26  C   UNL     1      -8.419  17.190  68.123  1.00  0.00    -0.227 C  
HETATM   27  H   UNL     1      -8.090  16.078  69.842  1.00  0.00     0.000 HD 
HETATM   28  O   UNL     1      -8.673  17.247  66.928  1.00  0.00    -0.222 OA 
BRANCH  26  29
HETATM   29  C   UNL     1      -8.437  18.472  68.901  1.00  0.00    -0.186 A  
HETATM   30  C   UNL     1      -8.224  18.391  70.299  1.00  0.00     2.631 A  
HETATM   31  C   UNL     1      -8.422  19.494  71.126  1.00  0.00     3.193 A  
HETATM   32  C   UNL     1      -8.838  20.693  70.576  1.00  0.00     2.226 A  
HETATM   33  C   UNL     1      -9.004  20.800  69.194  1.00  0.00     1.516 A  
HETATM   34  C   UNL     1      -8.812  19.709  68.307  1.00  0.00    -0.361 A  
BRANCH  34  35
HETATM   35  C   UNL     1      -8.999  19.975  66.842  1.00  0.00    -0.449 A  
HETATM   36  C   UNL     1     -10.243  19.867  66.194  1.00  0.00    -0.611 A  
HETATM   37  C   UNL     1     -10.372  20.049  64.808  1.00  0.00     1.594 A  
HETATM   38  C   UNL     1      -9.252  20.303  64.023  1.00  0.00     5.791 A  
HETATM   39  C   UNL     1      -8.008  20.416  64.628  1.00  0.00     1.467 A  
HETATM   40  C   UNL     1      -7.891  20.276  66.017  1.00  0.00    -0.179 A  
ENDBRANCH  34  35
ENDBRANCH  26  29
ENDBRANCH  21  25
ENDBRANCH  12  19
TORSDOF 4
ENDMDL
MODEL      146
REMARK 921   NORMALIZED FREE ENERGY PREDICTED BY IDOCK:   14.69 KCAL/MOL
REMARK 922        TOTAL FREE ENERGY PREDICTED BY IDOCK:   16.64 KCAL/MOL
REMARK 923 INTER-LIGAND FREE ENERGY PREDICTED BY IDOCK:   13.85 KCAL/MOL
REMARK 924 INTRA-LIGAND FREE ENERGY PREDICTED BY IDOCK:    2.79 KCAL/MOL
REMARK 927      BINDING AFFINITY PREDICTED BY RF-SCORE:    0.00 PKD
ROOT
HETATM    1  C   UNL     1     -11.818  21.200  68.180  1.00  0.00     5.144 C  
HETATM    2  C   UNL     1     -10.597  20.390  67.970  1.00  0.00     0.035 A  
HETATM    3  N   UNL     1     -10.526  19.187  67.434  1.00  0.00    -0.431 NA 
HETATM    4  C   UNL     1      -9.198  18.845  67.476  1.00  0.00    -0.290 A  
HETATM    5  H   UNL     1     -11.296  18.630  67.065  1.00  0.00     0.000 HD 
HETATM    6  C   UNL     1      -8.451  19.871  67.997  1.00  0.00    -0.257 A  
HETATM    7  N   UNL     1      -9.349  20.848  68.322  1.00  0.00     0.415 NA 
HETATM    8  C   UNL     1      -6.989  19.920  68.194  1.00  0.00    -0.331 C  
HETATM    9  C   UNL     1      -6.565  18.770  69.107  1.00  0.00    -0.285 C  
HETATM   10  N   UNL     1      -6.877  17.382  68.725  1.00  0.00    -0.217 N  
HETATM   11  C   UNL     1      -7.407  17.066  67.426  1.00  0.00    -0.158 A  
HETATM   12  C   UNL     1      -6.524  16.422  69.711  1.00  0.00    -0.153 C  
HETATM   13  C   UNL     1      -6.816  16.027  66.684  1.00  0.00     0.232 A  
HETATM   14  O   UNL     1      -5.939  16.765  70.744  1.00  0.00     0.147 OA 
HETATM   15  C   UNL     1      -8.601  17.646  66.923  1.00  0.00    -0.260 A  
HETATM   16  C   UNL     1      -7.464  15.460  65.581  1.00  0.00     4.573 A  
HETATM   17  C   UNL     1      -9.244  17.060  65.817  1.00  0.00     0.074 A  
HETATM   18  C   UNL     1      -8.696  15.955  65.169  1.00  0.00     2.485 A  
ENDROOT
BRANCH  12  19
HETATM   19  C   UNL     1      -6.799  14.958  69.563  1.00  0.00    -0.172 A  
HETATM   20  C   UNL     1      -6.221  14.302  68.470  1.00  0.00    -0.090 A  
HETATM   21  C   UNL     1      -7.560  12.325  68.897  1.00  0.00     0.021 A  
HETATM   22  C   UNL     1      -8.083  12.952  70.031  1.00  0.00     2.739 A  
HETATM   23  C   UNL     1      -6.586  12.989  68.151  1.00  0.00    -0.103 A  
HETATM   24  C   UNL     1      -7.638  14.227  70.407  1.00  0.00     1.149 A  
BRANCH  21  25
HETATM   25  N   UNL     1      -8.063  11.055  68.538  1.00  0.00    -0.133 N  
HETATM   26  C   UNL     1      -7.989  10.508  67.260  1.00  0.00    -0.114 C  
HETATM   27  H   UNL     1      -8.512  10.499  69.266  1.00  0.00     0.000 HD 
HETATM   28  O   UNL     1      -7.399  11.021  66.319  1.00  0.00    -0.139 OA 
BRANCH  26  29
HETATM   29  C   UNL     1      -8.579   9.145  67.053  1.00  0.00    -0.127 A  
HETATM   30  C   UNL     1      -9.548   9.001  66.031  1.00  0.00    -0.342 A  
HETATM   31  C   UNL     1     -10.293   7.831  65.899  1.00  0.00     1.235 A  
HETATM   32  C   UNL     1     -10.087   6.788  66.784  1.00  0.00    -0.250 A  
HETATM   33  C   UNL     1      -9.101   6.899  67.766  1.00  0.00    -0.118 A  
HETATM   34  C   UNL     1      -8.312   8.065  67.941  1.00  0.00    -0.129 A  
BRANCH  34  35
HETATM   35  C   UNL     1      -7.270   8.034  69.020  1.00  0.00    -0.078 A  
HETATM   36  C   UNL     1      -6.598   6.860  69.405  1.00  0.00    -0.048 A  
HETATM   37  C   UNL     1      -5.682   6.848  70.468  1.00  0.00    -0.024 A  
HETATM   38  C   UNL     1      -5.442   8.004  71.205  1.00  0.00    -0.033 A  
HETATM   39  C   UNL     1      -6.087   9.182  70.853  1.00  0.00    -0.054 A  
HETATM   40  C   UNL     1      -6.967   9.197  69.764  1.00  0.00    -0.056 A  
ENDBRANCH  34  35
ENDBRANCH  26  29
ENDBRANCH  21  25
ENDBRANCH  12  19
TORSDOF 4
ENDMDL
MODEL      147
REMARK 921   NORMALIZED FREE ENERGY PREDICTED BY IDOCK:   18.34 KCAL/MOL
REMARK 922        TOTAL FREE ENERGY PREDICTED BY IDOCK:   21.15 KCAL/MOL
REMARK 923 INTER-LIGAND FREE ENERGY PREDICTED BY IDOCK:   22.13 KCAL/MOL
REMARK 924 INTRA-LIGAND FREE ENERGY PREDICTED BY IDOCK:   -0.98 KCAL/MOL
REMARK 927      BINDING AFFINITY PREDICTED BY RF-SCORE:    0.00 PKD
ROOT
HETATM    1  C   UNL     1     -11.676  17.559  63.558  1.00  0.00     7.488 C  
HETATM    2  C   UNL     1     -10.747  17.524  64.711  1.00  0.00     1.063 A  
HETATM    3  N   UNL     1      -9.678  16.763  64.845  1.00  0.00     0.791 NA 
HETATM    4  C   UNL     1      -9.162  17.069  66.079  1.00  0.00    -0.142 A  
HETATM    5  H   UNL     1      -9.313  16.088  64.173  1.00  0.00     0.000 HD 
HETATM    6  C   UNL     1      -9.897  18.062  66.677  1.00  0.00    -0.352 A  
HETATM    7  N   UNL     1     -10.913  18.339  65.806  1.00  0.00    -0.030 NA 
HETATM    8  C   UNL     1      -9.668  18.694  67.990  1.00  0.00    -0.355 C  
HETATM    9  C   UNL     1      -9.704  17.622  69.079  1.00  0.00    -0.189 C  
HETATM   10  N   UNL     1      -8.775  16.481  69.009  1.00  0.00    -0.243 N  
HETATM   11  C   UNL     1      -7.708  16.443  68.046  1.00  0.00    -0.153 A  
HETATM   12  C   UNL     1      -8.988  15.506  70.021  1.00  0.00     0.334 C  
HETATM   13  C   UNL     1      -6.409  16.124  68.481  1.00  0.00    -0.116 A  
HETATM   14  O   UNL     1      -9.836  15.685  70.901  1.00  0.00     0.636 OA 
HETATM   15  C   UNL     1      -7.934  16.556  66.649  1.00  0.00    -0.320 A  
HETATM   16  C   UNL     1      -5.407  15.759  67.574  1.00  0.00    -0.065 A  
HETATM   17  C   UNL     1      -6.919  16.177  65.751  1.00  0.00     2.729 A  
HETATM   18  C   UNL     1      -5.674  15.752  66.210  1.00  0.00     2.534 A  
ENDROOT
BRANCH  12  19
HETATM   19  C   UNL     1      -8.200  14.237  70.112  1.00  0.00     1.352 A  
HETATM   20  C   UNL     1      -8.538  13.204  69.229  1.00  0.00     0.858 A  
HETATM   21  C   UNL     1      -7.119  11.652  70.438  1.00  0.00     1.473 A  
HETATM   22  C   UNL     1      -6.724  12.698  71.275  1.00  0.00     3.161 A  
HETATM   23  C   UNL     1      -7.988  11.927  69.381  1.00  0.00     0.564 A  
HETATM   24  C   UNL     1      -7.198  14.000  71.056  1.00  0.00     2.064 A  
BRANCH  21  25
HETATM   25  N   UNL     1      -6.644  10.351  70.718  1.00  0.00     0.005 N  
HETATM   26  C   UNL     1      -7.416   9.195  70.645  1.00  0.00    -0.124 C  
HETATM   27  H   UNL     1      -5.667  10.252  70.993  1.00  0.00     0.000 HD 
HETATM   28  O   UNL     1      -8.570   9.156  70.241  1.00  0.00    -0.157 OA 
BRANCH  26  29
HETATM   29  C   UNL     1      -6.750   7.894  70.979  1.00  0.00    -0.038 A  
HETATM   30  C   UNL     1      -6.314   7.706  72.313  1.00  0.00    -0.043 A  
HETATM   31  C   UNL     1      -5.512   6.624  72.668  1.00  0.00    -0.037 A  
HETATM   32  C   UNL     1      -5.129   5.713  71.700  1.00  0.00    -0.009 A  
HETATM   33  C   UNL     1      -5.593   5.858  70.391  1.00  0.00    -0.013 A  
HETATM   34  C   UNL     1      -6.414   6.939  69.978  1.00  0.00    -0.040 A  
BRANCH  34  35
HETATM   35  C   UNL     1      -6.861   6.954  68.546  1.00  0.00    -0.070 A  
HETATM   36  C   UNL     1      -6.347   7.849  67.590  1.00  0.00    -0.052 A  
HETATM   37  C   UNL     1      -6.838   7.889  66.276  1.00  0.00    -0.058 A  
HETATM   38  C   UNL     1      -7.889   7.061  65.891  1.00  0.00    -0.106 A  
HETATM   39  C   UNL     1      -8.421   6.165  66.808  1.00  0.00    -0.111 A  
HETATM   40  C   UNL     1      -7.897   6.100  68.105  1.00  0.00    -0.103 A  
ENDBRANCH  34  35
ENDBRANCH  26  29
ENDBRANCH  21  25
ENDBRANCH  12  19
TORSDOF 4
ENDMDL
MODEL      148
REMARK 921   NORMALIZED FREE ENERGY PREDICTED BY IDOCK:   18.36 KCAL/MOL
REMARK 922        TOTAL FREE ENERGY PREDICTED BY IDOCK:   21.17 KCAL/MOL
REMARK 923 INTER-LIGAND FREE ENERGY PREDICTED BY IDOCK:   15.05 KCAL/MOL
REMARK 924 INTRA-LIGAND FREE ENERGY PREDICTED BY IDOCK:    6.12 KCAL/MOL
REMARK 927      BINDING AFFINITY PREDICTED BY RF-SCORE:    0.00 PKD
ROOT
HETATM    1  C   UNL     1     -11.843   4.343  72.846  1.00  0.00     0.162 C  
HETATM    2  C   UNL     1     -10.663   5.140  72.441  1.00  0.00    -0.216 A  
HETATM    3  N   UNL     1     -10.639   6.424  72.138  1.00  0.00    -0.214 NA 
HETATM    4  C   UNL     1      -9.336   6.698  71.808  1.00  0.00    -0.148 A  
HETATM    5  H   UNL     1     -11.424   7.074  72.146  1.00  0.00     0.000 HD 
HETATM    6  C   UNL     1      -8.553   5.582  71.962  1.00  0.00    -0.131 A  
HETATM    7  N   UNL     1      -9.406   4.589  72.354  1.00  0.00    -0.124 NA 
HETATM    8  C   UNL     1      -7.101   5.454  71.736  1.00  0.00    -0.076 C  
HETATM    9  C   UNL     1      -6.781   5.824  70.289  1.00  0.00    -0.048 C  
HETATM   10  N   UNL     1      -7.156   7.155  69.777  1.00  0.00    -0.071 N  
HETATM   11  C   UNL     1      -7.649   8.181  70.654  1.00  0.00    -0.073 A  
HETATM   12  C   UNL     1      -6.900   7.328  68.390  1.00  0.00    -0.073 C  
HETATM   13  C   UNL     1      -7.089   9.469  70.577  1.00  0.00    -0.130 A  
HETATM   14  O   UNL     1      -6.339   6.442  67.736  1.00  0.00    -0.036 OA 
HETATM   15  C   UNL     1      -8.786   7.999  71.484  1.00  0.00    -0.178 A  
HETATM   16  C   UNL     1      -7.723  10.574  71.157  1.00  0.00     2.654 A  
HETATM   17  C   UNL     1      -9.416   9.121  72.053  1.00  0.00     0.150 A  
HETATM   18  C   UNL     1      -8.906  10.404  71.865  1.00  0.00     6.245 A  
ENDROOT
BRANCH  12  19
HETATM   19  C   UNL     1      -7.252   8.577  67.643  1.00  0.00    -0.084 A  
HETATM   20  C   UNL     1      -7.740   9.656  68.389  1.00  0.00    -0.081 A  
HETATM   21  C   UNL     1      -8.362  10.829  66.359  1.00  0.00    -0.153 A  
HETATM   22  C   UNL     1      -7.809   9.785  65.613  1.00  0.00    -0.114 A  
HETATM   23  C   UNL     1      -8.274  10.781  67.750  1.00  0.00    -0.112 A  
HETATM   24  C   UNL     1      -7.182   8.708  66.255  1.00  0.00    -0.079 A  
BRANCH  21  25
HETATM   25  N   UNL     1      -9.014  11.876  65.670  1.00  0.00    -0.413 N  
HETATM   26  C   UNL     1      -9.018  13.207  66.077  1.00  0.00     0.343 C  
HETATM   27  H   UNL     1      -9.517  11.640  64.815  1.00  0.00     0.000 HD 
HETATM   28  O   UNL     1      -8.383  13.645  67.027  1.00  0.00    -0.172 OA 
BRANCH  26  29
HETATM   29  C   UNL     1      -9.766  14.190  65.226  1.00  0.00    -0.060 A  
HETATM   30  C   UNL     1     -10.683  13.672  64.280  1.00  0.00    -0.280 A  
HETATM   31  C   UNL     1     -11.268  14.489  63.316  1.00  0.00     2.442 A  
HETATM   32  C   UNL     1     -10.948  15.834  63.277  1.00  0.00     4.381 A  
HETATM   33  C   UNL     1     -10.084  16.368  64.235  1.00  0.00     2.925 A  
HETATM   34  C   UNL     1      -9.464  15.581  65.240  1.00  0.00     0.150 A  
BRANCH  34  35
HETATM   35  C   UNL     1      -8.580  16.293  66.221  1.00  0.00    -0.374 A  
HETATM   36  C   UNL     1      -8.286  17.666  66.136  1.00  0.00    -0.183 A  
HETATM   37  C   UNL     1      -7.395  18.288  67.025  1.00  0.00    -0.225 A  
HETATM   38  C   UNL     1      -6.740  17.543  68.001  1.00  0.00    -0.181 A  
HETATM   39  C   UNL     1      -7.005  16.186  68.115  1.00  0.00    -0.135 A  
HETATM   40  C   UNL     1      -7.927  15.580  67.253  1.00  0.00    -0.233 A  
ENDBRANCH  34  35
ENDBRANCH  26  29
ENDBRANCH  21  25
ENDBRANCH  12  19
TORSDOF 4
ENDMDL
MODEL      149
REMARK 921   NORMALIZED FREE ENERGY PREDICTED BY IDOCK:   18.63 KCAL/MOL
REMARK 922        TOTAL FREE ENERGY PREDICTED BY IDOCK:   21.50 KCAL/MOL
REMARK 923 INTER-LIGAND FREE ENERGY PREDICTED BY IDOCK:   22.22 KCAL/MOL
REMARK 924 INTRA-LIGAND FREE ENERGY PREDICTED BY IDOCK:   -0.72 KCAL/MOL
REMARK 927      BINDING AFFINITY PREDICTED BY RF-SCORE:    0.00 PKD
ROOT
HETATM    1  C   UNL     1      -5.134   7.215  69.527  1.00  0.00    -0.015 C  
HETATM    2  C   UNL     1      -5.808   7.673  68.291  1.00  0.00    -0.031 A  
HETATM    3  N   UNL     1      -5.618   8.817  67.662  1.00  0.00    -0.038 NA 
HETATM    4  C   UNL     1      -6.478   8.795  66.593  1.00  0.00    -0.063 A  
HETATM    5  H   UNL     1      -4.968   9.561  67.916  1.00  0.00     0.000 HD 
HETATM    6  C   UNL     1      -7.159   7.605  66.546  1.00  0.00    -0.075 A  
HETATM    7  N   UNL     1      -6.737   6.899  67.637  1.00  0.00    -0.065 NA 
HETATM    8  C   UNL     1      -8.156   7.169  65.549  1.00  0.00    -0.135 C  
HETATM    9  C   UNL     1      -9.319   8.160  65.532  1.00  0.00     0.211 C  
HETATM   10  N   UNL     1      -9.060   9.584  65.253  1.00  0.00    -0.209 N  
HETATM   11  C   UNL     1      -7.768  10.035  64.812  1.00  0.00    -0.142 A  
HETATM   12  C   UNL     1     -10.209  10.411  65.375  1.00  0.00    -0.259 C  
HETATM   13  C   UNL     1      -7.689  10.884  63.693  1.00  0.00     0.395 A  
HETATM   14  O   UNL     1     -11.317   9.920  65.619  1.00  0.00     1.325 OA 
HETATM   15  C   UNL     1      -6.579   9.795  65.550  1.00  0.00    -0.085 A  
HETATM   16  C   UNL     1      -6.525  11.608  63.409  1.00  0.00     2.554 A  
HETATM   17  C   UNL     1      -5.420  10.536  65.256  1.00  0.00    -0.139 A  
HETATM   18  C   UNL     1      -5.401  11.459  64.213  1.00  0.00     1.229 A  
ENDROOT
BRANCH  12  19
HETATM   19  C   UNL     1     -10.171  11.896  65.192  1.00  0.00    -0.314 A  
HETATM   20  C   UNL     1      -9.769  12.669  66.288  1.00  0.00    -0.260 A  
HETATM   21  C   UNL     1     -10.459  14.701  65.157  1.00  0.00    -0.416 A  
HETATM   22  C   UNL     1     -10.792  13.938  64.035  1.00  0.00     0.178 A  
HETATM   23  C   UNL     1      -9.895  14.062  66.262  1.00  0.00    -0.318 A  
HETATM   24  C   UNL     1     -10.568  12.554  64.026  1.00  0.00    -0.451 A  
BRANCH  21  25
HETATM   25  N   UNL     1     -10.735  16.086  65.134  1.00  0.00    -0.435 N  
HETATM   26  C   UNL     1      -9.993  17.051  65.810  1.00  0.00    -0.153 C  
HETATM   27  H   UNL     1     -11.534  16.402  64.584  1.00  0.00     0.000 HD 
HETATM   28  O   UNL     1      -8.961  16.827  66.428  1.00  0.00    -0.252 OA 
BRANCH  26  29
HETATM   29  C   UNL     1     -10.429  18.480  65.678  1.00  0.00    -0.132 A  
HETATM   30  C   UNL     1     -11.810  18.758  65.823  1.00  0.00     3.531 A  
HETATM   31  C   UNL     1     -12.332  20.014  65.519  1.00  0.00     5.383 A  
HETATM   32  C   UNL     1     -11.488  21.011  65.064  1.00  0.00     2.884 A  
HETATM   33  C   UNL     1     -10.117  20.765  64.964  1.00  0.00     1.402 A  
HETATM   34  C   UNL     1      -9.534  19.507  65.264  1.00  0.00     1.204 A  
BRANCH  34  35
HETATM   35  C   UNL     1      -8.043  19.393  65.139  1.00  0.00     1.257 A  
HETATM   36  C   UNL     1      -7.161  19.641  66.206  1.00  0.00    -0.274 A  
HETATM   37  C   UNL     1      -5.768  19.600  66.038  1.00  0.00    -0.176 A  
HETATM   38  C   UNL     1      -5.217  19.350  64.786  1.00  0.00    -0.207 A  
HETATM   39  C   UNL     1      -6.056  19.100  63.709  1.00  0.00     0.331 A  
HETATM   40  C   UNL     1      -7.445  19.100  63.892  1.00  0.00     4.978 A  
ENDBRANCH  34  35
ENDBRANCH  26  29
ENDBRANCH  21  25
ENDBRANCH  12  19
TORSDOF 4
ENDMDL
MODEL      150
REMARK 921   NORMALIZED FREE ENERGY PREDICTED BY IDOCK:   18.67 KCAL/MOL
REMARK 922        TOTAL FREE ENERGY PREDICTED BY IDOCK:   21.55 KCAL/MOL
REMARK 923 INTER-LIGAND FREE ENERGY PREDICTED BY IDOCK:   22.61 KCAL/MOL
REMARK 924 INTRA-LIGAND FREE ENERGY PREDICTED BY IDOCK:   -1.06 KCAL/MOL
REMARK 927      BINDING AFFINITY PREDICTED BY RF-SCORE:    0.00 PKD
ROOT
HETATM    1  C   UNL     1     -11.665  16.961  63.634  1.00  0.00     3.572 C  
HETATM    2  C   UNL     1     -10.719  16.874  64.770  1.00  0.00     0.243 A  
HETATM    3  N   UNL     1      -9.648  16.108  64.852  1.00  0.00     0.398 NA 
HETATM    4  C   UNL     1      -9.114  16.358  66.091  1.00  0.00    -0.326 A  
HETATM    5  H   UNL     1      -9.293  15.466  64.145  1.00  0.00     0.000 HD 
HETATM    6  C   UNL     1      -9.840  17.321  66.745  1.00  0.00    -0.294 A  
HETATM    7  N   UNL     1     -10.869  17.637  65.903  1.00  0.00    -0.143 NA 
HETATM    8  C   UNL     1      -9.592  17.892  68.083  1.00  0.00    -0.306 C  
HETATM    9  C   UNL     1      -9.612  16.771  69.121  1.00  0.00    -0.185 C  
HETATM   10  N   UNL     1      -8.683  15.635  68.986  1.00  0.00    -0.221 N  
HETATM   11  C   UNL     1      -7.631  15.644  68.006  1.00  0.00    -0.124 A  
HETATM   12  C   UNL     1      -8.880  14.615  69.954  1.00  0.00     0.633 C  
HETATM   13  C   UNL     1      -6.325  15.306  68.406  1.00  0.00    -0.107 A  
HETATM   14  O   UNL     1      -9.716  14.752  70.854  1.00  0.00     1.106 OA 
HETATM   15  C   UNL     1      -7.877  15.820  66.619  1.00  0.00    -0.192 A  
HETATM   16  C   UNL     1      -5.337  14.984  67.469  1.00  0.00     0.130 A  
HETATM   17  C   UNL     1      -6.875  15.484  65.689  1.00  0.00     5.968 A  
HETATM   18  C   UNL     1      -5.624  15.039  66.110  1.00  0.00     5.041 A  
ENDROOT
BRANCH  12  19
HETATM   19  C   UNL     1      -8.090  13.343  69.975  1.00  0.00     2.277 A  
HETATM   20  C   UNL     1      -8.297  12.440  68.926  1.00  0.00     0.243 A  
HETATM   21  C   UNL     1      -7.020  10.737  70.088  1.00  0.00     0.002 A  
HETATM   22  C   UNL     1      -6.751  11.660  71.101  1.00  0.00     2.567 A  
HETATM   23  C   UNL     1      -7.751  11.153  68.974  1.00  0.00    -0.114 A  
HETATM   24  C   UNL     1      -7.213  12.980  70.999  1.00  0.00     4.057 A  
BRANCH  21  25
HETATM   25  N   UNL     1      -6.564   9.409  70.250  1.00  0.00    -0.059 N  
HETATM   26  C   UNL     1      -7.279   8.276  69.871  1.00  0.00    -0.059 C  
HETATM   27  H   UNL     1      -5.646   9.271  70.673  1.00  0.00     0.000 HD 
HETATM   28  O   UNL     1      -8.345   8.297  69.271  1.00  0.00    -0.119 OA 
BRANCH  26  29
HETATM   29  C   UNL     1      -6.644   6.940  70.120  1.00  0.00    -0.044 A  
HETATM   30  C   UNL     1      -5.636   6.518  69.221  1.00  0.00    -0.014 A  
HETATM   31  C   UNL     1      -5.136   5.218  69.251  1.00  0.00     0.000 A  
HETATM   32  C   UNL     1      -5.635   4.318  70.175  1.00  0.00    -0.013 A  
HETATM   33  C   UNL     1      -6.593   4.735  71.100  1.00  0.00    -0.027 A  
HETATM   34  C   UNL     1      -7.133   6.047  71.115  1.00  0.00    -0.073 A  
BRANCH  34  35
HETATM   35  C   UNL     1      -8.137   6.365  72.184  1.00  0.00    -0.108 A  
HETATM   36  C   UNL     1      -7.790   6.953  73.414  1.00  0.00    -0.103 A  
HETATM   37  C   UNL     1      -8.741   7.169  74.424  1.00  0.00    -0.238 A  
HETATM   38  C   UNL     1     -10.061   6.766  74.247  1.00  0.00    -0.348 A  
HETATM   39  C   UNL     1     -10.439   6.183  73.045  1.00  0.00    -0.245 A  
HETATM   40  C   UNL     1      -9.496   6.009  72.025  1.00  0.00    -0.161 A  
ENDBRANCH  34  35
ENDBRANCH  26  29
ENDBRANCH  21  25
ENDBRANCH  12  19
TORSDOF 4
ENDMDL
MODEL      151
REMARK 921   NORMALIZED FREE ENERGY PREDICTED BY IDOCK:   20.82 KCAL/MOL
REMARK 922        TOTAL FREE ENERGY PREDICTED BY IDOCK:   24.20 KCAL/MOL
REMARK 923 INTER-LIGAND FREE ENERGY PREDICTED BY IDOCK:   25.24 KCAL/MOL
REMARK 924 INTRA-LIGAND FREE ENERGY PREDICTED BY IDOCK:   -1.03 KCAL/MOL
REMARK 927      BINDING AFFINITY PREDICTED BY RF-SCORE:    0.00 PKD
ROOT
HETATM    1  C   UNL     1     -12.514  16.118  63.096  1.00  0.00     4.614 C  
HETATM    2  C   UNL     1     -11.664  15.960  64.298  1.00  0.00    -0.132 A  
HETATM    3  N   UNL     1     -10.645  15.136  64.445  1.00  0.00    -0.435 NA 
HETATM    4  C   UNL     1     -10.194  15.335  65.725  1.00  0.00    -0.349 A  
HETATM    5  H   UNL     1     -10.270  14.488  63.752  1.00  0.00     0.000 HD 
HETATM    6  C   UNL     1     -10.917  16.324  66.344  1.00  0.00     0.004 A  
HETATM    7  N   UNL     1     -11.860  16.710  65.434  1.00  0.00     1.082 NA 
HETATM    8  C   UNL     1     -10.742  16.858  67.708  1.00  0.00    -0.315 C  
HETATM    9  C   UNL     1     -10.900  15.722  68.718  1.00  0.00    -0.274 C  
HETATM   10  N   UNL     1     -10.025  14.540  68.628  1.00  0.00    -0.233 N  
HETATM   11  C   UNL     1      -8.902  14.508  67.731  1.00  0.00    -0.183 A  
HETATM   12  C   UNL     1     -10.349  13.515  69.557  1.00  0.00     0.494 C  
HETATM   13  C   UNL     1      -7.650  14.094  68.221  1.00  0.00    -0.130 A  
HETATM   14  O   UNL     1     -11.243  13.681  70.394  1.00  0.00     0.109 OA 
HETATM   15  C   UNL     1      -9.031  14.722  66.333  1.00  0.00    -0.223 A  
HETATM   16  C   UNL     1      -6.611  13.736  67.355  1.00  0.00     0.032 A  
HETATM   17  C   UNL     1      -7.980  14.349  65.475  1.00  0.00     4.847 A  
HETATM   18  C   UNL     1      -6.790  13.830  65.980  1.00  0.00     5.363 A  
ENDROOT
BRANCH  12  19
HETATM   19  C   UNL     1      -9.631  12.202  69.610  1.00  0.00     1.572 A  
HETATM   20  C   UNL     1      -9.799  11.332  68.526  1.00  0.00    -0.198 A  
HETATM   21  C   UNL     1      -8.711   9.540  69.744  1.00  0.00    -0.194 A  
HETATM   22  C   UNL     1      -8.477  10.427  70.798  1.00  0.00     1.818 A  
HETATM   23  C   UNL     1      -9.326  10.017  68.587  1.00  0.00    -0.156 A  
HETATM   24  C   UNL     1      -8.860  11.772  70.692  1.00  0.00     6.313 A  
BRANCH  21  25
HETATM   25  N   UNL     1      -8.339   8.187  69.910  1.00  0.00    -0.121 N  
HETATM   26  C   UNL     1      -9.069   7.103  69.430  1.00  0.00    -0.145 C  
HETATM   27  H   UNL     1      -7.476   7.990  70.417  1.00  0.00     0.000 HD 
HETATM   28  O   UNL     1     -10.068   7.194  68.730  1.00  0.00    -0.163 OA 
BRANCH  26  29
HETATM   29  C   UNL     1      -8.529   5.729  69.699  1.00  0.00    -0.112 A  
HETATM   30  C   UNL     1      -7.460   5.277  68.889  1.00  0.00    -0.074 A  
HETATM   31  C   UNL     1      -7.031   3.952  68.929  1.00  0.00    -0.047 A  
HETATM   32  C   UNL     1      -7.661   3.057  69.774  1.00  0.00    -0.045 A  
HETATM   33  C   UNL     1      -8.684   3.501  70.614  1.00  0.00    -0.126 A  
HETATM   34  C   UNL     1      -9.156   4.839  70.616  1.00  0.00    -0.177 A  
BRANCH  34  35
HETATM   35  C   UNL     1     -10.243   5.183  71.591  1.00  0.00    -0.276 A  
HETATM   36  C   UNL     1     -11.609   5.176  71.254  1.00  0.00     1.010 A  
HETATM   37  C   UNL     1     -12.597   5.575  72.168  1.00  0.00     0.826 A  
HETATM   38  C   UNL     1     -12.243   6.033  73.433  1.00  0.00     1.561 A  
HETATM   39  C   UNL     1     -10.905   6.053  73.801  1.00  0.00    -0.106 A  
HETATM   40  C   UNL     1      -9.927   5.613  72.900  1.00  0.00    -0.196 A  
ENDBRANCH  34  35
ENDBRANCH  26  29
ENDBRANCH  21  25
ENDBRANCH  12  19
TORSDOF 4
ENDMDL
MODEL      152
REMARK 921   NORMALIZED FREE ENERGY PREDICTED BY IDOCK:   20.90 KCAL/MOL
REMARK 922        TOTAL FREE ENERGY PREDICTED BY IDOCK:   24.31 KCAL/MOL
REMARK 923 INTER-LIGAND FREE ENERGY PREDICTED BY IDOCK:   21.59 KCAL/MOL
REMARK 924 INTRA-LIGAND FREE ENERGY PREDICTED BY IDOCK:    2.72 KCAL/MOL
REMARK 927      BINDING AFFINITY PREDICTED BY RF-SCORE:    0.00 PKD
ROOT
HETATM    1  C   UNL     1      -9.748   3.631  73.992  1.00  0.00    -0.141 C  
HETATM    2  C   UNL     1      -8.667   4.534  73.536  1.00  0.00    -0.099 A  
HETATM    3  N   UNL     1      -8.729   5.845  73.410  1.00  0.00    -0.121 NA 
HETATM    4  C   UNL     1      -7.499   6.227  72.938  1.00  0.00    -0.096 A  
HETATM    5  H   UNL     1      -9.524   6.448  73.621  1.00  0.00     0.000 HD 
HETATM    6  C   UNL     1      -6.668   5.142  72.823  1.00  0.00    -0.070 A  
HETATM    7  N   UNL     1      -7.421   4.064  73.194  1.00  0.00    -0.072 NA 
HETATM    8  C   UNL     1      -5.262   5.119  72.376  1.00  0.00    -0.008 C  
HETATM    9  C   UNL     1      -5.173   5.692  70.962  1.00  0.00    -0.009 C  
HETATM   10  N   UNL     1      -5.663   7.057  70.696  1.00  0.00    -0.027 N  
HETATM   11  C   UNL     1      -6.051   7.933  71.768  1.00  0.00    -0.036 A  
HETATM   12  C   UNL     1      -5.622   7.423  69.324  1.00  0.00    -0.015 C  
HETATM   13  C   UNL     1      -5.550   9.247  71.788  1.00  0.00    -0.073 A  
HETATM   14  O   UNL     1      -5.137   6.660  68.481  1.00  0.00    -0.010 OA 
HETATM   15  C   UNL     1      -7.045   7.585  72.720  1.00  0.00    -0.076 A  
HETATM   16  C   UNL     1      -6.124  10.233  72.599  1.00  0.00     1.251 A  
HETATM   17  C   UNL     1      -7.618   8.589  73.522  1.00  0.00    -0.057 A  
HETATM   18  C   UNL     1      -7.183   9.910  73.440  1.00  0.00     2.875 A  
ENDROOT
BRANCH  12  19
HETATM   19  C   UNL     1      -6.120   8.739  68.814  1.00  0.00    -0.045 A  
HETATM   20  C   UNL     1      -6.430   9.721  69.762  1.00  0.00    -0.053 A  
HETATM   21  C   UNL     1      -7.470  11.097  68.057  1.00  0.00    -0.094 A  
HETATM   22  C   UNL     1      -7.097  10.151  67.098  1.00  0.00    -0.089 A  
HETATM   23  C   UNL     1      -7.083  10.899  69.383  1.00  0.00    -0.131 A  
HETATM   24  C   UNL     1      -6.351   9.023  67.466  1.00  0.00    -0.063 A  
BRANCH  21  25
HETATM   25  N   UNL     1      -8.250  12.200  67.645  1.00  0.00    -0.152 N  
HETATM   26  C   UNL     1      -7.748  13.325  66.997  1.00  0.00     0.124 C  
HETATM   27  H   UNL     1      -9.252  12.170  67.835  1.00  0.00     0.000 HD 
HETATM   28  O   UNL     1      -6.589  13.453  66.626  1.00  0.00     0.633 OA 
BRANCH  26  29
HETATM   29  C   UNL     1      -8.719  14.408  66.633  1.00  0.00    -0.131 A  
HETATM   30  C   UNL     1      -8.637  14.949  65.327  1.00  0.00     2.933 A  
HETATM   31  C   UNL     1      -9.356  16.086  64.967  1.00  0.00     1.322 A  
HETATM   32  C   UNL     1     -10.166  16.705  65.902  1.00  0.00    -0.358 A  
HETATM   33  C   UNL     1     -10.295  16.154  67.178  1.00  0.00    -0.291 A  
HETATM   34  C   UNL     1      -9.589  14.996  67.595  1.00  0.00    -0.203 A  
BRANCH  34  35
HETATM   35  C   UNL     1      -9.845  14.499  68.987  1.00  0.00    -0.142 A  
HETATM   36  C   UNL     1     -11.136  14.263  69.493  1.00  0.00    -0.244 A  
HETATM   37  C   UNL     1     -11.348  13.870  70.824  1.00  0.00     0.390 A  
HETATM   38  C   UNL     1     -10.274  13.741  71.700  1.00  0.00     6.424 A  
HETATM   39  C   UNL     1      -8.986  13.967  71.235  1.00  0.00     7.433 A  
HETATM   40  C   UNL     1      -8.777  14.317  69.896  1.00  0.00     1.111 A  
ENDBRANCH  34  35
ENDBRANCH  26  29
ENDBRANCH  21  25
ENDBRANCH  12  19
TORSDOF 4
ENDMDL
MODEL      153
REMARK 921   NORMALIZED FREE ENERGY PREDICTED BY IDOCK:   25.22 KCAL/MOL
REMARK 922        TOTAL FREE ENERGY PREDICTED BY IDOCK:   29.64 KCAL/MOL
REMARK 923 INTER-LIGAND FREE ENERGY PREDICTED BY IDOCK:   29.87 KCAL/MOL
REMARK 924 INTRA-LIGAND FREE ENERGY PREDICTED BY IDOCK:   -0.23 KCAL/MOL
REMARK 927      BINDING AFFINITY PREDICTED BY RF-SCORE:    0.00 PKD
ROOT
HETATM    1  C   UNL     1     -11.856   4.310  69.103  1.00  0.00    10.138 C  
HETATM    2  C   UNL     1     -10.653   5.098  68.751  1.00  0.00     0.040 A  
HETATM    3  N   UNL     1     -10.462   6.387  68.952  1.00  0.00    -0.199 NA 
HETATM    4  C   UNL     1      -9.218   6.658  68.441  1.00  0.00    -0.122 A  
HETATM    5  H   UNL     1     -11.104   7.044  69.395  1.00  0.00     0.000 HD 
HETATM    6  C   UNL     1      -8.629   5.512  67.970  1.00  0.00    -0.100 A  
HETATM    7  N   UNL     1      -9.552   4.523  68.159  1.00  0.00    -0.151 NA 
HETATM    8  C   UNL     1      -7.291   5.362  67.365  1.00  0.00    -0.083 C  
HETATM    9  C   UNL     1      -7.193   6.256  66.130  1.00  0.00    -0.075 C  
HETATM   10  N   UNL     1      -7.420   7.707  66.261  1.00  0.00    -0.082 N  
HETATM   11  C   UNL     1      -7.549   8.330  67.550  1.00  0.00    -0.098 A  
HETATM   12  C   UNL     1      -7.406   8.402  65.022  1.00  0.00    -0.086 C  
HETATM   13  C   UNL     1      -6.796   9.486  67.825  1.00  0.00    -0.078 A  
HETATM   14  O   UNL     1      -7.145   7.811  63.969  1.00  0.00    -0.066 OA 
HETATM   15  C   UNL     1      -8.521   7.926  68.503  1.00  0.00    -0.128 A  
HETATM   16  C   UNL     1      -7.103  10.313  68.911  1.00  0.00    -0.075 A  
HETATM   17  C   UNL     1      -8.823   8.773  69.585  1.00  0.00    -0.141 A  
HETATM   18  C   UNL     1      -8.141   9.974  69.771  1.00  0.00    -0.188 A  
ENDROOT
BRANCH  12  19
HETATM   19  C   UNL     1      -7.669   9.871  64.906  1.00  0.00    -0.134 A  
HETATM   20  C   UNL     1      -6.559  10.716  64.786  1.00  0.00     0.119 A  
HETATM   21  C   UNL     1      -7.960  12.669  65.115  1.00  0.00     3.721 A  
HETATM   22  C   UNL     1      -9.078  11.832  65.161  1.00  0.00     0.161 A  
HETATM   23  C   UNL     1      -6.707  12.105  64.872  1.00  0.00     4.947 A  
HETATM   24  C   UNL     1      -8.938  10.450  64.971  1.00  0.00    -0.221 A  
BRANCH  21  25
HETATM   25  N   UNL     1      -8.145  14.050  65.346  1.00  0.00     3.562 N  
HETATM   26  C   UNL     1      -9.362  14.640  65.678  1.00  0.00     0.097 C  
HETATM   27  H   UNL     1      -7.330  14.658  65.264  1.00  0.00     0.000 HD 
HETATM   28  O   UNL     1     -10.395  14.023  65.900  1.00  0.00    -0.298 OA 
BRANCH  26  29
HETATM   29  C   UNL     1      -9.379  16.125  65.887  1.00  0.00    -0.316 A  
HETATM   30  C   UNL     1      -9.152  16.947  64.756  1.00  0.00     3.961 A  
HETATM   31  C   UNL     1      -8.950  18.318  64.886  1.00  0.00     3.944 A  
HETATM   32  C   UNL     1      -8.968  18.894  66.144  1.00  0.00    -0.169 A  
HETATM   33  C   UNL     1      -9.240  18.104  67.263  1.00  0.00    -0.252 A  
HETATM   34  C   UNL     1      -9.457  16.703  67.185  1.00  0.00    -0.236 A  
BRANCH  34  35
HETATM   35  C   UNL     1      -9.766  15.984  68.465  1.00  0.00    -0.214 A  
HETATM   36  C   UNL     1      -8.960  16.080  69.614  1.00  0.00     0.065 A  
HETATM   37  C   UNL     1      -9.234  15.336  70.772  1.00  0.00     1.701 A  
HETATM   38  C   UNL     1     -10.300  14.443  70.800  1.00  0.00     1.395 A  
HETATM   39  C   UNL     1     -11.118  14.322  69.685  1.00  0.00    -0.218 A  
HETATM   40  C   UNL     1     -10.865  15.099  68.547  1.00  0.00    -0.247 A  
ENDBRANCH  34  35
ENDBRANCH  26  29
ENDBRANCH  21  25
ENDBRANCH  12  19
TORSDOF 4
ENDMDL
MODEL      154
REMARK 921   NORMALIZED FREE ENERGY PREDICTED BY IDOCK:   28.97 KCAL/MOL
REMARK 922        TOTAL FREE ENERGY PREDICTED BY IDOCK:   34.26 KCAL/MOL
REMARK 923 INTER-LIGAND FREE ENERGY PREDICTED BY IDOCK:   30.98 KCAL/MOL
REMARK 924 INTRA-LIGAND FREE ENERGY PREDICTED BY IDOCK:    3.28 KCAL/MOL
REMARK 927      BINDING AFFINITY PREDICTED BY RF-SCORE:    0.00 PKD
ROOT
HETATM    1  C   UNL     1     -12.295  20.872  65.950  1.00  0.00     5.981 C  
HETATM    2  C   UNL     1     -11.505  20.153  66.975  1.00  0.00     1.227 A  
HETATM    3  N   UNL     1     -11.080  18.906  66.918  1.00  0.00    -0.092 NA 
HETATM    4  C   UNL     1     -10.420  18.690  68.101  1.00  0.00    -0.315 A  
HETATM    5  H   UNL     1     -11.213  18.244  66.155  1.00  0.00     0.000 HD 
HETATM    6  C   UNL     1     -10.402  19.831  68.861  1.00  0.00    -0.199 A  
HETATM    7  N   UNL     1     -11.106  20.758  68.145  1.00  0.00     1.189 NA 
HETATM    8  C   UNL     1      -9.781  20.032  70.184  1.00  0.00     0.653 C  
HETATM    9  C   UNL     1     -10.382  19.040  71.179  1.00  0.00     2.679 C  
HETATM   10  N   UNL     1     -10.301  17.594  70.907  1.00  0.00     2.020 N  
HETATM   11  C   UNL     1      -9.510  17.081  69.822  1.00  0.00     0.702 A  
HETATM   12  C   UNL     1     -10.993  16.793  71.855  1.00  0.00     1.357 C  
HETATM   13  C   UNL     1      -8.623  16.018  70.069  1.00  0.00     0.807 A  
HETATM   14  O   UNL     1     -11.530  17.306  72.842  1.00  0.00     0.247 OA 
HETATM   15  C   UNL     1      -9.697  17.491  68.475  1.00  0.00    -0.319 A  
HETATM   16  C   UNL     1      -8.072  15.270  69.022  1.00  0.00    -0.202 A  
HETATM   17  C   UNL     1      -9.143  16.724  67.434  1.00  0.00    -0.221 A  
HETATM   18  C   UNL     1      -8.362  15.602  67.704  1.00  0.00    -0.168 A  
ENDROOT
BRANCH  12  19
HETATM   19  C   UNL     1     -11.094  15.303  71.748  1.00  0.00    -0.235 A  
HETATM   20  C   UNL     1     -10.041  14.631  71.116  1.00  0.00     1.963 A  
HETATM   21  C   UNL     1     -11.324  12.573  71.080  1.00  0.00     2.102 A  
HETATM   22  C   UNL     1     -12.346  13.223  71.775  1.00  0.00     0.093 A  
HETATM   23  C   UNL     1     -10.148  13.271  70.802  1.00  0.00     5.115 A  
HETATM   24  C   UNL     1     -12.192  14.557  72.180  1.00  0.00    -0.303 A  
BRANCH  21  25
HETATM   25  N   UNL     1     -11.538  11.240  70.662  1.00  0.00    -0.425 N  
HETATM   26  C   UNL     1     -10.570  10.433  70.069  1.00  0.00    -0.229 C  
HETATM   27  H   UNL     1     -12.465  10.841  70.804  1.00  0.00     0.000 HD 
HETATM   28  O   UNL     1      -9.397  10.749  69.924  1.00  0.00     0.229 OA 
BRANCH  26  29
HETATM   29  C   UNL     1     -10.970   9.041  69.683  1.00  0.00    -0.147 A  
HETATM   30  C   UNL     1     -12.289   8.848  69.204  1.00  0.00     2.650 A  
HETATM   31  C   UNL     1     -12.811   7.570  69.015  1.00  0.00     5.242 A  
HETATM   32  C   UNL     1     -12.029   6.465  69.300  1.00  0.00     0.661 A  
HETATM   33  C   UNL     1     -10.711   6.641  69.725  1.00  0.00    -0.304 A  
HETATM   34  C   UNL     1     -10.130   7.919  69.931  1.00  0.00    -0.197 A  
BRANCH  34  35
HETATM   35  C   UNL     1      -8.693   7.958  70.362  1.00  0.00    -0.137 A  
HETATM   36  C   UNL     1      -7.624   7.636  69.506  1.00  0.00    -0.098 A  
HETATM   37  C   UNL     1      -6.297   7.609  69.960  1.00  0.00    -0.034 A  
HETATM   38  C   UNL     1      -6.003   7.865  71.296  1.00  0.00    -0.034 A  
HETATM   39  C   UNL     1      -7.033   8.187  72.170  1.00  0.00    -0.090 A  
HETATM   40  C   UNL     1      -8.351   8.254  71.702  1.00  0.00    -0.187 A  
ENDBRANCH  34  35
ENDBRANCH  26  29
ENDBRANCH  21  25
ENDBRANCH  12  19
TORSDOF 4
ENDMDL
MODEL      155
REMARK 921   NORMALIZED FREE ENERGY PREDICTED BY IDOCK:   32.66 KCAL/MOL
REMARK 922        TOTAL FREE ENERGY PREDICTED BY IDOCK:   38.82 KCAL/MOL
REMARK 923 INTER-LIGAND FREE ENERGY PREDICTED BY IDOCK:   38.62 KCAL/MOL
REMARK 924 INTRA-LIGAND FREE ENERGY PREDICTED BY IDOCK:    0.19 KCAL/MOL
REMARK 927      BINDING AFFINITY PREDICTED BY RF-SCORE:    0.00 PKD
ROOT
HETATM    1  C   UNL     1     -10.790  17.416  64.308  1.00  0.00     2.601 C  
HETATM    2  C   UNL     1     -11.244  16.700  65.521  1.00  0.00     0.229 A  
HETATM    3  N   UNL     1     -10.484  16.170  66.460  1.00  0.00    -0.303 NA 
HETATM    4  C   UNL     1     -11.353  15.602  67.358  1.00  0.00    -0.163 A  
HETATM    5  H   UNL     1      -9.466  16.180  66.509  1.00  0.00     0.000 HD 
HETATM    6  C   UNL     1     -12.653  15.834  66.985  1.00  0.00     2.191 A  
HETATM    7  N   UNL     1     -12.577  16.523  65.807  1.00  0.00     3.424 NA 
HETATM    8  C   UNL     1     -13.885  15.417  67.681  1.00  0.00     7.979 C  
HETATM    9  C   UNL     1     -13.898  13.895  67.816  1.00  0.00     8.614 C  
HETATM   10  N   UNL     1     -12.788  13.215  68.509  1.00  0.00     1.159 N  
HETATM   11  C   UNL     1     -11.787  13.958  69.224  1.00  0.00    -0.348 A  
HETATM   12  C   UNL     1     -12.871  11.797  68.467  1.00  0.00     2.194 C  
HETATM   13  C   UNL     1     -11.455  13.566  70.533  1.00  0.00     0.186 A  
HETATM   14  O   UNL     1     -13.844  11.236  67.953  1.00  0.00     8.217 OA 
HETATM   15  C   UNL     1     -11.001  14.970  68.613  1.00  0.00    -0.261 A  
HETATM   16  C   UNL     1     -10.290  14.026  71.158  1.00  0.00     3.378 A  
HETATM   17  C   UNL     1      -9.829  15.417  69.250  1.00  0.00    -0.262 A  
HETATM   18  C   UNL     1      -9.458  14.925  70.500  1.00  0.00     1.144 A  
ENDROOT
BRANCH  12  19
HETATM   19  C   UNL     1     -11.827  10.900  69.055  1.00  0.00    -0.370 A  
HETATM   20  C   UNL     1     -10.503  11.356  69.041  1.00  0.00    -0.196 A  
HETATM   21  C   UNL     1      -9.699   9.171  69.719  1.00  0.00    -0.181 A  
HETATM   22  C   UNL     1     -11.024   8.735  69.806  1.00  0.00    -0.146 A  
HETATM   23  C   UNL     1      -9.450  10.503  69.388  1.00  0.00    -0.158 A  
HETATM   24  C   UNL     1     -12.081   9.622  69.558  1.00  0.00     0.554 A  
BRANCH  21  25
HETATM   25  N   UNL     1      -8.667   8.233  69.944  1.00  0.00    -0.132 N  
HETATM   26  C   UNL     1      -8.697   6.908  69.519  1.00  0.00    -0.133 C  
HETATM   27  H   UNL     1      -7.841   8.549  70.452  1.00  0.00     0.000 HD 
HETATM   28  O   UNL     1      -9.579   6.422  68.823  1.00  0.00    -0.126 OA 
BRANCH  26  29
HETATM   29  C   UNL     1      -7.514   6.047  69.846  1.00  0.00    -0.080 A  
HETATM   30  C   UNL     1      -7.483   5.435  71.122  1.00  0.00    -0.085 A  
HETATM   31  C   UNL     1      -6.341   4.788  71.588  1.00  0.00    -0.022 A  
HETATM   32  C   UNL     1      -5.211   4.743  70.792  1.00  0.00    -0.004 A  
HETATM   33  C   UNL     1      -5.243   5.299  69.512  1.00  0.00    -0.003 A  
HETATM   34  C   UNL     1      -6.381   5.965  68.988  1.00  0.00    -0.041 A  
BRANCH  34  35
HETATM   35  C   UNL     1      -6.284   6.491  67.586  1.00  0.00    -0.035 A  
HETATM   36  C   UNL     1      -6.526   5.698  66.450  1.00  0.00    -0.044 A  
HETATM   37  C   UNL     1      -6.354   6.198  65.150  1.00  0.00    -0.038 A  
HETATM   38  C   UNL     1      -5.894   7.496  64.949  1.00  0.00    -0.038 A  
HETATM   39  C   UNL     1      -5.645   8.307  66.047  1.00  0.00    -0.039 A  
HETATM   40  C   UNL     1      -5.860   7.817  67.341  1.00  0.00    -0.037 A  
ENDBRANCH  34  35
ENDBRANCH  26  29
ENDBRANCH  21  25
ENDBRANCH  12  19
TORSDOF 4
ENDMDL
MODEL      156
REMARK 921   NORMALIZED FREE ENERGY PREDICTED BY IDOCK:   36.35 KCAL/MOL
REMARK 922        TOTAL FREE ENERGY PREDICTED BY IDOCK:   43.37 KCAL/MOL
REMARK 923 INTER-LIGAND FREE ENERGY PREDICTED BY IDOCK:   39.32 KCAL/MOL
REMARK 924 INTRA-LIGAND FREE ENERGY PREDICTED BY IDOCK:    4.05 KCAL/MOL
REMARK 927      BINDING AFFINITY PREDICTED BY RF-SCORE:    0.00 PKD
ROOT
HETATM    1  C   UNL     1     -10.780   5.003  65.246  1.00  0.00     0.234 C  
HETATM    2  C   UNL     1     -10.911   5.770  66.505  1.00  0.00    -0.153 A  
HETATM    3  N   UNL     1     -11.392   6.990  66.644  1.00  0.00    -0.364 NA 
HETATM    4  C   UNL     1     -11.288   7.275  67.982  1.00  0.00     0.435 A  
HETATM    5  H   UNL     1     -11.764   7.593  65.911  1.00  0.00     0.000 HD 
HETATM    6  C   UNL     1     -10.784   6.199  68.668  1.00  0.00    -0.307 A  
HETATM    7  N   UNL     1     -10.534   5.247  67.720  1.00  0.00    -0.139 NA 
HETATM    8  C   UNL     1     -10.537   6.082  70.118  1.00  0.00    -0.341 C  
HETATM    9  C   UNL     1      -9.561   7.174  70.553  1.00  0.00    -0.169 C  
HETATM   10  N   UNL     1      -9.895   8.589  70.310  1.00  0.00    -0.179 N  
HETATM   11  C   UNL     1     -11.198   8.980  69.842  1.00  0.00    -0.079 A  
HETATM   12  C   UNL     1      -8.857   9.492  70.663  1.00  0.00    -0.148 C  
HETATM   13  C   UNL     1     -11.873  10.023  70.501  1.00  0.00    -0.387 A  
HETATM   14  O   UNL     1      -7.819   9.083  71.195  1.00  0.00    -0.144 OA 
HETATM   15  C   UNL     1     -11.767   8.470  68.646  1.00  0.00     1.656 A  
HETATM   16  C   UNL     1     -12.974  10.661  69.918  1.00  0.00     0.175 A  
HETATM   17  C   UNL     1     -12.869   9.127  68.069  1.00  0.00     9.333 A  
HETATM   18  C   UNL     1     -13.450  10.234  68.684  1.00  0.00     6.296 A  
ENDROOT
BRANCH  12  19
HETATM   19  C   UNL     1      -8.952  10.971  70.453  1.00  0.00     2.533 A  
HETATM   20  C   UNL     1     -10.198  11.489  70.080  1.00  0.00     1.522 A  
HETATM   21  C   UNL     1      -9.202  13.647  69.600  1.00  0.00     1.443 A  
HETATM   22  C   UNL     1      -7.972  13.153  70.040  1.00  0.00     2.344 A  
HETATM   23  C   UNL     1     -10.324  12.822  69.674  1.00  0.00     0.890 A  
HETATM   24  C   UNL     1      -7.870  11.849  70.544  1.00  0.00     4.128 A  
BRANCH  21  25
HETATM   25  N   UNL     1      -9.249  14.955  69.068  1.00  0.00    -0.264 N  
HETATM   26  C   UNL     1      -9.063  16.118  69.812  1.00  0.00     0.297 C  
HETATM   27  H   UNL     1      -9.433  15.056  68.070  1.00  0.00     0.000 HD 
HETATM   28  O   UNL     1      -8.744  16.143  70.993  1.00  0.00     3.219 OA 
BRANCH  26  29
HETATM   29  C   UNL     1      -9.150  17.427  69.086  1.00  0.00     0.039 A  
HETATM   30  C   UNL     1     -10.084  18.378  69.564  1.00  0.00     0.249 A  
HETATM   31  C   UNL     1     -10.377  19.532  68.840  1.00  0.00    -0.254 A  
HETATM   32  C   UNL     1      -9.748  19.755  67.628  1.00  0.00    -0.490 A  
HETATM   33  C   UNL     1      -8.789  18.850  67.170  1.00  0.00    -0.298 A  
HETATM   34  C   UNL     1      -8.450  17.663  67.869  1.00  0.00    -0.233 A  
BRANCH  34  35
HETATM   35  C   UNL     1      -7.381  16.796  67.272  1.00  0.00    -0.206 A  
HETATM   36  C   UNL     1      -6.240  17.313  66.633  1.00  0.00    -0.248 A  
HETATM   37  C   UNL     1      -5.295  16.478  66.018  1.00  0.00     1.439 A  
HETATM   38  C   UNL     1      -5.486  15.099  65.990  1.00  0.00     5.515 A  
HETATM   39  C   UNL     1      -6.600  14.553  66.611  1.00  0.00     2.223 A  
HETATM   40  C   UNL     1      -7.518  15.389  67.260  1.00  0.00    -0.242 A  
ENDBRANCH  34  35
ENDBRANCH  26  29
ENDBRANCH  21  25
ENDBRANCH  12  19
TORSDOF 4
ENDMDL
MODEL      157
REMARK 921   NORMALIZED FREE ENERGY PREDICTED BY IDOCK:   36.66 KCAL/MOL
REMARK 922        TOTAL FREE ENERGY PREDICTED BY IDOCK:   43.75 KCAL/MOL
REMARK 923 INTER-LIGAND FREE ENERGY PREDICTED BY IDOCK:   42.44 KCAL/MOL
REMARK 924 INTRA-LIGAND FREE ENERGY PREDICTED BY IDOCK:    1.31 KCAL/MOL
REMARK 927      BINDING AFFINITY PREDICTED BY RF-SCORE:    0.00 PKD
ROOT
HETATM    1  C   UNL     1     -11.320   6.578  65.946  1.00  0.00     2.585 C  
HETATM    2  C   UNL     1     -11.264   8.013  65.588  1.00  0.00     5.571 A  
HETATM    3  N   UNL     1     -10.204   8.797  65.621  1.00  0.00    -0.056 NA 
HETATM    4  C   UNL     1     -10.650  10.033  65.227  1.00  0.00     0.396 A  
HETATM    5  H   UNL     1      -9.253   8.539  65.883  1.00  0.00     0.000 HD 
HETATM    6  C   UNL     1     -11.983   9.986  64.905  1.00  0.00     6.322 A  
HETATM    7  N   UNL     1     -12.372   8.699  65.148  1.00  0.00    14.294 NA 
HETATM    8  C   UNL     1     -12.838  11.086  64.418  1.00  0.00     2.966 C  
HETATM    9  C   UNL     1     -12.837  12.218  65.444  1.00  0.00     0.835 C  
HETATM   10  N   UNL     1     -11.561  12.840  65.841  1.00  0.00    -0.360 N  
HETATM   11  C   UNL     1     -10.336  12.538  65.153  1.00  0.00    -0.289 A  
HETATM   12  C   UNL     1     -11.692  13.802  66.879  1.00  0.00    -0.395 C  
HETATM   13  C   UNL     1      -9.513  13.598  64.731  1.00  0.00     0.811 A  
HETATM   14  O   UNL     1     -12.805  14.109  67.319  1.00  0.00     0.309 OA 
HETATM   15  C   UNL     1      -9.838  11.215  65.020  1.00  0.00    -0.315 A  
HETATM   16  C   UNL     1      -8.183  13.381  64.353  1.00  0.00     7.672 A  
HETATM   17  C   UNL     1      -8.496  11.014  64.647  1.00  0.00     0.170 A  
HETATM   18  C   UNL     1      -7.665  12.091  64.346  1.00  0.00     3.436 A  
ENDROOT
BRANCH  12  19
HETATM   19  C   UNL     1     -10.524  14.520  67.480  1.00  0.00    -0.253 A  
HETATM   20  C   UNL     1     -10.663  14.991  68.791  1.00  0.00    -0.241 A  
HETATM   21  C   UNL     1      -8.603  16.256  68.598  1.00  0.00    -0.222 A  
HETATM   22  C   UNL     1      -8.425  15.729  67.316  1.00  0.00    -0.212 A  
HETATM   23  C   UNL     1      -9.700  15.837  69.352  1.00  0.00    -0.286 A  
HETATM   24  C   UNL     1      -9.338  14.800  66.798  1.00  0.00    -0.268 A  
BRANCH  21  25
HETATM   25  N   UNL     1      -7.676  17.215  69.065  1.00  0.00    -0.210 N  
HETATM   26  C   UNL     1      -8.023  18.447  69.612  1.00  0.00     0.721 C  
HETATM   27  H   UNL     1      -6.684  16.989  68.998  1.00  0.00     0.000 HD 
HETATM   28  O   UNL     1      -9.170  18.808  69.838  1.00  0.00     0.726 OA 
BRANCH  26  29
HETATM   29  C   UNL     1      -6.909  19.348  70.056  1.00  0.00    -0.011 A  
HETATM   30  C   UNL     1      -6.738  19.539  71.448  1.00  0.00     0.921 A  
HETATM   31  C   UNL     1      -5.868  20.507  71.944  1.00  0.00    -0.080 A  
HETATM   32  C   UNL     1      -5.157  21.301  71.063  1.00  0.00     0.064 A  
HETATM   33  C   UNL     1      -5.278  21.090  69.688  1.00  0.00    -0.395 A  
HETATM   34  C   UNL     1      -6.147  20.116  69.131  1.00  0.00    -0.356 A  
BRANCH  34  35
HETATM   35  C   UNL     1      -6.156  19.979  67.636  1.00  0.00    -0.224 A  
HETATM   36  C   UNL     1      -7.192  20.478  66.826  1.00  0.00    -0.331 A  
HETATM   37  C   UNL     1      -7.210  20.269  65.438  1.00  0.00    -0.208 A  
HETATM   38  C   UNL     1      -6.211  19.518  64.826  1.00  0.00    -0.310 A  
HETATM   39  C   UNL     1      -5.173  19.010  65.594  1.00  0.00    -0.185 A  
HETATM   40  C   UNL     1      -5.137  19.259  66.972  1.00  0.00    -0.151 A  
ENDBRANCH  34  35
ENDBRANCH  26  29
ENDBRANCH  21  25
ENDBRANCH  12  19
TORSDOF 4
ENDMDL
MODEL      158
REMARK 921   NORMALIZED FREE ENERGY PREDICTED BY IDOCK:   39.74 KCAL/MOL
REMARK 922        TOTAL FREE ENERGY PREDICTED BY IDOCK:   47.56 KCAL/MOL
REMARK 923 INTER-LIGAND FREE ENERGY PREDICTED BY IDOCK:   46.14 KCAL/MOL
REMARK 924 INTRA-LIGAND FREE ENERGY PREDICTED BY IDOCK:    1.42 KCAL/MOL
REMARK 927      BINDING AFFINITY PREDICTED BY RF-SCORE:    0.00 PKD
ROOT
HETATM    1  C   UNL     1     -13.367  16.364  70.188  1.00  0.00     3.328 C  
HETATM    2  C   UNL     1     -12.495  15.261  70.651  1.00  0.00    -0.406 A  
HETATM    3  N   UNL     1     -11.551  14.653  69.959  1.00  0.00    -0.272 NA 
HETATM    4  C   UNL     1     -11.042  13.694  70.798  1.00  0.00     1.313 A  
HETATM    5  H   UNL     1     -11.260  14.854  69.003  1.00  0.00     0.000 HD 
HETATM    6  C   UNL     1     -11.649  13.755  72.026  1.00  0.00     1.793 A  
HETATM    7  N   UNL     1     -12.583  14.747  71.923  1.00  0.00    -0.321 NA 
HETATM    8  C   UNL     1     -11.382  12.920  73.214  1.00  0.00     9.026 C  
HETATM    9  C   UNL     1     -11.609  11.452  72.859  1.00  0.00     8.096 C  
HETATM   10  N   UNL     1     -10.849  10.842  71.754  1.00  0.00     2.848 N  
HETATM   11  C   UNL     1      -9.764  11.540  71.119  1.00  0.00     7.729 A  
HETATM   12  C   UNL     1     -11.234   9.506  71.461  1.00  0.00    -0.367 C  
HETATM   13  C   UNL     1      -8.540  10.872  70.934  1.00  0.00     4.233 A  
HETATM   14  O   UNL     1     -12.081   8.928  72.151  1.00  0.00    -0.358 OA 
HETATM   15  C   UNL     1      -9.920  12.820  70.524  1.00  0.00     4.906 A  
HETATM   16  C   UNL     1      -7.567  11.364  70.056  1.00  0.00     1.038 A  
HETATM   17  C   UNL     1      -8.937  13.296  69.637  1.00  0.00     1.810 A  
HETATM   18  C   UNL     1      -7.783  12.559  69.380  1.00  0.00     0.612 A  
ENDROOT
BRANCH  12  19
HETATM   19  C   UNL     1     -10.638   8.709  70.343  1.00  0.00    -0.244 A  
HETATM   20  C   UNL     1     -11.248   8.806  69.086  1.00  0.00     0.263 A  
HETATM   21  C   UNL     1      -9.917   6.958  68.253  1.00  0.00    -0.153 A  
HETATM   22  C   UNL     1      -9.256   6.908  69.483  1.00  0.00    -0.148 A  
HETATM   23  C   UNL     1     -10.877   7.949  68.045  1.00  0.00    -0.026 A  
HETATM   24  C   UNL     1      -9.558   7.836  70.489  1.00  0.00    -0.167 A  
BRANCH  21  25
HETATM   25  N   UNL     1      -9.604   5.981  67.281  1.00  0.00    -0.112 N  
HETATM   26  C   UNL     1     -10.206   5.892  66.029  1.00  0.00     0.178 C  
HETATM   27  H   UNL     1      -8.888   5.293  67.513  1.00  0.00     0.000 HD 
HETATM   28  O   UNL     1     -11.008   6.702  65.585  1.00  0.00     1.967 OA 
BRANCH  26  29
HETATM   29  C   UNL     1      -9.755   4.788  65.120  1.00  0.00    -0.068 A  
HETATM   30  C   UNL     1     -10.152   4.855  63.763  1.00  0.00     0.716 A  
HETATM   31  C   UNL     1      -9.955   3.782  62.896  1.00  0.00    -0.157 A  
HETATM   32  C   UNL     1      -9.360   2.625  63.368  1.00  0.00    -0.096 A  
HETATM   33  C   UNL     1      -8.918   2.564  64.690  1.00  0.00    -0.119 A  
HETATM   34  C   UNL     1      -9.092   3.629  65.613  1.00  0.00    -0.150 A  
BRANCH  34  35
HETATM   35  C   UNL     1      -8.542   3.436  66.996  1.00  0.00    -0.119 A  
HETATM   36  C   UNL     1      -8.896   2.351  67.818  1.00  0.00    -0.165 A  
HETATM   37  C   UNL     1      -8.423   2.237  69.135  1.00  0.00    -0.089 A  
HETATM   38  C   UNL     1      -7.615   3.230  69.681  1.00  0.00    -0.044 A  
HETATM   39  C   UNL     1      -7.246   4.315  68.899  1.00  0.00    -0.055 A  
HETATM   40  C   UNL     1      -7.685   4.401  67.572  1.00  0.00    -0.085 A  
ENDBRANCH  34  35
ENDBRANCH  26  29
ENDBRANCH  21  25
ENDBRANCH  12  19
TORSDOF 4
ENDMDL
MODEL      159
REMARK 921   NORMALIZED FREE ENERGY PREDICTED BY IDOCK:   51.85 KCAL/MOL
REMARK 922        TOTAL FREE ENERGY PREDICTED BY IDOCK:   62.49 KCAL/MOL
REMARK 923 INTER-LIGAND FREE ENERGY PREDICTED BY IDOCK:   59.57 KCAL/MOL
REMARK 924 INTRA-LIGAND FREE ENERGY PREDICTED BY IDOCK:    2.92 KCAL/MOL
REMARK 927      BINDING AFFINITY PREDICTED BY RF-SCORE:    0.00 PKD
ROOT
HETATM    1  C   UNL     1      -9.759   3.646  73.998  1.00  0.00    -0.141 C  
HETATM    2  C   UNL     1      -8.842   4.727  73.573  1.00  0.00    -0.105 A  
HETATM    3  N   UNL     1      -9.096   6.021  73.554  1.00  0.00    -0.131 NA 
HETATM    4  C   UNL     1      -7.958   6.612  73.066  1.00  0.00    -0.102 A  
HETATM    5  H   UNL     1      -9.957   6.485  73.842  1.00  0.00     0.000 HD 
HETATM    6  C   UNL     1      -6.987   5.671  72.834  1.00  0.00    -0.084 A  
HETATM    7  N   UNL     1      -7.560   4.470  73.147  1.00  0.00    -0.085 NA 
HETATM    8  C   UNL     1      -5.616   5.886  72.332  1.00  0.00    -0.031 C  
HETATM    9  C   UNL     1      -5.680   6.567  70.966  1.00  0.00    -0.027 C  
HETATM   10  N   UNL     1      -6.372   7.861  70.828  1.00  0.00    -0.037 N  
HETATM   11  C   UNL     1      -6.827   8.591  71.980  1.00  0.00    -0.087 A  
HETATM   12  C   UNL     1      -6.451   8.329  69.489  1.00  0.00    -0.037 C  
HETATM   13  C   UNL     1      -6.518   9.959  72.086  1.00  0.00     0.890 A  
HETATM   14  O   UNL     1      -5.906   7.708  68.570  1.00  0.00    -0.026 OA 
HETATM   15  C   UNL     1      -7.713   8.034  72.939  1.00  0.00    -0.177 A  
HETATM   16  C   UNL     1      -7.186  10.789  72.993  1.00  0.00     7.271 A  
HETATM   17  C   UNL     1      -8.383   8.883  73.840  1.00  0.00     0.667 A  
HETATM   18  C   UNL     1      -8.144  10.256  73.846  1.00  0.00     7.312 A  
ENDROOT
BRANCH  12  19
HETATM   19  C   UNL     1      -7.157   9.592  69.104  1.00  0.00    -0.062 A  
HETATM   20  C   UNL     1      -7.542  10.454  70.138  1.00  0.00     0.064 A  
HETATM   21  C   UNL     1      -8.863  11.779  68.594  1.00  0.00    -0.060 A  
HETATM   22  C   UNL     1      -8.421  10.963  67.550  1.00  0.00    -0.123 A  
HETATM   23  C   UNL     1      -8.373  11.550  69.881  1.00  0.00     1.657 A  
HETATM   24  C   UNL     1      -7.506   9.929  67.795  1.00  0.00    -0.090 A  
BRANCH  21  25
HETATM   25  N   UNL     1      -9.812  12.785  68.306  1.00  0.00    -0.225 N  
HETATM   26  C   UNL     1     -11.150  12.546  68.007  1.00  0.00    -0.245 C  
HETATM   27  H   UNL     1      -9.494  13.754  68.318  1.00  0.00     0.000 HD 
HETATM   28  O   UNL     1     -11.685  11.447  68.048  1.00  0.00    -0.484 OA 
BRANCH  26  29
HETATM   29  C   UNL     1     -12.020  13.734  67.722  1.00  0.00    -0.391 A  
HETATM   30  C   UNL     1     -13.289  13.781  68.348  1.00  0.00     4.082 A  
HETATM   31  C   UNL     1     -14.240  14.734  67.989  1.00  0.00    11.734 A  
HETATM   32  C   UNL     1     -13.943  15.654  67.000  1.00  0.00     8.278 A  
HETATM   33  C   UNL     1     -12.678  15.651  66.409  1.00  0.00     2.238 A  
HETATM   34  C   UNL     1     -11.673  14.705  66.740  1.00  0.00    -0.355 A  
BRANCH  34  35
HETATM   35  C   UNL     1     -10.349  14.837  66.046  1.00  0.00    -0.318 A  
HETATM   36  C   UNL     1      -9.630  16.044  65.988  1.00  0.00    -0.385 A  
HETATM   37  C   UNL     1      -8.431  16.156  65.266  1.00  0.00     2.394 A  
HETATM   38  C   UNL     1      -7.938  15.071  64.547  1.00  0.00    11.496 A  
HETATM   39  C   UNL     1      -8.622  13.864  64.582  1.00  0.00     5.465 A  
HETATM   40  C   UNL     1      -9.795  13.747  65.338  1.00  0.00    -0.171 A  
ENDBRANCH  34  35
ENDBRANCH  26  29
ENDBRANCH  21  25
ENDBRANCH  12  19
TORSDOF 4
ENDMDL
MODEL      160
REMARK 921   NORMALIZED FREE ENERGY PREDICTED BY IDOCK:   64.93 KCAL/MOL
REMARK 922        TOTAL FREE ENERGY PREDICTED BY IDOCK:   78.63 KCAL/MOL
REMARK 923 INTER-LIGAND FREE ENERGY PREDICTED BY IDOCK:   75.31 KCAL/MOL
REMARK 924 INTRA-LIGAND FREE ENERGY PREDICTED BY IDOCK:    3.32 KCAL/MOL
REMARK 927      BINDING AFFINITY PREDICTED BY RF-SCORE:    0.00 PKD
ROOT
HETATM    1  C   UNL     1     -13.363  16.367  70.197  1.00  0.00     3.328 C  
HETATM    2  C   UNL     1     -12.474  15.300  70.710  1.00  0.00    -0.402 A  
HETATM    3  N   UNL     1     -11.503  14.693  70.055  1.00  0.00    -0.262 NA 
HETATM    4  C   UNL     1     -10.987  13.774  70.934  1.00  0.00     1.693 A  
HETATM    5  H   UNL     1     -11.200  14.870  69.098  1.00  0.00     0.000 HD 
HETATM    6  C   UNL     1     -11.619  13.859  72.149  1.00  0.00     1.655 A  
HETATM    7  N   UNL     1     -12.573  14.825  71.997  1.00  0.00    -0.317 NA 
HETATM    8  C   UNL     1     -11.353  13.070  73.367  1.00  0.00     8.667 C  
HETATM    9  C   UNL     1     -11.539  11.586  73.057  1.00  0.00     9.174 C  
HETATM   10  N   UNL     1     -10.745  10.959  71.985  1.00  0.00     4.893 N  
HETATM   11  C   UNL     1      -9.666  11.663  71.347  1.00  0.00    10.173 A  
HETATM   12  C   UNL     1     -11.094   9.606  71.729  1.00  0.00     0.012 C  
HETATM   13  C   UNL     1      -8.423  11.019  71.205  1.00  0.00     6.729 A  
HETATM   14  O   UNL     1     -11.939   9.030  72.423  1.00  0.00    -0.316 OA 
HETATM   15  C   UNL     1      -9.841  12.918  70.708  1.00  0.00     6.751 A  
HETATM   16  C   UNL     1      -7.447  11.505  70.329  1.00  0.00     1.715 A  
HETATM   17  C   UNL     1      -8.853  13.389  69.824  1.00  0.00     2.082 A  
HETATM   18  C   UNL     1      -7.677  12.672  69.610  1.00  0.00     1.094 A  
ENDROOT
BRANCH  12  19
HETATM   19  C   UNL     1     -10.459   8.788  70.648  1.00  0.00    -0.253 A  
HETATM   20  C   UNL     1      -9.474   9.405  69.869  1.00  0.00    -0.235 A  
HETATM   21  C   UNL     1      -9.481   7.544  68.314  1.00  0.00    -0.144 A  
HETATM   22  C   UNL     1     -10.411   6.895  69.129  1.00  0.00    -0.207 A  
HETATM   23  C   UNL     1      -8.976   8.780  68.721  1.00  0.00    -0.138 A  
HETATM   24  C   UNL     1     -10.830   7.479  70.333  1.00  0.00    -0.255 A  
BRANCH  21  25
HETATM   25  N   UNL     1      -9.114   6.933  67.094  1.00  0.00    -0.128 N  
HETATM   26  C   UNL     1      -8.226   7.481  66.172  1.00  0.00    -0.125 C  
HETATM   27  H   UNL     1      -9.529   6.028  66.873  1.00  0.00     0.000 HD 
HETATM   28  O   UNL     1      -7.588   8.510  66.349  1.00  0.00    -0.088 OA 
BRANCH  26  29
HETATM   29  C   UNL     1      -7.952   6.697  64.923  1.00  0.00    -0.121 A  
HETATM   30  C   UNL     1      -6.858   7.105  64.122  1.00  0.00    -0.051 A  
HETATM   31  C   UNL     1      -6.650   6.570  62.853  1.00  0.00    -0.038 A  
HETATM   32  C   UNL     1      -7.530   5.623  62.360  1.00  0.00    -0.053 A  
HETATM   33  C   UNL     1      -8.584   5.175  63.158  1.00  0.00    -0.091 A  
HETATM   34  C   UNL     1      -8.838   5.684  64.459  1.00  0.00     0.135 A  
BRANCH  34  35
HETATM   35  C   UNL     1      -9.990   5.091  65.215  1.00  0.00     0.093 A  
HETATM   36  C   UNL     1     -11.333   5.401  64.936  1.00  0.00     2.326 A  
HETATM   37  C   UNL     1     -12.386   4.888  65.709  1.00  0.00     4.863 A  
HETATM   38  C   UNL     1     -12.122   4.082  66.813  1.00  0.00    10.545 A  
HETATM   39  C   UNL     1     -10.808   3.756  67.118  1.00  0.00     2.828 A  
HETATM   40  C   UNL     1      -9.764   4.235  66.317  1.00  0.00    -0.225 A  
ENDBRANCH  34  35
ENDBRANCH  26  29
ENDBRANCH  21  25
ENDBRANCH  12  19
TORSDOF 4
ENDMDL
MODEL      161
REMARK 921   NORMALIZED FREE ENERGY PREDICTED BY IDOCK:   85.92 KCAL/MOL
REMARK 922        TOTAL FREE ENERGY PREDICTED BY IDOCK:  104.54 KCAL/MOL
REMARK 923 INTER-LIGAND FREE ENERGY PREDICTED BY IDOCK:  100.32 KCAL/MOL
REMARK 924 INTRA-LIGAND FREE ENERGY PREDICTED BY IDOCK:    4.22 KCAL/MOL
REMARK 927      BINDING AFFINITY PREDICTED BY RF-SCORE:    0.00 PKD
ROOT
HETATM    1  C   UNL     1     -13.340   2.964  72.316  1.00  0.00     5.040 C  
HETATM    2  C   UNL     1     -12.435   3.662  71.375  1.00  0.00     9.250 A  
HETATM    3  N   UNL     1     -11.366   4.371  71.682  1.00  0.00     1.062 NA 
HETATM    4  C   UNL     1     -10.877   4.833  70.486  1.00  0.00     0.600 A  
HETATM    5  H   UNL     1     -10.984   4.541  72.612  1.00  0.00     0.000 HD 
HETATM    6  C   UNL     1     -11.628   4.357  69.441  1.00  0.00     6.914 A  
HETATM    7  N   UNL     1     -12.627   3.622  70.014  1.00  0.00    17.740 NA 
HETATM    8  C   UNL     1     -11.430   4.596  67.998  1.00  0.00     4.571 C  
HETATM    9  C   UNL     1     -11.484   6.097  67.723  1.00  0.00     0.563 C  
HETATM   10  N   UNL     1     -10.549   7.001  68.417  1.00  0.00    -0.207 N  
HETATM   11  C   UNL     1      -9.463   6.487  69.206  1.00  0.00    -0.140 A  
HETATM   12  C   UNL     1     -10.779   8.378  68.152  1.00  0.00    -0.034 C  
HETATM   13  C   UNL     1      -8.172   7.009  69.008  1.00  0.00    -0.125 A  
HETATM   14  O   UNL     1     -11.647   8.729  67.346  1.00  0.00     1.221 OA 
HETATM   15  C   UNL     1      -9.659   5.592  70.290  1.00  0.00    -0.227 A  
HETATM   16  C   UNL     1      -7.149   6.797  69.941  1.00  0.00    -0.071 A  
HETATM   17  C   UNL     1      -8.624   5.395  71.222  1.00  0.00    -0.128 A  
HETATM   18  C   UNL     1      -7.387   6.018  71.067  1.00  0.00    -0.080 A  
ENDROOT
BRANCH  12  19
HETATM   19  C   UNL     1      -9.988   9.476  68.791  1.00  0.00    -0.185 A  
HETATM   20  C   UNL     1     -10.030   9.571  70.187  1.00  0.00    -0.285 A  
HETATM   21  C   UNL     1      -8.919  11.726  70.113  1.00  0.00     3.378 A  
HETATM   22  C   UNL     1      -8.812  11.599  68.726  1.00  0.00    -0.017 A  
HETATM   23  C   UNL     1      -9.483  10.680  70.843  1.00  0.00     2.835 A  
HETATM   24  C   UNL     1      -9.268  10.440  68.082  1.00  0.00    -0.145 A  
BRANCH  21  25
HETATM   25  N   UNL     1      -8.478  12.926  70.714  1.00  0.00     6.493 N  
HETATM   26  C   UNL     1      -7.143  13.274  70.897  1.00  0.00     2.773 C  
HETATM   27  H   UNL     1      -9.188  13.585  71.036  1.00  0.00     0.000 HD 
HETATM   28  O   UNL     1      -6.193  12.626  70.478  1.00  0.00    -0.126 OA 
BRANCH  26  29
HETATM   29  C   UNL     1      -6.852  14.588  71.558  1.00  0.00     1.421 A  
HETATM   30  C   UNL     1      -5.493  14.941  71.742  1.00  0.00     0.043 A  
HETATM   31  C   UNL     1      -5.128  16.038  72.520  1.00  0.00     1.061 A  
HETATM   32  C   UNL     1      -6.110  16.798  73.129  1.00  0.00     4.104 A  
HETATM   33  C   UNL     1      -7.455  16.491  72.916  1.00  0.00    13.224 A  
HETATM   34  C   UNL     1      -7.881  15.389  72.130  1.00  0.00     6.383 A  
BRANCH  34  35
HETATM   35  C   UNL     1      -9.359  15.194  71.964  1.00  0.00     4.991 A  
HETATM   36  C   UNL     1     -10.317  15.975  72.635  1.00  0.00     4.113 A  
HETATM   37  C   UNL     1     -11.692  15.719  72.517  1.00  0.00    -0.566 A  
HETATM   38  C   UNL     1     -12.147  14.647  71.755  1.00  0.00    -0.391 A  
HETATM   39  C   UNL     1     -11.230  13.855  71.078  1.00  0.00     1.018 A  
HETATM   40  C   UNL     1      -9.862  14.141  71.165  1.00  0.00     4.245 A  
ENDBRANCH  34  35
ENDBRANCH  26  29
ENDBRANCH  21  25
ENDBRANCH  12  19
TORSDOF 4
ENDMDL
