MODEL        1
REMARK 921   NORMALIZED FREE ENERGY PREDICTED BY IDOCK:   -7.51 KCAL/MOL
REMARK 922        TOTAL FREE ENERGY PREDICTED BY IDOCK:  -12.22 KCAL/MOL
REMARK 923 INTER-LIGAND FREE ENERGY PREDICTED BY IDOCK:  -11.02 KCAL/MOL
REMARK 924 INTRA-LIGAND FREE ENERGY PREDICTED BY IDOCK:   -1.20 KCAL/MOL
REMARK 927      BINDING AFFINITY PREDICTED BY RF-SCORE:    0.00 PKD
ROOT
HETATM    1  C   UNL     1     -12.196  15.700  70.093  1.00  0.00    -0.361 C  
HETATM    2  O   UNL     1     -10.928  16.165  69.642  1.00  0.00    -0.299 OA 
ENDROOT
BRANCH   2   3
HETATM    3  C   UNL     1     -10.638  15.924  68.317  1.00  0.00    -0.276 A  
HETATM    4  C   UNL     1     -10.483  17.080  67.499  1.00  0.00    -0.334 A  
HETATM    5  C   UNL     1     -10.162  16.947  66.138  1.00  0.00    -0.352 A  
HETATM    6  C   UNL     1     -10.625  11.336  64.913  1.00  0.00    -0.300 C  
HETATM    7  N   UNL     1      -9.635  12.267  66.709  1.00  0.00    -0.212 NA 
HETATM    8  C   UNL     1     -10.066  15.689  65.558  1.00  0.00    -0.395 A  
HETATM    9  C   UNL     1     -10.079  12.320  68.013  1.00  0.00    -0.206 A  
HETATM   10  C   UNL     1     -10.226  14.578  66.371  1.00  0.00    -0.293 A  
HETATM   11  C   UNL     1      -9.443  11.117  65.852  1.00  0.00    -0.215 C  
HETATM   12  C   UNL     1     -10.464  14.640  67.757  1.00  0.00    -0.246 A  
HETATM   13  N   UNL     1     -10.530  13.432  68.533  1.00  0.00    -0.251 NA 
HETATM   14  C   UNL     1     -10.149  13.225  65.852  1.00  0.00    -0.291 A  
HETATM   15  N   UNL     1     -10.668  12.824  64.714  1.00  0.00    -0.300 NA 
BRANCH   4  16
HETATM   16  O   UNL     1     -10.638  18.319  68.093  1.00  0.00    -0.361 OA 
BRANCH  16  17
HETATM   17  C   UNL     1     -10.777  19.420  67.179  1.00  0.00    -0.483 C  
BRANCH  17  18
HETATM   18  C   UNL     1      -9.699  20.465  67.463  1.00  0.00    -0.571 C  
BRANCH  18  19
HETATM   19  C   UNL     1      -8.329  20.074  66.882  1.00  0.00    -0.326 C  
BRANCH  19  20
HETATM   20  N   UNL     1      -7.203  20.241  67.817  1.00  0.00    -0.295 NA 
HETATM   21  O   UNL     1      -5.876  17.650  68.268  1.00  0.00    -0.156 OA 
HETATM   22  C   UNL     1      -7.345  19.442  69.057  1.00  0.00    -0.360 C  
HETATM   23  C   UNL     1      -5.909  19.867  67.194  1.00  0.00    -0.172 C  
HETATM   24  C   UNL     1      -5.701  18.350  67.029  1.00  0.00    -0.145 C  
HETATM   25  C   UNL     1      -7.160  17.932  68.838  1.00  0.00    -0.264 C  
ENDBRANCH  19  20
ENDBRANCH  18  19
ENDBRANCH  17  18
ENDBRANCH  16  17
ENDBRANCH   4  16
BRANCH   9  26
HETATM   26  N   UNL     1     -10.229  11.245  68.873  1.00  0.00    -0.264 N  
HETATM   27  O   UNL     1     -12.490  10.775  68.993  1.00  0.00    -0.379 OA 
HETATM   28  H   UNL     1      -9.348  10.807  69.143  1.00  0.00     0.000 HD 
HETATM   29  C   UNL     1     -11.353  10.649  69.438  1.00  0.00    -0.284 C  
BRANCH  29  30
HETATM   30  C   UNL     1     -11.143   9.730  70.585  1.00  0.00    -0.398 A  
HETATM   31  N   UNL     1      -9.785   8.429  72.097  1.00  0.00    -0.271 NA 
HETATM   32  C   UNL     1      -9.933   9.240  71.026  1.00  0.00    -0.293 A  
HETATM   33  C   UNL     1     -10.915   8.073  72.733  1.00  0.00    -0.382 A  
HETATM   34  N   UNL     1     -12.132   8.507  72.418  1.00  0.00    -0.383 NA 
HETATM   35  N   UNL     1     -10.783   7.249  73.836  1.00  0.00    -0.556 NA 
HETATM   36  H1  UNL     1     -11.640   6.979  74.319  1.00  0.00     0.000 HD 
HETATM   37  C   UNL     1     -12.222   9.321  71.343  1.00  0.00    -0.349 A  
HETATM   38  H2  UNL     1     -10.137   7.674  74.502  1.00  0.00     0.000 HD 
ENDBRANCH  29  30
ENDBRANCH   9  26
ENDBRANCH   2   3
TORSDOF 8
ENDMDL
MODEL        2
REMARK 921   NORMALIZED FREE ENERGY PREDICTED BY IDOCK:   -7.50 KCAL/MOL
REMARK 922        TOTAL FREE ENERGY PREDICTED BY IDOCK:  -12.21 KCAL/MOL
REMARK 923 INTER-LIGAND FREE ENERGY PREDICTED BY IDOCK:  -10.91 KCAL/MOL
REMARK 924 INTRA-LIGAND FREE ENERGY PREDICTED BY IDOCK:   -1.30 KCAL/MOL
REMARK 927      BINDING AFFINITY PREDICTED BY RF-SCORE:    0.00 PKD
ROOT
HETATM    1  C   UNL     1      -8.221  10.187  69.275  1.00  0.00    -0.156 C  
HETATM    2  O   UNL     1      -9.235   9.430  68.620  1.00  0.00    -0.131 OA 
ENDROOT
BRANCH   2   3
HETATM    3  C   UNL     1      -9.520   9.805  67.325  1.00  0.00    -0.153 A  
HETATM    4  C   UNL     1      -9.038   8.931  66.310  1.00  0.00    -0.190 A  
HETATM    5  C   UNL     1      -9.296   9.207  64.957  1.00  0.00    -0.120 A  
HETATM    6  C   UNL     1     -11.550  14.506  64.792  1.00  0.00    -0.413 C  
HETATM    7  N   UNL     1     -12.074  12.841  66.215  1.00  0.00    -0.527 NA 
HETATM    8  C   UNL     1      -9.956  10.372  64.589  1.00  0.00    -0.408 A  
HETATM    9  C   UNL     1     -11.745  12.702  67.547  1.00  0.00    -0.368 A  
HETATM   10  C   UNL     1     -10.410  11.212  65.594  1.00  0.00    -0.311 A  
HETATM   11  C   UNL     1     -12.747  13.932  65.544  1.00  0.00    -0.499 C  
HETATM   12  C   UNL     1     -10.262  10.952  66.969  1.00  0.00    -0.214 A  
HETATM   13  N   UNL     1     -10.844  11.840  67.939  1.00  0.00    -0.201 NA 
HETATM   14  C   UNL     1     -11.104  12.453  65.306  1.00  0.00    -0.303 A  
HETATM   15  N   UNL     1     -10.774  13.297  64.354  1.00  0.00    -0.403 NA 
BRANCH   4  16
HETATM   16  O   UNL     1      -8.338   7.805  66.703  1.00  0.00    -0.119 OA 
BRANCH  16  17
HETATM   17  C   UNL     1      -8.961   6.553  66.373  1.00  0.00    -0.147 C  
BRANCH  17  18
HETATM   18  C   UNL     1     -10.085   6.259  67.364  1.00  0.00    -0.191 C  
BRANCH  18  19
HETATM   19  C   UNL     1      -9.564   5.987  68.786  1.00  0.00    -0.129 C  
BRANCH  19  20
HETATM   20  N   UNL     1     -10.576   5.452  69.712  1.00  0.00    -0.313 NA 
HETATM   21  O   UNL     1     -10.645   7.071  72.171  1.00  0.00    -0.208 OA 
HETATM   22  C   UNL     1     -10.011   5.012  71.009  1.00  0.00    -0.211 C  
HETATM   23  C   UNL     1     -11.637   6.447  70.004  1.00  0.00    -0.377 C  
HETATM   24  C   UNL     1     -11.198   7.580  70.951  1.00  0.00    -0.269 C  
HETATM   25  C   UNL     1      -9.559   6.175  71.907  1.00  0.00    -0.153 C  
ENDBRANCH  19  20
ENDBRANCH  18  19
ENDBRANCH  17  18
ENDBRANCH  16  17
ENDBRANCH   4  16
BRANCH   9  26
HETATM   26  N   UNL     1     -12.195  13.496  68.588  1.00  0.00    -0.302 N  
HETATM   27  O   UNL     1     -11.192  15.566  68.352  1.00  0.00    -0.305 OA 
HETATM   28  H   UNL     1     -12.951  13.078  69.129  1.00  0.00     0.000 HD 
HETATM   29  C   UNL     1     -11.810  14.756  69.038  1.00  0.00    -0.302 C  
BRANCH  29  30
HETATM   30  C   UNL     1     -12.261  15.175  70.388  1.00  0.00    -0.391 A  
HETATM   31  N   UNL     1     -13.834  15.258  72.216  1.00  0.00    -0.483 NA 
HETATM   32  C   UNL     1     -13.476  14.884  70.968  1.00  0.00    -0.371 A  
HETATM   33  C   UNL     1     -12.934  15.988  72.897  1.00  0.00    -0.463 A  
HETATM   34  N   UNL     1     -11.721  16.304  72.454  1.00  0.00    -0.483 NA 
HETATM   35  N   UNL     1     -13.279  16.376  74.180  1.00  0.00    -0.874 NA 
HETATM   36  H1  UNL     1     -12.596  16.930  74.697  1.00  0.00     0.000 HD 
HETATM   37  C   UNL     1     -11.412  15.898  71.202  1.00  0.00    -0.419 A  
HETATM   38  H2  UNL     1     -13.534  15.553  74.727  1.00  0.00     0.000 HD 
ENDBRANCH  29  30
ENDBRANCH   9  26
ENDBRANCH   2   3
TORSDOF 8
ENDMDL
MODEL        3
REMARK 921   NORMALIZED FREE ENERGY PREDICTED BY IDOCK:   -7.43 KCAL/MOL
REMARK 922        TOTAL FREE ENERGY PREDICTED BY IDOCK:  -12.11 KCAL/MOL
REMARK 923 INTER-LIGAND FREE ENERGY PREDICTED BY IDOCK:  -10.85 KCAL/MOL
REMARK 924 INTRA-LIGAND FREE ENERGY PREDICTED BY IDOCK:   -1.26 KCAL/MOL
REMARK 927      BINDING AFFINITY PREDICTED BY RF-SCORE:    0.00 PKD
ROOT
HETATM    1  C   UNL     1      -9.507  10.249  68.886  1.00  0.00    -0.188 C  
HETATM    2  O   UNL     1     -10.921  10.143  68.745  1.00  0.00    -0.222 OA 
ENDROOT
BRANCH   2   3
HETATM    3  C   UNL     1     -11.661  10.489  69.855  1.00  0.00    -0.294 A  
HETATM    4  C   UNL     1     -12.066   9.407  70.688  1.00  0.00    -0.130 A  
HETATM    5  C   UNL     1     -12.803   9.652  71.858  1.00  0.00    -0.515 A  
HETATM    6  C   UNL     1     -14.292  15.216  71.691  1.00  0.00    -0.585 C  
HETATM    7  N   UNL     1     -12.277  14.325  71.225  1.00  0.00    -0.347 NA 
HETATM    8  C   UNL     1     -13.211  10.941  72.176  1.00  0.00    -0.333 A  
HETATM    9  C   UNL     1     -11.670  14.146  70.000  1.00  0.00    -0.291 A  
HETATM   10  C   UNL     1     -12.811  11.978  71.348  1.00  0.00    -0.391 A  
HETATM   11  C   UNL     1     -12.805  15.533  71.820  1.00  0.00    -0.438 C  
HETATM   12  C   UNL     1     -12.000  11.813  70.209  1.00  0.00    -0.343 A  
HETATM   13  N   UNL     1     -11.565  12.960  69.460  1.00  0.00    -0.295 NA 
HETATM   14  C   UNL     1     -13.193  13.355  71.597  1.00  0.00    -0.364 A  
HETATM   15  N   UNL     1     -14.384  13.747  71.992  1.00  0.00    -0.394 NA 
BRANCH   4  16
HETATM   16  O   UNL     1     -11.692   8.129  70.318  1.00  0.00    -0.089 OA 
BRANCH  16  17
HETATM   17  C   UNL     1     -12.335   7.070  71.046  1.00  0.00    -0.356 C  
BRANCH  17  18
HETATM   18  C   UNL     1     -11.320   5.975  71.369  1.00  0.00    -0.301 C  
BRANCH  18  19
HETATM   19  C   UNL     1     -10.567   6.237  72.685  1.00  0.00    -0.217 C  
BRANCH  19  20
HETATM   20  N   UNL     1      -9.102   6.131  72.578  1.00  0.00    -0.139 NA 
HETATM   21  O   UNL     1      -7.860   8.736  73.169  1.00  0.00    -0.395 OA 
HETATM   22  C   UNL     1      -8.523   7.026  71.549  1.00  0.00    -0.116 C  
HETATM   23  C   UNL     1      -8.431   6.443  73.864  1.00  0.00    -0.115 C  
HETATM   24  C   UNL     1      -8.416   7.940  74.224  1.00  0.00    -0.223 C  
HETATM   25  C   UNL     1      -8.557   8.512  71.937  1.00  0.00    -0.188 C  
ENDBRANCH  19  20
ENDBRANCH  18  19
ENDBRANCH  17  18
ENDBRANCH  16  17
ENDBRANCH   4  16
BRANCH   9  26
HETATM   26  N   UNL     1     -11.228  15.146  69.151  1.00  0.00    -0.261 N  
HETATM   27  O   UNL     1      -9.085  15.707  69.811  1.00  0.00    -0.240 OA 
HETATM   28  H   UNL     1     -11.845  15.315  68.356  1.00  0.00     0.000 HD 
HETATM   29  C   UNL     1     -10.102  15.965  69.174  1.00  0.00    -0.240 C  
BRANCH  29  30
HETATM   30  C   UNL     1     -10.103  17.165  68.301  1.00  0.00    -0.314 A  
HETATM   31  N   UNL     1      -9.950  19.536  67.879  1.00  0.00    -0.369 NA 
HETATM   32  C   UNL     1      -9.977  18.473  68.714  1.00  0.00    -0.380 A  
HETATM   33  C   UNL     1     -10.087  19.265  66.570  1.00  0.00    -0.415 A  
HETATM   34  N   UNL     1     -10.184  18.044  66.053  1.00  0.00    -0.545 NA 
HETATM   35  N   UNL     1     -10.055  20.339  65.699  1.00  0.00    -0.510 NA 
HETATM   36  H1  UNL     1     -10.159  20.134  64.705  1.00  0.00     0.000 HD 
HETATM   37  C   UNL     1     -10.199  17.017  66.932  1.00  0.00    -0.305 A  
HETATM   38  H2  UNL     1      -9.197  20.872  65.848  1.00  0.00     0.000 HD 
ENDBRANCH  29  30
ENDBRANCH   9  26
ENDBRANCH   2   3
TORSDOF 8
ENDMDL
MODEL        4
REMARK 921   NORMALIZED FREE ENERGY PREDICTED BY IDOCK:   -7.17 KCAL/MOL
REMARK 922        TOTAL FREE ENERGY PREDICTED BY IDOCK:  -11.72 KCAL/MOL
REMARK 923 INTER-LIGAND FREE ENERGY PREDICTED BY IDOCK:  -10.50 KCAL/MOL
REMARK 924 INTRA-LIGAND FREE ENERGY PREDICTED BY IDOCK:   -1.22 KCAL/MOL
REMARK 927      BINDING AFFINITY PREDICTED BY RF-SCORE:    0.00 PKD
ROOT
HETATM    1  C   UNL     1      -9.756   9.243  69.218  1.00  0.00    -0.169 C  
HETATM    2  O   UNL     1      -8.757   9.774  68.353  1.00  0.00    -0.118 OA 
ENDROOT
BRANCH   2   3
HETATM    3  C   UNL     1      -9.176  10.099  67.081  1.00  0.00    -0.138 A  
HETATM    4  C   UNL     1      -8.686   9.264  66.038  1.00  0.00    -0.153 A  
HETATM    5  C   UNL     1      -9.072   9.492  64.707  1.00  0.00    -0.271 A  
HETATM    6  C   UNL     1     -11.863  14.533  64.682  1.00  0.00    -0.453 C  
HETATM    7  N   UNL     1     -12.104  12.844  66.151  1.00  0.00    -0.471 NA 
HETATM    8  C   UNL     1      -9.874  10.580  64.384  1.00  0.00    -0.405 A  
HETATM    9  C   UNL     1     -11.662  12.759  67.455  1.00  0.00    -0.366 A  
HETATM   10  C   UNL     1     -10.334  11.384  65.415  1.00  0.00    -0.331 A  
HETATM   11  C   UNL     1     -12.934  13.852  65.527  1.00  0.00    -0.332 C  
HETATM   12  C   UNL     1     -10.056  11.160  66.777  1.00  0.00    -0.218 A  
HETATM   13  N   UNL     1     -10.650  11.998  67.782  1.00  0.00    -0.202 NA 
HETATM   14  C   UNL     1     -11.171  12.544  65.173  1.00  0.00    -0.304 A  
HETATM   15  N   UNL     1     -11.003  13.403  64.193  1.00  0.00    -0.358 NA 
BRANCH   4  16
HETATM   16  O   UNL     1      -7.846   8.221  66.383  1.00  0.00    -0.092 OA 
BRANCH  16  17
HETATM   17  C   UNL     1      -7.360   7.438  65.279  1.00  0.00    -0.076 C  
BRANCH  17  18
HETATM   18  C   UNL     1      -7.856   6.000  65.410  1.00  0.00    -0.104 C  
BRANCH  18  19
HETATM   19  C   UNL     1      -8.028   5.564  66.876  1.00  0.00    -0.101 C  
BRANCH  19  20
HETATM   20  N   UNL     1      -9.172   4.668  67.113  1.00  0.00    -0.122 NA 
HETATM   21  O   UNL     1     -11.272   6.092  68.608  1.00  0.00    -0.356 OA 
HETATM   22  C   UNL     1      -9.459   4.449  68.550  1.00  0.00    -0.156 C  
HETATM   23  C   UNL     1     -10.414   5.182  66.486  1.00  0.00    -0.294 C  
HETATM   24  C   UNL     1     -11.047   6.378  67.221  1.00  0.00    -0.330 C  
HETATM   25  C   UNL     1     -10.060   5.679  69.249  1.00  0.00    -0.214 C  
ENDBRANCH  19  20
ENDBRANCH  18  19
ENDBRANCH  17  18
ENDBRANCH  16  17
ENDBRANCH   4  16
BRANCH   9  26
HETATM   26  N   UNL     1     -12.110  13.518  68.523  1.00  0.00    -0.334 N  
HETATM   27  O   UNL     1     -11.526  15.714  68.094  1.00  0.00    -0.352 OA 
HETATM   28  H   UNL     1     -12.707  13.006  69.172  1.00  0.00     0.000 HD 
HETATM   29  C   UNL     1     -11.900  14.847  68.879  1.00  0.00    -0.301 C  
BRANCH  29  30
HETATM   30  C   UNL     1     -12.245  15.253  70.264  1.00  0.00    -0.403 A  
HETATM   31  N   UNL     1     -11.795  16.310  72.387  1.00  0.00    -0.533 NA 
HETATM   32  C   UNL     1     -11.427  15.930  71.142  1.00  0.00    -0.419 A  
HETATM   33  C   UNL     1     -13.034  15.961  72.771  1.00  0.00    -0.483 A  
HETATM   34  N   UNL     1     -13.920  15.336  72.002  1.00  0.00    -0.495 NA 
HETATM   35  N   UNL     1     -13.431  16.347  74.039  1.00  0.00    -0.772 NA 
HETATM   36  H1  UNL     1     -14.372  16.082  74.332  1.00  0.00     0.000 HD 
HETATM   37  C   UNL     1     -13.503  14.986  70.765  1.00  0.00    -0.270 A  
HETATM   38  H2  UNL     1     -13.314  17.355  74.140  1.00  0.00     0.000 HD 
ENDBRANCH  29  30
ENDBRANCH   9  26
ENDBRANCH   2   3
TORSDOF 8
ENDMDL
MODEL        5
REMARK 921   NORMALIZED FREE ENERGY PREDICTED BY IDOCK:   -7.14 KCAL/MOL
REMARK 922        TOTAL FREE ENERGY PREDICTED BY IDOCK:  -11.68 KCAL/MOL
REMARK 923 INTER-LIGAND FREE ENERGY PREDICTED BY IDOCK:  -10.50 KCAL/MOL
REMARK 924 INTRA-LIGAND FREE ENERGY PREDICTED BY IDOCK:   -1.17 KCAL/MOL
REMARK 927      BINDING AFFINITY PREDICTED BY RF-SCORE:    0.00 PKD
ROOT
HETATM    1  C   UNL     1      -9.844  10.470  68.678  1.00  0.00    -0.178 C  
HETATM    2  O   UNL     1     -11.266  10.414  68.640  1.00  0.00    -0.256 OA 
ENDROOT
BRANCH   2   3
HETATM    3  C   UNL     1     -11.911  10.760  69.809  1.00  0.00    -0.335 A  
HETATM    4  C   UNL     1     -12.276   9.675  70.656  1.00  0.00    -0.161 A  
HETATM    5  C   UNL     1     -12.915   9.919  71.883  1.00  0.00    -0.545 A  
HETATM    6  C   UNL     1     -14.280  15.516  71.906  1.00  0.00    -0.481 C  
HETATM    7  N   UNL     1     -12.328  14.587  71.273  1.00  0.00    -0.331 NA 
HETATM    8  C   UNL     1     -13.266  11.212  72.248  1.00  0.00    -0.097 A  
HETATM    9  C   UNL     1     -11.822  14.413  70.003  1.00  0.00    -0.315 A  
HETATM   10  C   UNL     1     -12.907  12.252  71.405  1.00  0.00    -0.373 A  
HETATM   11  C   UNL     1     -12.781  15.798  71.923  1.00  0.00    -0.451 C  
HETATM   12  C   UNL     1     -12.190  12.086  70.205  1.00  0.00    -0.266 A  
HETATM   13  N   UNL     1     -11.787  13.233  69.440  1.00  0.00    -0.319 NA 
HETATM   14  C   UNL     1     -13.236  13.633  71.701  1.00  0.00    -0.367 A  
HETATM   15  N   UNL     1     -14.383  14.046  72.193  1.00  0.00    -0.546 NA 
BRANCH   4  16
HETATM   16  O   UNL     1     -11.962   8.394  70.241  1.00  0.00     0.065 OA 
BRANCH  16  17
HETATM   17  C   UNL     1     -12.199   7.363  71.213  1.00  0.00    -0.341 C  
BRANCH  17  18
HETATM   18  C   UNL     1     -11.065   6.340  71.167  1.00  0.00    -0.356 C  
BRANCH  18  19
HETATM   19  C   UNL     1      -9.937   6.751  70.204  1.00  0.00    -0.177 C  
BRANCH  19  20
HETATM   20  N   UNL     1      -9.708   5.807  69.098  1.00  0.00    -0.140 NA 
HETATM   21  O   UNL     1      -9.483   7.274  66.554  1.00  0.00    -0.175 OA 
HETATM   22  C   UNL     1     -10.770   5.843  68.066  1.00  0.00    -0.252 C  
HETATM   23  C   UNL     1      -8.416   6.061  68.414  1.00  0.00    -0.112 C  
HETATM   24  C   UNL     1      -8.414   7.307  67.508  1.00  0.00    -0.119 C  
HETATM   25  C   UNL     1     -10.748   7.118  67.207  1.00  0.00    -0.329 C  
ENDBRANCH  19  20
ENDBRANCH  18  19
ENDBRANCH  17  18
ENDBRANCH  16  17
ENDBRANCH   4  16
BRANCH   9  26
HETATM   26  N   UNL     1     -11.423  15.416  69.135  1.00  0.00    -0.310 N  
HETATM   27  O   UNL     1      -9.188  15.062  68.661  1.00  0.00    -0.184 OA 
HETATM   28  H   UNL     1     -12.192  15.985  68.781  1.00  0.00     0.000 HD 
HETATM   29  C   UNL     1     -10.173  15.795  68.654  1.00  0.00    -0.221 C  
BRANCH  29  30
HETATM   30  C   UNL     1     -10.056  17.126  68.007  1.00  0.00    -0.311 A  
HETATM   31  N   UNL     1      -9.771  19.522  68.020  1.00  0.00    -0.354 NA 
HETATM   32  C   UNL     1      -9.906  18.334  68.651  1.00  0.00    -0.380 A  
HETATM   33  C   UNL     1      -9.821  19.489  66.677  1.00  0.00    -0.394 A  
HETATM   34  N   UNL     1      -9.931  18.382  65.948  1.00  0.00    -0.539 NA 
HETATM   35  N   UNL     1      -9.677  20.694  66.013  1.00  0.00    -0.549 NA 
HETATM   36  H1  UNL     1      -9.715  20.669  64.993  1.00  0.00     0.000 HD 
HETATM   37  C   UNL     1     -10.056  17.222  66.630  1.00  0.00    -0.302 A  
HETATM   38  H2  UNL     1      -8.811  21.145  66.310  1.00  0.00     0.000 HD 
ENDBRANCH  29  30
ENDBRANCH   9  26
ENDBRANCH   2   3
TORSDOF 8
ENDMDL
MODEL        6
REMARK 921   NORMALIZED FREE ENERGY PREDICTED BY IDOCK:   -7.08 KCAL/MOL
REMARK 922        TOTAL FREE ENERGY PREDICTED BY IDOCK:  -11.60 KCAL/MOL
REMARK 923 INTER-LIGAND FREE ENERGY PREDICTED BY IDOCK:  -10.09 KCAL/MOL
REMARK 924 INTRA-LIGAND FREE ENERGY PREDICTED BY IDOCK:   -1.50 KCAL/MOL
REMARK 927      BINDING AFFINITY PREDICTED BY RF-SCORE:    0.00 PKD
ROOT
HETATM    1  C   UNL     1      -6.578  10.947  69.385  1.00  0.00    -0.095 C  
HETATM    2  O   UNL     1      -7.905  10.512  69.664  1.00  0.00    -0.149 OA 
ENDROOT
BRANCH   2   3
HETATM    3  C   UNL     1      -8.621  10.043  68.584  1.00  0.00    -0.123 A  
HETATM    4  C   UNL     1      -8.720   8.626  68.477  1.00  0.00    -0.139 A  
HETATM    5  C   UNL     1      -9.449   8.044  67.428  1.00  0.00    -0.187 A  
HETATM    6  C   UNL     1     -10.759  12.328  63.805  1.00  0.00    -0.449 C  
HETATM    7  N   UNL     1     -10.918  12.340  66.051  1.00  0.00    -0.281 NA 
HETATM    8  C   UNL     1     -10.017   8.839  66.440  1.00  0.00    -0.346 A  
HETATM    9  C   UNL     1     -10.112  12.972  66.974  1.00  0.00    -0.243 A  
HETATM   10  C   UNL     1      -9.903  10.215  66.560  1.00  0.00    -0.268 A  
HETATM   11  C   UNL     1     -11.630  12.896  64.921  1.00  0.00    -0.327 C  
HETATM   12  C   UNL     1      -9.262  10.865  67.632  1.00  0.00    -0.152 A  
HETATM   13  N   UNL     1      -9.270  12.300  67.715  1.00  0.00    -0.184 NA 
HETATM   14  C   UNL     1     -10.459  11.123  65.576  1.00  0.00    -0.256 A  
HETATM   15  N   UNL     1     -10.412  10.944  64.274  1.00  0.00    -0.370 NA 
BRANCH   4  16
HETATM   16  O   UNL     1      -8.098   7.859  69.445  1.00  0.00    -0.120 OA 
BRANCH  16  17
HETATM   17  C   UNL     1      -8.982   7.247  70.400  1.00  0.00    -0.151 C  
BRANCH  17  18
HETATM   18  C   UNL     1      -8.981   8.056  71.695  1.00  0.00    -0.192 C  
BRANCH  18  19
HETATM   19  C   UNL     1     -10.399   8.432  72.159  1.00  0.00    -0.327 C  
BRANCH  19  20
HETATM   20  N   UNL     1     -11.400   8.476  71.079  1.00  0.00    -0.265 NA 
HETATM   21  O   UNL     1     -13.682  10.152  71.890  1.00  0.00    -0.254 OA 
HETATM   22  C   UNL     1     -12.721   7.938  71.481  1.00  0.00    -0.322 C  
HETATM   23  C   UNL     1     -11.615   9.856  70.582  1.00  0.00    -0.335 C  
HETATM   24  C   UNL     1     -12.430  10.753  71.534  1.00  0.00    -0.341 C  
HETATM   25  C   UNL     1     -13.483   8.850  72.455  1.00  0.00    -0.450 C  
ENDBRANCH  19  20
ENDBRANCH  18  19
ENDBRANCH  17  18
ENDBRANCH  16  17
ENDBRANCH   4  16
BRANCH   9  26
HETATM   26  N   UNL     1      -9.986  14.339  67.152  1.00  0.00    -0.251 N  
HETATM   27  O   UNL     1     -11.696  15.007  68.558  1.00  0.00    -0.320 OA 
HETATM   28  H   UNL     1      -9.123  14.726  66.771  1.00  0.00     0.000 HD 
HETATM   29  C   UNL     1     -10.813  15.285  67.751  1.00  0.00    -0.295 C  
BRANCH  29  30
HETATM   30  C   UNL     1     -10.541  16.717  67.470  1.00  0.00    -0.311 A  
HETATM   31  N   UNL     1     -10.041  18.991  68.103  1.00  0.00    -0.375 NA 
HETATM   32  C   UNL     1     -10.318  17.703  68.406  1.00  0.00    -0.375 A  
HETATM   33  C   UNL     1     -10.019  19.302  66.796  1.00  0.00    -0.361 A  
HETATM   34  N   UNL     1     -10.188  18.431  65.806  1.00  0.00    -0.578 NA 
HETATM   35  N   UNL     1      -9.731  20.614  66.466  1.00  0.00    -0.632 NA 
HETATM   36  H1  UNL     1      -9.714  20.850  65.474  1.00  0.00     0.000 HD 
HETATM   37  C   UNL     1     -10.455  17.156  66.164  1.00  0.00    -0.275 A  
HETATM   38  H2  UNL     1      -8.846  20.886  66.895  1.00  0.00     0.000 HD 
ENDBRANCH  29  30
ENDBRANCH   9  26
ENDBRANCH   2   3
TORSDOF 8
ENDMDL
MODEL        7
REMARK 921   NORMALIZED FREE ENERGY PREDICTED BY IDOCK:   -7.03 KCAL/MOL
REMARK 922        TOTAL FREE ENERGY PREDICTED BY IDOCK:  -11.53 KCAL/MOL
REMARK 923 INTER-LIGAND FREE ENERGY PREDICTED BY IDOCK:  -10.38 KCAL/MOL
REMARK 924 INTRA-LIGAND FREE ENERGY PREDICTED BY IDOCK:   -1.14 KCAL/MOL
REMARK 927      BINDING AFFINITY PREDICTED BY RF-SCORE:    0.00 PKD
ROOT
HETATM    1  C   UNL     1      -8.926  15.466  69.085  1.00  0.00    -0.245 C  
HETATM    2  O   UNL     1     -10.291  15.698  68.747  1.00  0.00    -0.207 OA 
ENDROOT
BRANCH   2   3
HETATM    3  C   UNL     1     -10.570  15.776  67.400  1.00  0.00    -0.313 A  
HETATM    4  C   UNL     1     -10.585  17.088  66.848  1.00  0.00    -0.208 A  
HETATM    5  C   UNL     1     -10.834  17.278  65.478  1.00  0.00    -0.024 A  
HETATM    6  C   UNL     1     -12.502  12.162  63.420  1.00  0.00    -0.512 C  
HETATM    7  N   UNL     1     -10.778  12.582  64.807  1.00  0.00    -0.288 NA 
HETATM    8  C   UNL     1     -11.143  16.197  64.663  1.00  0.00    -0.310 A  
HETATM    9  C   UNL     1     -10.674  12.334  66.159  1.00  0.00    -0.261 A  
HETATM   10  C   UNL     1     -11.130  14.929  65.223  1.00  0.00    -0.382 A  
HETATM   11  C   UNL     1     -11.092  11.669  63.729  1.00  0.00    -0.420 C  
HETATM   12  C   UNL     1     -10.804  14.661  66.566  1.00  0.00    -0.315 A  
HETATM   13  N   UNL     1     -10.732  13.304  67.035  1.00  0.00    -0.259 NA 
HETATM   14  C   UNL     1     -11.445  13.742  64.452  1.00  0.00    -0.372 A  
HETATM   15  N   UNL     1     -12.413  13.654  63.567  1.00  0.00    -0.791 NA 
BRANCH   4  16
HETATM   16  O   UNL     1     -10.326  18.150  67.694  1.00  0.00    -0.361 OA 
BRANCH  16  17
HETATM   17  C   UNL     1     -10.726  19.438  67.197  1.00  0.00    -0.483 C  
BRANCH  17  18
HETATM   18  C   UNL     1      -9.542  20.401  67.247  1.00  0.00    -0.592 C  
BRANCH  18  19
HETATM   19  C   UNL     1      -8.345  19.827  68.024  1.00  0.00    -0.295 C  
BRANCH  19  20
HETATM   20  N   UNL     1      -7.062  19.898  67.304  1.00  0.00    -0.219 NA 
HETATM   21  O   UNL     1      -6.016  17.184  66.843  1.00  0.00    -0.154 OA 
HETATM   22  C   UNL     1      -5.932  19.307  68.058  1.00  0.00    -0.208 C  
HETATM   23  C   UNL     1      -7.128  19.210  65.992  1.00  0.00    -0.266 C  
HETATM   24  C   UNL     1      -7.127  17.672  66.081  1.00  0.00    -0.312 C  
HETATM   25  C   UNL     1      -5.990  17.774  68.149  1.00  0.00    -0.165 C  
ENDBRANCH  19  20
ENDBRANCH  18  19
ENDBRANCH  17  18
ENDBRANCH  16  17
ENDBRANCH   4  16
BRANCH   9  26
HETATM   26  N   UNL     1     -10.627  11.090  66.764  1.00  0.00    -0.255 N  
HETATM   27  O   UNL     1     -12.284  11.050  68.376  1.00  0.00    -0.586 OA 
HETATM   28  H   UNL     1     -10.008  10.427  66.297  1.00  0.00     0.000 HD 
HETATM   29  C   UNL     1     -11.265  10.570  67.887  1.00  0.00    -0.289 C  
BRANCH  29  30
HETATM   30  C   UNL     1     -10.734   9.308  68.460  1.00  0.00    -0.185 A  
HETATM   31  N   UNL     1      -9.795   7.090  68.315  1.00  0.00    -0.141 NA 
HETATM   32  C   UNL     1     -10.303   8.209  67.751  1.00  0.00    -0.233 A  
HETATM   33  C   UNL     1      -9.751   7.070  69.658  1.00  0.00    -0.157 A  
HETATM   34  N   UNL     1     -10.109   8.081  70.444  1.00  0.00    -0.193 NA 
HETATM   35  N   UNL     1      -9.228   5.936  70.253  1.00  0.00    -0.152 NA 
HETATM   36  H1  UNL     1      -9.194   5.921  71.273  1.00  0.00     0.000 HD 
HETATM   37  C   UNL     1     -10.603   9.178  69.829  1.00  0.00    -0.229 A  
HETATM   38  H2  UNL     1      -8.296   5.755  69.879  1.00  0.00     0.000 HD 
ENDBRANCH  29  30
ENDBRANCH   9  26
ENDBRANCH   2   3
TORSDOF 8
ENDMDL
MODEL        8
REMARK 921   NORMALIZED FREE ENERGY PREDICTED BY IDOCK:   -6.98 KCAL/MOL
REMARK 922        TOTAL FREE ENERGY PREDICTED BY IDOCK:  -11.44 KCAL/MOL
REMARK 923 INTER-LIGAND FREE ENERGY PREDICTED BY IDOCK:  -10.93 KCAL/MOL
REMARK 924 INTRA-LIGAND FREE ENERGY PREDICTED BY IDOCK:   -0.50 KCAL/MOL
REMARK 927      BINDING AFFINITY PREDICTED BY RF-SCORE:    0.00 PKD
ROOT
HETATM    1  C   UNL     1     -11.280  11.026  67.184  1.00  0.00    -0.217 C  
HETATM    2  O   UNL     1     -10.586  10.975  68.427  1.00  0.00    -0.174 OA 
ENDROOT
BRANCH   2   3
HETATM    3  C   UNL     1     -11.364  11.127  69.554  1.00  0.00    -0.290 A  
HETATM    4  C   UNL     1     -11.688   9.925  70.246  1.00  0.00    -0.216 A  
HETATM    5  C   UNL     1     -12.456   9.970  71.422  1.00  0.00    -0.510 A  
HETATM    6  C   UNL     1     -14.392  15.377  71.878  1.00  0.00    -0.543 C  
HETATM    7  N   UNL     1     -12.307  14.711  71.352  1.00  0.00    -0.330 NA 
HETATM    8  C   UNL     1     -12.971  11.175  71.880  1.00  0.00    -0.477 A  
HETATM    9  C   UNL     1     -11.674  14.728  70.127  1.00  0.00    -0.301 A  
HETATM   10  C   UNL     1     -12.648  12.332  71.188  1.00  0.00    -0.353 A  
HETATM   11  C   UNL     1     -12.939  15.795  72.074  1.00  0.00    -0.441 C  
HETATM   12  C   UNL     1     -11.814  12.368  70.054  1.00  0.00    -0.288 A  
HETATM   13  N   UNL     1     -11.466  13.627  69.453  1.00  0.00    -0.283 NA 
HETATM   14  C   UNL     1     -13.144  13.634  71.589  1.00  0.00    -0.372 A  
HETATM   15  N   UNL     1     -14.367  13.880  72.003  1.00  0.00    -0.455 NA 
BRANCH   4  16
HETATM   16  O   UNL     1     -11.207   8.734  69.736  1.00  0.00    -0.144 OA 
BRANCH  16  17
HETATM   17  C   UNL     1     -10.661   7.829  70.711  1.00  0.00    -0.218 C  
BRANCH  17  18
HETATM   18  C   UNL     1     -11.196   6.420  70.464  1.00  0.00    -0.414 C  
BRANCH  18  19
HETATM   19  C   UNL     1     -11.253   6.063  68.968  1.00  0.00    -0.228 C  
BRANCH  19  20
HETATM   20  N   UNL     1      -9.948   6.091  68.287  1.00  0.00    -0.138 NA 
HETATM   21  O   UNL     1      -9.702   3.770  66.489  1.00  0.00    -0.198 OA 
HETATM   22  C   UNL     1      -9.109   4.904  68.576  1.00  0.00    -0.114 C  
HETATM   23  C   UNL     1     -10.097   6.180  66.814  1.00  0.00    -0.182 C  
HETATM   24  C   UNL     1     -10.553   4.871  66.142  1.00  0.00    -0.271 C  
HETATM   25  C   UNL     1      -9.620   3.616  67.912  1.00  0.00    -0.122 C  
ENDBRANCH  19  20
ENDBRANCH  18  19
ENDBRANCH  17  18
ENDBRANCH  16  17
ENDBRANCH   4  16
BRANCH   9  26
HETATM   26  N   UNL     1     -11.307  15.854  69.410  1.00  0.00    -0.326 N  
HETATM   27  O   UNL     1     -11.004  15.198  67.214  1.00  0.00    -0.313 OA 
HETATM   28  H   UNL     1     -11.389  16.724  69.937  1.00  0.00     0.000 HD 
HETATM   29  C   UNL     1     -10.846  16.025  68.107  1.00  0.00    -0.322 C  
BRANCH  29  30
HETATM   30  C   UNL     1     -10.219  17.325  67.762  1.00  0.00    -0.332 A  
HETATM   31  N   UNL     1      -9.357  19.519  68.279  1.00  0.00    -0.339 NA 
HETATM   32  C   UNL     1      -9.962  18.362  68.631  1.00  0.00    -0.387 A  
HETATM   33  C   UNL     1      -9.025  19.644  66.983  1.00  0.00    -0.316 A  
HETATM   34  N   UNL     1      -9.195  18.701  66.061  1.00  0.00    -0.476 NA 
HETATM   35  N   UNL     1      -8.399  20.818  66.605  1.00  0.00    -0.534 NA 
HETATM   36  H1  UNL     1      -8.147  20.913  65.620  1.00  0.00     0.000 HD 
HETATM   37  C   UNL     1      -9.798  17.562  66.469  1.00  0.00    -0.310 A  
HETATM   38  H2  UNL     1      -7.571  20.963  67.183  1.00  0.00     0.000 HD 
ENDBRANCH  29  30
ENDBRANCH   9  26
ENDBRANCH   2   3
TORSDOF 8
ENDMDL
MODEL        9
REMARK 921   NORMALIZED FREE ENERGY PREDICTED BY IDOCK:   -6.79 KCAL/MOL
REMARK 922        TOTAL FREE ENERGY PREDICTED BY IDOCK:  -11.17 KCAL/MOL
REMARK 923 INTER-LIGAND FREE ENERGY PREDICTED BY IDOCK:  -10.63 KCAL/MOL
REMARK 924 INTRA-LIGAND FREE ENERGY PREDICTED BY IDOCK:   -0.54 KCAL/MOL
REMARK 927      BINDING AFFINITY PREDICTED BY RF-SCORE:    0.00 PKD
ROOT
HETATM    1  C   UNL     1      -9.269  10.970  68.631  1.00  0.00    -0.185 C  
HETATM    2  O   UNL     1     -10.683  10.873  68.483  1.00  0.00    -0.178 OA 
ENDROOT
BRANCH   2   3
HETATM    3  C   UNL     1     -11.420  11.050  69.634  1.00  0.00    -0.303 A  
HETATM    4  C   UNL     1     -11.717   9.865  70.365  1.00  0.00    -0.258 A  
HETATM    5  C   UNL     1     -12.441   9.937  71.566  1.00  0.00    -0.506 A  
HETATM    6  C   UNL     1     -14.365  15.352  71.969  1.00  0.00    -0.550 C  
HETATM    7  N   UNL     1     -12.299  14.675  71.383  1.00  0.00    -0.330 NA 
HETATM    8  C   UNL     1     -12.940  11.152  72.015  1.00  0.00    -0.385 A  
HETATM    9  C   UNL     1     -11.712  14.664  70.136  1.00  0.00    -0.297 A  
HETATM   10  C   UNL     1     -12.644  12.292  71.285  1.00  0.00    -0.336 A  
HETATM   11  C   UNL     1     -12.906  15.775  72.102  1.00  0.00    -0.437 C  
HETATM   12  C   UNL     1     -11.852  12.303  70.122  1.00  0.00    -0.272 A  
HETATM   13  N   UNL     1     -11.527  13.547  69.480  1.00  0.00    -0.272 NA 
HETATM   14  C   UNL     1     -13.127  13.604  71.674  1.00  0.00    -0.372 A  
HETATM   15  N   UNL     1     -14.334  13.859  72.127  1.00  0.00    -0.536 NA 
BRANCH   4  16
HETATM   16  O   UNL     1     -11.253   8.662  69.865  1.00  0.00    -0.177 OA 
BRANCH  16  17
HETATM   17  C   UNL     1     -11.536   7.513  70.680  1.00  0.00    -0.248 C  
BRANCH  17  18
HETATM   18  C   UNL     1     -11.300   6.238  69.873  1.00  0.00    -0.504 C  
BRANCH  18  19
HETATM   19  C   UNL     1     -10.329   5.269  70.570  1.00  0.00    -0.266 C  
BRANCH  19  20
HETATM   20  N   UNL     1      -9.409   5.911  71.523  1.00  0.00    -0.146 NA 
HETATM   21  O   UNL     1      -7.183   4.089  72.158  1.00  0.00    -0.049 OA 
HETATM   22  C   UNL     1      -9.280   5.175  72.803  1.00  0.00    -0.136 C  
HETATM   23  C   UNL     1      -8.045   6.061  70.958  1.00  0.00    -0.121 C  
HETATM   24  C   UNL     1      -7.242   4.749  70.886  1.00  0.00    -0.055 C  
HETATM   25  C   UNL     1      -8.499   3.858  72.676  1.00  0.00    -0.099 C  
ENDBRANCH  19  20
ENDBRANCH  18  19
ENDBRANCH  17  18
ENDBRANCH  16  17
ENDBRANCH   4  16
BRANCH   9  26
HETATM   26  N   UNL     1     -11.372  15.773  69.380  1.00  0.00    -0.321 N  
HETATM   27  O   UNL     1     -11.672  15.207  67.159  1.00  0.00    -0.275 OA 
HETATM   28  H   UNL     1     -11.213  16.616  69.932  1.00  0.00     0.000 HD 
HETATM   29  C   UNL     1     -11.204  15.957  68.010  1.00  0.00    -0.319 C  
BRANCH  29  30
HETATM   30  C   UNL     1     -10.505  17.186  67.559  1.00  0.00    -0.348 A  
HETATM   31  N   UNL     1      -9.715  19.450  67.827  1.00  0.00    -0.319 NA 
HETATM   32  C   UNL     1     -10.391  18.364  68.264  1.00  0.00    -0.355 A  
HETATM   33  C   UNL     1      -9.155  19.351  66.610  1.00  0.00    -0.346 A  
HETATM   34  N   UNL     1      -9.172  18.257  65.853  1.00  0.00    -0.467 NA 
HETATM   35  N   UNL     1      -8.452  20.450  66.149  1.00  0.00    -0.558 NA 
HETATM   36  H1  UNL     1      -8.027  20.374  65.224  1.00  0.00     0.000 HD 
HETATM   37  C   UNL     1      -9.856  17.198  66.341  1.00  0.00    -0.300 A  
HETATM   38  H2  UNL     1      -7.739  20.709  66.831  1.00  0.00     0.000 HD 
ENDBRANCH  29  30
ENDBRANCH   9  26
ENDBRANCH   2   3
TORSDOF 8
ENDMDL
MODEL       10
REMARK 921   NORMALIZED FREE ENERGY PREDICTED BY IDOCK:   -6.77 KCAL/MOL
REMARK 922        TOTAL FREE ENERGY PREDICTED BY IDOCK:  -11.14 KCAL/MOL
REMARK 923 INTER-LIGAND FREE ENERGY PREDICTED BY IDOCK:   -9.99 KCAL/MOL
REMARK 924 INTRA-LIGAND FREE ENERGY PREDICTED BY IDOCK:   -1.15 KCAL/MOL
REMARK 927      BINDING AFFINITY PREDICTED BY RF-SCORE:    0.00 PKD
ROOT
HETATM    1  C   UNL     1     -10.816  16.066  70.201  1.00  0.00    -0.346 C  
HETATM    2  O   UNL     1     -11.671  16.131  69.063  1.00  0.00    -0.345 OA 
ENDROOT
BRANCH   2   3
HETATM    3  C   UNL     1     -11.102  15.760  67.864  1.00  0.00    -0.326 A  
HETATM    4  C   UNL     1     -10.782  16.826  66.977  1.00  0.00    -0.161 A  
HETATM    5  C   UNL     1     -10.175  16.559  65.738  1.00  0.00    -0.350 A  
HETATM    6  C   UNL     1     -10.339  10.840  65.062  1.00  0.00    -0.287 C  
HETATM    7  N   UNL     1      -9.761  11.982  66.915  1.00  0.00    -0.200 NA 
HETATM    8  C   UNL     1      -9.951  15.250  65.332  1.00  0.00    -0.364 A  
HETATM    9  C   UNL     1     -10.474  12.161  68.081  1.00  0.00    -0.211 A  
HETATM   10  C   UNL     1     -10.277  14.227  66.209  1.00  0.00    -0.307 A  
HETATM   11  C   UNL     1      -9.384  10.754  66.249  1.00  0.00    -0.180 C  
HETATM   12  C   UNL     1     -10.806  14.429  67.498  1.00  0.00    -0.282 A  
HETATM   13  N   UNL     1     -11.031  13.308  68.369  1.00  0.00    -0.254 NA 
HETATM   14  C   UNL     1     -10.084  12.831  65.869  1.00  0.00    -0.276 A  
HETATM   15  N   UNL     1     -10.345  12.297  64.697  1.00  0.00    -0.291 NA 
BRANCH   4  16
HETATM   16  O   UNL     1     -11.066  18.116  67.385  1.00  0.00    -0.211 OA 
BRANCH  16  17
HETATM   17  C   UNL     1     -10.619  19.151  66.493  1.00  0.00    -0.435 C  
BRANCH  17  18
HETATM   18  C   UNL     1      -9.689  20.107  67.237  1.00  0.00    -0.574 C  
BRANCH  18  19
HETATM   19  C   UNL     1      -8.247  20.066  66.701  1.00  0.00    -0.314 C  
BRANCH  19  20
HETATM   20  N   UNL     1      -7.605  18.743  66.787  1.00  0.00    -0.224 NA 
HETATM   21  O   UNL     1      -5.214  18.894  68.499  1.00  0.00    -0.189 OA 
HETATM   22  C   UNL     1      -6.216  18.731  66.272  1.00  0.00    -0.183 C  
HETATM   23  C   UNL     1      -7.567  18.238  68.181  1.00  0.00    -0.269 C  
HETATM   24  C   UNL     1      -6.525  18.933  69.078  1.00  0.00    -0.276 C  
HETATM   25  C   UNL     1      -5.218  19.462  67.183  1.00  0.00    -0.158 C  
ENDBRANCH  19  20
ENDBRANCH  18  19
ENDBRANCH  17  18
ENDBRANCH  16  17
ENDBRANCH   4  16
BRANCH   9  26
HETATM   26  N   UNL     1     -10.799  11.179  69.001  1.00  0.00    -0.218 N  
HETATM   27  O   UNL     1      -8.814  10.279  69.773  1.00  0.00    -0.160 OA 
HETATM   28  H   UNL     1     -11.788  11.158  69.251  1.00  0.00     0.000 HD 
HETATM   29  C   UNL     1     -10.034  10.214  69.651  1.00  0.00    -0.232 C  
BRANCH  29  30
HETATM   30  C   UNL     1     -10.750   9.097  70.316  1.00  0.00    -0.268 A  
HETATM   31  N   UNL     1     -11.535   6.821  70.480  1.00  0.00    -0.338 NA 
HETATM   32  C   UNL     1     -10.901   7.819  69.824  1.00  0.00    -0.209 A  
HETATM   33  C   UNL     1     -12.066   7.139  71.673  1.00  0.00    -0.336 A  
HETATM   34  N   UNL     1     -11.957   8.327  72.261  1.00  0.00    -0.364 NA 
HETATM   35  N   UNL     1     -12.713   6.129  72.363  1.00  0.00    -0.471 NA 
HETATM   36  H1  UNL     1     -13.117   6.370  73.268  1.00  0.00     0.000 HD 
HETATM   37  C   UNL     1     -11.308   9.286  71.564  1.00  0.00    -0.385 A  
HETATM   38  H2  UNL     1     -12.082   5.334  72.472  1.00  0.00     0.000 HD 
ENDBRANCH  29  30
ENDBRANCH   9  26
ENDBRANCH   2   3
TORSDOF 8
ENDMDL
MODEL       11
REMARK 921   NORMALIZED FREE ENERGY PREDICTED BY IDOCK:   -6.72 KCAL/MOL
REMARK 922        TOTAL FREE ENERGY PREDICTED BY IDOCK:  -11.06 KCAL/MOL
REMARK 923 INTER-LIGAND FREE ENERGY PREDICTED BY IDOCK:  -10.65 KCAL/MOL
REMARK 924 INTRA-LIGAND FREE ENERGY PREDICTED BY IDOCK:   -0.41 KCAL/MOL
REMARK 927      BINDING AFFINITY PREDICTED BY RF-SCORE:    0.00 PKD
ROOT
HETATM    1  C   UNL     1      -9.248  11.142  68.311  1.00  0.00    -0.169 C  
HETATM    2  O   UNL     1     -10.640  10.854  68.225  1.00  0.00    -0.170 OA 
ENDROOT
BRANCH   2   3
HETATM    3  C   UNL     1     -11.350  10.966  69.401  1.00  0.00    -0.280 A  
HETATM    4  C   UNL     1     -11.597   9.745  70.090  1.00  0.00    -0.182 A  
HETATM    5  C   UNL     1     -12.290   9.749  71.312  1.00  0.00    -0.465 A  
HETATM    6  C   UNL     1     -14.336  15.092  71.987  1.00  0.00    -0.586 C  
HETATM    7  N   UNL     1     -12.270  14.493  71.319  1.00  0.00    -0.340 NA 
HETATM    8  C   UNL     1     -12.807  10.932  71.824  1.00  0.00    -0.509 A  
HETATM    9  C   UNL     1     -11.717  14.547  70.057  1.00  0.00    -0.301 A  
HETATM   10  C   UNL     1     -12.559  12.108  71.133  1.00  0.00    -0.360 A  
HETATM   11  C   UNL     1     -12.884  15.547  72.098  1.00  0.00    -0.408 C  
HETATM   12  C   UNL     1     -11.800  12.186  69.951  1.00  0.00    -0.319 A  
HETATM   13  N   UNL     1     -11.523  13.463  69.352  1.00  0.00    -0.280 NA 
HETATM   14  C   UNL     1     -13.063  13.390  71.588  1.00  0.00    -0.375 A  
HETATM   15  N   UNL     1     -14.263  13.596  72.082  1.00  0.00    -0.475 NA 
BRANCH   4  16
HETATM   16  O   UNL     1     -11.118   8.575  69.529  1.00  0.00    -0.110 OA 
BRANCH  16  17
HETATM   17  C   UNL     1     -11.107   7.437  70.408  1.00  0.00    -0.265 C  
BRANCH  17  18
HETATM   18  C   UNL     1     -11.226   6.153  69.589  1.00  0.00    -0.488 C  
BRANCH  18  19
HETATM   19  C   UNL     1      -9.988   5.250  69.721  1.00  0.00    -0.236 C  
BRANCH  19  20
HETATM   20  N   UNL     1      -9.177   5.148  68.496  1.00  0.00    -0.112 NA 
HETATM   21  O   UNL     1      -7.705   2.597  68.475  1.00  0.00    -0.054 OA 
HETATM   22  C   UNL     1      -7.724   5.027  68.762  1.00  0.00    -0.078 C  
HETATM   23  C   UNL     1      -9.575   3.983  67.668  1.00  0.00    -0.159 C  
HETATM   24  C   UNL     1      -9.117   2.623  68.226  1.00  0.00    -0.179 C  
HETATM   25  C   UNL     1      -7.319   3.665  69.348  1.00  0.00    -0.049 C  
ENDBRANCH  19  20
ENDBRANCH  18  19
ENDBRANCH  17  18
ENDBRANCH  16  17
ENDBRANCH   4  16
BRANCH   9  26
HETATM   26  N   UNL     1     -11.425  15.695  69.339  1.00  0.00    -0.323 N  
HETATM   27  O   UNL     1     -11.616  15.165  67.097  1.00  0.00    -0.311 OA 
HETATM   28  H   UNL     1     -11.340  16.532  69.916  1.00  0.00     0.000 HD 
HETATM   29  C   UNL     1     -11.226  15.923  67.981  1.00  0.00    -0.319 C  
BRANCH  29  30
HETATM   30  C   UNL     1     -10.593  17.205  67.581  1.00  0.00    -0.343 A  
HETATM   31  N   UNL     1      -9.886  18.864  65.978  1.00  0.00    -0.498 NA 
HETATM   32  C   UNL     1     -10.440  17.672  66.295  1.00  0.00    -0.292 A  
HETATM   33  C   UNL     1      -9.438  19.602  67.008  1.00  0.00    -0.349 A  
HETATM   34  N   UNL     1      -9.558  19.269  68.289  1.00  0.00    -0.348 NA 
HETATM   35  N   UNL     1      -8.873  20.828  66.704  1.00  0.00    -0.530 NA 
HETATM   36  H1  UNL     1      -8.533  21.388  67.486  1.00  0.00     0.000 HD 
HETATM   37  C   UNL     1     -10.126  18.071  68.550  1.00  0.00    -0.393 A  
HETATM   38  H2  UNL     1      -9.532  21.378  66.152  1.00  0.00     0.000 HD 
ENDBRANCH  29  30
ENDBRANCH   9  26
ENDBRANCH   2   3
TORSDOF 8
ENDMDL
MODEL       12
REMARK 921   NORMALIZED FREE ENERGY PREDICTED BY IDOCK:   -6.71 KCAL/MOL
REMARK 922        TOTAL FREE ENERGY PREDICTED BY IDOCK:  -11.05 KCAL/MOL
REMARK 923 INTER-LIGAND FREE ENERGY PREDICTED BY IDOCK:  -10.51 KCAL/MOL
REMARK 924 INTRA-LIGAND FREE ENERGY PREDICTED BY IDOCK:   -0.54 KCAL/MOL
REMARK 927      BINDING AFFINITY PREDICTED BY RF-SCORE:    0.00 PKD
ROOT
HETATM    1  C   UNL     1     -10.821  11.269  66.860  1.00  0.00    -0.282 C  
HETATM    2  O   UNL     1     -10.160  11.390  68.116  1.00  0.00    -0.178 OA 
ENDROOT
BRANCH   2   3
HETATM    3  C   UNL     1     -10.980  11.414  69.224  1.00  0.00    -0.229 A  
HETATM    4  C   UNL     1     -11.284  10.146  69.795  1.00  0.00    -0.272 A  
HETATM    5  C   UNL     1     -12.090  10.061  70.942  1.00  0.00    -0.448 A  
HETATM    6  C   UNL     1     -14.229  15.340  71.806  1.00  0.00    -0.568 C  
HETATM    7  N   UNL     1     -12.105  14.791  71.298  1.00  0.00    -0.324 NA 
HETATM    8  C   UNL     1     -12.662  11.203  71.487  1.00  0.00    -0.499 A  
HETATM    9  C   UNL     1     -11.434  14.938  70.102  1.00  0.00    -0.279 A  
HETATM   10  C   UNL     1     -12.358  12.426  70.911  1.00  0.00    -0.358 A  
HETATM   11  C   UNL     1     -12.798  15.785  72.089  1.00  0.00    -0.437 C  
HETATM   12  C   UNL     1     -11.489  12.591  69.816  1.00  0.00    -0.141 A  
HETATM   13  N   UNL     1     -11.166  13.909  69.342  1.00  0.00    -0.247 NA 
HETATM   14  C   UNL     1     -12.912  13.671  71.408  1.00  0.00    -0.347 A  
HETATM   15  N   UNL     1     -14.155  13.840  71.798  1.00  0.00    -0.304 NA 
BRANCH   4  16
HETATM   16  O   UNL     1     -10.744   9.021  69.199  1.00  0.00    -0.222 OA 
BRANCH  16  17
HETATM   17  C   UNL     1     -11.118   7.772  69.804  1.00  0.00    -0.089 C  
BRANCH  17  18
HETATM   18  C   UNL     1      -9.919   6.826  69.817  1.00  0.00    -0.189 C  
BRANCH  18  19
HETATM   19  C   UNL     1     -10.194   5.533  70.606  1.00  0.00    -0.240 C  
BRANCH  19  20
HETATM   20  N   UNL     1      -9.241   5.275  71.699  1.00  0.00    -0.144 NA 
HETATM   21  O   UNL     1     -10.553   5.705  74.300  1.00  0.00    -0.262 OA 
HETATM   22  C   UNL     1      -9.003   6.456  72.561  1.00  0.00    -0.136 C  
HETATM   23  C   UNL     1      -9.695   4.169  72.576  1.00  0.00    -0.149 C  
HETATM   24  C   UNL     1     -10.856   4.543  73.517  1.00  0.00    -0.283 C  
HETATM   25  C   UNL     1     -10.198   6.810  73.460  1.00  0.00    -0.293 C  
ENDBRANCH  19  20
ENDBRANCH  18  19
ENDBRANCH  17  18
ENDBRANCH  16  17
ENDBRANCH   4  16
BRANCH   9  26
HETATM   26  N   UNL     1     -11.083  16.135  69.501  1.00  0.00    -0.327 N  
HETATM   27  O   UNL     1     -11.243  15.826  67.215  1.00  0.00    -0.263 OA 
HETATM   28  H   UNL     1     -10.979  16.911  70.156  1.00  0.00     0.000 HD 
HETATM   29  C   UNL     1     -10.845  16.481  68.174  1.00  0.00    -0.345 C  
BRANCH  29  30
HETATM   30  C   UNL     1     -10.155  17.769  67.910  1.00  0.00    -0.342 A  
HETATM   31  N   UNL     1     -10.057  20.056  67.146  1.00  0.00    -0.425 NA 
HETATM   32  C   UNL     1     -10.715  18.891  67.339  1.00  0.00    -0.444 A  
HETATM   33  C   UNL     1      -8.766  20.077  67.519  1.00  0.00    -0.344 A  
HETATM   34  N   UNL     1      -8.129  19.069  68.107  1.00  0.00    -0.300 NA 
HETATM   35  N   UNL     1      -8.078  21.263  67.336  1.00  0.00    -0.527 NA 
HETATM   36  H1  UNL     1      -7.098  21.279  67.619  1.00  0.00     0.000 HD 
HETATM   37  C   UNL     1      -8.836  17.930  68.282  1.00  0.00    -0.275 A  
HETATM   38  H2  UNL     1      -8.579  22.022  67.800  1.00  0.00     0.000 HD 
ENDBRANCH  29  30
ENDBRANCH   9  26
ENDBRANCH   2   3
TORSDOF 8
ENDMDL
MODEL       13
REMARK 921   NORMALIZED FREE ENERGY PREDICTED BY IDOCK:   -6.68 KCAL/MOL
REMARK 922        TOTAL FREE ENERGY PREDICTED BY IDOCK:  -11.01 KCAL/MOL
REMARK 923 INTER-LIGAND FREE ENERGY PREDICTED BY IDOCK:   -9.78 KCAL/MOL
REMARK 924 INTRA-LIGAND FREE ENERGY PREDICTED BY IDOCK:   -1.23 KCAL/MOL
REMARK 927      BINDING AFFINITY PREDICTED BY RF-SCORE:    0.00 PKD
ROOT
HETATM    1  C   UNL     1      -7.732   9.912  68.991  1.00  0.00    -0.089 C  
HETATM    2  O   UNL     1      -8.981   9.390  68.549  1.00  0.00    -0.128 OA 
ENDROOT
BRANCH   2   3
HETATM    3  C   UNL     1      -9.355   9.733  67.267  1.00  0.00    -0.138 A  
HETATM    4  C   UNL     1      -8.887   8.870  66.236  1.00  0.00    -0.158 A  
HETATM    5  C   UNL     1      -9.232   9.115  64.897  1.00  0.00    -0.135 A  
HETATM    6  C   UNL     1     -11.748  14.297  64.802  1.00  0.00    -0.415 C  
HETATM    7  N   UNL     1     -12.111  12.627  66.268  1.00  0.00    -0.568 NA 
HETATM    8  C   UNL     1      -9.967  10.243  64.555  1.00  0.00    -0.359 A  
HETATM    9  C   UNL     1     -11.704  12.522  67.582  1.00  0.00    -0.361 A  
HETATM   10  C   UNL     1     -10.406  11.073  65.574  1.00  0.00    -0.321 A  
HETATM   11  C   UNL     1     -12.872  13.676  65.625  1.00  0.00    -0.371 C  
HETATM   12  C   UNL     1     -10.171  10.839  66.942  1.00  0.00    -0.227 A  
HETATM   13  N   UNL     1     -10.741  11.710  67.932  1.00  0.00    -0.193 NA 
HETATM   14  C   UNL     1     -11.174  12.275  65.312  1.00  0.00    -0.328 A  
HETATM   15  N   UNL     1     -10.939  13.121  64.334  1.00  0.00    -0.370 NA 
BRANCH   4  16
HETATM   16  O   UNL     1      -8.112   7.785  66.602  1.00  0.00    -0.107 OA 
BRANCH  16  17
HETATM   17  C   UNL     1      -6.938   7.576  65.799  1.00  0.00    -0.061 C  
BRANCH  17  18
HETATM   18  C   UNL     1      -6.689   6.079  65.629  1.00  0.00    -0.048 C  
BRANCH  18  19
HETATM   19  C   UNL     1      -7.742   5.401  64.736  1.00  0.00    -0.090 C  
BRANCH  19  20
HETATM   20  N   UNL     1      -8.355   4.199  65.325  1.00  0.00    -0.108 NA 
HETATM   21  O   UNL     1     -11.247   4.169  64.770  1.00  0.00    -0.318 OA 
HETATM   22  C   UNL     1      -9.396   4.504  66.335  1.00  0.00    -0.151 C  
HETATM   23  C   UNL     1      -8.979   3.336  64.292  1.00  0.00    -0.107 C  
HETATM   24  C   UNL     1     -10.305   3.880  63.729  1.00  0.00    -0.195 C  
HETATM   25  C   UNL     1     -10.688   5.074  65.730  1.00  0.00    -0.079 C  
ENDBRANCH  19  20
ENDBRANCH  18  19
ENDBRANCH  17  18
ENDBRANCH  16  17
ENDBRANCH   4  16
BRANCH   9  26
HETATM   26  N   UNL     1     -12.133  13.307  68.638  1.00  0.00    -0.297 N  
HETATM   27  O   UNL     1     -11.011  15.324  68.494  1.00  0.00    -0.245 OA 
HETATM   28  H   UNL     1     -12.926  12.916  69.147  1.00  0.00     0.000 HD 
HETATM   29  C   UNL     1     -11.690  14.529  69.137  1.00  0.00    -0.314 C  
BRANCH  29  30
HETATM   30  C   UNL     1     -12.150  14.930  70.490  1.00  0.00    -0.378 A  
HETATM   31  N   UNL     1     -13.504  14.698  72.474  1.00  0.00    -0.431 NA 
HETATM   32  C   UNL     1     -13.139  14.318  71.229  1.00  0.00    -0.355 A  
HETATM   33  C   UNL     1     -12.863  15.764  72.981  1.00  0.00    -0.502 A  
HETATM   34  N   UNL     1     -11.874  16.414  72.376  1.00  0.00    -0.532 NA 
HETATM   35  N   UNL     1     -13.219  16.163  74.257  1.00  0.00    -0.861 NA 
HETATM   36  H1  UNL     1     -12.732  16.973  74.643  1.00  0.00     0.000 HD 
HETATM   37  C   UNL     1     -11.543  15.988  71.136  1.00  0.00    -0.443 A  
HETATM   38  H2  UNL     1     -13.128  15.375  74.898  1.00  0.00     0.000 HD 
ENDBRANCH  29  30
ENDBRANCH   9  26
ENDBRANCH   2   3
TORSDOF 8
ENDMDL
MODEL       14
REMARK 921   NORMALIZED FREE ENERGY PREDICTED BY IDOCK:   -6.63 KCAL/MOL
REMARK 922        TOTAL FREE ENERGY PREDICTED BY IDOCK:  -10.93 KCAL/MOL
REMARK 923 INTER-LIGAND FREE ENERGY PREDICTED BY IDOCK:   -9.83 KCAL/MOL
REMARK 924 INTRA-LIGAND FREE ENERGY PREDICTED BY IDOCK:   -1.10 KCAL/MOL
REMARK 927      BINDING AFFINITY PREDICTED BY RF-SCORE:    0.00 PKD
ROOT
HETATM    1  C   UNL     1      -6.466  11.945  68.430  1.00  0.00    -0.054 C  
HETATM    2  O   UNL     1      -7.647  11.765  69.206  1.00  0.00     0.010 OA 
ENDROOT
BRANCH   2   3
HETATM    3  C   UNL     1      -8.740  11.268  68.528  1.00  0.00    -0.156 A  
HETATM    4  C   UNL     1      -8.954   9.866  68.646  1.00  0.00    -0.128 A  
HETATM    5  C   UNL     1     -10.054   9.262  68.015  1.00  0.00    -0.234 A  
HETATM    6  C   UNL     1     -12.361  13.285  64.597  1.00  0.00    -0.391 C  
HETATM    7  N   UNL     1     -11.674  13.531  66.727  1.00  0.00    -0.369 NA 
HETATM    8  C   UNL     1     -10.900  10.010  67.207  1.00  0.00    -0.284 A  
HETATM    9  C   UNL     1     -10.547  14.164  67.207  1.00  0.00    -0.277 A  
HETATM   10  C   UNL     1     -10.669  11.373  67.101  1.00  0.00    -0.292 A  
HETATM   11  C   UNL     1     -12.720  14.044  65.869  1.00  0.00    -0.397 C  
HETATM   12  C   UNL     1      -9.638  12.055  67.775  1.00  0.00    -0.193 A  
HETATM   13  N   UNL     1      -9.530  13.485  67.672  1.00  0.00    -0.215 NA 
HETATM   14  C   UNL     1     -11.496  12.233  66.277  1.00  0.00    -0.380 A  
HETATM   15  N   UNL     1     -11.946  11.925  65.081  1.00  0.00    -0.281 NA 
BRANCH   4  16
HETATM   16  O   UNL     1      -8.064   9.137  69.413  1.00  0.00    -0.095 OA 
BRANCH  16  17
HETATM   17  C   UNL     1      -7.849   7.784  68.977  1.00  0.00    -0.118 C  
BRANCH  17  18
HETATM   18  C   UNL     1      -8.068   6.825  70.146  1.00  0.00    -0.128 C  
BRANCH  18  19
HETATM   19  C   UNL     1      -9.556   6.645  70.493  1.00  0.00    -0.169 C  
BRANCH  19  20
HETATM   20  N   UNL     1      -9.885   6.895  71.906  1.00  0.00    -0.165 NA 
HETATM   21  O   UNL     1     -12.244   8.648  72.095  1.00  0.00    -0.343 OA 
HETATM   22  C   UNL     1      -9.824   8.328  72.279  1.00  0.00    -0.294 C  
HETATM   23  C   UNL     1     -11.241   6.403  72.252  1.00  0.00    -0.276 C  
HETATM   24  C   UNL     1     -12.388   7.275  71.708  1.00  0.00    -0.341 C  
HETATM   25  C   UNL     1     -10.970   9.164  71.688  1.00  0.00    -0.374 C  
ENDBRANCH  19  20
ENDBRANCH  18  19
ENDBRANCH  17  18
ENDBRANCH  16  17
ENDBRANCH   4  16
BRANCH   9  26
HETATM   26  N   UNL     1     -10.283  15.522  67.150  1.00  0.00    -0.255 N  
HETATM   27  O   UNL     1     -10.549  16.180  64.950  1.00  0.00    -0.622 OA 
HETATM   28  H   UNL     1     -10.181  15.961  68.065  1.00  0.00     0.000 HD 
HETATM   29  C   UNL     1     -10.131  16.402  66.083  1.00  0.00    -0.346 C  
BRANCH  29  30
HETATM   30  C   UNL     1      -9.516  17.724  66.360  1.00  0.00    -0.277 A  
HETATM   31  N   UNL     1      -9.587  20.096  66.798  1.00  0.00    -0.411 NA 
HETATM   32  C   UNL     1     -10.186  18.918  66.513  1.00  0.00    -0.414 A  
HETATM   33  C   UNL     1      -8.247  20.071  66.902  1.00  0.00    -0.324 A  
HETATM   34  N   UNL     1      -7.499  18.976  66.805  1.00  0.00    -0.214 NA 
HETATM   35  N   UNL     1      -7.617  21.265  67.200  1.00  0.00    -0.755 NA 
HETATM   36  H1  UNL     1      -6.600  21.246  67.279  1.00  0.00     0.000 HD 
HETATM   37  C   UNL     1      -8.150  17.824  66.527  1.00  0.00    -0.272 A  
HETATM   38  H2  UNL     1      -8.017  21.657  68.053  1.00  0.00     0.000 HD 
ENDBRANCH  29  30
ENDBRANCH   9  26
ENDBRANCH   2   3
TORSDOF 8
ENDMDL
MODEL       15
REMARK 921   NORMALIZED FREE ENERGY PREDICTED BY IDOCK:   -6.56 KCAL/MOL
REMARK 922        TOTAL FREE ENERGY PREDICTED BY IDOCK:  -10.83 KCAL/MOL
REMARK 923 INTER-LIGAND FREE ENERGY PREDICTED BY IDOCK:   -9.44 KCAL/MOL
REMARK 924 INTRA-LIGAND FREE ENERGY PREDICTED BY IDOCK:   -1.39 KCAL/MOL
REMARK 927      BINDING AFFINITY PREDICTED BY RF-SCORE:    0.00 PKD
ROOT
HETATM    1  C   UNL     1     -13.373   9.876  71.402  1.00  0.00    -0.365 C  
HETATM    2  O   UNL     1     -11.985   9.573  71.494  1.00  0.00    -0.348 OA 
ENDROOT
BRANCH   2   3
HETATM    3  C   UNL     1     -11.487   8.740  70.515  1.00  0.00    -0.196 A  
HETATM    4  C   UNL     1     -11.479   7.352  70.831  1.00  0.00    -0.286 A  
HETATM    5  C   UNL     1     -11.016   6.415  69.893  1.00  0.00    -0.410 A  
HETATM    6  C   UNL     1      -8.635   9.455  65.617  1.00  0.00    -0.142 C  
HETATM    7  N   UNL     1     -10.597   9.851  66.649  1.00  0.00    -0.159 NA 
HETATM    8  C   UNL     1     -10.490   6.836  68.678  1.00  0.00    -0.232 A  
HETATM    9  C   UNL     1     -10.911  10.831  67.567  1.00  0.00    -0.288 A  
HETATM   10  C   UNL     1     -10.502   8.192  68.394  1.00  0.00    -0.205 A  
HETATM   11  C   UNL     1     -10.035   9.983  65.322  1.00  0.00    -0.298 C  
HETATM   12  C   UNL     1     -11.030   9.175  69.252  1.00  0.00    -0.061 A  
HETATM   13  N   UNL     1     -11.077  10.550  68.833  1.00  0.00    -0.245 NA 
HETATM   14  C   UNL     1      -9.970   8.725  67.154  1.00  0.00    -0.230 A  
HETATM   15  N   UNL     1      -8.861   8.320  66.575  1.00  0.00    -0.142 NA 
BRANCH   4  16
HETATM   16  O   UNL     1     -11.958   6.966  72.069  1.00  0.00    -0.298 OA 
BRANCH  16  17
HETATM   17  C   UNL     1     -11.064   6.148  72.842  1.00  0.00    -0.247 C  
BRANCH  17  18
HETATM   18  C   UNL     1     -10.382   6.998  73.912  1.00  0.00    -0.386 C  
BRANCH  18  19
HETATM   19  C   UNL     1      -8.852   6.834  73.911  1.00  0.00    -0.152 C  
BRANCH  19  20
HETATM   20  N   UNL     1      -8.109   8.061  73.575  1.00  0.00    -0.182 NA 
HETATM   21  O   UNL     1      -6.169   7.507  71.430  1.00  0.00    -0.036 OA 
HETATM   22  C   UNL     1      -6.648   7.941  73.791  1.00  0.00    -0.099 C  
HETATM   23  C   UNL     1      -8.318   8.462  72.163  1.00  0.00    -0.164 C  
HETATM   24  C   UNL     1      -7.570   7.588  71.139  1.00  0.00    -0.081 C  
HETATM   25  C   UNL     1      -5.950   7.035  72.765  1.00  0.00    -0.041 C  
ENDBRANCH  19  20
ENDBRANCH  18  19
ENDBRANCH  17  18
ENDBRANCH  16  17
ENDBRANCH   4  16
BRANCH   9  26
HETATM   26  N   UNL     1     -10.964  12.193  67.325  1.00  0.00    -0.247 N  
HETATM   27  O   UNL     1     -12.556  12.536  65.684  1.00  0.00    -0.612 OA 
HETATM   28  H   UNL     1     -10.430  12.752  67.991  1.00  0.00     0.000 HD 
HETATM   29  C   UNL     1     -11.608  12.946  66.347  1.00  0.00    -0.371 C  
BRANCH  29  30
HETATM   30  C   UNL     1     -11.181  14.357  66.169  1.00  0.00    -0.336 A  
HETATM   31  N   UNL     1     -10.700  16.324  64.858  1.00  0.00    -0.685 NA 
HETATM   32  C   UNL     1     -11.061  15.027  64.972  1.00  0.00    -0.413 A  
HETATM   33  C   UNL     1     -10.418  16.964  66.006  1.00  0.00    -0.290 A  
HETATM   34  N   UNL     1     -10.529  16.432  67.219  1.00  0.00    -0.303 NA 
HETATM   35  N   UNL     1     -10.054  18.296  65.911  1.00  0.00    -0.574 NA 
HETATM   36  H1  UNL     1      -9.840  18.781  66.782  1.00  0.00     0.000 HD 
HETATM   37  C   UNL     1     -10.900  15.133  67.275  1.00  0.00    -0.316 A  
HETATM   38  H2  UNL     1     -10.773  18.810  65.402  1.00  0.00     0.000 HD 
ENDBRANCH  29  30
ENDBRANCH   9  26
ENDBRANCH   2   3
TORSDOF 8
ENDMDL
MODEL       16
REMARK 921   NORMALIZED FREE ENERGY PREDICTED BY IDOCK:   -6.54 KCAL/MOL
REMARK 922        TOTAL FREE ENERGY PREDICTED BY IDOCK:  -10.80 KCAL/MOL
REMARK 923 INTER-LIGAND FREE ENERGY PREDICTED BY IDOCK:   -9.18 KCAL/MOL
REMARK 924 INTRA-LIGAND FREE ENERGY PREDICTED BY IDOCK:   -1.62 KCAL/MOL
REMARK 927      BINDING AFFINITY PREDICTED BY RF-SCORE:    0.00 PKD
ROOT
HETATM    1  C   UNL     1     -12.543   7.362  71.378  1.00  0.00    -0.370 C  
HETATM    2  O   UNL     1     -11.911   8.366  72.167  1.00  0.00    -0.326 OA 
ENDROOT
BRANCH   2   3
HETATM    3  C   UNL     1     -10.534   8.388  72.119  1.00  0.00    -0.326 A  
HETATM    4  C   UNL     1      -9.869   7.628  73.123  1.00  0.00    -0.279 A  
HETATM    5  C   UNL     1      -8.467   7.563  73.149  1.00  0.00    -0.178 A  
HETATM    6  C   UNL     1      -6.601  11.438  69.316  1.00  0.00    -0.106 C  
HETATM    7  N   UNL     1      -8.268   9.948  69.053  1.00  0.00    -0.115 NA 
HETATM    8  C   UNL     1      -7.711   8.299  72.245  1.00  0.00    -0.168 A  
HETATM    9  C   UNL     1      -9.630  10.162  69.048  1.00  0.00    -0.196 A  
HETATM   10  C   UNL     1      -8.379   9.036  71.280  1.00  0.00    -0.180 A  
HETATM   11  C   UNL     1      -7.240  10.563  68.242  1.00  0.00    -0.083 C  
HETATM   12  C   UNL     1      -9.779   9.076  71.144  1.00  0.00    -0.299 A  
HETATM   13  N   UNL     1     -10.379   9.802  70.058  1.00  0.00    -0.245 NA 
HETATM   14  C   UNL     1      -7.675   9.839  70.299  1.00  0.00    -0.172 A  
HETATM   15  N   UNL     1      -6.621  10.583  70.550  1.00  0.00    -0.314 NA 
BRANCH   4  16
HETATM   16  O   UNL     1     -10.647   6.950  74.043  1.00  0.00    -0.349 OA 
BRANCH  16  17
HETATM   17  C   UNL     1     -10.249   5.591  74.294  1.00  0.00    -0.275 C  
BRANCH  17  18
HETATM   18  C   UNL     1     -10.866   4.671  73.244  1.00  0.00    -0.346 C  
BRANCH  18  19
HETATM   19  C   UNL     1      -9.807   3.885  72.450  1.00  0.00    -0.157 C  
BRANCH  19  20
HETATM   20  N   UNL     1     -10.107   3.740  71.015  1.00  0.00    -0.038 NA 
HETATM   21  O   UNL     1      -7.715   4.376  69.419  1.00  0.00    -0.055 OA 
HETATM   22  C   UNL     1      -9.932   4.996  70.249  1.00  0.00    -0.255 C  
HETATM   23  C   UNL     1      -9.254   2.708  70.376  1.00  0.00    -0.130 C  
HETATM   24  C   UNL     1      -7.795   3.144  70.148  1.00  0.00    -0.043 C  
HETATM   25  C   UNL     1      -8.462   5.408  70.074  1.00  0.00    -0.111 C  
ENDBRANCH  19  20
ENDBRANCH  18  19
ENDBRANCH  17  18
ENDBRANCH  16  17
ENDBRANCH   4  16
BRANCH   9  26
HETATM   26  N   UNL     1     -10.346  10.866  68.095  1.00  0.00    -0.171 N  
HETATM   27  O   UNL     1     -10.245   9.653  66.129  1.00  0.00    -0.266 OA 
HETATM   28  H   UNL     1     -10.870  11.656  68.472  1.00  0.00     0.000 HD 
HETATM   29  C   UNL     1     -10.486  10.702  66.719  1.00  0.00    -0.247 C  
BRANCH  29  30
HETATM   30  C   UNL     1     -11.052  11.833  65.943  1.00  0.00    -0.355 A  
HETATM   31  N   UNL     1     -12.433  13.793  65.665  1.00  0.00    -0.486 NA 
HETATM   32  C   UNL     1     -11.967  12.757  66.398  1.00  0.00    -0.375 A  
HETATM   33  C   UNL     1     -11.975  13.881  64.405  1.00  0.00    -0.450 A  
HETATM   34  N   UNL     1     -11.070  13.068  63.867  1.00  0.00    -0.401 NA 
HETATM   35  N   UNL     1     -12.435  14.939  63.641  1.00  0.00    -1.008 NA 
HETATM   36  H1  UNL     1     -12.087  15.005  62.684  1.00  0.00     0.000 HD 
HETATM   37  C   UNL     1     -10.633  12.054  64.646  1.00  0.00    -0.307 A  
HETATM   38  H2  UNL     1     -12.253  15.815  64.131  1.00  0.00     0.000 HD 
ENDBRANCH  29  30
ENDBRANCH   9  26
ENDBRANCH   2   3
TORSDOF 8
ENDMDL
MODEL       17
REMARK 921   NORMALIZED FREE ENERGY PREDICTED BY IDOCK:   -6.52 KCAL/MOL
REMARK 922        TOTAL FREE ENERGY PREDICTED BY IDOCK:  -10.78 KCAL/MOL
REMARK 923 INTER-LIGAND FREE ENERGY PREDICTED BY IDOCK:  -10.36 KCAL/MOL
REMARK 924 INTRA-LIGAND FREE ENERGY PREDICTED BY IDOCK:   -0.42 KCAL/MOL
REMARK 927      BINDING AFFINITY PREDICTED BY RF-SCORE:    0.00 PKD
ROOT
HETATM    1  C   UNL     1      -7.710  13.895  68.740  1.00  0.00    -0.096 C  
HETATM    2  O   UNL     1      -9.085  14.265  68.763  1.00  0.00    -0.179 OA 
ENDROOT
BRANCH   2   3
HETATM    3  C   UNL     1      -9.631  14.621  67.548  1.00  0.00    -0.206 A  
HETATM    4  C   UNL     1      -9.682  16.018  67.279  1.00  0.00    -0.232 A  
HETATM    5  C   UNL     1     -10.196  16.486  66.059  1.00  0.00    -0.372 A  
HETATM    6  C   UNL     1     -12.551  11.924  63.445  1.00  0.00    -0.431 C  
HETATM    7  N   UNL     1     -10.557  12.025  64.486  1.00  0.00    -0.294 NA 
HETATM    8  C   UNL     1     -10.730  15.599  65.133  1.00  0.00    -0.463 A  
HETATM    9  C   UNL     1     -10.190  11.506  65.710  1.00  0.00    -0.249 A  
HETATM   10  C   UNL     1     -10.676  14.244  65.418  1.00  0.00    -0.353 A  
HETATM   11  C   UNL     1     -11.139  11.356  63.342  1.00  0.00    -0.219 C  
HETATM   12  C   UNL     1     -10.097  13.702  66.582  1.00  0.00    -0.277 A  
HETATM   13  N   UNL     1     -10.010  12.278  66.750  1.00  0.00    -0.203 NA 
HETATM   14  C   UNL     1     -11.213  13.244  64.515  1.00  0.00    -0.362 A  
HETATM   15  N   UNL     1     -12.346  13.353  63.858  1.00  0.00    -0.676 NA 
BRANCH   4  16
HETATM   16  O   UNL     1      -9.192  16.881  68.242  1.00  0.00    -0.227 OA 
BRANCH  16  17
HETATM   17  C   UNL     1     -10.182  17.437  69.123  1.00  0.00    -0.273 C  
BRANCH  17  18
HETATM   18  C   UNL     1     -11.282  16.407  69.378  1.00  0.00    -0.267 C  
BRANCH  18  19
HETATM   19  C   UNL     1     -11.447  16.075  70.871  1.00  0.00    -0.416 C  
BRANCH  19  20
HETATM   20  N   UNL     1     -12.846  15.965  71.318  1.00  0.00    -0.408 NA 
HETATM   21  O   UNL     1     -13.146  13.657  73.123  1.00  0.00    -0.439 OA 
HETATM   22  C   UNL     1     -13.488  14.687  70.929  1.00  0.00    -0.243 C  
HETATM   23  C   UNL     1     -12.966  16.091  72.791  1.00  0.00    -0.431 C  
HETATM   24  C   UNL     1     -12.494  14.852  73.574  1.00  0.00    -0.456 C  
HETATM   25  C   UNL     1     -12.964  13.474  71.714  1.00  0.00    -0.348 C  
ENDBRANCH  19  20
ENDBRANCH  18  19
ENDBRANCH  17  18
ENDBRANCH  16  17
ENDBRANCH   4  16
BRANCH   9  26
HETATM   26  N   UNL     1     -10.094  10.164  66.034  1.00  0.00    -0.255 N  
HETATM   27  O   UNL     1      -7.880   9.740  66.548  1.00  0.00    -0.107 OA 
HETATM   28  H   UNL     1     -10.996   9.695  66.125  1.00  0.00     0.000 HD 
HETATM   29  C   UNL     1      -9.001   9.331  66.262  1.00  0.00    -0.159 C  
BRANCH  29  30
HETATM   30  C   UNL     1      -9.236   7.866  66.252  1.00  0.00    -0.231 A  
HETATM   31  N   UNL     1      -8.628   5.578  65.782  1.00  0.00    -0.140 NA 
HETATM   32  C   UNL     1      -8.388   6.908  65.740  1.00  0.00    -0.142 A  
HETATM   33  C   UNL     1      -9.791   5.202  66.341  1.00  0.00    -0.193 A  
HETATM   34  N   UNL     1     -10.670   6.031  66.895  1.00  0.00    -0.321 NA 
HETATM   35  N   UNL     1     -10.050   3.845  66.399  1.00  0.00    -0.393 NA 
HETATM   36  H1  UNL     1     -10.933   3.559  66.823  1.00  0.00     0.000 HD 
HETATM   37  C   UNL     1     -10.378   7.350  66.831  1.00  0.00    -0.296 A  
HETATM   38  H2  UNL     1      -9.278   3.371  66.869  1.00  0.00     0.000 HD 
ENDBRANCH  29  30
ENDBRANCH   9  26
ENDBRANCH   2   3
TORSDOF 8
ENDMDL
MODEL       18
REMARK 921   NORMALIZED FREE ENERGY PREDICTED BY IDOCK:   -6.51 KCAL/MOL
REMARK 922        TOTAL FREE ENERGY PREDICTED BY IDOCK:  -10.75 KCAL/MOL
REMARK 923 INTER-LIGAND FREE ENERGY PREDICTED BY IDOCK:   -9.10 KCAL/MOL
REMARK 924 INTRA-LIGAND FREE ENERGY PREDICTED BY IDOCK:   -1.65 KCAL/MOL
REMARK 927      BINDING AFFINITY PREDICTED BY RF-SCORE:    0.00 PKD
ROOT
HETATM    1  C   UNL     1      -7.549  11.367  69.198  1.00  0.00    -0.038 C  
HETATM    2  O   UNL     1      -7.086  11.221  67.859  1.00  0.00    -0.074 OA 
ENDROOT
BRANCH   2   3
HETATM    3  C   UNL     1      -7.987  10.678  66.969  1.00  0.00    -0.121 A  
HETATM    4  C   UNL     1      -7.795   9.301  66.659  1.00  0.00    -0.104 A  
HETATM    5  C   UNL     1      -8.673   8.644  65.782  1.00  0.00    -0.212 A  
HETATM    6  C   UNL     1     -12.001  12.735  63.462  1.00  0.00    -0.555 C  
HETATM    7  N   UNL     1     -11.428  12.503  65.628  1.00  0.00    -0.342 NA 
HETATM    8  C   UNL     1      -9.691   9.345  65.148  1.00  0.00    -0.106 A  
HETATM    9  C   UNL     1     -10.531  13.240  66.372  1.00  0.00    -0.284 A  
HETATM   10  C   UNL     1      -9.855  10.685  65.459  1.00  0.00    -0.316 A  
HETATM   11  C   UNL     1     -12.571  12.951  64.861  1.00  0.00    -0.458 C  
HETATM   12  C   UNL     1      -9.066  11.383  66.393  1.00  0.00    -0.193 A  
HETATM   13  N   UNL     1      -9.368  12.752  66.714  1.00  0.00    -0.236 NA 
HETATM   14  C   UNL     1     -10.886  11.499  64.843  1.00  0.00    -0.283 A  
HETATM   15  N   UNL     1     -11.221  11.457  63.573  1.00  0.00    -0.340 NA 
BRANCH   4  16
HETATM   16  O   UNL     1      -6.741   8.642  67.264  1.00  0.00    -0.061 OA 
BRANCH  16  17
HETATM   17  C   UNL     1      -7.085   7.405  67.910  1.00  0.00    -0.085 C  
BRANCH  17  18
HETATM   18  C   UNL     1      -7.549   7.681  69.339  1.00  0.00    -0.095 C  
BRANCH  18  19
HETATM   19  C   UNL     1      -8.804   6.876  69.719  1.00  0.00    -0.141 C  
BRANCH  19  20
HETATM   20  N   UNL     1     -10.045   7.350  69.083  1.00  0.00    -0.184 NA 
HETATM   21  O   UNL     1     -11.811   8.561  71.105  1.00  0.00    -0.285 OA 
HETATM   22  C   UNL     1     -11.264   6.697  69.617  1.00  0.00    -0.340 C  
HETATM   23  C   UNL     1     -10.221   8.814  69.241  1.00  0.00    -0.210 C  
HETATM   24  C   UNL     1     -10.639   9.254  70.656  1.00  0.00    -0.262 C  
HETATM   25  C   UNL     1     -11.624   7.142  71.043  1.00  0.00    -0.309 C  
ENDBRANCH  19  20
ENDBRANCH  18  19
ENDBRANCH  17  18
ENDBRANCH  16  17
ENDBRANCH   4  16
BRANCH   9  26
HETATM   26  N   UNL     1     -10.664  14.570  66.732  1.00  0.00    -0.287 N  
HETATM   27  O   UNL     1     -10.231  15.836  64.846  1.00  0.00    -0.449 OA 
HETATM   28  H   UNL     1     -11.053  14.709  67.664  1.00  0.00     0.000 HD 
HETATM   29  C   UNL     1     -10.367  15.755  66.063  1.00  0.00    -0.340 C  
BRANCH  29  30
HETATM   30  C   UNL     1     -10.310  17.004  66.863  1.00  0.00    -0.303 A  
HETATM   31  N   UNL     1     -10.240  19.401  67.134  1.00  0.00    -0.381 NA 
HETATM   32  C   UNL     1     -10.258  18.288  66.367  1.00  0.00    -0.403 A  
HETATM   33  C   UNL     1     -10.245  19.204  68.464  1.00  0.00    -0.367 A  
HETATM   34  N   UNL     1     -10.325  18.017  69.056  1.00  0.00    -0.281 NA 
HETATM   35  N   UNL     1     -10.234  20.332  69.266  1.00  0.00    -0.324 NA 
HETATM   36  H1  UNL     1     -10.237  20.183  70.276  1.00  0.00     0.000 HD 
HETATM   37  C   UNL     1     -10.347  16.938  68.242  1.00  0.00    -0.335 A  
HETATM   38  H2  UNL     1     -11.012  20.939  69.009  1.00  0.00     0.000 HD 
ENDBRANCH  29  30
ENDBRANCH   9  26
ENDBRANCH   2   3
TORSDOF 8
ENDMDL
MODEL       19
REMARK 921   NORMALIZED FREE ENERGY PREDICTED BY IDOCK:   -6.50 KCAL/MOL
REMARK 922        TOTAL FREE ENERGY PREDICTED BY IDOCK:  -10.74 KCAL/MOL
REMARK 923 INTER-LIGAND FREE ENERGY PREDICTED BY IDOCK:   -9.68 KCAL/MOL
REMARK 924 INTRA-LIGAND FREE ENERGY PREDICTED BY IDOCK:   -1.06 KCAL/MOL
REMARK 927      BINDING AFFINITY PREDICTED BY RF-SCORE:    0.00 PKD
ROOT
HETATM    1  C   UNL     1     -11.759  13.064  68.320  1.00  0.00    -0.353 C  
HETATM    2  O   UNL     1     -12.274  12.511  67.112  1.00  0.00    -0.474 OA 
ENDROOT
BRANCH   2   3
HETATM    3  C   UNL     1     -11.336  12.169  66.161  1.00  0.00    -0.361 A  
HETATM    4  C   UNL     1     -11.152  13.112  65.110  1.00  0.00    -0.287 A  
HETATM    5  C   UNL     1     -10.202  12.872  64.103  1.00  0.00    -0.311 A  
HETATM    6  C   UNL     1      -8.405   7.448  64.839  1.00  0.00    -0.022 C  
HETATM    7  N   UNL     1      -8.695   9.020  66.425  1.00  0.00    -0.127 NA 
HETATM    8  C   UNL     1      -9.488  11.681  64.078  1.00  0.00    -0.072 A  
HETATM    9  C   UNL     1      -9.697   9.127  67.366  1.00  0.00    -0.162 A  
HETATM   10  C   UNL     1      -9.689  10.775  65.108  1.00  0.00    -0.319 A  
HETATM   11  C   UNL     1      -7.800   7.913  66.160  1.00  0.00    -0.094 C  
HETATM   12  C   UNL     1     -10.560  10.991  66.193  1.00  0.00    -0.228 A  
HETATM   13  N   UNL     1     -10.637  10.030  67.259  1.00  0.00    -0.258 NA 
HETATM   14  C   UNL     1      -8.992   9.504  65.163  1.00  0.00    -0.209 A  
HETATM   15  N   UNL     1      -8.772   8.720  64.131  1.00  0.00    -0.069 NA 
BRANCH   4  16
HETATM   16  O   UNL     1     -11.915  14.264  65.131  1.00  0.00    -0.363 OA 
BRANCH  16  17
HETATM   17  C   UNL     1     -11.212  15.468  64.783  1.00  0.00    -0.390 C  
BRANCH  17  18
HETATM   18  C   UNL     1     -10.541  16.050  66.026  1.00  0.00    -0.324 C  
BRANCH  18  19
HETATM   19  C   UNL     1     -10.309  17.568  65.917  1.00  0.00    -0.259 C  
BRANCH  19  20
HETATM   20  N   UNL     1     -10.729  18.333  67.103  1.00  0.00    -0.356 NA 
HETATM   21  O   UNL     1      -8.363  19.360  68.525  1.00  0.00    -0.346 OA 
HETATM   22  C   UNL     1     -10.217  17.771  68.375  1.00  0.00    -0.384 C  
HETATM   23  C   UNL     1     -10.284  19.746  67.033  1.00  0.00    -0.452 C  
HETATM   24  C   UNL     1      -8.779  19.951  67.286  1.00  0.00    -0.333 C  
HETATM   25  C   UNL     1      -8.706  17.970  68.571  1.00  0.00    -0.295 C  
ENDBRANCH  19  20
ENDBRANCH  18  19
ENDBRANCH  17  18
ENDBRANCH  16  17
ENDBRANCH   4  16
BRANCH   9  26
HETATM   26  N   UNL     1      -9.920   8.266  68.427  1.00  0.00    -0.184 N  
HETATM   27  O   UNL     1     -11.055   6.433  67.593  1.00  0.00    -0.339 OA 
HETATM   28  H   UNL     1      -9.432   8.530  69.283  1.00  0.00     0.000 HD 
HETATM   29  C   UNL     1     -10.685   7.109  68.548  1.00  0.00    -0.152 C  
BRANCH  29  30
HETATM   30  C   UNL     1     -10.981   6.617  69.917  1.00  0.00    -0.373 A  
HETATM   31  N   UNL     1     -12.275   6.523  71.951  1.00  0.00    -0.348 NA 
HETATM   32  C   UNL     1     -12.023   7.023  70.721  1.00  0.00    -0.345 A  
HETATM   33  C   UNL     1     -11.415   5.593  72.401  1.00  0.00    -0.251 A  
HETATM   34  N   UNL     1     -10.394   5.103  71.705  1.00  0.00    -0.208 NA 
HETATM   35  N   UNL     1     -11.660   5.065  73.656  1.00  0.00    -0.402 NA 
HETATM   36  H1  UNL     1     -11.007   4.359  73.998  1.00  0.00     0.000 HD 
HETATM   37  C   UNL     1     -10.192   5.632  70.478  1.00  0.00    -0.231 A  
HETATM   38  H2  UNL     1     -12.610   4.694  73.689  1.00  0.00     0.000 HD 
ENDBRANCH  29  30
ENDBRANCH   9  26
ENDBRANCH   2   3
TORSDOF 8
ENDMDL
MODEL       20
REMARK 921   NORMALIZED FREE ENERGY PREDICTED BY IDOCK:   -6.41 KCAL/MOL
REMARK 922        TOTAL FREE ENERGY PREDICTED BY IDOCK:  -10.60 KCAL/MOL
REMARK 923 INTER-LIGAND FREE ENERGY PREDICTED BY IDOCK:   -9.38 KCAL/MOL
REMARK 924 INTRA-LIGAND FREE ENERGY PREDICTED BY IDOCK:   -1.22 KCAL/MOL
REMARK 927      BINDING AFFINITY PREDICTED BY RF-SCORE:    0.00 PKD
ROOT
HETATM    1  C   UNL     1      -6.335  10.042  68.880  1.00  0.00    -0.044 C  
HETATM    2  O   UNL     1      -7.210   8.920  68.813  1.00  0.00    -0.072 OA 
ENDROOT
BRANCH   2   3
HETATM    3  C   UNL     1      -8.047   8.747  69.894  1.00  0.00    -0.109 A  
HETATM    4  C   UNL     1      -7.569   7.874  70.912  1.00  0.00    -0.078 A  
HETATM    5  C   UNL     1      -8.334   7.649  72.068  1.00  0.00    -0.129 A  
HETATM    6  C   UNL     1     -13.475  10.062  71.098  1.00  0.00    -0.230 C  
HETATM    7  N   UNL     1     -11.447  10.941  70.665  1.00  0.00    -0.242 NA 
HETATM    8  C   UNL     1      -9.596   8.213  72.199  1.00  0.00    -0.308 A  
HETATM    9  C   UNL     1     -10.813  11.103  69.451  1.00  0.00    -0.216 A  
HETATM   10  C   UNL     1     -10.044   9.055  71.193  1.00  0.00    -0.365 A  
HETATM   11  C   UNL     1     -12.751  11.405  71.088  1.00  0.00    -0.377 C  
HETATM   12  C   UNL     1      -9.294   9.392  70.050  1.00  0.00    -0.226 A  
HETATM   13  N   UNL     1      -9.808  10.343  69.103  1.00  0.00    -0.214 NA 
HETATM   14  C   UNL     1     -11.349   9.685  71.240  1.00  0.00    -0.388 A  
HETATM   15  N   UNL     1     -12.456   9.097  71.635  1.00  0.00    -0.337 NA 
BRANCH   4  16
HETATM   16  O   UNL     1      -6.333   7.283  70.730  1.00  0.00    -0.038 OA 
BRANCH  16  17
HETATM   17  C   UNL     1      -6.367   5.879  70.422  1.00  0.00    -0.032 C  
BRANCH  17  18
HETATM   18  C   UNL     1      -6.350   5.684  68.907  1.00  0.00    -0.037 C  
BRANCH  18  19
HETATM   19  C   UNL     1      -7.723   5.270  68.349  1.00  0.00    -0.080 C  
BRANCH  19  20
HETATM   20  N   UNL     1      -8.116   5.978  67.119  1.00  0.00    -0.105 NA 
HETATM   21  O   UNL     1     -10.735   5.000  66.190  1.00  0.00    -0.315 OA 
HETATM   22  C   UNL     1      -8.300   5.076  65.957  1.00  0.00    -0.114 C  
HETATM   23  C   UNL     1      -9.380   6.734  67.297  1.00  0.00    -0.134 C  
HETATM   24  C   UNL     1     -10.644   5.855  67.337  1.00  0.00    -0.282 C  
HETATM   25  C   UNL     1      -9.556   4.197  66.055  1.00  0.00    -0.194 C  
ENDBRANCH  19  20
ENDBRANCH  18  19
ENDBRANCH  17  18
ENDBRANCH  16  17
ENDBRANCH   4  16
BRANCH   9  26
HETATM   26  N   UNL     1     -11.204  11.950  68.429  1.00  0.00    -0.235 N  
HETATM   27  O   UNL     1     -11.505  10.649  66.540  1.00  0.00    -0.040 OA 
HETATM   28  H   UNL     1     -11.417  12.898  68.737  1.00  0.00     0.000 HD 
HETATM   29  C   UNL     1     -11.363  11.753  67.059  1.00  0.00    -0.321 C  
BRANCH  29  30
HETATM   30  C   UNL     1     -11.465  12.956  66.196  1.00  0.00    -0.393 A  
HETATM   31  N   UNL     1     -12.611  14.441  64.678  1.00  0.00    -0.653 NA 
HETATM   32  C   UNL     1     -12.548  13.316  65.425  1.00  0.00    -0.468 A  
HETATM   33  C   UNL     1     -11.516  15.220  64.687  1.00  0.00    -0.354 A  
HETATM   34  N   UNL     1     -10.426  14.991  65.414  1.00  0.00    -0.352 NA 
HETATM   35  N   UNL     1     -11.563  16.379  63.933  1.00  0.00    -1.602 NA 
HETATM   36  H1  UNL     1     -10.731  16.971  63.939  1.00  0.00     0.000 HD 
HETATM   37  C   UNL     1     -10.420  13.857  66.148  1.00  0.00    -0.297 A  
HETATM   38  H2  UNL     1     -12.375  16.931  64.209  1.00  0.00     0.000 HD 
ENDBRANCH  29  30
ENDBRANCH   9  26
ENDBRANCH   2   3
TORSDOF 8
ENDMDL
MODEL       21
REMARK 921   NORMALIZED FREE ENERGY PREDICTED BY IDOCK:   -6.41 KCAL/MOL
REMARK 922        TOTAL FREE ENERGY PREDICTED BY IDOCK:  -10.60 KCAL/MOL
REMARK 923 INTER-LIGAND FREE ENERGY PREDICTED BY IDOCK:   -9.54 KCAL/MOL
REMARK 924 INTRA-LIGAND FREE ENERGY PREDICTED BY IDOCK:   -1.07 KCAL/MOL
REMARK 927      BINDING AFFINITY PREDICTED BY RF-SCORE:    0.00 PKD
ROOT
HETATM    1  C   UNL     1     -11.840  10.347  71.029  1.00  0.00    -0.361 C  
HETATM    2  O   UNL     1     -10.583   9.774  70.682  1.00  0.00    -0.292 OA 
ENDROOT
BRANCH   2   3
HETATM    3  C   UNL     1     -10.527   9.152  69.453  1.00  0.00    -0.219 A  
HETATM    4  C   UNL     1     -10.678   7.736  69.471  1.00  0.00    -0.198 A  
HETATM    5  C   UNL     1     -10.661   7.007  68.270  1.00  0.00    -0.231 A  
HETATM    6  C   UNL     1      -9.040  10.704  64.160  1.00  0.00    -0.222 C  
HETATM    7  N   UNL     1     -10.543  11.055  65.800  1.00  0.00    -0.228 NA 
HETATM    8  C   UNL     1     -10.421   7.647  67.061  1.00  0.00    -0.419 A  
HETATM    9  C   UNL     1     -10.417  11.814  66.944  1.00  0.00    -0.223 A  
HETATM   10  C   UNL     1     -10.270   9.025  67.068  1.00  0.00    -0.336 A  
HETATM   11  C   UNL     1     -10.351  11.440  64.418  1.00  0.00    -0.320 C  
HETATM   12  C   UNL     1     -10.362   9.825  68.223  1.00  0.00    -0.198 A  
HETATM   13  N   UNL     1     -10.278  11.256  68.119  1.00  0.00    -0.174 NA 
HETATM   14  C   UNL     1     -10.011   9.778  65.856  1.00  0.00    -0.275 A  
HETATM   15  N   UNL     1      -9.193   9.405  64.898  1.00  0.00    -0.217 NA 
BRANCH   4  16
HETATM   16  O   UNL     1     -10.862   7.119  70.694  1.00  0.00    -0.233 OA 
BRANCH  16  17
HETATM   17  C   UNL     1     -10.764   5.685  70.676  1.00  0.00    -0.263 C  
BRANCH  17  18
HETATM   18  C   UNL     1     -10.516   5.167  72.091  1.00  0.00    -0.281 C  
BRANCH  18  19
HETATM   19  C   UNL     1      -9.821   6.206  72.988  1.00  0.00    -0.168 C  
BRANCH  19  20
HETATM   20  N   UNL     1      -8.390   5.947  73.222  1.00  0.00    -0.116 NA 
HETATM   21  O   UNL     1      -6.939   8.495  73.494  1.00  0.00    -0.239 OA 
HETATM   22  C   UNL     1      -7.512   6.517  72.173  1.00  0.00    -0.092 C  
HETATM   23  C   UNL     1      -7.937   6.492  74.524  1.00  0.00    -0.116 C  
HETATM   24  C   UNL     1      -7.785   8.025  74.551  1.00  0.00    -0.227 C  
HETATM   25  C   UNL     1      -7.416   8.050  72.219  1.00  0.00    -0.098 C  
ENDBRANCH  19  20
ENDBRANCH  18  19
ENDBRANCH  17  18
ENDBRANCH  16  17
ENDBRANCH   4  16
BRANCH   9  26
HETATM   26  N   UNL     1     -10.292  13.192  67.004  1.00  0.00    -0.247 N  
HETATM   27  O   UNL     1     -12.106  13.992  68.194  1.00  0.00    -0.355 OA 
HETATM   28  H   UNL     1      -9.396  13.540  66.663  1.00  0.00     0.000 HD 
HETATM   29  C   UNL     1     -11.156  14.191  67.442  1.00  0.00    -0.306 C  
BRANCH  29  30
HETATM   30  C   UNL     1     -10.848  15.590  67.053  1.00  0.00    -0.314 A  
HETATM   31  N   UNL     1     -10.387  17.343  65.460  1.00  0.00    -0.644 NA 
HETATM   32  C   UNL     1     -10.633  16.051  65.773  1.00  0.00    -0.353 A  
HETATM   33  C   UNL     1     -10.323  18.202  66.493  1.00  0.00    -0.386 A  
HETATM   34  N   UNL     1     -10.543  17.878  67.763  1.00  0.00    -0.404 NA 
HETATM   35  N   UNL     1     -10.078  19.530  66.192  1.00  0.00    -0.446 NA 
HETATM   36  H1  UNL     1     -10.030  20.181  66.976  1.00  0.00     0.000 HD 
HETATM   37  C   UNL     1     -10.792  16.575  68.019  1.00  0.00    -0.337 A  
HETATM   38  H2  UNL     1     -10.770  19.859  65.518  1.00  0.00     0.000 HD 
ENDBRANCH  29  30
ENDBRANCH   9  26
ENDBRANCH   2   3
TORSDOF 8
ENDMDL
MODEL       22
REMARK 921   NORMALIZED FREE ENERGY PREDICTED BY IDOCK:   -6.32 KCAL/MOL
REMARK 922        TOTAL FREE ENERGY PREDICTED BY IDOCK:  -10.48 KCAL/MOL
REMARK 923 INTER-LIGAND FREE ENERGY PREDICTED BY IDOCK:   -9.46 KCAL/MOL
REMARK 924 INTRA-LIGAND FREE ENERGY PREDICTED BY IDOCK:   -1.01 KCAL/MOL
REMARK 927      BINDING AFFINITY PREDICTED BY RF-SCORE:    0.00 PKD
ROOT
HETATM    1  C   UNL     1     -11.553  12.333  67.405  1.00  0.00    -0.355 C  
HETATM    2  O   UNL     1     -10.798  12.232  68.609  1.00  0.00    -0.221 OA 
ENDROOT
BRANCH   2   3
HETATM    3  C   UNL     1     -11.455  11.669  69.683  1.00  0.00    -0.288 A  
HETATM    4  C   UNL     1     -12.288  12.550  70.428  1.00  0.00    -0.232 A  
HETATM    5  C   UNL     1     -13.021  12.072  71.526  1.00  0.00    -0.407 A  
HETATM    6  C   UNL     1     -11.138   6.718  72.515  1.00  0.00    -0.264 C  
HETATM    7  N   UNL     1     -11.652   7.642  70.526  1.00  0.00    -0.226 NA 
HETATM    8  C   UNL     1     -12.884  10.755  71.944  1.00  0.00    -0.460 A  
HETATM    9  C   UNL     1     -10.806   8.070  69.525  1.00  0.00    -0.129 A  
HETATM   10  C   UNL     1     -12.063   9.916  71.208  1.00  0.00    -0.485 A  
HETATM   11  C   UNL     1     -11.737   6.345  71.163  1.00  0.00    -0.298 C  
HETATM   12  C   UNL     1     -11.368  10.308  70.048  1.00  0.00    -0.301 A  
HETATM   13  N   UNL     1     -10.608   9.343  69.300  1.00  0.00    -0.224 NA 
HETATM   14  C   UNL     1     -11.854   8.527  71.571  1.00  0.00    -0.299 A  
HETATM   15  N   UNL     1     -11.688   8.086  72.798  1.00  0.00    -0.368 NA 
BRANCH   4  16
HETATM   16  O   UNL     1     -12.363  13.870  70.021  1.00  0.00    -0.330 OA 
BRANCH  16  17
HETATM   17  C   UNL     1     -12.024  14.839  71.028  1.00  0.00    -0.331 C  
BRANCH  17  18
HETATM   18  C   UNL     1     -11.410  16.072  70.370  1.00  0.00    -0.405 C  
BRANCH  18  19
HETATM   19  C   UNL     1     -11.340  15.952  68.837  1.00  0.00    -0.377 C  
BRANCH  19  20
HETATM   20  N   UNL     1     -10.012  16.233  68.266  1.00  0.00    -0.231 NA 
HETATM   21  O   UNL     1     -10.300  17.645  65.698  1.00  0.00    -0.606 OA 
HETATM   22  C   UNL     1      -9.796  15.600  66.944  1.00  0.00    -0.238 C  
HETATM   23  C   UNL     1      -9.777  17.688  68.104  1.00  0.00    -0.310 C  
HETATM   24  C   UNL     1     -10.547  18.328  66.933  1.00  0.00    -0.329 C  
HETATM   25  C   UNL     1     -10.607  16.250  65.813  1.00  0.00    -0.324 C  
ENDBRANCH  19  20
ENDBRANCH  18  19
ENDBRANCH  17  18
ENDBRANCH  16  17
ENDBRANCH   4  16
BRANCH   9  26
HETATM   26  N   UNL     1      -9.989   7.271  68.744  1.00  0.00    -0.162 N  
HETATM   27  O   UNL     1     -11.260   6.529  66.961  1.00  0.00    -0.397 OA 
HETATM   28  H   UNL     1      -9.006   7.294  69.017  1.00  0.00     0.000 HD 
HETATM   29  C   UNL     1     -10.253   6.441  67.658  1.00  0.00    -0.169 C  
BRANCH  29  30
HETATM   30  C   UNL     1      -9.209   5.462  67.267  1.00  0.00    -0.111 A  
HETATM   31  N   UNL     1      -6.946   4.626  67.183  1.00  0.00    -0.059 NA 
HETATM   32  C   UNL     1      -7.860   5.560  67.530  1.00  0.00    -0.101 A  
HETATM   33  C   UNL     1      -7.414   3.560  66.512  1.00  0.00    -0.076 A  
HETATM   34  N   UNL     1      -8.694   3.342  66.230  1.00  0.00    -0.122 NA 
HETATM   35  N   UNL     1      -6.494   2.590  66.154  1.00  0.00    -0.027 NA 
HETATM   36  H1  UNL     1      -6.849   1.780  65.645  1.00  0.00     0.000 HD 
HETATM   37  C   UNL     1      -9.566   4.304  66.606  1.00  0.00    -0.201 A  
HETATM   38  H2  UNL     1      -5.991   2.276  66.984  1.00  0.00     0.000 HD 
ENDBRANCH  29  30
ENDBRANCH   9  26
ENDBRANCH   2   3
TORSDOF 8
ENDMDL
MODEL       23
REMARK 921   NORMALIZED FREE ENERGY PREDICTED BY IDOCK:   -6.27 KCAL/MOL
REMARK 922        TOTAL FREE ENERGY PREDICTED BY IDOCK:  -10.40 KCAL/MOL
REMARK 923 INTER-LIGAND FREE ENERGY PREDICTED BY IDOCK:   -9.32 KCAL/MOL
REMARK 924 INTRA-LIGAND FREE ENERGY PREDICTED BY IDOCK:   -1.09 KCAL/MOL
REMARK 927      BINDING AFFINITY PREDICTED BY RF-SCORE:    0.00 PKD
ROOT
HETATM    1  C   UNL     1     -10.024   9.268  68.996  1.00  0.00    -0.182 C  
HETATM    2  O   UNL     1      -8.999   9.730  68.121  1.00  0.00    -0.120 OA 
ENDROOT
BRANCH   2   3
HETATM    3  C   UNL     1      -9.414  10.131  66.869  1.00  0.00    -0.169 A  
HETATM    4  C   UNL     1      -8.980   9.317  65.785  1.00  0.00    -0.192 A  
HETATM    5  C   UNL     1      -9.369   9.624  64.470  1.00  0.00    -0.247 A  
HETATM    6  C   UNL     1     -11.891  14.799  64.698  1.00  0.00    -0.436 C  
HETATM    7  N   UNL     1     -12.204  13.062  66.096  1.00  0.00    -0.457 NA 
HETATM    8  C   UNL     1     -10.115  10.764  64.204  1.00  0.00    -0.418 A  
HETATM    9  C   UNL     1     -11.753  12.898  67.389  1.00  0.00    -0.372 A  
HETATM   10  C   UNL     1     -10.521  11.545  65.275  1.00  0.00    -0.336 A  
HETATM   11  C   UNL     1     -12.987  14.138  65.527  1.00  0.00    -0.272 C  
HETATM   12  C   UNL     1     -10.241  11.249  66.622  1.00  0.00    -0.229 A  
HETATM   13  N   UNL     1     -10.779  12.072  67.670  1.00  0.00    -0.211 NA 
HETATM   14  C   UNL     1     -11.299  12.757  65.094  1.00  0.00    -0.311 A  
HETATM   15  N   UNL     1     -11.097  13.648  64.150  1.00  0.00    -0.307 NA 
BRANCH   4  16
HETATM   16  O   UNL     1      -8.192   8.219  66.074  1.00  0.00    -0.107 OA 
BRANCH  16  17
HETATM   17  C   UNL     1      -8.890   6.963  66.120  1.00  0.00    -0.147 C  
BRANCH  17  18
HETATM   18  C   UNL     1      -8.047   5.931  66.866  1.00  0.00    -0.102 C  
BRANCH  18  19
HETATM   19  C   UNL     1      -7.992   6.196  68.381  1.00  0.00    -0.108 C  
BRANCH  19  20
HETATM   20  N   UNL     1      -6.757   6.854  68.839  1.00  0.00    -0.057 NA 
HETATM   21  O   UNL     1      -5.681   5.447  71.192  1.00  0.00    -0.012 OA 
HETATM   22  C   UNL     1      -6.846   7.370  70.225  1.00  0.00    -0.052 C  
HETATM   23  C   UNL     1      -5.591   5.939  68.780  1.00  0.00    -0.011 C  
HETATM   24  C   UNL     1      -5.570   4.867  69.886  1.00  0.00    -0.015 C  
HETATM   25  C   UNL     1      -6.854   6.264  71.292  1.00  0.00    -0.067 C  
ENDBRANCH  19  20
ENDBRANCH  18  19
ENDBRANCH  17  18
ENDBRANCH  16  17
ENDBRANCH   4  16
BRANCH   9  26
HETATM   26  N   UNL     1     -12.148  13.632  68.494  1.00  0.00    -0.374 N  
HETATM   27  O   UNL     1     -11.443  15.808  68.158  1.00  0.00    -0.352 OA 
HETATM   28  H   UNL     1     -12.769  13.126  69.126  1.00  0.00     0.000 HD 
HETATM   29  C   UNL     1     -11.860  14.930  68.908  1.00  0.00    -0.301 C  
BRANCH  29  30
HETATM   30  C   UNL     1     -12.171  15.292  70.313  1.00  0.00    -0.403 A  
HETATM   31  N   UNL     1     -11.884  16.585  72.330  1.00  0.00    -0.482 NA 
HETATM   32  C   UNL     1     -11.546  16.265  71.061  1.00  0.00    -0.303 A  
HETATM   33  C   UNL     1     -12.878  15.865  72.878  1.00  0.00    -0.486 A  
HETATM   34  N   UNL     1     -13.573  14.925  72.246  1.00  0.00    -0.393 NA 
HETATM   35  N   UNL     1     -13.242  16.182  74.175  1.00  0.00    -0.913 NA 
HETATM   36  H1  UNL     1     -13.997  15.636  74.591  1.00  0.00     0.000 HD 
HETATM   37  C   UNL     1     -13.198  14.651  70.976  1.00  0.00    -0.374 A  
HETATM   38  H2  UNL     1     -13.470  17.175  74.231  1.00  0.00     0.000 HD 
ENDBRANCH  29  30
ENDBRANCH   9  26
ENDBRANCH   2   3
TORSDOF 8
ENDMDL
MODEL       24
REMARK 921   NORMALIZED FREE ENERGY PREDICTED BY IDOCK:   -6.24 KCAL/MOL
REMARK 922        TOTAL FREE ENERGY PREDICTED BY IDOCK:  -10.36 KCAL/MOL
REMARK 923 INTER-LIGAND FREE ENERGY PREDICTED BY IDOCK:   -9.02 KCAL/MOL
REMARK 924 INTRA-LIGAND FREE ENERGY PREDICTED BY IDOCK:   -1.34 KCAL/MOL
REMARK 927      BINDING AFFINITY PREDICTED BY RF-SCORE:    0.00 PKD
ROOT
HETATM    1  C   UNL     1      -6.185  10.620  66.693  1.00  0.00    -0.083 C  
HETATM    2  O   UNL     1      -7.037  10.510  67.829  1.00  0.00    -0.082 OA 
ENDROOT
BRANCH   2   3
HETATM    3  C   UNL     1      -8.385  10.410  67.559  1.00  0.00    -0.114 A  
HETATM    4  C   UNL     1      -8.918   9.090  67.561  1.00  0.00    -0.122 A  
HETATM    5  C   UNL     1     -10.286   8.878  67.322  1.00  0.00    -0.350 A  
HETATM    6  C   UNL     1     -12.428  13.948  65.618  1.00  0.00    -0.505 C  
HETATM    7  N   UNL     1     -11.025  13.565  67.337  1.00  0.00    -0.268 NA 
HETATM    8  C   UNL     1     -11.119   9.945  67.007  1.00  0.00     0.042 A  
HETATM    9  C   UNL     1      -9.675  13.832  67.430  1.00  0.00    -0.235 A  
HETATM   10  C   UNL     1     -10.577  11.220  67.005  1.00  0.00    -0.287 A  
HETATM   11  C   UNL     1     -12.118  14.459  67.021  1.00  0.00    -0.342 C  
HETATM   12  C   UNL     1      -9.236  11.511  67.320  1.00  0.00    -0.167 A  
HETATM   13  N   UNL     1      -8.786  12.875  67.376  1.00  0.00    -0.189 NA 
HETATM   14  C   UNL     1     -11.367  12.393  66.683  1.00  0.00    -0.339 A  
HETATM   15  N   UNL     1     -12.260  12.459  65.720  1.00  0.00    -0.638 NA 
BRANCH   4  16
HETATM   16  O   UNL     1      -8.055   8.042  67.824  1.00  0.00    -0.124 OA 
BRANCH  16  17
HETATM   17  C   UNL     1      -8.684   6.833  68.281  1.00  0.00    -0.123 C  
BRANCH  17  18
HETATM   18  C   UNL     1      -8.674   6.792  69.808  1.00  0.00    -0.141 C  
BRANCH  18  19
HETATM   19  C   UNL     1     -10.090   6.844  70.410  1.00  0.00    -0.187 C  
BRANCH  19  20
HETATM   20  N   UNL     1     -10.168   7.513  71.720  1.00  0.00    -0.187 NA 
HETATM   21  O   UNL     1     -12.358   9.482  71.715  1.00  0.00    -0.359 OA 
HETATM   22  C   UNL     1      -9.964   8.978  71.645  1.00  0.00    -0.313 C  
HETATM   23  C   UNL     1     -11.476   7.280  72.380  1.00  0.00    -0.287 C  
HETATM   24  C   UNL     1     -12.644   8.078  71.770  1.00  0.00    -0.325 C  
HETATM   25  C   UNL     1     -11.140   9.729  71.001  1.00  0.00    -0.361 C  
ENDBRANCH  19  20
ENDBRANCH  18  19
ENDBRANCH  17  18
ENDBRANCH  16  17
ENDBRANCH   4  16
BRANCH   9  26
HETATM   26  N   UNL     1      -9.089  15.086  67.461  1.00  0.00    -0.181 N  
HETATM   27  O   UNL     1      -8.714  15.613  69.681  1.00  0.00    -0.245 OA 
HETATM   28  H   UNL     1      -8.816  15.437  66.542  1.00  0.00     0.000 HD 
HETATM   29  C   UNL     1      -8.800  15.959  68.506  1.00  0.00    -0.195 C  
BRANCH  29  30
HETATM   30  C   UNL     1      -8.481  17.367  68.161  1.00  0.00    -0.241 A  
HETATM   31  N   UNL     1      -6.996  19.153  67.508  1.00  0.00    -0.208 NA 
HETATM   32  C   UNL     1      -7.236  17.868  67.848  1.00  0.00    -0.219 A  
HETATM   33  C   UNL     1      -8.058  19.977  67.514  1.00  0.00    -0.316 A  
HETATM   34  N   UNL     1      -9.308  19.602  67.768  1.00  0.00    -0.327 NA 
HETATM   35  N   UNL     1      -7.833  21.296  67.161  1.00  0.00    -0.704 NA 
HETATM   36  H1  UNL     1      -8.639  21.921  67.166  1.00  0.00     0.000 HD 
HETATM   37  C   UNL     1      -9.493  18.304  68.096  1.00  0.00    -0.303 A  
HETATM   38  H2  UNL     1      -7.381  21.331  66.248  1.00  0.00     0.000 HD 
ENDBRANCH  29  30
ENDBRANCH   9  26
ENDBRANCH   2   3
TORSDOF 8
ENDMDL
MODEL       25
REMARK 921   NORMALIZED FREE ENERGY PREDICTED BY IDOCK:   -6.21 KCAL/MOL
REMARK 922        TOTAL FREE ENERGY PREDICTED BY IDOCK:  -10.31 KCAL/MOL
REMARK 923 INTER-LIGAND FREE ENERGY PREDICTED BY IDOCK:   -8.97 KCAL/MOL
REMARK 924 INTRA-LIGAND FREE ENERGY PREDICTED BY IDOCK:   -1.34 KCAL/MOL
REMARK 927      BINDING AFFINITY PREDICTED BY RF-SCORE:    0.00 PKD
ROOT
HETATM    1  C   UNL     1      -6.994   8.469  68.272  1.00  0.00    -0.070 C  
HETATM    2  O   UNL     1      -6.972   9.345  69.396  1.00  0.00    -0.047 OA 
ENDROOT
BRANCH   2   3
HETATM    3  C   UNL     1      -7.887   9.068  70.389  1.00  0.00    -0.116 A  
HETATM    4  C   UNL     1      -7.413   8.251  71.454  1.00  0.00    -0.085 A  
HETATM    5  C   UNL     1      -8.257   7.930  72.530  1.00  0.00    -0.184 A  
HETATM    6  C   UNL     1     -13.525   9.720  71.037  1.00  0.00    -0.180 C  
HETATM    7  N   UNL     1     -11.584  10.837  70.804  1.00  0.00    -0.299 NA 
HETATM    8  C   UNL     1      -9.584   8.340  72.530  1.00  0.00    -0.365 A  
HETATM    9  C   UNL     1     -10.856  11.080  69.658  1.00  0.00    -0.183 A  
HETATM   10  C   UNL     1     -10.026   9.128  71.480  1.00  0.00    -0.358 A  
HETATM   11  C   UNL     1     -12.969  11.140  71.091  1.00  0.00    -0.296 C  
HETATM   12  C   UNL     1      -9.211   9.559  70.416  1.00  0.00    -0.253 A  
HETATM   13  N   UNL     1      -9.737  10.447  69.416  1.00  0.00    -0.219 NA 
HETATM   14  C   UNL     1     -11.395   9.598  71.392  1.00  0.00    -0.374 A  
HETATM   15  N   UNL     1     -12.458   8.881  71.679  1.00  0.00    -0.326 NA 
BRANCH   4  16
HETATM   16  O   UNL     1      -6.103   7.812  71.401  1.00  0.00    -0.035 OA 
BRANCH  16  17
HETATM   17  C   UNL     1      -5.865   6.526  71.996  1.00  0.00    -0.037 C  
BRANCH  17  18
HETATM   18  C   UNL     1      -6.350   5.425  71.055  1.00  0.00    -0.034 C  
BRANCH  18  19
HETATM   19  C   UNL     1      -7.384   4.495  71.714  1.00  0.00    -0.072 C  
BRANCH  19  20
HETATM   20  N   UNL     1      -8.268   3.800  70.764  1.00  0.00    -0.064 NA 
HETATM   21  O   UNL     1     -10.706   5.389  70.312  1.00  0.00    -0.285 OA 
HETATM   22  C   UNL     1      -9.594   3.464  71.334  1.00  0.00    -0.166 C  
HETATM   23  C   UNL     1      -8.503   4.604  69.540  1.00  0.00    -0.078 C  
HETATM   24  C   UNL     1      -9.457   5.796  69.738  1.00  0.00    -0.148 C  
HETATM   25  C   UNL     1     -10.500   4.687  71.544  1.00  0.00    -0.032 C  
ENDBRANCH  19  20
ENDBRANCH  18  19
ENDBRANCH  17  18
ENDBRANCH  16  17
ENDBRANCH   4  16
BRANCH   9  26
HETATM   26  N   UNL     1     -11.241  11.881  68.596  1.00  0.00    -0.235 N  
HETATM   27  O   UNL     1     -11.521  10.499  66.764  1.00  0.00    -0.099 OA 
HETATM   28  H   UNL     1     -11.459  12.841  68.862  1.00  0.00     0.000 HD 
HETATM   29  C   UNL     1     -11.387  11.624  67.236  1.00  0.00    -0.305 C  
BRANCH  29  30
HETATM   30  C   UNL     1     -11.486  12.788  66.321  1.00  0.00    -0.405 A  
HETATM   31  N   UNL     1     -12.576  14.140  64.645  1.00  0.00    -0.667 NA 
HETATM   32  C   UNL     1     -12.511  13.047  65.438  1.00  0.00    -0.476 A  
HETATM   33  C   UNL     1     -11.541  14.993  64.725  1.00  0.00    -0.395 A  
HETATM   34  N   UNL     1     -10.514  14.864  65.559  1.00  0.00    -0.332 NA 
HETATM   35  N   UNL     1     -11.592  16.121  63.925  1.00  0.00    -1.469 NA 
HETATM   36  H1  UNL     1     -10.807  16.769  63.986  1.00  0.00     0.000 HD 
HETATM   37  C   UNL     1     -10.502  13.758  66.334  1.00  0.00    -0.284 A  
HETATM   38  H2  UNL     1     -12.462  16.624  64.102  1.00  0.00     0.000 HD 
ENDBRANCH  29  30
ENDBRANCH   9  26
ENDBRANCH   2   3
TORSDOF 8
ENDMDL
MODEL       26
REMARK 921   NORMALIZED FREE ENERGY PREDICTED BY IDOCK:   -6.18 KCAL/MOL
REMARK 922        TOTAL FREE ENERGY PREDICTED BY IDOCK:  -10.27 KCAL/MOL
REMARK 923 INTER-LIGAND FREE ENERGY PREDICTED BY IDOCK:   -9.38 KCAL/MOL
REMARK 924 INTRA-LIGAND FREE ENERGY PREDICTED BY IDOCK:   -0.89 KCAL/MOL
REMARK 927      BINDING AFFINITY PREDICTED BY RF-SCORE:    0.00 PKD
ROOT
HETATM    1  C   UNL     1     -11.977  10.973  70.151  1.00  0.00    -0.360 C  
HETATM    2  O   UNL     1     -10.652  10.523  69.880  1.00  0.00    -0.259 OA 
ENDROOT
BRANCH   2   3
HETATM    3  C   UNL     1     -10.505   9.736  68.758  1.00  0.00    -0.218 A  
HETATM    4  C   UNL     1     -10.630   8.333  68.967  1.00  0.00    -0.150 A  
HETATM    5  C   UNL     1     -10.522   7.444  67.886  1.00  0.00    -0.265 A  
HETATM    6  C   UNL     1      -8.704  10.570  63.401  1.00  0.00    -0.190 C  
HETATM    7  N   UNL     1     -10.317  11.106  64.877  1.00  0.00    -0.296 NA 
HETATM    8  C   UNL     1     -10.215   7.914  66.615  1.00  0.00    -0.303 A  
HETATM    9  C   UNL     1     -10.280  12.022  65.908  1.00  0.00    -0.232 A  
HETATM   10  C   UNL     1     -10.091   9.283  66.436  1.00  0.00    -0.337 A  
HETATM   11  C   UNL     1     -10.043  11.298  63.470  1.00  0.00    -0.396 C  
HETATM   12  C   UNL     1     -10.273  10.234  67.457  1.00  0.00    -0.210 A  
HETATM   13  N   UNL     1     -10.208  11.638  67.156  1.00  0.00    -0.210 NA 
HETATM   14  C   UNL     1      -9.767   9.865  65.147  1.00  0.00    -0.306 A  
HETATM   15  N   UNL     1      -8.881   9.384  64.304  1.00  0.00    -0.206 NA 
BRANCH   4  16
HETATM   16  O   UNL     1     -10.882   7.890  70.252  1.00  0.00    -0.238 OA 
BRANCH  16  17
HETATM   17  C   UNL     1     -12.188   7.326  70.458  1.00  0.00    -0.062 C  
BRANCH  17  18
HETATM   18  C   UNL     1     -12.385   7.010  71.940  1.00  0.00    -0.358 C  
BRANCH  18  19
HETATM   19  C   UNL     1     -11.137   7.325  72.783  1.00  0.00    -0.319 C  
BRANCH  19  20
HETATM   20  N   UNL     1     -10.751   6.255  73.719  1.00  0.00    -0.228 NA 
HETATM   21  O   UNL     1      -8.415   4.798  72.673  1.00  0.00    -0.113 OA 
HETATM   22  C   UNL     1     -10.819   4.900  73.122  1.00  0.00    -0.282 C  
HETATM   23  C   UNL     1      -9.373   6.445  74.234  1.00  0.00    -0.189 C  
HETATM   24  C   UNL     1      -8.265   6.116  73.216  1.00  0.00    -0.113 C  
HETATM   25  C   UNL     1      -9.713   4.629  72.090  1.00  0.00    -0.165 C  
ENDBRANCH  19  20
ENDBRANCH  18  19
ENDBRANCH  17  18
ENDBRANCH  16  17
ENDBRANCH   4  16
BRANCH   9  26
HETATM   26  N   UNL     1     -10.185  13.397  65.780  1.00  0.00    -0.290 N  
HETATM   27  O   UNL     1      -8.297  14.063  66.936  1.00  0.00    -0.147 OA 
HETATM   28  H   UNL     1     -10.845  13.796  65.112  1.00  0.00     0.000 HD 
HETATM   29  C   UNL     1      -9.361  14.339  66.389  1.00  0.00    -0.245 C  
BRANCH  29  30
HETATM   30  C   UNL     1      -9.749  15.768  66.282  1.00  0.00    -0.328 A  
HETATM   31  N   UNL     1      -9.706  18.081  66.969  1.00  0.00    -0.291 NA 
HETATM   32  C   UNL     1      -9.355  16.785  67.124  1.00  0.00    -0.229 A  
HETATM   33  C   UNL     1     -10.518  18.355  65.934  1.00  0.00    -0.321 A  
HETATM   34  N   UNL     1     -10.937  17.465  65.040  1.00  0.00    -0.742 NA 
HETATM   35  N   UNL     1     -10.884  19.678  65.755  1.00  0.00    -0.413 NA 
HETATM   36  H1  UNL     1     -11.500  19.887  64.969  1.00  0.00     0.000 HD 
HETATM   37  C   UNL     1     -10.550  16.185  65.238  1.00  0.00    -0.369 A  
HETATM   38  H2  UNL     1     -10.046  20.257  65.693  1.00  0.00     0.000 HD 
ENDBRANCH  29  30
ENDBRANCH   9  26
ENDBRANCH   2   3
TORSDOF 8
ENDMDL
MODEL       27
REMARK 921   NORMALIZED FREE ENERGY PREDICTED BY IDOCK:   -6.17 KCAL/MOL
REMARK 922        TOTAL FREE ENERGY PREDICTED BY IDOCK:  -10.26 KCAL/MOL
REMARK 923 INTER-LIGAND FREE ENERGY PREDICTED BY IDOCK:   -9.28 KCAL/MOL
REMARK 924 INTRA-LIGAND FREE ENERGY PREDICTED BY IDOCK:   -0.99 KCAL/MOL
REMARK 927      BINDING AFFINITY PREDICTED BY RF-SCORE:    0.00 PKD
ROOT
HETATM    1  C   UNL     1      -9.831   8.332  71.734  1.00  0.00    -0.218 C  
HETATM    2  O   UNL     1     -10.754   7.612  70.923  1.00  0.00    -0.229 OA 
ENDROOT
BRANCH   2   3
HETATM    3  C   UNL     1     -10.584   7.743  69.561  1.00  0.00    -0.221 A  
HETATM    4  C   UNL     1     -10.207   6.557  68.870  1.00  0.00    -0.181 A  
HETATM    5  C   UNL     1     -10.032   6.575  67.476  1.00  0.00    -0.169 A  
HETATM    6  C   UNL     1     -10.239  12.111  65.896  1.00  0.00    -0.244 C  
HETATM    7  N   UNL     1     -11.616  11.044  67.323  1.00  0.00    -0.474 NA 
HETATM    8  C   UNL     1     -10.149   7.764  66.767  1.00  0.00    -0.341 A  
HETATM    9  C   UNL     1     -11.674  11.129  68.698  1.00  0.00    -0.320 A  
HETATM   10  C   UNL     1     -10.511   8.907  67.462  1.00  0.00    -0.337 A  
HETATM   11  C   UNL     1     -11.700  12.098  66.335  1.00  0.00    -0.324 C  
HETATM   12  C   UNL     1     -10.785   8.941  68.842  1.00  0.00    -0.106 A  
HETATM   13  N   UNL     1     -11.238  10.158  69.459  1.00  0.00    -0.244 NA 
HETATM   14  C   UNL     1     -10.652  10.194  66.807  1.00  0.00    -0.169 A  
HETATM   15  N   UNL     1      -9.842  10.663  65.884  1.00  0.00    -0.230 NA 
BRANCH   4  16
HETATM   16  O   UNL     1     -10.044   5.400  69.609  1.00  0.00    -0.203 OA 
BRANCH  16  17
HETATM   17  C   UNL     1      -9.285   4.364  68.962  1.00  0.00    -0.140 C  
BRANCH  17  18
HETATM   18  C   UNL     1      -8.714   3.412  70.011  1.00  0.00    -0.127 C  
BRANCH  18  19
HETATM   19  C   UNL     1      -9.775   2.935  71.018  1.00  0.00    -0.096 C  
BRANCH  19  20
HETATM   20  N   UNL     1      -9.271   2.748  72.389  1.00  0.00    -0.087 NA 
HETATM   21  O   UNL     1     -10.073   5.025  74.075  1.00  0.00    -0.169 OA 
HETATM   22  C   UNL     1      -8.347   3.821  72.826  1.00  0.00    -0.094 C  
HETATM   23  C   UNL     1     -10.374   2.682  73.377  1.00  0.00    -0.132 C  
HETATM   24  C   UNL     1     -11.036   4.039  73.680  1.00  0.00    -0.247 C  
HETATM   25  C   UNL     1      -9.047   5.164  73.086  1.00  0.00    -0.127 C  
ENDBRANCH  19  20
ENDBRANCH  18  19
ENDBRANCH  17  18
ENDBRANCH  16  17
ENDBRANCH   4  16
BRANCH   9  26
HETATM   26  N   UNL     1     -12.055  12.237  69.435  1.00  0.00    -0.226 N  
HETATM   27  O   UNL     1     -10.524  13.913  68.994  1.00  0.00    -0.218 OA 
HETATM   28  H   UNL     1     -12.968  12.143  69.880  1.00  0.00     0.000 HD 
HETATM   29  C   UNL     1     -11.429  13.455  69.686  1.00  0.00    -0.207 C  
BRANCH  29  30
HETATM   30  C   UNL     1     -11.957  14.287  70.795  1.00  0.00    -0.390 A  
HETATM   31  N   UNL     1     -12.062  16.287  72.142  1.00  0.00    -0.496 NA 
HETATM   32  C   UNL     1     -11.529  15.550  71.142  1.00  0.00    -0.390 A  
HETATM   33  C   UNL     1     -13.052  15.708  72.843  1.00  0.00    -0.520 A  
HETATM   34  N   UNL     1     -13.567  14.511  72.582  1.00  0.00    -0.479 NA 
HETATM   35  N   UNL     1     -13.615  16.450  73.866  1.00  0.00    -0.759 NA 
HETATM   36  H1  UNL     1     -14.366  16.010  74.399  1.00  0.00     0.000 HD 
HETATM   37  C   UNL     1     -13.002  13.820  71.567  1.00  0.00    -0.363 A  
HETATM   38  H2  UNL     1     -13.937  17.345  73.499  1.00  0.00     0.000 HD 
ENDBRANCH  29  30
ENDBRANCH   9  26
ENDBRANCH   2   3
TORSDOF 8
ENDMDL
MODEL       28
REMARK 921   NORMALIZED FREE ENERGY PREDICTED BY IDOCK:   -6.17 KCAL/MOL
REMARK 922        TOTAL FREE ENERGY PREDICTED BY IDOCK:  -10.26 KCAL/MOL
REMARK 923 INTER-LIGAND FREE ENERGY PREDICTED BY IDOCK:   -9.35 KCAL/MOL
REMARK 924 INTRA-LIGAND FREE ENERGY PREDICTED BY IDOCK:   -0.91 KCAL/MOL
REMARK 927      BINDING AFFINITY PREDICTED BY RF-SCORE:    0.00 PKD
ROOT
HETATM    1  C   UNL     1      -8.748  10.995  66.019  1.00  0.00    -0.188 C  
HETATM    2  O   UNL     1      -8.541  11.983  67.024  1.00  0.00    -0.174 OA 
ENDROOT
BRANCH   2   3
HETATM    3  C   UNL     1      -9.682  12.511  67.590  1.00  0.00    -0.196 A  
HETATM    4  C   UNL     1     -10.066  13.798  67.118  1.00  0.00    -0.241 A  
HETATM    5  C   UNL     1     -11.227  14.416  67.611  1.00  0.00    -0.328 A  
HETATM    6  C   UNL     1     -13.005  11.198  72.047  1.00  0.00    -0.280 C  
HETATM    7  N   UNL     1     -12.307  10.480  70.030  1.00  0.00    -0.261 NA 
HETATM    8  C   UNL     1     -11.971  13.814  68.618  1.00  0.00    -0.401 A  
HETATM    9  C   UNL     1     -11.114   9.877  69.689  1.00  0.00    -0.241 A  
HETATM   10  C   UNL     1     -11.575  12.564  69.067  1.00  0.00    -0.365 A  
HETATM   11  C   UNL     1     -13.277  10.093  71.031  1.00  0.00    -0.335 C  
HETATM   12  C   UNL     1     -10.473  11.852  68.556  1.00  0.00    -0.224 A  
HETATM   13  N   UNL     1     -10.191  10.523  69.025  1.00  0.00    -0.205 NA 
HETATM   14  C   UNL     1     -12.286  11.862  70.118  1.00  0.00    -0.241 A  
HETATM   15  N   UNL     1     -12.763  12.420  71.209  1.00  0.00    -0.320 NA 
BRANCH   4  16
HETATM   16  O   UNL     1      -9.276  14.397  66.154  1.00  0.00    -0.231 OA 
BRANCH  16  17
HETATM   17  C   UNL     1      -9.417  15.824  66.050  1.00  0.00    -0.357 C  
BRANCH  17  18
HETATM   18  C   UNL     1      -8.115  16.503  66.472  1.00  0.00    -0.341 C  
BRANCH  18  19
HETATM   19  C   UNL     1      -8.113  18.013  66.176  1.00  0.00    -0.168 C  
BRANCH  19  20
HETATM   20  N   UNL     1      -7.800  18.859  67.340  1.00  0.00    -0.238 NA 
HETATM   21  O   UNL     1     -10.282  19.977  68.465  1.00  0.00    -0.442 OA 
HETATM   22  C   UNL     1      -8.225  20.269  67.171  1.00  0.00    -0.334 C  
HETATM   23  C   UNL     1      -8.436  18.350  68.579  1.00  0.00    -0.325 C  
HETATM   24  C   UNL     1      -9.955  18.595  68.659  1.00  0.00    -0.388 C  
HETATM   25  C   UNL     1      -9.748  20.461  67.226  1.00  0.00    -0.461 C  
ENDBRANCH  19  20
ENDBRANCH  18  19
ENDBRANCH  17  18
ENDBRANCH  16  17
ENDBRANCH   4  16
BRANCH   9  26
HETATM   26  N   UNL     1     -10.686   8.623  70.088  1.00  0.00    -0.232 N  
HETATM   27  O   UNL     1     -10.837   7.231  68.248  1.00  0.00    -0.157 OA 
HETATM   28  H   UNL     1     -10.271   8.605  71.020  1.00  0.00     0.000 HD 
HETATM   29  C   UNL     1     -10.716   7.380  69.460  1.00  0.00    -0.224 C  
BRANCH  29  30
HETATM   30  C   UNL     1     -10.488   6.177  70.299  1.00  0.00    -0.288 A  
HETATM   31  N   UNL     1     -10.616   4.911  72.349  1.00  0.00    -0.211 NA 
HETATM   32  C   UNL     1     -10.811   6.039  71.631  1.00  0.00    -0.260 A  
HETATM   33  C   UNL     1     -10.038   3.887  71.699  1.00  0.00    -0.097 A  
HETATM   34  N   UNL     1      -9.712   3.893  70.410  1.00  0.00    -0.195 NA 
HETATM   35  N   UNL     1      -9.836   2.721  72.416  1.00  0.00    -0.147 NA 
HETATM   36  H1  UNL     1      -9.397   1.943  71.922  1.00  0.00     0.000 HD 
HETATM   37  C   UNL     1      -9.936   5.043  69.737  1.00  0.00    -0.249 A  
HETATM   38  H2  UNL     1     -10.720   2.412  72.820  1.00  0.00     0.000 HD 
ENDBRANCH  29  30
ENDBRANCH   9  26
ENDBRANCH   2   3
TORSDOF 8
ENDMDL
MODEL       29
REMARK 921   NORMALIZED FREE ENERGY PREDICTED BY IDOCK:   -6.17 KCAL/MOL
REMARK 922        TOTAL FREE ENERGY PREDICTED BY IDOCK:  -10.25 KCAL/MOL
REMARK 923 INTER-LIGAND FREE ENERGY PREDICTED BY IDOCK:   -9.47 KCAL/MOL
REMARK 924 INTRA-LIGAND FREE ENERGY PREDICTED BY IDOCK:   -0.79 KCAL/MOL
REMARK 927      BINDING AFFINITY PREDICTED BY RF-SCORE:    0.00 PKD
ROOT
HETATM    1  C   UNL     1     -13.053  10.138  71.561  1.00  0.00    -0.429 C  
HETATM    2  O   UNL     1     -11.759   9.578  71.757  1.00  0.00    -0.383 OA 
ENDROOT
BRANCH   2   3
HETATM    3  C   UNL     1     -11.297   8.765  70.744  1.00  0.00    -0.272 A  
HETATM    4  C   UNL     1     -11.252   7.373  71.042  1.00  0.00    -0.264 A  
HETATM    5  C   UNL     1     -10.822   6.455  70.070  1.00  0.00    -0.366 A  
HETATM    6  C   UNL     1      -8.703   9.583  65.721  1.00  0.00    -0.147 C  
HETATM    7  N   UNL     1     -10.617   9.936  66.854  1.00  0.00    -0.209 NA 
HETATM    8  C   UNL     1     -10.364   6.899  68.836  1.00  0.00    -0.198 A  
HETATM    9  C   UNL     1     -10.900  10.900  67.798  1.00  0.00    -0.259 A  
HETATM   10  C   UNL     1     -10.410   8.258  68.571  1.00  0.00    -0.230 A  
HETATM   11  C   UNL     1     -10.124  10.093  65.502  1.00  0.00    -0.268 C  
HETATM   12  C   UNL     1     -10.910   9.223  69.466  1.00  0.00    -0.195 A  
HETATM   13  N   UNL     1     -10.999  10.601  69.068  1.00  0.00    -0.229 NA 
HETATM   14  C   UNL     1      -9.948   8.814  67.313  1.00  0.00    -0.220 A  
HETATM   15  N   UNL     1      -8.864   8.434  66.674  1.00  0.00    -0.135 NA 
BRANCH   4  16
HETATM   16  O   UNL     1     -11.664   6.965  72.297  1.00  0.00    -0.278 OA 
BRANCH  16  17
HETATM   17  C   UNL     1     -10.704   6.185  73.030  1.00  0.00    -0.252 C  
BRANCH  17  18
HETATM   18  C   UNL     1     -11.257   4.782  73.272  1.00  0.00    -0.421 C  
BRANCH  18  19
HETATM   19  C   UNL     1     -10.161   3.773  73.656  1.00  0.00    -0.145 C  
BRANCH  19  20
HETATM   20  N   UNL     1      -9.892   2.749  72.633  1.00  0.00    -0.130 NA 
HETATM   21  O   UNL     1      -7.067   2.866  71.811  1.00  0.00    -0.033 OA 
HETATM   22  C   UNL     1      -9.427   3.314  71.345  1.00  0.00    -0.151 C  
HETATM   23  C   UNL     1      -8.870   1.773  73.084  1.00  0.00    -0.062 C  
HETATM   24  C   UNL     1      -7.430   2.320  73.085  1.00  0.00    -0.041 C  
HETATM   25  C   UNL     1      -7.998   3.876  71.402  1.00  0.00    -0.068 C  
ENDBRANCH  19  20
ENDBRANCH  18  19
ENDBRANCH  17  18
ENDBRANCH  16  17
ENDBRANCH   4  16
BRANCH   9  26
HETATM   26  N   UNL     1     -10.986  12.264  67.577  1.00  0.00    -0.242 N  
HETATM   27  O   UNL     1     -12.466  12.582  65.830  1.00  0.00    -0.626 OA 
HETATM   28  H   UNL     1     -10.522  12.828  68.290  1.00  0.00     0.000 HD 
HETATM   29  C   UNL     1     -11.584  13.013  66.567  1.00  0.00    -0.356 C  
BRANCH  29  30
HETATM   30  C   UNL     1     -11.198  14.441  66.446  1.00  0.00    -0.345 A  
HETATM   31  N   UNL     1     -10.524  16.584  67.326  1.00  0.00    -0.308 NA 
HETATM   32  C   UNL     1     -10.903  15.296  67.484  1.00  0.00    -0.304 A  
HETATM   33  C   UNL     1     -10.471  17.036  66.061  1.00  0.00    -0.274 A  
HETATM   34  N   UNL     1     -10.703  16.297  64.981  1.00  0.00    -0.656 NA 
HETATM   35  N   UNL     1     -10.078  18.350  65.878  1.00  0.00    -0.569 NA 
HETATM   36  H1  UNL     1     -10.038  18.693  64.918  1.00  0.00     0.000 HD 
HETATM   37  C   UNL     1     -11.072  15.014  65.196  1.00  0.00    -0.401 A  
HETATM   38  H2  UNL     1      -9.177  18.501  66.332  1.00  0.00     0.000 HD 
ENDBRANCH  29  30
ENDBRANCH   9  26
ENDBRANCH   2   3
TORSDOF 8
ENDMDL
MODEL       30
REMARK 921   NORMALIZED FREE ENERGY PREDICTED BY IDOCK:   -6.16 KCAL/MOL
REMARK 922        TOTAL FREE ENERGY PREDICTED BY IDOCK:  -10.25 KCAL/MOL
REMARK 923 INTER-LIGAND FREE ENERGY PREDICTED BY IDOCK:   -9.18 KCAL/MOL
REMARK 924 INTRA-LIGAND FREE ENERGY PREDICTED BY IDOCK:   -1.07 KCAL/MOL
REMARK 927      BINDING AFFINITY PREDICTED BY RF-SCORE:    0.00 PKD
ROOT
HETATM    1  C   UNL     1     -11.266   7.546  70.602  1.00  0.00    -0.268 C  
HETATM    2  O   UNL     1     -10.023   8.035  70.106  1.00  0.00    -0.188 OA 
ENDROOT
BRANCH   2   3
HETATM    3  C   UNL     1      -9.967   8.258  68.746  1.00  0.00    -0.183 A  
HETATM    4  C   UNL     1      -9.525   7.157  67.959  1.00  0.00    -0.130 A  
HETATM    5  C   UNL     1      -9.456   7.269  66.561  1.00  0.00    -0.218 A  
HETATM    6  C   UNL     1     -10.329  12.833  65.345  1.00  0.00    -0.293 C  
HETATM    7  N   UNL     1     -11.484  11.552  66.792  1.00  0.00    -0.466 NA 
HETATM    8  C   UNL     1      -9.743   8.476  65.937  1.00  0.00    -0.101 A  
HETATM    9  C   UNL     1     -11.449  11.554  68.171  1.00  0.00    -0.315 A  
HETATM   10  C   UNL     1     -10.164   9.537  66.723  1.00  0.00    -0.313 A  
HETATM   11  C   UNL     1     -11.744  12.643  65.879  1.00  0.00    -0.420 C  
HETATM   12  C   UNL     1     -10.339   9.466  68.118  1.00  0.00    -0.211 A  
HETATM   13  N   UNL     1     -10.864  10.594  68.838  1.00  0.00    -0.214 NA 
HETATM   14  C   UNL     1     -10.481  10.836  66.161  1.00  0.00    -0.214 A  
HETATM   15  N   UNL     1      -9.792  11.436  65.217  1.00  0.00    -0.239 NA 
BRANCH   4  16
HETATM   16  O   UNL     1      -9.195   5.984  68.612  1.00  0.00    -0.116 OA 
BRANCH  16  17
HETATM   17  C   UNL     1      -8.558   4.988  67.794  1.00  0.00    -0.103 C  
BRANCH  17  18
HETATM   18  C   UNL     1      -9.510   3.814  67.577  1.00  0.00    -0.237 C  
BRANCH  18  19
HETATM   19  C   UNL     1      -9.085   2.918  66.400  1.00  0.00    -0.135 C  
BRANCH  19  20
HETATM   20  N   UNL     1      -8.686   3.655  65.189  1.00  0.00    -0.113 NA 
HETATM   21  O   UNL     1      -9.577   2.199  62.788  1.00  0.00    -0.090 OA 
HETATM   22  C   UNL     1      -7.782   2.884  64.304  1.00  0.00    -0.077 C  
HETATM   23  C   UNL     1      -9.861   4.059  64.378  1.00  0.00    -0.180 C  
HETATM   24  C   UNL     1     -10.523   2.905  63.602  1.00  0.00    -0.203 C  
HETATM   25  C   UNL     1      -8.478   1.724  63.575  1.00  0.00    -0.080 C  
ENDBRANCH  19  20
ENDBRANCH  18  19
ENDBRANCH  17  18
ENDBRANCH  16  17
ENDBRANCH   4  16
BRANCH   9  26
HETATM   26  N   UNL     1     -11.884  12.574  69.000  1.00  0.00    -0.307 N  
HETATM   27  O   UNL     1     -10.482  14.381  68.654  1.00  0.00    -0.234 OA 
HETATM   28  H   UNL     1     -12.776  12.384  69.456  1.00  0.00     0.000 HD 
HETATM   29  C   UNL     1     -11.335  13.811  69.329  1.00  0.00    -0.273 C  
BRANCH  29  30
HETATM   30  C   UNL     1     -11.887  14.519  70.511  1.00  0.00    -0.372 A  
HETATM   31  N   UNL     1     -11.866  16.222  72.219  1.00  0.00    -0.535 NA 
HETATM   32  C   UNL     1     -11.311  15.586  71.164  1.00  0.00    -0.390 A  
HETATM   33  C   UNL     1     -13.043  15.738  72.652  1.00  0.00    -0.491 A  
HETATM   34  N   UNL     1     -13.707  14.737  72.084  1.00  0.00    -0.396 NA 
HETATM   35  N   UNL     1     -13.630  16.381  73.727  1.00  0.00    -0.776 NA 
HETATM   36  H1  UNL     1     -14.524  16.014  74.056  1.00  0.00     0.000 HD 
HETATM   37  C   UNL     1     -13.110  14.140  71.028  1.00  0.00    -0.302 A  
HETATM   38  H2  UNL     1     -13.728  17.375  73.517  1.00  0.00     0.000 HD 
ENDBRANCH  29  30
ENDBRANCH   9  26
ENDBRANCH   2   3
TORSDOF 8
ENDMDL
MODEL       31
REMARK 921   NORMALIZED FREE ENERGY PREDICTED BY IDOCK:   -6.15 KCAL/MOL
REMARK 922        TOTAL FREE ENERGY PREDICTED BY IDOCK:  -10.23 KCAL/MOL
REMARK 923 INTER-LIGAND FREE ENERGY PREDICTED BY IDOCK:   -9.54 KCAL/MOL
REMARK 924 INTRA-LIGAND FREE ENERGY PREDICTED BY IDOCK:   -0.69 KCAL/MOL
REMARK 927      BINDING AFFINITY PREDICTED BY RF-SCORE:    0.00 PKD
ROOT
HETATM    1  C   UNL     1     -10.617   6.461  67.636  1.00  0.00    -0.274 C  
HETATM    2  O   UNL     1      -9.596   6.881  68.536  1.00  0.00    -0.133 OA 
ENDROOT
BRANCH   2   3
HETATM    3  C   UNL     1     -10.028   7.330  69.766  1.00  0.00    -0.183 A  
HETATM    4  C   UNL     1      -9.715   6.492  70.873  1.00  0.00    -0.176 A  
HETATM    5  C   UNL     1     -10.087   6.869  72.174  1.00  0.00    -0.198 A  
HETATM    6  C   UNL     1     -13.535  11.449  71.600  1.00  0.00    -0.013 C  
HETATM    7  N   UNL     1     -11.586  11.064  70.541  1.00  0.00    -0.302 NA 
HETATM    8  C   UNL     1     -10.830   8.023  72.387  1.00  0.00    -0.392 A  
HETATM    9  C   UNL     1     -11.369  10.693  69.231  1.00  0.00    -0.282 A  
HETATM   10  C   UNL     1     -11.129   8.821  71.293  1.00  0.00    -0.348 A  
HETATM   11  C   UNL     1     -12.318  12.196  71.065  1.00  0.00    -0.230 C  
HETATM   12  C   UNL     1     -10.713   8.546  69.977  1.00  0.00    -0.232 A  
HETATM   13  N   UNL     1     -10.998   9.478  68.920  1.00  0.00    -0.142 NA 
HETATM   14  C   UNL     1     -11.904  10.040  71.417  1.00  0.00    -0.363 A  
HETATM   15  N   UNL     1     -12.968  10.183  72.175  1.00  0.00    -0.396 NA 
BRANCH   4  16
HETATM   16  O   UNL     1      -9.021   5.322  70.625  1.00  0.00    -0.129 OA 
BRANCH  16  17
HETATM   17  C   UNL     1      -9.811   4.122  70.675  1.00  0.00    -0.179 C  
BRANCH  17  18
HETATM   18  C   UNL     1      -9.388   3.179  69.551  1.00  0.00    -0.228 C  
BRANCH  18  19
HETATM   19  C   UNL     1      -8.231   3.745  68.708  1.00  0.00    -0.073 C  
BRANCH  19  20
HETATM   20  N   UNL     1      -7.799   2.871  67.604  1.00  0.00    -0.068 NA 
HETATM   21  O   UNL     1      -8.547   4.070  65.021  1.00  0.00    -0.111 OA 
HETATM   22  C   UNL     1      -8.920   2.392  66.762  1.00  0.00    -0.125 C  
HETATM   23  C   UNL     1      -6.831   3.550  66.710  1.00  0.00    -0.054 C  
HETATM   24  C   UNL     1      -7.459   4.608  65.783  1.00  0.00    -0.081 C  
HETATM   25  C   UNL     1      -9.536   3.488  65.879  1.00  0.00    -0.138 C  
ENDBRANCH  19  20
ENDBRANCH  18  19
ENDBRANCH  17  18
ENDBRANCH  16  17
ENDBRANCH   4  16
BRANCH   9  26
HETATM   26  N   UNL     1     -11.625  11.462  68.108  1.00  0.00    -0.298 N  
HETATM   27  O   UNL     1     -10.499  10.487  66.340  1.00  0.00    -0.235 OA 
HETATM   28  H   UNL     1     -12.340  12.174  68.250  1.00  0.00     0.000 HD 
HETATM   29  C   UNL     1     -11.090  11.448  66.823  1.00  0.00    -0.281 C  
BRANCH  29  30
HETATM   30  C   UNL     1     -11.340  12.629  65.959  1.00  0.00    -0.369 A  
HETATM   31  N   UNL     1     -12.526  13.848  64.247  1.00  0.00    -0.678 NA 
HETATM   32  C   UNL     1     -12.313  12.739  64.990  1.00  0.00    -0.499 A  
HETATM   33  C   UNL     1     -11.697  14.881  64.473  1.00  0.00    -0.382 A  
HETATM   34  N   UNL     1     -10.744  14.902  65.400  1.00  0.00    -0.349 NA 
HETATM   35  N   UNL     1     -11.904  16.028  63.727  1.00  0.00    -1.306 NA 
HETATM   36  H1  UNL     1     -11.274  16.813  63.898  1.00  0.00     0.000 HD 
HETATM   37  C   UNL     1     -10.579  13.770  66.119  1.00  0.00    -0.291 A  
HETATM   38  H2  UNL     1     -12.870  16.336  63.838  1.00  0.00     0.000 HD 
ENDBRANCH  29  30
ENDBRANCH   9  26
ENDBRANCH   2   3
TORSDOF 8
ENDMDL
MODEL       32
REMARK 921   NORMALIZED FREE ENERGY PREDICTED BY IDOCK:   -6.13 KCAL/MOL
REMARK 922        TOTAL FREE ENERGY PREDICTED BY IDOCK:  -10.19 KCAL/MOL
REMARK 923 INTER-LIGAND FREE ENERGY PREDICTED BY IDOCK:   -8.94 KCAL/MOL
REMARK 924 INTRA-LIGAND FREE ENERGY PREDICTED BY IDOCK:   -1.25 KCAL/MOL
REMARK 927      BINDING AFFINITY PREDICTED BY RF-SCORE:    0.00 PKD
ROOT
HETATM    1  C   UNL     1      -7.110   7.197  69.335  1.00  0.00    -0.075 C  
HETATM    2  O   UNL     1      -7.050   8.168  70.376  1.00  0.00    -0.040 OA 
ENDROOT
BRANCH   2   3
HETATM    3  C   UNL     1      -8.098   8.153  71.271  1.00  0.00    -0.107 A  
HETATM    4  C   UNL     1      -7.858   7.457  72.489  1.00  0.00    -0.096 A  
HETATM    5  C   UNL     1      -8.852   7.402  73.481  1.00  0.00    -0.231 A  
HETATM    6  C   UNL     1     -13.634   9.550  71.091  1.00  0.00    -0.169 C  
HETATM    7  N   UNL     1     -11.547  10.384  70.961  1.00  0.00    -0.337 NA 
HETATM    8  C   UNL     1     -10.104   7.960  73.254  1.00  0.00    -0.313 A  
HETATM    9  C   UNL     1     -10.670  10.364  69.897  1.00  0.00    -0.279 A  
HETATM   10  C   UNL     1     -10.317   8.627  72.058  1.00  0.00    -0.416 A  
HETATM   11  C   UNL     1     -12.902  10.887  71.023  1.00  0.00    -0.376 C  
HETATM   12  C   UNL     1      -9.338   8.793  71.060  1.00  0.00    -0.222 A  
HETATM   13  N   UNL     1      -9.627   9.576  69.889  1.00  0.00    -0.208 NA 
HETATM   14  C   UNL     1     -11.592   9.235  71.732  1.00  0.00    -0.388 A  
HETATM   15  N   UNL     1     -12.767   8.698  71.973  1.00  0.00    -0.353 NA 
BRANCH   4  16
HETATM   16  O   UNL     1      -6.622   6.865  72.665  1.00  0.00    -0.060 OA 
BRANCH  16  17
HETATM   17  C   UNL     1      -6.656   5.511  73.147  1.00  0.00    -0.072 C  
BRANCH  17  18
HETATM   18  C   UNL     1      -7.137   4.580  72.035  1.00  0.00    -0.057 C  
BRANCH  18  19
HETATM   19  C   UNL     1      -8.071   3.473  72.553  1.00  0.00    -0.076 C  
BRANCH  19  20
HETATM   20  N   UNL     1      -9.297   3.289  71.758  1.00  0.00    -0.121 NA 
HETATM   21  O   UNL     1     -11.638   3.137  73.538  1.00  0.00    -0.174 OA 
HETATM   22  C   UNL     1     -10.018   2.034  72.072  1.00  0.00    -0.151 C  
HETATM   23  C   UNL     1     -10.250   4.409  71.949  1.00  0.00    -0.146 C  
HETATM   24  C   UNL     1     -10.985   4.392  73.302  1.00  0.00    -0.273 C  
HETATM   25  C   UNL     1     -10.708   2.050  73.445  1.00  0.00    -0.141 C  
ENDBRANCH  19  20
ENDBRANCH  18  19
ENDBRANCH  17  18
ENDBRANCH  16  17
ENDBRANCH   4  16
BRANCH   9  26
HETATM   26  N   UNL     1     -10.824  11.035  68.695  1.00  0.00    -0.198 N  
HETATM   27  O   UNL     1     -11.335  13.233  69.199  1.00  0.00    -0.266 OA 
HETATM   28  H   UNL     1     -10.546  10.490  67.879  1.00  0.00     0.000 HD 
HETATM   29  C   UNL     1     -11.286  12.312  68.388  1.00  0.00    -0.292 C  
BRANCH  29  30
HETATM   30  C   UNL     1     -11.646  12.596  66.977  1.00  0.00    -0.431 A  
HETATM   31  N   UNL     1     -12.798  13.807  65.237  1.00  0.00    -0.737 NA 
HETATM   32  C   UNL     1     -12.525  13.561  66.538  1.00  0.00    -0.253 A  
HETATM   33  C   UNL     1     -12.178  13.020  64.341  1.00  0.00    -0.406 A  
HETATM   34  N   UNL     1     -11.289  12.080  64.644  1.00  0.00    -0.323 NA 
HETATM   35  N   UNL     1     -12.440  13.261  63.004  1.00  0.00    -0.827 NA 
HETATM   36  H1  UNL     1     -11.969  12.664  62.324  1.00  0.00     0.000 HD 
HETATM   37  C   UNL     1     -11.047  11.880  65.959  1.00  0.00    -0.322 A  
HETATM   38  H2  UNL     1     -12.244  14.240  62.791  1.00  0.00     0.000 HD 
ENDBRANCH  29  30
ENDBRANCH   9  26
ENDBRANCH   2   3
TORSDOF 8
ENDMDL
MODEL       33
REMARK 921   NORMALIZED FREE ENERGY PREDICTED BY IDOCK:   -6.11 KCAL/MOL
REMARK 922        TOTAL FREE ENERGY PREDICTED BY IDOCK:  -10.17 KCAL/MOL
REMARK 923 INTER-LIGAND FREE ENERGY PREDICTED BY IDOCK:   -9.15 KCAL/MOL
REMARK 924 INTRA-LIGAND FREE ENERGY PREDICTED BY IDOCK:   -1.02 KCAL/MOL
REMARK 927      BINDING AFFINITY PREDICTED BY RF-SCORE:    0.00 PKD
ROOT
HETATM    1  C   UNL     1     -11.115  11.588  69.269  1.00  0.00    -0.246 C  
HETATM    2  O   UNL     1     -11.962  11.537  68.125  1.00  0.00    -0.571 OA 
ENDROOT
BRANCH   2   3
HETATM    3  C   UNL     1     -11.395  11.957  66.940  1.00  0.00    -0.330 A  
HETATM    4  C   UNL     1     -11.564  13.336  66.630  1.00  0.00    -0.365 A  
HETATM    5  C   UNL     1     -11.004  13.872  65.459  1.00  0.00    -0.302 A  
HETATM    6  C   UNL     1      -9.100   9.388  62.383  1.00  0.00    -0.189 C  
HETATM    7  N   UNL     1      -8.836   9.742  64.591  1.00  0.00    -0.196 NA 
HETATM    8  C   UNL     1     -10.346  13.050  64.553  1.00  0.00    -0.386 A  
HETATM    9  C   UNL     1      -9.469   9.125  65.650  1.00  0.00    -0.240 A  
HETATM   10  C   UNL     1     -10.200  11.709  64.872  1.00  0.00    -0.315 A  
HETATM   11  C   UNL     1      -8.089   9.155  63.501  1.00  0.00    -0.159 C  
HETATM   12  C   UNL     1     -10.660  11.125  66.068  1.00  0.00    -0.239 A  
HETATM   13  N   UNL     1     -10.385   9.743  66.349  1.00  0.00    -0.211 NA 
HETATM   14  C   UNL     1      -9.533  10.774  63.986  1.00  0.00    -0.272 A  
HETATM   15  N   UNL     1      -9.673  10.744  62.679  1.00  0.00    -0.257 NA 
BRANCH   4  16
HETATM   16  O   UNL     1     -12.269  14.120  67.524  1.00  0.00    -0.370 OA 
BRANCH  16  17
HETATM   17  C   UNL     1     -11.783  15.464  67.673  1.00  0.00    -0.111 C  
BRANCH  17  18
HETATM   18  C   UNL     1     -11.178  15.643  69.064  1.00  0.00    -0.306 C  
BRANCH  18  19
HETATM   19  C   UNL     1     -12.233  15.577  70.182  1.00  0.00    -0.376 C  
BRANCH  19  20
HETATM   20  N   UNL     1     -11.935  14.598  71.242  1.00  0.00    -0.339 NA 
HETATM   21  O   UNL     1     -13.878  14.873  73.438  1.00  0.00    -0.206 OA 
HETATM   22  C   UNL     1     -11.625  15.225  72.548  1.00  0.00    -0.397 C  
HETATM   23  C   UNL     1     -13.062  13.658  71.456  1.00  0.00    -0.350 C  
HETATM   24  C   UNL     1     -14.266  14.271  72.196  1.00  0.00    -0.542 C  
HETATM   25  C   UNL     1     -12.850  15.850  73.234  1.00  0.00    -0.556 C  
ENDBRANCH  19  20
ENDBRANCH  18  19
ENDBRANCH  17  18
ENDBRANCH  16  17
ENDBRANCH   4  16
BRANCH   9  26
HETATM   26  N   UNL     1      -9.333   7.799  66.025  1.00  0.00    -0.385 N  
HETATM   27  O   UNL     1      -7.592   7.692  67.543  1.00  0.00    -0.104 OA 
HETATM   28  H   UNL     1     -10.086   7.197  65.692  1.00  0.00     0.000 HD 
HETATM   29  C   UNL     1      -8.366   7.132  66.772  1.00  0.00    -0.116 C  
BRANCH  29  30
HETATM   30  C   UNL     1      -8.340   5.650  66.700  1.00  0.00    -0.112 A  
HETATM   31  N   UNL     1      -9.159   3.442  67.226  1.00  0.00    -0.160 NA 
HETATM   32  C   UNL     1      -9.199   4.788  67.345  1.00  0.00    -0.129 A  
HETATM   33  C   UNL     1      -8.187   2.944  66.442  1.00  0.00    -0.088 A  
HETATM   34  N   UNL     1      -7.322   3.677  65.748  1.00  0.00    -0.075 NA 
HETATM   35  N   UNL     1      -8.134   1.569  66.302  1.00  0.00    -0.073 NA 
HETATM   36  H1  UNL     1      -7.396   1.191  65.708  1.00  0.00     0.000 HD 
HETATM   37  C   UNL     1      -7.411   5.017  65.898  1.00  0.00    -0.077 A  
HETATM   38  H2  UNL     1      -9.040   1.225  65.980  1.00  0.00     0.000 HD 
ENDBRANCH  29  30
ENDBRANCH   9  26
ENDBRANCH   2   3
TORSDOF 8
ENDMDL
MODEL       34
REMARK 921   NORMALIZED FREE ENERGY PREDICTED BY IDOCK:   -6.05 KCAL/MOL
REMARK 922        TOTAL FREE ENERGY PREDICTED BY IDOCK:  -10.08 KCAL/MOL
REMARK 923 INTER-LIGAND FREE ENERGY PREDICTED BY IDOCK:   -9.00 KCAL/MOL
REMARK 924 INTRA-LIGAND FREE ENERGY PREDICTED BY IDOCK:   -1.08 KCAL/MOL
REMARK 927      BINDING AFFINITY PREDICTED BY RF-SCORE:    0.00 PKD
ROOT
HETATM    1  C   UNL     1     -12.440   9.049  72.023  1.00  0.00    -0.390 C  
HETATM    2  O   UNL     1     -11.717   8.187  71.150  1.00  0.00    -0.280 OA 
ENDROOT
BRANCH   2   3
HETATM    3  C   UNL     1     -10.343   8.280  71.217  1.00  0.00    -0.205 A  
HETATM    4  C   UNL     1      -9.701   7.328  72.059  1.00  0.00    -0.157 A  
HETATM    5  C   UNL     1      -8.301   7.320  72.178  1.00  0.00    -0.115 A  
HETATM    6  C   UNL     1      -6.428  12.089  69.545  1.00  0.00    -0.109 C  
HETATM    7  N   UNL     1      -7.980  10.637  68.802  1.00  0.00    -0.126 NA 
HETATM    8  C   UNL     1      -7.534   8.285  71.539  1.00  0.00    -0.097 A  
HETATM    9  C   UNL     1      -9.350  10.787  68.742  1.00  0.00    -0.182 A  
HETATM   10  C   UNL     1      -8.181   9.206  70.730  1.00  0.00    -0.226 A  
HETATM   11  C   UNL     1      -6.940  11.476  68.246  1.00  0.00    -0.073 C  
HETATM   12  C   UNL     1      -9.570   9.217  70.498  1.00  0.00    -0.262 A  
HETATM   13  N   UNL     1     -10.140  10.158  69.574  1.00  0.00    -0.224 NA 
HETATM   14  C   UNL     1      -7.464  10.254  70.029  1.00  0.00    -0.132 A  
HETATM   15  N   UNL     1      -6.477  10.959  70.533  1.00  0.00    -0.321 NA 
BRANCH   4  16
HETATM   16  O   UNL     1     -10.494   6.413  72.725  1.00  0.00    -0.198 OA 
BRANCH  16  17
HETATM   17  C   UNL     1     -10.967   5.318  71.923  1.00  0.00    -0.098 C  
BRANCH  17  18
HETATM   18  C   UNL     1      -9.797   4.686  71.172  1.00  0.00    -0.261 C  
BRANCH  18  19
HETATM   19  C   UNL     1     -10.028   4.637  69.651  1.00  0.00    -0.211 C  
BRANCH  19  20
HETATM   20  N   UNL     1      -9.827   5.924  68.964  1.00  0.00    -0.145 NA 
HETATM   21  O   UNL     1      -9.110   5.458  66.146  1.00  0.00    -0.142 OA 
HETATM   22  C   UNL     1      -8.459   6.090  68.419  1.00  0.00    -0.112 C  
HETATM   23  C   UNL     1     -10.778   6.103  67.840  1.00  0.00    -0.296 C  
HETATM   24  C   UNL     1     -10.456   5.254  66.596  1.00  0.00    -0.290 C  
HETATM   25  C   UNL     1      -8.173   5.201  67.199  1.00  0.00    -0.107 C  
ENDBRANCH  19  20
ENDBRANCH  18  19
ENDBRANCH  17  18
ENDBRANCH  16  17
ENDBRANCH   4  16
BRANCH   9  26
HETATM   26  N   UNL     1     -10.043  11.670  67.932  1.00  0.00    -0.183 N  
HETATM   27  O   UNL     1     -10.890  10.452  66.159  1.00  0.00    -0.073 OA 
HETATM   28  H   UNL     1     -10.161  12.597  68.340  1.00  0.00     0.000 HD 
HETATM   29  C   UNL     1     -10.609  11.533  66.667  1.00  0.00    -0.253 C  
BRANCH  29  30
HETATM   30  C   UNL     1     -10.981  12.772  65.940  1.00  0.00    -0.303 A  
HETATM   31  N   UNL     1     -10.632  15.048  65.220  1.00  0.00    -0.365 NA 
HETATM   32  C   UNL     1     -10.272  13.953  65.925  1.00  0.00    -0.315 A  
HETATM   33  C   UNL     1     -11.778  14.956  64.525  1.00  0.00    -0.382 A  
HETATM   34  N   UNL     1     -12.529  13.862  64.440  1.00  0.00    -0.659 NA 
HETATM   35  N   UNL     1     -12.160  16.066  63.792  1.00  0.00    -1.255 NA 
HETATM   36  H1  UNL     1     -13.031  15.996  63.264  1.00  0.00     0.000 HD 
HETATM   37  C   UNL     1     -12.119  12.793  65.158  1.00  0.00    -0.450 A  
HETATM   38  H2  UNL     1     -11.402  16.336  63.164  1.00  0.00     0.000 HD 
ENDBRANCH  29  30
ENDBRANCH   9  26
ENDBRANCH   2   3
TORSDOF 8
ENDMDL
MODEL       35
REMARK 921   NORMALIZED FREE ENERGY PREDICTED BY IDOCK:   -6.04 KCAL/MOL
REMARK 922        TOTAL FREE ENERGY PREDICTED BY IDOCK:  -10.06 KCAL/MOL
REMARK 923 INTER-LIGAND FREE ENERGY PREDICTED BY IDOCK:   -8.46 KCAL/MOL
REMARK 924 INTRA-LIGAND FREE ENERGY PREDICTED BY IDOCK:   -1.60 KCAL/MOL
REMARK 927      BINDING AFFINITY PREDICTED BY RF-SCORE:    0.00 PKD
ROOT
HETATM    1  C   UNL     1     -11.524   9.222  71.499  1.00  0.00    -0.384 C  
HETATM    2  O   UNL     1     -12.031   8.023  70.921  1.00  0.00    -0.278 OA 
ENDROOT
BRANCH   2   3
HETATM    3  C   UNL     1     -11.088   7.162  70.402  1.00  0.00    -0.280 A  
HETATM    4  C   UNL     1     -10.896   5.950  71.123  1.00  0.00    -0.269 A  
HETATM    5  C   UNL     1      -9.976   4.992  70.666  1.00  0.00    -0.300 A  
HETATM    6  C   UNL     1      -7.037   7.491  66.387  1.00  0.00    -0.071 C  
HETATM    7  N   UNL     1      -9.262   7.540  66.728  1.00  0.00    -0.149 NA 
HETATM    8  C   UNL     1      -9.190   5.248  69.550  1.00  0.00    -0.157 A  
HETATM    9  C   UNL     1     -10.046   8.575  67.191  1.00  0.00    -0.262 A  
HETATM   10  C   UNL     1      -9.389   6.437  68.867  1.00  0.00    -0.130 A  
HETATM   11  C   UNL     1      -8.348   7.511  65.607  1.00  0.00    -0.140 C  
HETATM   12  C   UNL     1     -10.353   7.400  69.220  1.00  0.00    -0.204 A  
HETATM   13  N   UNL     1     -10.545   8.564  68.399  1.00  0.00    -0.160 NA 
HETATM   14  C   UNL     1      -8.611   6.792  67.695  1.00  0.00    -0.121 A  
HETATM   15  N   UNL     1      -7.318   6.599  67.561  1.00  0.00    -0.093 NA 
BRANCH   4  16
HETATM   16  O   UNL     1     -11.654   5.746  72.261  1.00  0.00    -0.293 OA 
BRANCH  16  17
HETATM   17  C   UNL     1     -10.904   5.427  73.445  1.00  0.00    -0.297 C  
BRANCH  17  18
HETATM   18  C   UNL     1     -10.398   6.713  74.097  1.00  0.00    -0.347 C  
BRANCH  18  19
HETATM   19  C   UNL     1      -8.868   6.736  74.252  1.00  0.00    -0.172 C  
BRANCH  19  20
HETATM   20  N   UNL     1      -8.232   7.997  73.834  1.00  0.00    -0.228 NA 
HETATM   21  O   UNL     1      -5.707   7.432  72.427  1.00  0.00    -0.037 OA 
HETATM   22  C   UNL     1      -6.890   8.203  74.426  1.00  0.00    -0.138 C  
HETATM   23  C   UNL     1      -8.084   8.076  72.360  1.00  0.00    -0.131 C  
HETATM   24  C   UNL     1      -6.966   7.185  71.787  1.00  0.00    -0.064 C  
HETATM   25  C   UNL     1      -5.814   7.271  73.847  1.00  0.00    -0.057 C  
ENDBRANCH  19  20
ENDBRANCH  18  19
ENDBRANCH  17  18
ENDBRANCH  16  17
ENDBRANCH   4  16
BRANCH   9  26
HETATM   26  N   UNL     1     -10.298   9.768  66.535  1.00  0.00    -0.219 N  
HETATM   27  O   UNL     1      -9.254  11.445  67.737  1.00  0.00    -0.152 OA 
HETATM   28  H   UNL     1     -10.740   9.652  65.622  1.00  0.00     0.000 HD 
HETATM   29  C   UNL     1     -10.064  11.096  66.883  1.00  0.00    -0.214 C  
BRANCH  29  30
HETATM   30  C   UNL     1     -10.765  12.148  66.105  1.00  0.00    -0.307 A  
HETATM   31  N   UNL     1     -12.668  13.522  65.546  1.00  0.00    -0.552 NA 
HETATM   32  C   UNL     1     -12.079  12.534  66.256  1.00  0.00    -0.243 A  
HETATM   33  C   UNL     1     -11.903  14.125  64.621  1.00  0.00    -0.431 A  
HETATM   34  N   UNL     1     -10.618  13.860  64.408  1.00  0.00    -0.344 NA 
HETATM   35  N   UNL     1     -12.487  15.144  63.889  1.00  0.00    -1.018 NA 
HETATM   36  H1  UNL     1     -11.906  15.602  63.186  1.00  0.00     0.000 HD 
HETATM   37  C   UNL     1     -10.076  12.868  65.149  1.00  0.00    -0.223 A  
HETATM   38  H2  UNL     1     -12.868  15.845  64.525  1.00  0.00     0.000 HD 
ENDBRANCH  29  30
ENDBRANCH   9  26
ENDBRANCH   2   3
TORSDOF 8
ENDMDL
MODEL       36
REMARK 921   NORMALIZED FREE ENERGY PREDICTED BY IDOCK:   -6.01 KCAL/MOL
REMARK 922        TOTAL FREE ENERGY PREDICTED BY IDOCK:  -10.03 KCAL/MOL
REMARK 923 INTER-LIGAND FREE ENERGY PREDICTED BY IDOCK:   -9.33 KCAL/MOL
REMARK 924 INTRA-LIGAND FREE ENERGY PREDICTED BY IDOCK:   -0.70 KCAL/MOL
REMARK 927      BINDING AFFINITY PREDICTED BY RF-SCORE:    0.00 PKD
ROOT
HETATM    1  C   UNL     1     -12.768  15.012  69.988  1.00  0.00    -0.160 C  
HETATM    2  O   UNL     1     -11.458  15.490  69.697  1.00  0.00    -0.281 OA 
ENDROOT
BRANCH   2   3
HETATM    3  C   UNL     1     -10.957  15.152  68.459  1.00  0.00    -0.262 A  
HETATM    4  C   UNL     1     -10.759  16.236  67.557  1.00  0.00    -0.300 A  
HETATM    5  C   UNL     1     -10.229  16.003  66.277  1.00  0.00    -0.329 A  
HETATM    6  C   UNL     1     -10.133  10.285  65.584  1.00  0.00    -0.271 C  
HETATM    7  N   UNL     1      -9.486  11.454  67.397  1.00  0.00    -0.166 NA 
HETATM    8  C   UNL     1      -9.965  14.709  65.849  1.00  0.00    -0.352 A  
HETATM    9  C   UNL     1     -10.123  11.592  68.612  1.00  0.00    -0.207 A  
HETATM   10  C   UNL     1     -10.171  13.669  66.741  1.00  0.00    -0.268 A  
HETATM   11  C   UNL     1      -9.093  10.249  66.699  1.00  0.00    -0.144 C  
HETATM   12  C   UNL     1     -10.617  13.839  68.065  1.00  0.00    -0.252 A  
HETATM   13  N   UNL     1     -10.719  12.707  68.945  1.00  0.00    -0.206 NA 
HETATM   14  C   UNL     1      -9.928  12.285  66.381  1.00  0.00    -0.228 A  
HETATM   15  N   UNL     1     -10.243  11.739  65.228  1.00  0.00    -0.256 NA 
BRANCH   4  16
HETATM   16  O   UNL     1     -11.082  17.508  67.991  1.00  0.00    -0.241 OA 
BRANCH  16  17
HETATM   17  C   UNL     1     -10.006  18.233  68.609  1.00  0.00    -0.389 C  
BRANCH  17  18
HETATM   18  C   UNL     1      -9.277  19.069  67.559  1.00  0.00    -0.325 C  
BRANCH  18  19
HETATM   19  C   UNL     1      -8.289  20.071  68.182  1.00  0.00    -0.175 C  
BRANCH  19  20
HETATM   20  N   UNL     1      -6.880  19.840  67.820  1.00  0.00    -0.237 NA 
HETATM   21  O   UNL     1      -5.376  18.914  70.177  1.00  0.00    -0.198 OA 
HETATM   22  C   UNL     1      -5.932  20.686  68.583  1.00  0.00    -0.344 C  
HETATM   23  C   UNL     1      -6.482  18.427  68.031  1.00  0.00    -0.201 C  
HETATM   24  C   UNL     1      -6.290  18.035  69.508  1.00  0.00    -0.215 C  
HETATM   25  C   UNL     1      -5.797  20.279  70.058  1.00  0.00    -0.350 C  
ENDBRANCH  19  20
ENDBRANCH  18  19
ENDBRANCH  17  18
ENDBRANCH  16  17
ENDBRANCH   4  16
BRANCH   9  26
HETATM   26  N   UNL     1     -10.329  10.592  69.548  1.00  0.00    -0.340 N  
HETATM   27  O   UNL     1      -8.246   9.869  70.246  1.00  0.00    -0.185 OA 
HETATM   28  H   UNL     1     -11.302  10.490  69.835  1.00  0.00     0.000 HD 
HETATM   29  C   UNL     1      -9.460   9.700  70.171  1.00  0.00    -0.253 C  
BRANCH  29  30
HETATM   30  C   UNL     1     -10.053   8.532  70.867  1.00  0.00    -0.246 A  
HETATM   31  N   UNL     1     -11.062   6.341  70.946  1.00  0.00    -0.290 NA 
HETATM   32  C   UNL     1     -10.560   7.398  70.270  1.00  0.00    -0.231 A  
HETATM   33  C   UNL     1     -11.081   6.448  72.286  1.00  0.00    -0.265 A  
HETATM   34  N   UNL     1     -10.593   7.477  72.972  1.00  0.00    -0.334 NA 
HETATM   35  N   UNL     1     -11.585   5.373  72.996  1.00  0.00    -0.511 NA 
HETATM   36  H1  UNL     1     -11.600   5.455  74.013  1.00  0.00     0.000 HD 
HETATM   37  C   UNL     1     -10.097   8.504  72.247  1.00  0.00    -0.316 A  
HETATM   38  H2  UNL     1     -11.085   4.525  72.729  1.00  0.00     0.000 HD 
ENDBRANCH  29  30
ENDBRANCH   9  26
ENDBRANCH   2   3
TORSDOF 8
ENDMDL
MODEL       37
REMARK 921   NORMALIZED FREE ENERGY PREDICTED BY IDOCK:   -6.01 KCAL/MOL
REMARK 922        TOTAL FREE ENERGY PREDICTED BY IDOCK:  -10.02 KCAL/MOL
REMARK 923 INTER-LIGAND FREE ENERGY PREDICTED BY IDOCK:   -9.35 KCAL/MOL
REMARK 924 INTRA-LIGAND FREE ENERGY PREDICTED BY IDOCK:   -0.67 KCAL/MOL
REMARK 927      BINDING AFFINITY PREDICTED BY RF-SCORE:    0.00 PKD
ROOT
HETATM    1  C   UNL     1      -6.837  12.938  68.268  1.00  0.00    -0.093 C  
HETATM    2  O   UNL     1      -8.154  13.423  68.508  1.00  0.00    -0.150 OA 
ENDROOT
BRANCH   2   3
HETATM    3  C   UNL     1      -8.792  13.988  67.425  1.00  0.00    -0.206 A  
HETATM    4  C   UNL     1      -8.641  15.397  67.285  1.00  0.00    -0.195 A  
HETATM    5  C   UNL     1      -9.230  16.068  66.201  1.00  0.00    -0.388 A  
HETATM    6  C   UNL     1     -12.660  12.236  63.604  1.00  0.00    -0.490 C  
HETATM    7  N   UNL     1     -10.555  11.912  64.334  1.00  0.00    -0.296 NA 
HETATM    8  C   UNL     1     -10.029  15.379  65.297  1.00  0.00    -0.305 A  
HETATM    9  C   UNL     1     -10.118  11.214  65.439  1.00  0.00    -0.264 A  
HETATM   10  C   UNL     1     -10.167  14.009  65.456  1.00  0.00    -0.362 A  
HETATM   11  C   UNL     1     -11.393  11.469  63.240  1.00  0.00    -0.109 C  
HETATM   12  C   UNL     1      -9.535  13.262  66.468  1.00  0.00    -0.245 A  
HETATM   13  N   UNL     1      -9.669  11.832  66.501  1.00  0.00    -0.201 NA 
HETATM   14  C   UNL     1     -10.985  13.208  64.565  1.00  0.00    -0.372 A  
HETATM   15  N   UNL     1     -12.161  13.563  64.099  1.00  0.00    -0.580 NA 
BRANCH   4  16
HETATM   16  O   UNL     1      -7.886  16.064  68.231  1.00  0.00    -0.138 OA 
BRANCH  16  17
HETATM   17  C   UNL     1      -6.766  16.800  67.709  1.00  0.00    -0.137 C  
BRANCH  17  18
HETATM   18  C   UNL     1      -6.849  18.256  68.162  1.00  0.00    -0.218 C  
BRANCH  18  19
HETATM   19  C   UNL     1      -8.196  18.593  68.825  1.00  0.00    -0.267 C  
BRANCH  19  20
HETATM   20  N   UNL     1      -8.731  19.920  68.475  1.00  0.00    -0.207 NA 
HETATM   21  O   UNL     1     -10.272  19.754  65.970  1.00  0.00    -0.462 OA 
HETATM   22  C   UNL     1      -8.245  20.422  67.168  1.00  0.00    -0.320 C  
HETATM   23  C   UNL     1     -10.213  19.922  68.427  1.00  0.00    -0.433 C  
HETATM   24  C   UNL     1     -10.809  19.225  67.190  1.00  0.00    -0.440 C  
HETATM   25  C   UNL     1      -8.841  19.676  65.964  1.00  0.00    -0.246 C  
ENDBRANCH  19  20
ENDBRANCH  18  19
ENDBRANCH  17  18
ENDBRANCH  16  17
ENDBRANCH   4  16
BRANCH   9  26
HETATM   26  N   UNL     1     -10.208   9.846  65.633  1.00  0.00    -0.232 N  
HETATM   27  O   UNL     1     -10.829   9.504  67.834  1.00  0.00    -0.245 OA 
HETATM   28  H   UNL     1     -10.136   9.302  64.773  1.00  0.00     0.000 HD 
HETATM   29  C   UNL     1     -10.379   9.071  66.777  1.00  0.00    -0.240 C  
BRANCH  29  30
HETATM   30  C   UNL     1     -10.090   7.619  66.677  1.00  0.00    -0.278 A  
HETATM   31  N   UNL     1     -10.656   5.281  66.868  1.00  0.00    -0.254 NA 
HETATM   32  C   UNL     1     -10.948   6.593  67.007  1.00  0.00    -0.393 A  
HETATM   33  C   UNL     1      -9.428   4.993  66.404  1.00  0.00    -0.153 A  
HETATM   34  N   UNL     1      -8.528   5.895  66.025  1.00  0.00    -0.131 NA 
HETATM   35  N   UNL     1      -9.111   3.655  66.249  1.00  0.00    -0.145 NA 
HETATM   36  H1  UNL     1      -8.179   3.436  65.897  1.00  0.00     0.000 HD 
HETATM   37  C   UNL     1      -8.875   7.193  66.178  1.00  0.00    -0.150 A  
HETATM   38  H2  UNL     1      -9.812   3.206  65.659  1.00  0.00     0.000 HD 
ENDBRANCH  29  30
ENDBRANCH   9  26
ENDBRANCH   2   3
TORSDOF 8
ENDMDL
MODEL       38
REMARK 921   NORMALIZED FREE ENERGY PREDICTED BY IDOCK:   -5.97 KCAL/MOL
REMARK 922        TOTAL FREE ENERGY PREDICTED BY IDOCK:   -9.96 KCAL/MOL
REMARK 923 INTER-LIGAND FREE ENERGY PREDICTED BY IDOCK:   -8.76 KCAL/MOL
REMARK 924 INTRA-LIGAND FREE ENERGY PREDICTED BY IDOCK:   -1.20 KCAL/MOL
REMARK 927      BINDING AFFINITY PREDICTED BY RF-SCORE:    0.00 PKD
ROOT
HETATM    1  C   UNL     1     -11.552  12.233  67.366  1.00  0.00    -0.355 C  
HETATM    2  O   UNL     1     -10.910  12.365  68.630  1.00  0.00    -0.227 OA 
ENDROOT
BRANCH   2   3
HETATM    3  C   UNL     1     -11.512  11.706  69.680  1.00  0.00    -0.288 A  
HETATM    4  C   UNL     1     -12.368  12.498  70.497  1.00  0.00    -0.262 A  
HETATM    5  C   UNL     1     -13.051  11.919  71.578  1.00  0.00    -0.377 A  
HETATM    6  C   UNL     1     -10.892   6.613  72.193  1.00  0.00    -0.229 C  
HETATM    7  N   UNL     1     -11.497   7.630  70.277  1.00  0.00    -0.190 NA 
HETATM    8  C   UNL     1     -12.841  10.587  71.911  1.00  0.00    -0.509 A  
HETATM    9  C   UNL     1     -10.697   8.160  69.287  1.00  0.00    -0.129 A  
HETATM   10  C   UNL     1     -11.999   9.835  71.106  1.00  0.00    -0.463 A  
HETATM   11  C   UNL     1     -11.505   6.294  70.833  1.00  0.00    -0.312 C  
HETATM   12  C   UNL     1     -11.352  10.331  69.958  1.00  0.00    -0.301 A  
HETATM   13  N   UNL     1     -10.565   9.452  69.137  1.00  0.00    -0.220 NA 
HETATM   14  C   UNL     1     -11.716   8.439  71.379  1.00  0.00    -0.287 A  
HETATM   15  N   UNL     1     -11.499   7.933  72.572  1.00  0.00    -0.375 NA 
BRANCH   4  16
HETATM   16  O   UNL     1     -12.516  13.835  70.174  1.00  0.00    -0.323 OA 
BRANCH  16  17
HETATM   17  C   UNL     1     -11.856  14.753  71.062  1.00  0.00    -0.329 C  
BRANCH  17  18
HETATM   18  C   UNL     1     -11.603  16.075  70.341  1.00  0.00    -0.364 C  
BRANCH  18  19
HETATM   19  C   UNL     1     -11.303  15.885  68.844  1.00  0.00    -0.377 C  
BRANCH  19  20
HETATM   20  N   UNL     1      -9.924  16.222  68.453  1.00  0.00    -0.228 NA 
HETATM   21  O   UNL     1      -9.838  16.959  65.603  1.00  0.00    -0.549 OA 
HETATM   22  C   UNL     1      -9.385  15.346  67.387  1.00  0.00    -0.201 C  
HETATM   23  C   UNL     1      -9.813  17.622  67.976  1.00  0.00    -0.310 C  
HETATM   24  C   UNL     1     -10.395  17.860  66.570  1.00  0.00    -0.362 C  
HETATM   25  C   UNL     1     -10.017  15.597  66.009  1.00  0.00    -0.333 C  
ENDBRANCH  19  20
ENDBRANCH  18  19
ENDBRANCH  17  18
ENDBRANCH  16  17
ENDBRANCH   4  16
BRANCH   9  26
HETATM   26  N   UNL     1      -9.862   7.450  68.440  1.00  0.00    -0.154 N  
HETATM   27  O   UNL     1      -7.865   7.128  69.561  1.00  0.00    -0.114 OA 
HETATM   28  H   UNL     1     -10.325   7.101  67.601  1.00  0.00     0.000 HD 
HETATM   29  C   UNL     1      -8.511   7.122  68.517  1.00  0.00    -0.125 C  
BRANCH  29  30
HETATM   30  C   UNL     1      -7.845   6.645  67.279  1.00  0.00    -0.112 A  
HETATM   31  N   UNL     1      -7.582   6.486  64.886  1.00  0.00    -0.090 NA 
HETATM   32  C   UNL     1      -8.239   6.915  65.986  1.00  0.00    -0.125 A  
HETATM   33  C   UNL     1      -6.496   5.724  65.102  1.00  0.00    -0.042 A  
HETATM   34  N   UNL     1      -6.005   5.425  66.300  1.00  0.00    -0.022 NA 
HETATM   35  N   UNL     1      -5.806   5.281  63.987  1.00  0.00    -0.020 NA 
HETATM   36  H1  UNL     1      -4.982   4.703  64.151  1.00  0.00     0.000 HD 
HETATM   37  C   UNL     1      -6.696   5.885  67.367  1.00  0.00    -0.058 A  
HETATM   38  H2  UNL     1      -5.552   6.080  63.405  1.00  0.00     0.000 HD 
ENDBRANCH  29  30
ENDBRANCH   9  26
ENDBRANCH   2   3
TORSDOF 8
ENDMDL
MODEL       39
REMARK 921   NORMALIZED FREE ENERGY PREDICTED BY IDOCK:   -5.95 KCAL/MOL
REMARK 922        TOTAL FREE ENERGY PREDICTED BY IDOCK:   -9.94 KCAL/MOL
REMARK 923 INTER-LIGAND FREE ENERGY PREDICTED BY IDOCK:   -9.31 KCAL/MOL
REMARK 924 INTRA-LIGAND FREE ENERGY PREDICTED BY IDOCK:   -0.63 KCAL/MOL
REMARK 927      BINDING AFFINITY PREDICTED BY RF-SCORE:    0.00 PKD
ROOT
HETATM    1  C   UNL     1      -8.782  11.745  67.187  1.00  0.00    -0.169 C  
HETATM    2  O   UNL     1     -10.178  11.789  66.910  1.00  0.00    -0.205 OA 
ENDROOT
BRANCH   2   3
HETATM    3  C   UNL     1     -10.879  12.807  67.519  1.00  0.00    -0.239 A  
HETATM    4  C   UNL     1     -11.039  13.993  66.748  1.00  0.00    -0.306 A  
HETATM    5  C   UNL     1     -11.759  15.083  67.266  1.00  0.00    -0.238 A  
HETATM    6  C   UNL     1     -12.749  13.872  72.811  1.00  0.00    -0.132 C  
HETATM    7  N   UNL     1     -12.983  12.492  71.047  1.00  0.00    -0.146 NA 
HETATM    8  C   UNL     1     -12.256  15.045  68.562  1.00  0.00    -0.063 A  
HETATM    9  C   UNL     1     -12.180  11.441  70.656  1.00  0.00    -0.389 A  
HETATM   10  C   UNL     1     -12.084  13.883  69.297  1.00  0.00    -0.383 A  
HETATM   11  C   UNL     1     -13.630  12.728  72.320  1.00  0.00    -0.465 C  
HETATM   12  C   UNL     1     -11.449  12.725  68.808  1.00  0.00    -0.304 A  
HETATM   13  N   UNL     1     -11.394  11.537  69.615  1.00  0.00    -0.269 NA 
HETATM   14  C   UNL     1     -12.564  13.753  70.659  1.00  0.00    -0.315 A  
HETATM   15  N   UNL     1     -12.482  14.689  71.579  1.00  0.00    -0.329 NA 
BRANCH   4  16
HETATM   16  O   UNL     1     -10.486  14.022  65.482  1.00  0.00    -0.298 OA 
BRANCH  16  17
HETATM   17  C   UNL     1      -9.805  15.241  65.141  1.00  0.00    -0.129 C  
BRANCH  17  18
HETATM   18  C   UNL     1      -8.766  15.568  66.212  1.00  0.00    -0.283 C  
BRANCH  18  19
HETATM   19  C   UNL     1      -8.413  17.065  66.257  1.00  0.00    -0.269 C  
BRANCH  19  20
HETATM   20  N   UNL     1      -8.426  17.652  67.608  1.00  0.00    -0.222 NA 
HETATM   21  O   UNL     1      -9.238  20.480  67.468  1.00  0.00    -0.357 OA 
HETATM   22  C   UNL     1      -7.491  18.791  67.762  1.00  0.00    -0.228 C  
HETATM   23  C   UNL     1      -9.777  18.133  67.987  1.00  0.00    -0.311 C  
HETATM   24  C   UNL     1     -10.205  19.437  67.288  1.00  0.00    -0.415 C  
HETATM   25  C   UNL     1      -7.943  20.060  67.022  1.00  0.00    -0.314 C  
ENDBRANCH  19  20
ENDBRANCH  18  19
ENDBRANCH  17  18
ENDBRANCH  16  17
ENDBRANCH   4  16
BRANCH   9  26
HETATM   26  N   UNL     1     -11.996  10.251  71.339  1.00  0.00    -0.359 N  
HETATM   27  O   UNL     1      -9.790   9.627  71.047  1.00  0.00    -0.226 OA 
HETATM   28  H   UNL     1     -12.787   9.986  71.926  1.00  0.00     0.000 HD 
HETATM   29  C   UNL     1     -10.938   9.347  71.378  1.00  0.00    -0.373 C  
BRANCH  29  30
HETATM   30  C   UNL     1     -11.200   8.001  71.945  1.00  0.00    -0.335 A  
HETATM   31  N   UNL     1     -12.347   5.880  72.047  1.00  0.00     0.019 NA 
HETATM   32  C   UNL     1     -12.164   7.112  71.522  1.00  0.00    -0.360 A  
HETATM   33  C   UNL     1     -11.539   5.545  73.067  1.00  0.00    -0.170 A  
HETATM   34  N   UNL     1     -10.556   6.305  73.540  1.00  0.00    -0.263 NA 
HETATM   35  N   UNL     1     -11.706   4.285  73.614  1.00  0.00    -0.118 NA 
HETATM   36  H1  UNL     1     -11.093   4.030  74.389  1.00  0.00     0.000 HD 
HETATM   37  C   UNL     1     -10.413   7.524  72.974  1.00  0.00    -0.342 A  
HETATM   38  H2  UNL     1     -11.634   3.582  72.878  1.00  0.00     0.000 HD 
ENDBRANCH  29  30
ENDBRANCH   9  26
ENDBRANCH   2   3
TORSDOF 8
ENDMDL
MODEL       40
REMARK 921   NORMALIZED FREE ENERGY PREDICTED BY IDOCK:   -5.95 KCAL/MOL
REMARK 922        TOTAL FREE ENERGY PREDICTED BY IDOCK:   -9.93 KCAL/MOL
REMARK 923 INTER-LIGAND FREE ENERGY PREDICTED BY IDOCK:   -8.65 KCAL/MOL
REMARK 924 INTRA-LIGAND FREE ENERGY PREDICTED BY IDOCK:   -1.27 KCAL/MOL
REMARK 927      BINDING AFFINITY PREDICTED BY RF-SCORE:    0.00 PKD
ROOT
HETATM    1  C   UNL     1      -6.694  11.295  68.705  1.00  0.00    -0.071 C  
HETATM    2  O   UNL     1      -7.444  10.508  67.785  1.00  0.00    -0.086 OA 
ENDROOT
BRANCH   2   3
HETATM    3  C   UNL     1      -7.756   9.232  68.204  1.00  0.00    -0.088 A  
HETATM    4  C   UNL     1      -6.870   8.206  67.768  1.00  0.00    -0.073 A  
HETATM    5  C   UNL     1      -7.082   6.874  68.160  1.00  0.00    -0.085 A  
HETATM    6  C   UNL     1     -12.253   6.743  70.697  1.00  0.00    -0.254 C  
HETATM    7  N   UNL     1     -10.617   8.261  71.003  1.00  0.00    -0.201 NA 
HETATM    8  C   UNL     1      -8.199   6.530  68.910  1.00  0.00    -0.119 A  
HETATM    9  C   UNL     1     -10.545   9.561  70.550  1.00  0.00    -0.297 A  
HETATM   10  C   UNL     1      -9.052   7.544  69.317  1.00  0.00    -0.138 A  
HETATM   11  C   UNL     1     -11.648   7.619  71.790  1.00  0.00    -0.270 C  
HETATM   12  C   UNL     1      -8.851   8.908  69.034  1.00  0.00    -0.136 A  
HETATM   13  N   UNL     1      -9.744   9.897  69.573  1.00  0.00    -0.208 NA 
HETATM   14  C   UNL     1     -10.245   7.281  70.099  1.00  0.00    -0.203 A  
HETATM   15  N   UNL     1     -11.069   6.276  69.901  1.00  0.00    -0.367 NA 
BRANCH   4  16
HETATM   16  O   UNL     1      -5.796   8.570  66.977  1.00  0.00    -0.041 OA 
BRANCH  16  17
HETATM   17  C   UNL     1      -5.894   8.177  65.598  1.00  0.00    -0.041 C  
BRANCH  17  18
HETATM   18  C   UNL     1      -5.735   9.403  64.700  1.00  0.00    -0.069 C  
BRANCH  18  19
HETATM   19  C   UNL     1      -7.054  10.172  64.509  1.00  0.00    -0.119 C  
BRANCH  19  20
HETATM   20  N   UNL     1      -8.180   9.342  64.051  1.00  0.00    -0.154 NA 
HETATM   21  O   UNL     1     -10.497  11.048  63.425  1.00  0.00    -0.353 OA 
HETATM   22  C   UNL     1      -9.382   9.456  64.911  1.00  0.00    -0.150 C  
HETATM   23  C   UNL     1      -8.591   9.685  62.667  1.00  0.00    -0.202 C  
HETATM   24  C   UNL     1      -9.365  11.011  62.547  1.00  0.00    -0.259 C  
HETATM   25  C   UNL     1     -10.103  10.806  64.781  1.00  0.00    -0.331 C  
ENDBRANCH  19  20
ENDBRANCH  18  19
ENDBRANCH  17  18
ENDBRANCH  16  17
ENDBRANCH   4  16
BRANCH   9  26
HETATM   26  N   UNL     1     -11.353  10.613  70.946  1.00  0.00    -0.330 N  
HETATM   27  O   UNL     1     -12.405  11.419  69.051  1.00  0.00    -0.407 OA 
HETATM   28  H   UNL     1     -11.433  10.714  71.958  1.00  0.00     0.000 HD 
HETATM   29  C   UNL     1     -12.078  11.559  70.226  1.00  0.00    -0.359 C  
BRANCH  29  30
HETATM   30  C   UNL     1     -12.564  12.757  70.955  1.00  0.00    -0.362 A  
HETATM   31  N   UNL     1     -12.862  15.132  71.262  1.00  0.00    -0.356 NA 
HETATM   32  C   UNL     1     -12.372  14.070  70.584  1.00  0.00    -0.375 A  
HETATM   33  C   UNL     1     -13.550  14.855  72.382  1.00  0.00    -0.450 A  
HETATM   34  N   UNL     1     -13.824  13.630  72.821  1.00  0.00    -0.687 NA 
HETATM   35  N   UNL     1     -14.065  15.929  73.086  1.00  0.00    -0.546 NA 
HETATM   36  H1  UNL     1     -14.587  15.718  73.937  1.00  0.00     0.000 HD 
HETATM   37  C   UNL     1     -13.317  12.604  72.102  1.00  0.00    -0.466 A  
HETATM   38  H2  UNL     1     -14.641  16.497  72.465  1.00  0.00     0.000 HD 
ENDBRANCH  29  30
ENDBRANCH   9  26
ENDBRANCH   2   3
TORSDOF 8
ENDMDL
MODEL       41
REMARK 921   NORMALIZED FREE ENERGY PREDICTED BY IDOCK:   -5.94 KCAL/MOL
REMARK 922        TOTAL FREE ENERGY PREDICTED BY IDOCK:   -9.92 KCAL/MOL
REMARK 923 INTER-LIGAND FREE ENERGY PREDICTED BY IDOCK:   -8.88 KCAL/MOL
REMARK 924 INTRA-LIGAND FREE ENERGY PREDICTED BY IDOCK:   -1.04 KCAL/MOL
REMARK 927      BINDING AFFINITY PREDICTED BY RF-SCORE:    0.00 PKD
ROOT
HETATM    1  C   UNL     1      -9.824  11.554  63.630  1.00  0.00    -0.353 C  
HETATM    2  O   UNL     1     -11.038  11.509  64.374  1.00  0.00    -0.330 OA 
ENDROOT
BRANCH   2   3
HETATM    3  C   UNL     1     -10.910  11.645  65.740  1.00  0.00    -0.281 A  
HETATM    4  C   UNL     1     -11.189  12.942  66.258  1.00  0.00    -0.301 A  
HETATM    5  C   UNL     1     -11.112  13.183  67.640  1.00  0.00    -0.295 A  
HETATM    6  C   UNL     1      -8.746   8.475  69.970  1.00  0.00    -0.136 C  
HETATM    7  N   UNL     1     -10.375   8.561  68.418  1.00  0.00    -0.210 NA 
HETATM    8  C   UNL     1     -10.691  12.183  68.507  1.00  0.00    -0.257 A  
HETATM    9  C   UNL     1     -10.301   8.290  67.068  1.00  0.00    -0.323 A  
HETATM   10  C   UNL     1     -10.419  10.930  67.979  1.00  0.00    -0.222 A  
HETATM   11  C   UNL     1     -10.006   7.729  69.542  1.00  0.00    -0.187 C  
HETATM   12  C   UNL     1     -10.559  10.598  66.618  1.00  0.00    -0.214 A  
HETATM   13  N   UNL     1     -10.336   9.248  66.178  1.00  0.00    -0.164 NA 
HETATM   14  C   UNL     1      -9.968   9.827  68.806  1.00  0.00    -0.169 A  
HETATM   15  N   UNL     1      -9.091   9.924  69.780  1.00  0.00    -0.225 NA 
BRANCH   4  16
HETATM   16  O   UNL     1     -11.553  13.933  65.366  1.00  0.00    -0.312 OA 
BRANCH  16  17
HETATM   17  C   UNL     1     -10.495  14.827  64.981  1.00  0.00    -0.416 C  
BRANCH  17  18
HETATM   18  C   UNL     1     -10.840  16.250  65.415  1.00  0.00    -0.284 C  
BRANCH  18  19
HETATM   19  C   UNL     1      -9.836  16.818  66.433  1.00  0.00    -0.297 C  
BRANCH  19  20
HETATM   20  N   UNL     1      -9.279  18.132  66.070  1.00  0.00    -0.517 NA 
HETATM   21  O   UNL     1      -9.373  19.940  68.393  1.00  0.00    -0.322 OA 
HETATM   22  C   UNL     1     -10.250  19.241  66.218  1.00  0.00    -0.464 C  
HETATM   23  C   UNL     1      -8.089  18.472  66.888  1.00  0.00    -0.245 C  
HETATM   24  C   UNL     1      -8.412  18.877  68.338  1.00  0.00    -0.350 C  
HETATM   25  C   UNL     1     -10.566  19.590  67.681  1.00  0.00    -0.440 C  
ENDBRANCH  19  20
ENDBRANCH  18  19
ENDBRANCH  17  18
ENDBRANCH  16  17
ENDBRANCH   4  16
BRANCH   9  26
HETATM   26  N   UNL     1     -10.060   7.054  66.492  1.00  0.00    -0.433 N  
HETATM   27  O   UNL     1      -7.860   6.506  66.943  1.00  0.00    -0.104 OA 
HETATM   28  H   UNL     1     -10.899   6.593  66.138  1.00  0.00     0.000 HD 
HETATM   29  C   UNL     1      -8.892   6.320  66.305  1.00  0.00    -0.147 C  
BRANCH  29  30
HETATM   30  C   UNL     1      -8.935   5.186  65.349  1.00  0.00    -0.157 A  
HETATM   31  N   UNL     1      -7.974   3.698  63.710  1.00  0.00    -0.087 NA 
HETATM   32  C   UNL     1      -7.901   4.758  64.544  1.00  0.00    -0.089 A  
HETATM   33  C   UNL     1      -9.156   3.060  63.663  1.00  0.00    -0.096 A  
HETATM   34  N   UNL     1     -10.212   3.361  64.413  1.00  0.00    -0.162 NA 
HETATM   35  N   UNL     1      -9.249   1.967  62.820  1.00  0.00    -0.090 NA 
HETATM   36  H1  UNL     1     -10.146   1.483  62.784  1.00  0.00     0.000 HD 
HETATM   37  C   UNL     1     -10.082   4.426  65.235  1.00  0.00    -0.201 A  
HETATM   38  H2  UNL     1      -8.511   1.300  63.046  1.00  0.00     0.000 HD 
ENDBRANCH  29  30
ENDBRANCH   9  26
ENDBRANCH   2   3
TORSDOF 8
ENDMDL
MODEL       42
REMARK 921   NORMALIZED FREE ENERGY PREDICTED BY IDOCK:   -5.94 KCAL/MOL
REMARK 922        TOTAL FREE ENERGY PREDICTED BY IDOCK:   -9.92 KCAL/MOL
REMARK 923 INTER-LIGAND FREE ENERGY PREDICTED BY IDOCK:   -8.87 KCAL/MOL
REMARK 924 INTRA-LIGAND FREE ENERGY PREDICTED BY IDOCK:   -1.05 KCAL/MOL
REMARK 927      BINDING AFFINITY PREDICTED BY RF-SCORE:    0.00 PKD
ROOT
HETATM    1  C   UNL     1     -11.861  10.044  71.373  1.00  0.00    -0.363 C  
HETATM    2  O   UNL     1     -10.561   9.744  70.872  1.00  0.00    -0.313 OA 
ENDROOT
BRANCH   2   3
HETATM    3  C   UNL     1     -10.522   9.106  69.651  1.00  0.00    -0.223 A  
HETATM    4  C   UNL     1     -10.671   7.691  69.689  1.00  0.00    -0.228 A  
HETATM    5  C   UNL     1     -10.671   6.947  68.497  1.00  0.00    -0.252 A  
HETATM    6  C   UNL     1      -9.116  10.594  64.317  1.00  0.00    -0.220 C  
HETATM    7  N   UNL     1     -10.595  10.964  65.974  1.00  0.00    -0.224 NA 
HETATM    8  C   UNL     1     -10.450   7.572  67.277  1.00  0.00    -0.391 A  
HETATM    9  C   UNL     1     -10.453  11.737  67.107  1.00  0.00    -0.220 A  
HETATM   10  C   UNL     1     -10.301   8.950  67.264  1.00  0.00    -0.350 A  
HETATM   11  C   UNL     1     -10.424  11.331  64.585  1.00  0.00    -0.325 C  
HETATM   12  C   UNL     1     -10.377   9.764  68.410  1.00  0.00    -0.201 A  
HETATM   13  N   UNL     1     -10.296  11.194  68.286  1.00  0.00    -0.173 NA 
HETATM   14  C   UNL     1     -10.061   9.688  66.039  1.00  0.00    -0.248 A  
HETATM   15  N   UNL     1      -9.256   9.304  65.073  1.00  0.00    -0.217 NA 
BRANCH   4  16
HETATM   16  O   UNL     1     -10.835   7.090  70.923  1.00  0.00    -0.232 OA 
BRANCH  16  17
HETATM   17  C   UNL     1      -9.710   6.322  71.382  1.00  0.00    -0.173 C  
BRANCH  17  18
HETATM   18  C   UNL     1     -10.119   4.861  71.559  1.00  0.00    -0.266 C  
BRANCH  18  19
HETATM   19  C   UNL     1      -9.558   3.952  70.452  1.00  0.00    -0.196 C  
BRANCH  19  20
HETATM   20  N   UNL     1      -8.183   4.278  70.036  1.00  0.00    -0.062 NA 
HETATM   21  O   UNL     1      -7.136   2.159  68.279  1.00  0.00    -0.043 OA 
HETATM   22  C   UNL     1      -7.187   3.267  70.461  1.00  0.00    -0.037 C  
HETATM   23  C   UNL     1      -8.072   4.420  68.564  1.00  0.00    -0.081 C  
HETATM   24  C   UNL     1      -8.115   3.087  67.793  1.00  0.00    -0.078 C  
HETATM   25  C   UNL     1      -7.288   1.943  69.687  1.00  0.00    -0.039 C  
ENDBRANCH  19  20
ENDBRANCH  18  19
ENDBRANCH  17  18
ENDBRANCH  16  17
ENDBRANCH   4  16
BRANCH   9  26
HETATM   26  N   UNL     1     -10.330  13.115  67.148  1.00  0.00    -0.246 N  
HETATM   27  O   UNL     1     -12.221  13.941  68.191  1.00  0.00    -0.329 OA 
HETATM   28  H   UNL     1      -9.412  13.456  66.863  1.00  0.00     0.000 HD 
HETATM   29  C   UNL     1     -11.221  14.125  67.504  1.00  0.00    -0.306 C  
BRANCH  29  30
HETATM   30  C   UNL     1     -10.882  15.515  67.109  1.00  0.00    -0.316 A  
HETATM   31  N   UNL     1     -10.320  17.238  65.516  1.00  0.00    -0.642 NA 
HETATM   32  C   UNL     1     -10.592  15.953  65.836  1.00  0.00    -0.337 A  
HETATM   33  C   UNL     1     -10.312  18.114  66.535  1.00  0.00    -0.386 A  
HETATM   34  N   UNL     1     -10.606  17.814  67.796  1.00  0.00    -0.397 NA 
HETATM   35  N   UNL     1     -10.042  19.435  66.226  1.00  0.00    -0.421 NA 
HETATM   36  H1  UNL     1     -10.035  20.100  67.000  1.00  0.00     0.000 HD 
HETATM   37  C   UNL     1     -10.877  16.516  68.060  1.00  0.00    -0.337 A  
HETATM   38  H2  UNL     1     -10.692  19.755  65.508  1.00  0.00     0.000 HD 
ENDBRANCH  29  30
ENDBRANCH   9  26
ENDBRANCH   2   3
TORSDOF 8
ENDMDL
MODEL       43
REMARK 921   NORMALIZED FREE ENERGY PREDICTED BY IDOCK:   -5.93 KCAL/MOL
REMARK 922        TOTAL FREE ENERGY PREDICTED BY IDOCK:   -9.90 KCAL/MOL
REMARK 923 INTER-LIGAND FREE ENERGY PREDICTED BY IDOCK:   -8.80 KCAL/MOL
REMARK 924 INTRA-LIGAND FREE ENERGY PREDICTED BY IDOCK:   -1.11 KCAL/MOL
REMARK 927      BINDING AFFINITY PREDICTED BY RF-SCORE:    0.00 PKD
ROOT
HETATM    1  C   UNL     1     -10.359   8.200  66.581  1.00  0.00    -0.213 C  
HETATM    2  O   UNL     1     -11.103   7.037  66.931  1.00  0.00    -0.359 OA 
ENDROOT
BRANCH   2   3
HETATM    3  C   UNL     1     -10.608   6.305  67.989  1.00  0.00    -0.262 A  
HETATM    4  C   UNL     1     -10.091   5.020  67.661  1.00  0.00    -0.140 A  
HETATM    5  C   UNL     1      -9.539   4.202  68.662  1.00  0.00    -0.199 A  
HETATM    6  C   UNL     1     -10.761   6.750  73.682  1.00  0.00    -0.254 C  
HETATM    7  N   UNL     1      -9.989   7.726  71.806  1.00  0.00    -0.172 NA 
HETATM    8  C   UNL     1      -9.561   4.604  69.991  1.00  0.00    -0.259 A  
HETATM    9  C   UNL     1     -10.661   8.521  70.902  1.00  0.00    -0.224 A  
HETATM   10  C   UNL     1     -10.075   5.857  70.288  1.00  0.00    -0.260 A  
HETATM   11  C   UNL     1      -9.844   7.885  73.237  1.00  0.00    -0.277 C  
HETATM   12  C   UNL     1     -10.563   6.760  69.325  1.00  0.00    -0.231 A  
HETATM   13  N   UNL     1     -10.997   8.072  69.720  1.00  0.00    -0.191 NA 
HETATM   14  C   UNL     1     -10.144   6.359  71.647  1.00  0.00    -0.186 A  
HETATM   15  N   UNL     1     -10.495   5.650  72.696  1.00  0.00    -0.199 NA 
BRANCH   4  16
HETATM   16  O   UNL     1     -10.132   4.623  66.338  1.00  0.00    -0.220 OA 
BRANCH  16  17
HETATM   17  C   UNL     1      -8.853   4.333  65.748  1.00  0.00    -0.121 C  
BRANCH  17  18
HETATM   18  C   UNL     1      -8.560   5.338  64.635  1.00  0.00    -0.125 C  
BRANCH  18  19
HETATM   19  C   UNL     1      -7.718   6.530  65.122  1.00  0.00    -0.097 C  
BRANCH  19  20
HETATM   20  N   UNL     1      -6.915   7.176  64.070  1.00  0.00    -0.054 NA 
HETATM   21  O   UNL     1      -7.404  10.081  64.073  1.00  0.00    -0.131 OA 
HETATM   22  C   UNL     1      -7.734   7.879  63.055  1.00  0.00    -0.132 C  
HETATM   23  C   UNL     1      -5.962   8.164  64.632  1.00  0.00    -0.048 C  
HETATM   24  C   UNL     1      -6.615   9.476  65.105  1.00  0.00    -0.083 C  
HETATM   25  C   UNL     1      -8.391   9.165  63.580  1.00  0.00    -0.188 C  
ENDBRANCH  19  20
ENDBRANCH  18  19
ENDBRANCH  17  18
ENDBRANCH  16  17
ENDBRANCH   4  16
BRANCH   9  26
HETATM   26  N   UNL     1     -11.168   9.787  71.141  1.00  0.00    -0.370 N  
HETATM   27  O   UNL     1     -13.356   9.527  71.841  1.00  0.00    -0.384 OA 
HETATM   28  H   UNL     1     -10.465  10.525  71.110  1.00  0.00     0.000 HD 
HETATM   29  C   UNL     1     -12.454  10.244  71.418  1.00  0.00    -0.424 C  
BRANCH  29  30
HETATM   30  C   UNL     1     -12.713  11.699  71.285  1.00  0.00    -0.444 A  
HETATM   31  N   UNL     1     -13.653  13.805  71.995  1.00  0.00    -0.439 NA 
HETATM   32  C   UNL     1     -13.470  12.473  72.136  1.00  0.00    -0.422 A  
HETATM   33  C   UNL     1     -13.069  14.373  70.926  1.00  0.00    -0.328 A  
HETATM   34  N   UNL     1     -12.292  13.735  70.056  1.00  0.00    -0.324 NA 
HETATM   35  N   UNL     1     -13.239  15.737  70.768  1.00  0.00    -0.739 NA 
HETATM   36  H1  UNL     1     -12.796  16.169  69.956  1.00  0.00     0.000 HD 
HETATM   37  C   UNL     1     -12.137  12.407  70.248  1.00  0.00    -0.297 A  
HETATM   38  H2  UNL     1     -12.939  16.218  71.616  1.00  0.00     0.000 HD 
ENDBRANCH  29  30
ENDBRANCH   9  26
ENDBRANCH   2   3
TORSDOF 8
ENDMDL
MODEL       44
REMARK 921   NORMALIZED FREE ENERGY PREDICTED BY IDOCK:   -5.92 KCAL/MOL
REMARK 922        TOTAL FREE ENERGY PREDICTED BY IDOCK:   -9.89 KCAL/MOL
REMARK 923 INTER-LIGAND FREE ENERGY PREDICTED BY IDOCK:   -8.85 KCAL/MOL
REMARK 924 INTRA-LIGAND FREE ENERGY PREDICTED BY IDOCK:   -1.04 KCAL/MOL
REMARK 927      BINDING AFFINITY PREDICTED BY RF-SCORE:    0.00 PKD
ROOT
HETATM    1  C   UNL     1     -10.290  13.913  65.091  1.00  0.00    -0.383 C  
HETATM    2  O   UNL     1      -9.635  14.179  66.327  1.00  0.00    -0.285 OA 
ENDROOT
BRANCH   2   3
HETATM    3  C   UNL     1     -10.457  14.296  67.428  1.00  0.00    -0.264 A  
HETATM    4  C   UNL     1     -10.758  15.628  67.833  1.00  0.00    -0.294 A  
HETATM    5  C   UNL     1     -11.608  15.859  68.927  1.00  0.00    -0.392 A  
HETATM    6  C   UNL     1     -12.457  10.736  71.422  1.00  0.00    -0.373 C  
HETATM    7  N   UNL     1     -12.515  11.212  69.222  1.00  0.00    -0.343 NA 
HETATM    8  C   UNL     1     -12.100  14.796  69.673  1.00  0.00    -0.346 A  
HETATM    9  C   UNL     1     -11.588  10.913  68.245  1.00  0.00    -0.262 A  
HETATM   10  C   UNL     1     -11.789  13.509  69.265  1.00  0.00    -0.392 A  
HETATM   11  C   UNL     1     -13.190  10.328  70.148  1.00  0.00     0.306 C  
HETATM   12  C   UNL     1     -11.016  13.205  68.128  1.00  0.00    -0.251 A  
HETATM   13  N   UNL     1     -10.817  11.837  67.734  1.00  0.00    -0.203 NA 
HETATM   14  C   UNL     1     -12.253  12.338  69.984  1.00  0.00    -0.196 A  
HETATM   15  N   UNL     1     -12.289  12.223  71.292  1.00  0.00    -0.174 NA 
BRANCH   4  16
HETATM   16  O   UNL     1     -10.210  16.667  67.105  1.00  0.00    -0.279 OA 
BRANCH  16  17
HETATM   17  C   UNL     1     -10.550  17.984  67.570  1.00  0.00    -0.388 C  
BRANCH  17  18
HETATM   18  C   UNL     1      -9.917  19.032  66.657  1.00  0.00    -0.428 C  
BRANCH  18  19
HETATM   19  C   UNL     1      -8.446  18.720  66.328  1.00  0.00    -0.241 C  
BRANCH  19  20
HETATM   20  N   UNL     1      -7.536  18.797  67.484  1.00  0.00    -0.227 NA 
HETATM   21  O   UNL     1      -5.360  20.702  66.925  1.00  0.00    -0.166 OA 
HETATM   22  C   UNL     1      -6.146  18.396  67.164  1.00  0.00    -0.164 C  
HETATM   23  C   UNL     1      -7.483  20.166  68.054  1.00  0.00    -0.261 C  
HETATM   24  C   UNL     1      -6.684  21.174  67.207  1.00  0.00    -0.351 C  
HETATM   25  C   UNL     1      -5.399  19.417  66.292  1.00  0.00    -0.153 C  
ENDBRANCH  19  20
ENDBRANCH  18  19
ENDBRANCH  17  18
ENDBRANCH  16  17
ENDBRANCH   4  16
BRANCH   9  26
HETATM   26  N   UNL     1     -11.263   9.650  67.784  1.00  0.00    -0.471 N  
HETATM   27  O   UNL     1     -10.082   8.590  69.465  1.00  0.00    -0.190 OA 
HETATM   28  H   UNL     1     -11.717   9.402  66.905  1.00  0.00     0.000 HD 
HETATM   29  C   UNL     1     -10.434   8.652  68.291  1.00  0.00    -0.184 C  
BRANCH  29  30
HETATM   30  C   UNL     1     -10.039   7.552  67.377  1.00  0.00    -0.282 A  
HETATM   31  N   UNL     1      -8.550   6.452  65.829  1.00  0.00    -0.151 NA 
HETATM   32  C   UNL     1      -8.886   7.491  66.625  1.00  0.00    -0.146 A  
HETATM   33  C   UNL     1      -9.435   5.442  65.767  1.00  0.00    -0.087 A  
HETATM   34  N   UNL     1     -10.562   5.376  66.469  1.00  0.00    -0.304 NA 
HETATM   35  N   UNL     1      -9.105   4.365  64.963  1.00  0.00    -0.144 NA 
HETATM   36  H1  UNL     1      -9.777   3.599  64.915  1.00  0.00     0.000 HD 
HETATM   37  C   UNL     1     -10.846   6.438  67.254  1.00  0.00    -0.385 A  
HETATM   38  H2  UNL     1      -8.193   4.002  65.239  1.00  0.00     0.000 HD 
ENDBRANCH  29  30
ENDBRANCH   9  26
ENDBRANCH   2   3
TORSDOF 8
ENDMDL
MODEL       45
REMARK 921   NORMALIZED FREE ENERGY PREDICTED BY IDOCK:   -5.89 KCAL/MOL
REMARK 922        TOTAL FREE ENERGY PREDICTED BY IDOCK:   -9.85 KCAL/MOL
REMARK 923 INTER-LIGAND FREE ENERGY PREDICTED BY IDOCK:   -8.61 KCAL/MOL
REMARK 924 INTRA-LIGAND FREE ENERGY PREDICTED BY IDOCK:   -1.23 KCAL/MOL
REMARK 927      BINDING AFFINITY PREDICTED BY RF-SCORE:    0.00 PKD
ROOT
HETATM    1  C   UNL     1      -7.418   6.985  69.373  1.00  0.00    -0.097 C  
HETATM    2  O   UNL     1      -8.628   6.295  69.669  1.00  0.00    -0.130 OA 
ENDROOT
BRANCH   2   3
HETATM    3  C   UNL     1      -9.351   6.782  70.736  1.00  0.00    -0.161 A  
HETATM    4  C   UNL     1      -9.180   6.086  71.966  1.00  0.00    -0.146 A  
HETATM    5  C   UNL     1      -9.851   6.516  73.123  1.00  0.00    -0.184 A  
HETATM    6  C   UNL     1     -13.598  10.542  71.408  1.00  0.00     0.038 C  
HETATM    7  N   UNL     1     -11.443  10.330  70.794  1.00  0.00    -0.340 NA 
HETATM    8  C   UNL     1     -10.746   7.576  73.063  1.00  0.00    -0.438 A  
HETATM    9  C   UNL     1     -10.922   9.885  69.598  1.00  0.00    -0.252 A  
HETATM   10  C   UNL     1     -10.902   8.235  71.854  1.00  0.00    -0.350 A  
HETATM   11  C   UNL     1     -12.389  11.396  71.043  1.00  0.00    -0.343 C  
HETATM   12  C   UNL     1     -10.196   7.911  70.680  1.00  0.00    -0.196 A  
HETATM   13  N   UNL     1     -10.361   8.708  69.495  1.00  0.00    -0.211 NA 
HETATM   14  C   UNL     1     -11.818   9.349  71.696  1.00  0.00    -0.394 A  
HETATM   15  N   UNL     1     -13.024   9.412  72.214  1.00  0.00    -0.407 NA 
BRANCH   4  16
HETATM   16  O   UNL     1      -8.324   5.000  71.983  1.00  0.00    -0.120 OA 
BRANCH  16  17
HETATM   17  C   UNL     1      -8.830   3.834  72.654  1.00  0.00    -0.094 C  
BRANCH  17  18
HETATM   18  C   UNL     1      -8.618   2.602  71.776  1.00  0.00    -0.096 C  
BRANCH  18  19
HETATM   19  C   UNL     1      -9.300   2.730  70.403  1.00  0.00    -0.147 C  
BRANCH  19  20
HETATM   20  N   UNL     1      -8.720   1.873  69.355  1.00  0.00    -0.060 NA 
HETATM   21  O   UNL     1      -7.521   3.539  67.243  1.00  0.00    -0.072 OA 
HETATM   22  C   UNL     1      -9.329   2.084  68.021  1.00  0.00    -0.187 C  
HETATM   23  C   UNL     1      -7.259   2.086  69.214  1.00  0.00    -0.043 C  
HETATM   24  C   UNL     1      -6.875   3.404  68.515  1.00  0.00    -0.046 C  
HETATM   25  C   UNL     1      -8.944   3.425  67.376  1.00  0.00    -0.150 C  
ENDBRANCH  19  20
ENDBRANCH  18  19
ENDBRANCH  17  18
ENDBRANCH  16  17
ENDBRANCH   4  16
BRANCH   9  26
HETATM   26  N   UNL     1     -11.025  10.521  68.372  1.00  0.00    -0.242 N  
HETATM   27  O   UNL     1      -9.502  12.260  68.371  1.00  0.00    -0.211 OA 
HETATM   28  H   UNL     1     -11.611  10.026  67.699  1.00  0.00     0.000 HD 
HETATM   29  C   UNL     1     -10.483  11.706  67.883  1.00  0.00    -0.192 C  
BRANCH  29  30
HETATM   30  C   UNL     1     -11.067  12.273  66.642  1.00  0.00    -0.344 A  
HETATM   31  N   UNL     1     -12.623  13.649  65.414  1.00  0.00    -0.547 NA 
HETATM   32  C   UNL     1     -12.143  13.130  66.566  1.00  0.00    -0.358 A  
HETATM   33  C   UNL     1     -12.006  13.259  64.285  1.00  0.00    -0.421 A  
HETATM   34  N   UNL     1     -10.943  12.462  64.237  1.00  0.00    -0.324 NA 
HETATM   35  N   UNL     1     -12.479  13.784  63.096  1.00  0.00    -1.074 NA 
HETATM   36  H1  UNL     1     -12.011  13.488  62.239  1.00  0.00     0.000 HD 
HETATM   37  C   UNL     1     -10.500  11.977  65.418  1.00  0.00    -0.275 A  
HETATM   38  H2  UNL     1     -12.476  14.803  63.150  1.00  0.00     0.000 HD 
ENDBRANCH  29  30
ENDBRANCH   9  26
ENDBRANCH   2   3
TORSDOF 8
ENDMDL
MODEL       46
REMARK 921   NORMALIZED FREE ENERGY PREDICTED BY IDOCK:   -5.88 KCAL/MOL
REMARK 922        TOTAL FREE ENERGY PREDICTED BY IDOCK:   -9.84 KCAL/MOL
REMARK 923 INTER-LIGAND FREE ENERGY PREDICTED BY IDOCK:   -8.90 KCAL/MOL
REMARK 924 INTRA-LIGAND FREE ENERGY PREDICTED BY IDOCK:   -0.94 KCAL/MOL
REMARK 927      BINDING AFFINITY PREDICTED BY RF-SCORE:    0.00 PKD
ROOT
HETATM    1  C   UNL     1     -11.972  15.880  69.645  1.00  0.00    -0.260 C  
HETATM    2  O   UNL     1     -11.810  15.762  68.234  1.00  0.00    -0.301 OA 
ENDROOT
BRANCH   2   3
HETATM    3  C   UNL     1     -10.576  15.320  67.808  1.00  0.00    -0.266 A  
HETATM    4  C   UNL     1      -9.717  16.318  67.267  1.00  0.00    -0.237 A  
HETATM    5  C   UNL     1      -8.427  15.979  66.826  1.00  0.00    -0.295 A  
HETATM    6  C   UNL     1      -8.160  10.224  66.899  1.00  0.00    -0.119 C  
HETATM    7  N   UNL     1      -9.004  11.574  68.491  1.00  0.00    -0.164 NA 
HETATM    8  C   UNL     1      -8.003  14.656  66.841  1.00  0.00     0.018 A  
HETATM    9  C   UNL     1     -10.323  11.811  68.817  1.00  0.00    -0.179 A  
HETATM   10  C   UNL     1      -8.859  13.700  67.367  1.00  0.00    -0.221 A  
HETATM   11  C   UNL     1      -8.290  10.318  68.415  1.00  0.00    -0.119 C  
HETATM   12  C   UNL     1     -10.128  13.985  67.904  1.00  0.00    -0.237 A  
HETATM   13  N   UNL     1     -10.909  12.939  68.506  1.00  0.00    -0.250 NA 
HETATM   14  C   UNL     1      -8.505  12.295  67.419  1.00  0.00    -0.176 A  
HETATM   15  N   UNL     1      -7.892  11.635  66.462  1.00  0.00    -0.082 NA 
BRANCH   4  16
HETATM   16  O   UNL     1     -10.186  17.618  67.213  1.00  0.00    -0.319 OA 
BRANCH  16  17
HETATM   17  C   UNL     1      -9.417  18.510  66.390  1.00  0.00    -0.301 C  
BRANCH  17  18
HETATM   18  C   UNL     1      -9.130  19.800  67.157  1.00  0.00    -0.418 C  
BRANCH  18  19
HETATM   19  C   UNL     1      -8.303  19.559  68.431  1.00  0.00    -0.349 C  
BRANCH  19  20
HETATM   20  N   UNL     1      -6.845  19.626  68.231  1.00  0.00    -0.279 NA 
HETATM   21  O   UNL     1      -5.455  19.088  70.771  1.00  0.00    -0.227 OA 
HETATM   22  C   UNL     1      -6.187  20.669  69.053  1.00  0.00    -0.252 C  
HETATM   23  C   UNL     1      -6.186  18.335  68.542  1.00  0.00    -0.202 C  
HETATM   24  C   UNL     1      -6.084  18.022  70.047  1.00  0.00    -0.110 C  
HETATM   25  C   UNL     1      -6.137  20.329  70.550  1.00  0.00    -0.308 C  
ENDBRANCH  19  20
ENDBRANCH  18  19
ENDBRANCH  17  18
ENDBRANCH  16  17
ENDBRANCH   4  16
BRANCH   9  26
HETATM   26  N   UNL     1     -11.207  10.900  69.368  1.00  0.00    -0.250 N  
HETATM   27  O   UNL     1     -12.244  11.946  71.151  1.00  0.00    -0.262 OA 
HETATM   28  H   UNL     1     -11.327  10.053  68.814  1.00  0.00     0.000 HD 
HETATM   29  C   UNL     1     -11.965  10.920  70.536  1.00  0.00    -0.371 C  
BRANCH  29  30
HETATM   30  C   UNL     1     -12.548   9.638  71.004  1.00  0.00    -0.367 A  
HETATM   31  N   UNL     1     -12.504   7.259  71.406  1.00  0.00    -0.365 NA 
HETATM   32  C   UNL     1     -11.949   8.399  70.938  1.00  0.00    -0.177 A  
HETATM   33  C   UNL     1     -13.734   7.373  71.938  1.00  0.00    -0.235 A  
HETATM   34  N   UNL     1     -14.395   8.517  72.083  1.00  0.00    -0.452 NA 
HETATM   35  N   UNL     1     -14.316   6.218  72.429  1.00  0.00    -0.594 NA 
HETATM   36  H1  UNL     1     -15.249   6.304  72.832  1.00  0.00     0.000 HD 
HETATM   37  C   UNL     1     -13.791   9.627  71.603  1.00  0.00    -0.166 A  
HETATM   38  H2  UNL     1     -13.690   5.784  73.109  1.00  0.00     0.000 HD 
ENDBRANCH  29  30
ENDBRANCH   9  26
ENDBRANCH   2   3
TORSDOF 8
ENDMDL
MODEL       47
REMARK 921   NORMALIZED FREE ENERGY PREDICTED BY IDOCK:   -5.87 KCAL/MOL
REMARK 922        TOTAL FREE ENERGY PREDICTED BY IDOCK:   -9.82 KCAL/MOL
REMARK 923 INTER-LIGAND FREE ENERGY PREDICTED BY IDOCK:   -8.30 KCAL/MOL
REMARK 924 INTRA-LIGAND FREE ENERGY PREDICTED BY IDOCK:   -1.52 KCAL/MOL
REMARK 927      BINDING AFFINITY PREDICTED BY RF-SCORE:    0.00 PKD
ROOT
HETATM    1  C   UNL     1      -6.981   8.871  70.806  1.00  0.00    -0.074 C  
HETATM    2  O   UNL     1      -7.785   7.998  70.017  1.00  0.00    -0.084 OA 
ENDROOT
BRANCH   2   3
HETATM    3  C   UNL     1      -8.821   7.375  70.680  1.00  0.00    -0.150 A  
HETATM    4  C   UNL     1      -8.549   6.059  71.150  1.00  0.00    -0.129 A  
HETATM    5  C   UNL     1      -9.529   5.345  71.860  1.00  0.00    -0.176 A  
HETATM    6  C   UNL     1     -14.390   8.406  71.423  1.00  0.00    -0.332 C  
HETATM    7  N   UNL     1     -12.325   9.178  71.881  1.00  0.00    -0.366 NA 
HETATM    8  C   UNL     1     -10.796   5.883  72.045  1.00  0.00    -0.303 A  
HETATM    9  C   UNL     1     -11.461   9.880  71.066  1.00  0.00    -0.388 A  
HETATM   10  C   UNL     1     -11.040   7.163  71.573  1.00  0.00    -0.267 A  
HETATM   11  C   UNL     1     -13.691   9.482  72.248  1.00  0.00    -0.371 C  
HETATM   12  C   UNL     1     -10.078   7.965  70.931  1.00  0.00    -0.190 A  
HETATM   13  N   UNL     1     -10.400   9.315  70.553  1.00  0.00    -0.233 NA 
HETATM   14  C   UNL     1     -12.334   7.803  71.715  1.00  0.00    -0.317 A  
HETATM   15  N   UNL     1     -13.492   7.208  71.541  1.00  0.00    -0.372 NA 
BRANCH   4  16
HETATM   16  O   UNL     1      -7.297   5.529  70.905  1.00  0.00    -0.077 OA 
BRANCH  16  17
HETATM   17  C   UNL     1      -7.272   4.419  69.991  1.00  0.00    -0.046 C  
BRANCH  17  18
HETATM   18  C   UNL     1      -6.899   4.910  68.594  1.00  0.00    -0.051 C  
BRANCH  18  19
HETATM   19  C   UNL     1      -7.885   4.427  67.515  1.00  0.00    -0.085 C  
BRANCH  19  20
HETATM   20  N   UNL     1      -8.204   5.435  66.489  1.00  0.00    -0.108 NA 
HETATM   21  O   UNL     1     -11.119   5.820  66.330  1.00  0.00    -0.079 OA 
HETATM   22  C   UNL     1      -9.050   4.909  65.393  1.00  0.00    -0.155 C  
HETATM   23  C   UNL     1      -8.904   6.607  67.067  1.00  0.00    -0.114 C  
HETATM   24  C   UNL     1     -10.377   6.346  67.437  1.00  0.00    -0.205 C  
HETATM   25  C   UNL     1     -10.501   4.634  65.816  1.00  0.00    -0.255 C  
ENDBRANCH  19  20
ENDBRANCH  18  19
ENDBRANCH  17  18
ENDBRANCH  16  17
ENDBRANCH   4  16
BRANCH   9  26
HETATM   26  N   UNL     1     -11.646  11.167  70.592  1.00  0.00    -0.421 N  
HETATM   27  O   UNL     1     -12.500  10.992  68.451  1.00  0.00    -0.352 OA 
HETATM   28  H   UNL     1     -11.520  11.890  71.301  1.00  0.00     0.000 HD 
HETATM   29  C   UNL     1     -11.973  11.663  69.333  1.00  0.00    -0.316 C  
BRANCH  29  30
HETATM   30  C   UNL     1     -11.758  13.111  69.084  1.00  0.00    -0.376 A  
HETATM   31  N   UNL     1     -11.899  15.451  69.657  1.00  0.00    -0.327 NA 
HETATM   32  C   UNL     1     -12.145  14.145  69.908  1.00  0.00    -0.347 A  
HETATM   33  C   UNL     1     -11.261  15.724  68.506  1.00  0.00    -0.354 A  
HETATM   34  N   UNL     1     -10.813  14.810  67.651  1.00  0.00    -0.278 NA 
HETATM   35  N   UNL     1     -10.994  17.054  68.235  1.00  0.00    -0.335 NA 
HETATM   36  H1  UNL     1     -10.510  17.262  67.362  1.00  0.00     0.000 HD 
HETATM   37  C   UNL     1     -11.080  13.520  67.954  1.00  0.00    -0.265 A  
HETATM   38  H2  UNL     1     -10.479  17.463  69.016  1.00  0.00     0.000 HD 
ENDBRANCH  29  30
ENDBRANCH   9  26
ENDBRANCH   2   3
TORSDOF 8
ENDMDL
MODEL       48
REMARK 921   NORMALIZED FREE ENERGY PREDICTED BY IDOCK:   -5.85 KCAL/MOL
REMARK 922        TOTAL FREE ENERGY PREDICTED BY IDOCK:   -9.79 KCAL/MOL
REMARK 923 INTER-LIGAND FREE ENERGY PREDICTED BY IDOCK:   -9.12 KCAL/MOL
REMARK 924 INTRA-LIGAND FREE ENERGY PREDICTED BY IDOCK:   -0.66 KCAL/MOL
REMARK 927      BINDING AFFINITY PREDICTED BY RF-SCORE:    0.00 PKD
ROOT
HETATM    1  C   UNL     1      -8.943  11.050  66.372  1.00  0.00    -0.181 C  
HETATM    2  O   UNL     1      -9.799   9.987  65.963  1.00  0.00    -0.222 OA 
ENDROOT
BRANCH   2   3
HETATM    3  C   UNL     1      -9.765   8.855  66.748  1.00  0.00    -0.219 A  
HETATM    4  C   UNL     1      -9.049   7.750  66.206  1.00  0.00    -0.178 A  
HETATM    5  C   UNL     1      -8.933   6.555  66.936  1.00  0.00    -0.128 A  
HETATM    6  C   UNL     1     -12.470   7.075  71.454  1.00  0.00    -0.384 C  
HETATM    7  N   UNL     1     -11.030   8.613  70.661  1.00  0.00    -0.235 NA 
HETATM    8  C   UNL     1      -9.577   6.412  68.158  1.00  0.00    -0.115 A  
HETATM    9  C   UNL     1     -11.295   9.762  69.946  1.00  0.00    -0.192 A  
HETATM   10  C   UNL     1     -10.274   7.498  68.663  1.00  0.00    -0.210 A  
HETATM   11  C   UNL     1     -11.550   8.189  71.943  1.00  0.00    -0.306 C  
HETATM   12  C   UNL     1     -10.358   8.750  68.025  1.00  0.00    -0.220 A  
HETATM   13  N   UNL     1     -11.031   9.845  68.668  1.00  0.00    -0.209 NA 
HETATM   14  C   UNL     1     -10.981   7.440  69.928  1.00  0.00    -0.223 A  
HETATM   15  N   UNL     1     -11.700   6.421  70.343  1.00  0.00    -0.379 NA 
BRANCH   4  16
HETATM   16  O   UNL     1      -8.464   7.903  64.963  1.00  0.00    -0.138 OA 
BRANCH  16  17
HETATM   17  C   UNL     1      -7.627   6.812  64.544  1.00  0.00    -0.103 C  
BRANCH  17  18
HETATM   18  C   UNL     1      -7.925   6.464  63.087  1.00  0.00    -0.086 C  
BRANCH  18  19
HETATM   19  C   UNL     1      -8.490   5.043  62.921  1.00  0.00    -0.115 C  
BRANCH  19  20
HETATM   20  N   UNL     1      -8.849   4.380  64.186  1.00  0.00    -0.142 NA 
HETATM   21  O   UNL     1      -9.983   1.718  63.641  1.00  0.00    -0.124 OA 
HETATM   22  C   UNL     1     -10.291   4.057  64.291  1.00  0.00    -0.188 C  
HETATM   23  C   UNL     1      -8.096   3.118  64.381  1.00  0.00    -0.082 C  
HETATM   24  C   UNL     1      -8.576   1.951  63.497  1.00  0.00    -0.084 C  
HETATM   25  C   UNL     1     -10.731   2.909  63.368  1.00  0.00    -0.242 C  
ENDBRANCH  19  20
ENDBRANCH  18  19
ENDBRANCH  17  18
ENDBRANCH  16  17
ENDBRANCH   4  16
BRANCH   9  26
HETATM   26  N   UNL     1     -11.961  10.883  70.414  1.00  0.00    -0.332 N  
HETATM   27  O   UNL     1     -11.567  12.591  68.907  1.00  0.00    -0.273 OA 
HETATM   28  H   UNL     1     -12.580  10.696  71.202  1.00  0.00     0.000 HD 
HETATM   29  C   UNL     1     -11.946  12.216  70.012  1.00  0.00    -0.315 C  
BRANCH  29  30
HETATM   30  C   UNL     1     -12.514  13.223  70.942  1.00  0.00    -0.424 A  
HETATM   31  N   UNL     1     -13.902  13.928  72.786  1.00  0.00    -0.688 NA 
HETATM   32  C   UNL     1     -13.435  12.985  71.939  1.00  0.00    -0.408 A  
HETATM   33  C   UNL     1     -13.440  15.176  72.596  1.00  0.00    -0.475 A  
HETATM   34  N   UNL     1     -12.530  15.520  71.690  1.00  0.00    -0.371 NA 
HETATM   35  N   UNL     1     -13.902  16.155  73.458  1.00  0.00    -0.797 NA 
HETATM   36  H1  UNL     1     -13.552  17.103  73.315  1.00  0.00     0.000 HD 
HETATM   37  C   UNL     1     -12.092  14.536  70.874  1.00  0.00    -0.336 A  
HETATM   38  H2  UNL     1     -13.726  15.870  74.422  1.00  0.00     0.000 HD 
ENDBRANCH  29  30
ENDBRANCH   9  26
ENDBRANCH   2   3
TORSDOF 8
ENDMDL
MODEL       49
REMARK 921   NORMALIZED FREE ENERGY PREDICTED BY IDOCK:   -5.85 KCAL/MOL
REMARK 922        TOTAL FREE ENERGY PREDICTED BY IDOCK:   -9.79 KCAL/MOL
REMARK 923 INTER-LIGAND FREE ENERGY PREDICTED BY IDOCK:   -8.84 KCAL/MOL
REMARK 924 INTRA-LIGAND FREE ENERGY PREDICTED BY IDOCK:   -0.95 KCAL/MOL
REMARK 927      BINDING AFFINITY PREDICTED BY RF-SCORE:    0.00 PKD
ROOT
HETATM    1  C   UNL     1      -7.447  13.807  68.479  1.00  0.00    -0.119 C  
HETATM    2  O   UNL     1      -8.602  13.618  67.668  1.00  0.00    -0.161 OA 
ENDROOT
BRANCH   2   3
HETATM    3  C   UNL     1      -9.813  13.849  68.285  1.00  0.00    -0.231 A  
HETATM    4  C   UNL     1     -10.323  15.173  68.164  1.00  0.00    -0.239 A  
HETATM    5  C   UNL     1     -11.562  15.509  68.735  1.00  0.00    -0.390 A  
HETATM    6  C   UNL     1     -13.111  11.012  71.988  1.00  0.00    -0.344 C  
HETATM    7  N   UNL     1     -12.271  10.964  69.899  1.00  0.00    -0.342 NA 
HETATM    8  C   UNL     1     -12.266  14.577  69.488  1.00  0.00    -0.306 A  
HETATM    9  C   UNL     1     -11.008  10.603  69.480  1.00  0.00    -0.272 A  
HETATM   10  C   UNL     1     -11.747  13.297  69.598  1.00  0.00    -0.369 A  
HETATM   11  C   UNL     1     -13.224  10.217  70.691  1.00  0.00    -0.141 C  
HETATM   12  C   UNL     1     -10.556  12.870  68.980  1.00  0.00    -0.043 A  
HETATM   13  N   UNL     1     -10.142  11.498  69.080  1.00  0.00    -0.117 NA 
HETATM   14  C   UNL     1     -12.408  12.260  70.367  1.00  0.00    -0.228 A  
HETATM   15  N   UNL     1     -12.980  12.439  71.537  1.00  0.00    -0.349 NA 
BRANCH   4  16
HETATM   16  O   UNL     1      -9.575  16.094  67.455  1.00  0.00    -0.227 OA 
BRANCH  16  17
HETATM   17  C   UNL     1      -9.907  16.206  66.061  1.00  0.00    -0.347 C  
BRANCH  17  18
HETATM   18  C   UNL     1     -11.105  15.314  65.743  1.00  0.00    -0.301 C  
BRANCH  18  19
HETATM   19  C   UNL     1     -10.826  14.339  64.586  1.00  0.00    -0.368 C  
BRANCH  19  20
HETATM   20  N   UNL     1     -11.810  13.251  64.458  1.00  0.00    -0.368 NA 
HETATM   21  O   UNL     1     -10.426  10.653  64.354  1.00  0.00    -0.350 OA 
HETATM   22  C   UNL     1     -11.642  12.450  63.222  1.00  0.00    -0.371 C  
HETATM   23  C   UNL     1     -11.747  12.313  65.605  1.00  0.00    -0.382 C  
HETATM   24  C   UNL     1     -10.527  11.373  65.590  1.00  0.00    -0.262 C  
HETATM   25  C   UNL     1     -10.396  11.551  63.238  1.00  0.00    -0.384 C  
ENDBRANCH  19  20
ENDBRANCH  18  19
ENDBRANCH  17  18
ENDBRANCH  16  17
ENDBRANCH   4  16
BRANCH   9  26
HETATM   26  N   UNL     1     -10.455   9.335  69.543  1.00  0.00    -0.214 N  
HETATM   27  O   UNL     1     -10.604   8.419  67.425  1.00  0.00    -0.281 OA 
HETATM   28  H   UNL     1      -9.983   9.134  70.424  1.00  0.00     0.000 HD 
HETATM   29  C   UNL     1     -10.421   8.283  68.632  1.00  0.00    -0.168 C  
BRANCH  29  30
HETATM   30  C   UNL     1     -10.045   6.941  69.141  1.00  0.00    -0.180 A  
HETATM   31  N   UNL     1      -8.608   5.008  69.296  1.00  0.00    -0.088 NA 
HETATM   32  C   UNL     1      -8.930   6.216  68.781  1.00  0.00    -0.123 A  
HETATM   33  C   UNL     1      -9.469   4.497  70.191  1.00  0.00    -0.167 A  
HETATM   34  N   UNL     1     -10.558   5.115  70.637  1.00  0.00    -0.199 NA 
HETATM   35  N   UNL     1      -9.153   3.264  70.734  1.00  0.00    -0.102 NA 
HETATM   36  H1  UNL     1      -9.807   2.875  71.414  1.00  0.00     0.000 HD 
HETATM   37  C   UNL     1     -10.829   6.323  70.094  1.00  0.00    -0.313 A  
HETATM   38  H2  UNL     1      -8.219   3.302  71.144  1.00  0.00     0.000 HD 
ENDBRANCH  29  30
ENDBRANCH   9  26
ENDBRANCH   2   3
TORSDOF 8
ENDMDL
MODEL       50
REMARK 921   NORMALIZED FREE ENERGY PREDICTED BY IDOCK:   -5.82 KCAL/MOL
REMARK 922        TOTAL FREE ENERGY PREDICTED BY IDOCK:   -9.74 KCAL/MOL
REMARK 923 INTER-LIGAND FREE ENERGY PREDICTED BY IDOCK:   -8.88 KCAL/MOL
REMARK 924 INTRA-LIGAND FREE ENERGY PREDICTED BY IDOCK:   -0.86 KCAL/MOL
REMARK 927      BINDING AFFINITY PREDICTED BY RF-SCORE:    0.00 PKD
ROOT
HETATM    1  C   UNL     1     -11.664  11.795  69.009  1.00  0.00    -0.328 C  
HETATM    2  O   UNL     1     -12.051  11.328  67.720  1.00  0.00    -0.631 OA 
ENDROOT
BRANCH   2   3
HETATM    3  C   UNL     1     -11.028  10.869  66.917  1.00  0.00    -0.223 A  
HETATM    4  C   UNL     1     -10.616  11.751  65.878  1.00  0.00    -0.271 A  
HETATM    5  C   UNL     1      -9.565  11.391  65.019  1.00  0.00    -0.250 A  
HETATM    6  C   UNL     1      -8.394   5.861  66.134  1.00  0.00    -0.124 C  
HETATM    7  N   UNL     1      -8.750   7.511  67.625  1.00  0.00    -0.122 NA 
HETATM    8  C   UNL     1      -8.967  10.141  65.124  1.00  0.00    -0.225 A  
HETATM    9  C   UNL     1      -9.856   7.742  68.414  1.00  0.00    -0.168 A  
HETATM   10  C   UNL     1      -9.389   9.296  66.138  1.00  0.00    -0.270 A  
HETATM   11  C   UNL     1      -7.934   6.321  67.513  1.00  0.00    -0.109 C  
HETATM   12  C   UNL     1     -10.375   9.628  67.086  1.00  0.00    -0.254 A  
HETATM   13  N   UNL     1     -10.685   8.719  68.155  1.00  0.00    -0.133 NA 
HETATM   14  C   UNL     1      -8.827   7.972  66.321  1.00  0.00    -0.162 A  
HETATM   15  N   UNL     1      -8.542   7.133  65.350  1.00  0.00    -0.086 NA 
BRANCH   4  16
HETATM   16  O   UNL     1     -11.266  12.966  65.764  1.00  0.00    -0.283 OA 
BRANCH  16  17
HETATM   17  C   UNL     1     -10.894  13.751  64.619  1.00  0.00    -0.406 C  
BRANCH  17  18
HETATM   18  C   UNL     1     -11.207  15.223  64.880  1.00  0.00    -0.422 C  
BRANCH  18  19
HETATM   19  C   UNL     1     -10.466  15.776  66.110  1.00  0.00    -0.317 C  
BRANCH  19  20
HETATM   20  N   UNL     1      -9.558  16.899  65.818  1.00  0.00    -0.540 NA 
HETATM   21  O   UNL     1      -8.515  18.027  68.331  1.00  0.00    -0.285 OA 
HETATM   22  C   UNL     1     -10.009  18.185  66.399  1.00  0.00    -0.376 C  
HETATM   23  C   UNL     1      -8.186  16.642  66.320  1.00  0.00    -0.330 C  
HETATM   24  C   UNL     1      -8.037  16.764  67.849  1.00  0.00    -0.185 C  
HETATM   25  C   UNL     1      -9.872  18.249  67.928  1.00  0.00    -0.317 C  
ENDBRANCH  19  20
ENDBRANCH  18  19
ENDBRANCH  17  18
ENDBRANCH  16  17
ENDBRANCH   4  16
BRANCH   9  26
HETATM   26  N   UNL     1     -10.300   6.945  69.455  1.00  0.00    -0.199 N  
HETATM   27  O   UNL     1     -10.110   8.185  71.397  1.00  0.00    -0.187 OA 
HETATM   28  H   UNL     1     -10.740   6.076  69.151  1.00  0.00     0.000 HD 
HETATM   29  C   UNL     1     -10.262   7.103  70.838  1.00  0.00    -0.197 C  
BRANCH  29  30
HETATM   30  C   UNL     1     -10.518   5.906  71.677  1.00  0.00    -0.285 A  
HETATM   31  N   UNL     1     -11.588   4.716  73.483  1.00  0.00    -0.215 NA 
HETATM   32  C   UNL     1     -11.360   5.838  72.766  1.00  0.00    -0.282 A  
HETATM   33  C   UNL     1     -10.911   3.620  73.102  1.00  0.00    -0.154 A  
HETATM   34  N   UNL     1     -10.097   3.557  72.052  1.00  0.00    -0.151 NA 
HETATM   35  N   UNL     1     -11.137   2.459  73.820  1.00  0.00    -0.198 NA 
HETATM   36  H1  UNL     1     -10.622   1.627  73.531  1.00  0.00     0.000 HD 
HETATM   37  C   UNL     1      -9.910   4.706  71.366  1.00  0.00    -0.194 A  
HETATM   38  H2  UNL     1     -12.136   2.255  73.830  1.00  0.00     0.000 HD 
ENDBRANCH  29  30
ENDBRANCH   9  26
ENDBRANCH   2   3
TORSDOF 8
ENDMDL
MODEL       51
REMARK 921   NORMALIZED FREE ENERGY PREDICTED BY IDOCK:   -5.81 KCAL/MOL
REMARK 922        TOTAL FREE ENERGY PREDICTED BY IDOCK:   -9.73 KCAL/MOL
REMARK 923 INTER-LIGAND FREE ENERGY PREDICTED BY IDOCK:   -9.72 KCAL/MOL
REMARK 924 INTRA-LIGAND FREE ENERGY PREDICTED BY IDOCK:   -0.01 KCAL/MOL
REMARK 927      BINDING AFFINITY PREDICTED BY RF-SCORE:    0.00 PKD
ROOT
HETATM    1  C   UNL     1     -11.233  10.879  67.421  1.00  0.00    -0.273 C  
HETATM    2  O   UNL     1     -10.590  10.654  68.672  1.00  0.00    -0.179 OA 
ENDROOT
BRANCH   2   3
HETATM    3  C   UNL     1     -11.370  10.852  69.791  1.00  0.00    -0.301 A  
HETATM    4  C   UNL     1     -11.719   9.677  70.515  1.00  0.00    -0.242 A  
HETATM    5  C   UNL     1     -12.491   9.769  71.685  1.00  0.00    -0.500 A  
HETATM    6  C   UNL     1     -14.331  15.221  71.977  1.00  0.00    -0.589 C  
HETATM    7  N   UNL     1     -12.255  14.503  71.481  1.00  0.00    -0.344 NA 
HETATM    8  C   UNL     1     -12.986  10.997  72.107  1.00  0.00    -0.244 A  
HETATM    9  C   UNL     1     -11.617  14.473  70.259  1.00  0.00    -0.268 A  
HETATM   10  C   UNL     1     -12.639  12.126  71.383  1.00  0.00    -0.314 A  
HETATM   11  C   UNL     1     -12.871  15.618  72.168  1.00  0.00    -0.439 C  
HETATM   12  C   UNL     1     -11.800  12.115  70.253  1.00  0.00    -0.254 A  
HETATM   13  N   UNL     1     -11.426  13.350  69.618  1.00  0.00    -0.241 NA 
HETATM   14  C   UNL     1     -13.114  13.449  71.744  1.00  0.00    -0.388 A  
HETATM   15  N   UNL     1     -14.334  13.729  72.144  1.00  0.00    -0.504 NA 
BRANCH   4  16
HETATM   16  O   UNL     1     -11.257   8.463  70.042  1.00  0.00    -0.206 OA 
BRANCH  16  17
HETATM   17  C   UNL     1     -10.540   7.667  71.001  1.00  0.00    -0.217 C  
BRANCH  17  18
HETATM   18  C   UNL     1      -9.045   7.708  70.690  1.00  0.00    -0.158 C  
BRANCH  18  19
HETATM   19  C   UNL     1      -8.381   9.018  71.146  1.00  0.00    -0.159 C  
BRANCH  19  20
HETATM   20  N   UNL     1      -7.951   9.897  70.046  1.00  0.00    -0.180 NA 
HETATM   21  O   UNL     1      -5.730   8.647  68.569  1.00  0.00    -0.037 OA 
HETATM   22  C   UNL     1      -6.537  10.327  70.156  1.00  0.00    -0.138 C  
HETATM   23  C   UNL     1      -8.115   9.245  68.724  1.00  0.00    -0.104 C  
HETATM   24  C   UNL     1      -7.069   8.156  68.420  1.00  0.00    -0.077 C  
HETATM   25  C   UNL     1      -5.530   9.201  69.876  1.00  0.00    -0.028 C  
ENDBRANCH  19  20
ENDBRANCH  18  19
ENDBRANCH  17  18
ENDBRANCH  16  17
ENDBRANCH   4  16
BRANCH   9  26
HETATM   26  N   UNL     1     -11.226  15.571  69.512  1.00  0.00    -0.275 N  
HETATM   27  O   UNL     1     -11.996  15.243  67.357  1.00  0.00    -0.125 OA 
HETATM   28  H   UNL     1     -10.833  16.330  70.068  1.00  0.00     0.000 HD 
HETATM   29  C   UNL     1     -11.267  15.837  68.146  1.00  0.00    -0.344 C  
BRANCH  29  30
HETATM   30  C   UNL     1     -10.455  16.970  67.638  1.00  0.00    -0.343 A  
HETATM   31  N   UNL     1      -9.526  18.360  65.897  1.00  0.00    -0.463 NA 
HETATM   32  C   UNL     1     -10.249  17.297  66.315  1.00  0.00    -0.342 A  
HETATM   33  C   UNL     1      -8.960  19.108  66.860  1.00  0.00    -0.305 A  
HETATM   34  N   UNL     1      -9.114  18.909  68.165  1.00  0.00    -0.303 NA 
HETATM   35  N   UNL     1      -8.222  20.205  66.452  1.00  0.00    -0.478 NA 
HETATM   36  H1  UNL     1      -7.792  20.773  67.183  1.00  0.00     0.000 HD 
HETATM   37  C   UNL     1      -9.852  17.836  68.528  1.00  0.00    -0.355 A  
HETATM   38  H2  UNL     1      -8.798  20.799  65.854  1.00  0.00     0.000 HD 
ENDBRANCH  29  30
ENDBRANCH   9  26
ENDBRANCH   2   3
TORSDOF 8
ENDMDL
MODEL       52
REMARK 921   NORMALIZED FREE ENERGY PREDICTED BY IDOCK:   -5.80 KCAL/MOL
REMARK 922        TOTAL FREE ENERGY PREDICTED BY IDOCK:   -9.71 KCAL/MOL
REMARK 923 INTER-LIGAND FREE ENERGY PREDICTED BY IDOCK:   -8.38 KCAL/MOL
REMARK 924 INTRA-LIGAND FREE ENERGY PREDICTED BY IDOCK:   -1.33 KCAL/MOL
REMARK 927      BINDING AFFINITY PREDICTED BY RF-SCORE:    0.00 PKD
ROOT
HETATM    1  C   UNL     1     -11.507   6.441  71.201  1.00  0.00    -0.323 C  
HETATM    2  O   UNL     1     -11.625   6.502  69.782  1.00  0.00    -0.394 OA 
ENDROOT
BRANCH   2   3
HETATM    3  C   UNL     1     -10.514   6.962  69.108  1.00  0.00    -0.207 A  
HETATM    4  C   UNL     1      -9.755   5.971  68.424  1.00  0.00    -0.125 A  
HETATM    5  C   UNL     1      -8.617   6.336  67.684  1.00  0.00    -0.114 A  
HETATM    6  C   UNL     1      -7.593  11.867  68.928  1.00  0.00    -0.036 C  
HETATM    7  N   UNL     1      -9.578  10.919  68.448  1.00  0.00    -0.170 NA 
HETATM    8  C   UNL     1      -8.178   7.653  67.674  1.00  0.00    -0.121 A  
HETATM    9  C   UNL     1     -10.622  10.615  69.296  1.00  0.00    -0.233 A  
HETATM   10  C   UNL     1      -8.929   8.600  68.353  1.00  0.00    -0.142 A  
HETATM   11  C   UNL     1      -8.912  12.184  68.229  1.00  0.00    -0.186 C  
HETATM   12  C   UNL     1     -10.124   8.317  69.040  1.00  0.00    -0.202 A  
HETATM   13  N   UNL     1     -10.881   9.381  69.641  1.00  0.00    -0.238 NA 
HETATM   14  C   UNL     1      -8.545   9.998  68.402  1.00  0.00    -0.113 A  
HETATM   15  N   UNL     1      -7.317  10.436  68.565  1.00  0.00    -0.083 NA 
BRANCH   4  16
HETATM   16  O   UNL     1     -10.185   4.659  68.496  1.00  0.00    -0.067 OA 
BRANCH  16  17
HETATM   17  C   UNL     1      -9.214   3.724  68.994  1.00  0.00    -0.156 C  
BRANCH  17  18
HETATM   18  C   UNL     1      -9.325   3.625  70.514  1.00  0.00    -0.231 C  
BRANCH  18  19
HETATM   19  C   UNL     1      -8.068   4.142  71.234  1.00  0.00    -0.077 C  
BRANCH  19  20
HETATM   20  N   UNL     1      -8.154   5.546  71.673  1.00  0.00    -0.116 NA 
HETATM   21  O   UNL     1      -5.997   6.133  73.590  1.00  0.00    -0.058 OA 
HETATM   22  C   UNL     1      -8.361   5.693  73.132  1.00  0.00    -0.118 C  
HETATM   23  C   UNL     1      -6.932   6.309  71.318  1.00  0.00    -0.072 C  
HETATM   24  C   UNL     1      -5.707   5.986  72.194  1.00  0.00    -0.031 C  
HETATM   25  C   UNL     1      -7.123   5.330  73.967  1.00  0.00    -0.082 C  
ENDBRANCH  19  20
ENDBRANCH  18  19
ENDBRANCH  17  18
ENDBRANCH  16  17
ENDBRANCH   4  16
BRANCH   9  26
HETATM   26  N   UNL     1     -11.418  11.523  69.973  1.00  0.00    -0.472 N  
HETATM   27  O   UNL     1     -12.113  13.103  68.435  1.00  0.00    -0.318 OA 
HETATM   28  H   UNL     1     -11.648  11.240  70.926  1.00  0.00     0.000 HD 
HETATM   29  C   UNL     1     -11.965  12.748  69.601  1.00  0.00    -0.288 C  
BRANCH  29  30
HETATM   30  C   UNL     1     -12.486  13.627  70.677  1.00  0.00    -0.417 A  
HETATM   31  N   UNL     1     -13.642  14.058  72.751  1.00  0.00    -0.689 NA 
HETATM   32  C   UNL     1     -13.215  13.226  71.776  1.00  0.00    -0.405 A  
HETATM   33  C   UNL     1     -13.347  15.360  72.592  1.00  0.00    -0.504 A  
HETATM   34  N   UNL     1     -12.627  15.858  71.592  1.00  0.00    -0.450 NA 
HETATM   35  N   UNL     1     -13.771  16.227  73.583  1.00  0.00    -0.812 NA 
HETATM   36  H1  UNL     1     -13.547  17.215  73.462  1.00  0.00     0.000 HD 
HETATM   37  C   UNL     1     -12.218  14.981  70.648  1.00  0.00    -0.326 A  
HETATM   38  H2  UNL     1     -13.422  15.906  74.487  1.00  0.00     0.000 HD 
ENDBRANCH  29  30
ENDBRANCH   9  26
ENDBRANCH   2   3
TORSDOF 8
ENDMDL
MODEL       53
REMARK 921   NORMALIZED FREE ENERGY PREDICTED BY IDOCK:   -5.78 KCAL/MOL
REMARK 922        TOTAL FREE ENERGY PREDICTED BY IDOCK:   -9.69 KCAL/MOL
REMARK 923 INTER-LIGAND FREE ENERGY PREDICTED BY IDOCK:   -8.78 KCAL/MOL
REMARK 924 INTRA-LIGAND FREE ENERGY PREDICTED BY IDOCK:   -0.91 KCAL/MOL
REMARK 927      BINDING AFFINITY PREDICTED BY RF-SCORE:    0.00 PKD
ROOT
HETATM    1  C   UNL     1      -7.828  13.606  67.716  1.00  0.00    -0.171 C  
HETATM    2  O   UNL     1      -9.160  13.744  67.229  1.00  0.00    -0.211 OA 
ENDROOT
BRANCH   2   3
HETATM    3  C   UNL     1      -9.993  14.543  67.983  1.00  0.00    -0.222 A  
HETATM    4  C   UNL     1     -10.068  15.908  67.582  1.00  0.00    -0.242 A  
HETATM    5  C   UNL     1     -10.907  16.802  68.266  1.00  0.00    -0.366 A  
HETATM    6  C   UNL     1     -12.768  14.005  72.947  1.00  0.00    -0.177 C  
HETATM    7  N   UNL     1     -12.646  13.217  70.841  1.00  0.00    -0.330 NA 
HETATM    8  C   UNL     1     -11.614  16.386  69.387  1.00  0.00    -0.057 A  
HETATM    9  C   UNL     1     -11.748  12.321  70.301  1.00  0.00    -0.137 A  
HETATM   10  C   UNL     1     -11.521  15.055  69.763  1.00  0.00    -0.324 A  
HETATM   11  C   UNL     1     -13.507  13.071  71.995  1.00  0.00    -0.492 C  
HETATM   12  C   UNL     1     -10.768  14.088  69.071  1.00  0.00    -0.211 A  
HETATM   13  N   UNL     1     -10.802  12.712  69.487  1.00  0.00     0.101 NA 
HETATM   14  C   UNL     1     -12.218  14.531  70.922  1.00  0.00    -0.339 A  
HETATM   15  N   UNL     1     -12.330  15.148  72.077  1.00  0.00    -0.333 NA 
BRANCH   4  16
HETATM   16  O   UNL     1      -9.311  16.306  66.495  1.00  0.00    -0.233 OA 
BRANCH  16  17
HETATM   17  C   UNL     1     -10.021  17.067  65.504  1.00  0.00     0.068 C  
BRANCH  17  18
HETATM   18  C   UNL     1     -11.344  16.379  65.175  1.00  0.00     0.063 C  
BRANCH  18  19
HETATM   19  C   UNL     1     -11.150  15.061  64.405  1.00  0.00    -0.104 C  
BRANCH  19  20
HETATM   20  N   UNL     1     -12.374  14.256  64.259  1.00  0.00    -0.667 NA 
HETATM   21  O   UNL     1     -11.786  11.422  64.805  1.00  0.00    -0.032 OA 
HETATM   22  C   UNL     1     -12.271  13.214  63.211  1.00  0.00    -0.360 C  
HETATM   23  C   UNL     1     -12.740  13.575  65.526  1.00  0.00    -0.440 C  
HETATM   24  C   UNL     1     -11.848  12.370  65.878  1.00  0.00    -0.405 C  
HETATM   25  C   UNL     1     -11.347  12.048  63.593  1.00  0.00    -0.452 C  
ENDBRANCH  19  20
ENDBRANCH  18  19
ENDBRANCH  17  18
ENDBRANCH  16  17
ENDBRANCH   4  16
BRANCH   9  26
HETATM   26  N   UNL     1     -11.635  10.979  70.623  1.00  0.00    -0.421 N  
HETATM   27  O   UNL     1     -13.732  10.037  70.374  1.00  0.00     0.089 OA 
HETATM   28  H   UNL     1     -10.673  10.664  70.748  1.00  0.00     0.000 HD 
HETATM   29  C   UNL     1     -12.585   9.978  70.807  1.00  0.00    -0.285 C  
BRANCH  29  30
HETATM   30  C   UNL     1     -12.149   8.728  71.479  1.00  0.00    -0.388 A  
HETATM   31  N   UNL     1     -12.298   6.372  71.976  1.00  0.00    -0.303 NA 
HETATM   32  C   UNL     1     -12.748   7.493  71.370  1.00  0.00    -0.348 A  
HETATM   33  C   UNL     1     -11.210   6.513  72.752  1.00  0.00    -0.224 A  
HETATM   34  N   UNL     1     -10.531   7.646  72.909  1.00  0.00    -0.304 NA 
HETATM   35  N   UNL     1     -10.730   5.376  73.376  1.00  0.00    -0.255 NA 
HETATM   36  H1  UNL     1      -9.904   5.483  73.966  1.00  0.00     0.000 HD 
HETATM   37  C   UNL     1     -11.021   8.734  72.275  1.00  0.00    -0.266 A  
HETATM   38  H2  UNL     1     -10.557   4.652  72.677  1.00  0.00     0.000 HD 
ENDBRANCH  29  30
ENDBRANCH   9  26
ENDBRANCH   2   3
TORSDOF 8
ENDMDL
MODEL       54
REMARK 921   NORMALIZED FREE ENERGY PREDICTED BY IDOCK:   -5.75 KCAL/MOL
REMARK 922        TOTAL FREE ENERGY PREDICTED BY IDOCK:   -9.65 KCAL/MOL
REMARK 923 INTER-LIGAND FREE ENERGY PREDICTED BY IDOCK:   -8.59 KCAL/MOL
REMARK 924 INTRA-LIGAND FREE ENERGY PREDICTED BY IDOCK:   -1.06 KCAL/MOL
REMARK 927      BINDING AFFINITY PREDICTED BY RF-SCORE:    0.00 PKD
ROOT
HETATM    1  C   UNL     1      -9.534  11.150  66.319  1.00  0.00    -0.196 C  
HETATM    2  O   UNL     1      -9.256  11.874  67.514  1.00  0.00    -0.170 OA 
ENDROOT
BRANCH   2   3
HETATM    3  C   UNL     1     -10.332  12.092  68.346  1.00  0.00    -0.214 A  
HETATM    4  C   UNL     1     -10.905  13.394  68.286  1.00  0.00    -0.256 A  
HETATM    5  C   UNL     1     -12.022  13.714  69.075  1.00  0.00    -0.392 A  
HETATM    6  C   UNL     1     -12.750   9.297  72.703  1.00  0.00    -0.136 C  
HETATM    7  N   UNL     1     -12.327   9.197  70.493  1.00  0.00     0.054 NA 
HETATM    8  C   UNL     1     -12.533  12.790  69.978  1.00  0.00    -0.068 A  
HETATM    9  C   UNL     1     -11.156   8.858  69.849  1.00  0.00    -0.136 A  
HETATM   10  C   UNL     1     -11.956  11.531  70.025  1.00  0.00    -0.435 A  
HETATM   11  C   UNL     1     -13.082   8.451  71.478  1.00  0.00    -0.296 C  
HETATM   12  C   UNL     1     -10.892  11.117  69.201  1.00  0.00    -0.238 A  
HETATM   13  N   UNL     1     -10.416   9.762  69.261  1.00  0.00    -0.208 NA 
HETATM   14  C   UNL     1     -12.419  10.505  70.939  1.00  0.00    -0.390 A  
HETATM   15  N   UNL     1     -12.761  10.709  72.191  1.00  0.00    -0.188 NA 
BRANCH   4  16
HETATM   16  O   UNL     1     -10.341  14.310  67.417  1.00  0.00    -0.256 OA 
BRANCH  16  17
HETATM   17  C   UNL     1     -11.111  14.583  66.234  1.00  0.00    -0.332 C  
BRANCH  17  18
HETATM   18  C   UNL     1     -10.288  15.432  65.268  1.00  0.00    -0.420 C  
BRANCH  18  19
HETATM   19  C   UNL     1      -9.169  16.217  65.976  1.00  0.00    -0.328 C  
BRANCH  19  20
HETATM   20  N   UNL     1      -9.286  17.680  65.860  1.00  0.00    -0.518 NA 
HETATM   21  O   UNL     1      -9.114  18.918  68.526  1.00  0.00    -0.330 OA 
HETATM   22  C   UNL     1     -10.448  18.237  66.591  1.00  0.00    -0.360 C  
HETATM   23  C   UNL     1      -8.073  18.372  66.361  1.00  0.00    -0.260 C  
HETATM   24  C   UNL     1      -7.941  18.386  67.896  1.00  0.00    -0.258 C  
HETATM   25  C   UNL     1     -10.285  18.201  68.119  1.00  0.00    -0.388 C  
ENDBRANCH  19  20
ENDBRANCH  18  19
ENDBRANCH  17  18
ENDBRANCH  16  17
ENDBRANCH   4  16
BRANCH   9  26
HETATM   26  N   UNL     1     -10.556   7.610  69.843  1.00  0.00    -0.232 N  
HETATM   27  O   UNL     1     -11.301   6.503  67.955  1.00  0.00    -0.245 OA 
HETATM   28  H   UNL     1      -9.830   7.498  70.550  1.00  0.00     0.000 HD 
HETATM   29  C   UNL     1     -10.754   6.480  69.054  1.00  0.00    -0.278 C  
BRANCH  29  30
HETATM   30  C   UNL     1     -10.183   5.196  69.531  1.00  0.00    -0.318 A  
HETATM   31  N   UNL     1      -9.070   3.077  69.228  1.00  0.00    -0.120 NA 
HETATM   32  C   UNL     1      -9.608   4.219  68.747  1.00  0.00    -0.149 A  
HETATM   33  C   UNL     1      -9.143   2.901  70.559  1.00  0.00    -0.120 A  
HETATM   34  N   UNL     1      -9.645   3.785  71.415  1.00  0.00    -0.155 NA 
HETATM   35  N   UNL     1      -8.591   1.740  71.071  1.00  0.00    -0.050 NA 
HETATM   36  H1  UNL     1      -8.647   1.606  72.081  1.00  0.00     0.000 HD 
HETATM   37  C   UNL     1     -10.164   4.913  70.882  1.00  0.00    -0.202 A  
HETATM   38  H2  UNL     1      -7.618   1.665  70.771  1.00  0.00     0.000 HD 
ENDBRANCH  29  30
ENDBRANCH   9  26
ENDBRANCH   2   3
TORSDOF 8
ENDMDL
MODEL       55
REMARK 921   NORMALIZED FREE ENERGY PREDICTED BY IDOCK:   -5.74 KCAL/MOL
REMARK 922        TOTAL FREE ENERGY PREDICTED BY IDOCK:   -9.62 KCAL/MOL
REMARK 923 INTER-LIGAND FREE ENERGY PREDICTED BY IDOCK:   -8.79 KCAL/MOL
REMARK 924 INTRA-LIGAND FREE ENERGY PREDICTED BY IDOCK:   -0.83 KCAL/MOL
REMARK 927      BINDING AFFINITY PREDICTED BY RF-SCORE:    0.00 PKD
ROOT
HETATM    1  C   UNL     1      -6.574  10.960  69.116  1.00  0.00    -0.069 C  
HETATM    2  O   UNL     1      -7.854  10.394  69.384  1.00  0.00    -0.139 OA 
ENDROOT
BRANCH   2   3
HETATM    3  C   UNL     1      -8.543   9.924  68.287  1.00  0.00    -0.115 A  
HETATM    4  C   UNL     1      -8.604   8.507  68.158  1.00  0.00    -0.138 A  
HETATM    5  C   UNL     1      -9.304   7.923  67.089  1.00  0.00    -0.190 A  
HETATM    6  C   UNL     1     -10.671  12.228  63.513  1.00  0.00    -0.451 C  
HETATM    7  N   UNL     1     -10.862  12.201  65.757  1.00  0.00    -0.271 NA 
HETATM    8  C   UNL     1      -9.878   8.718  66.106  1.00  0.00    -0.297 A  
HETATM    9  C   UNL     1     -10.085  12.839  66.701  1.00  0.00    -0.243 A  
HETATM   10  C   UNL     1      -9.801  10.095  66.248  1.00  0.00    -0.288 A  
HETATM   11  C   UNL     1     -11.572  12.758  64.625  1.00  0.00    -0.338 C  
HETATM   12  C   UNL     1      -9.191  10.744  67.338  1.00  0.00    -0.147 A  
HETATM   13  N   UNL     1      -9.236  12.177  67.443  1.00  0.00    -0.177 NA 
HETATM   14  C   UNL     1     -10.366  11.004  65.270  1.00  0.00    -0.275 A  
HETATM   15  N   UNL     1     -10.296  10.847  63.967  1.00  0.00    -0.364 NA 
BRANCH   4  16
HETATM   16  O   UNL     1      -7.977   7.741  69.123  1.00  0.00    -0.115 OA 
BRANCH  16  17
HETATM   17  C   UNL     1      -8.819   7.318  70.209  1.00  0.00    -0.147 C  
BRANCH  17  18
HETATM   18  C   UNL     1      -9.265   5.874  69.983  1.00  0.00    -0.164 C  
BRANCH  18  19
HETATM   19  C   UNL     1     -10.349   5.428  70.980  1.00  0.00    -0.236 C  
BRANCH  19  20
HETATM   20  N   UNL     1      -9.965   4.283  71.823  1.00  0.00    -0.186 NA 
HETATM   21  O   UNL     1      -9.292   5.215  74.535  1.00  0.00    -0.120 OA 
HETATM   22  C   UNL     1      -8.582   4.379  72.347  1.00  0.00    -0.110 C  
HETATM   23  C   UNL     1     -10.870   4.128  72.988  1.00  0.00    -0.164 C  
HETATM   24  C   UNL     1     -10.657   5.172  74.100  1.00  0.00    -0.276 C  
HETATM   25  C   UNL     1      -8.409   5.454  73.432  1.00  0.00    -0.114 C  
ENDBRANCH  19  20
ENDBRANCH  18  19
ENDBRANCH  17  18
ENDBRANCH  16  17
ENDBRANCH   4  16
BRANCH   9  26
HETATM   26  N   UNL     1      -9.995  14.206  66.900  1.00  0.00    -0.255 N  
HETATM   27  O   UNL     1     -11.617  14.780  68.446  1.00  0.00    -0.296 OA 
HETATM   28  H   UNL     1      -9.178  14.634  66.465  1.00  0.00     0.000 HD 
HETATM   29  C   UNL     1     -10.808  15.108  67.582  1.00  0.00    -0.295 C  
BRANCH  29  30
HETATM   30  C   UNL     1     -10.611  16.554  67.315  1.00  0.00    -0.285 A  
HETATM   31  N   UNL     1     -10.557  18.884  67.941  1.00  0.00    -0.384 NA 
HETATM   32  C   UNL     1     -10.781  17.580  68.218  1.00  0.00    -0.309 A  
HETATM   33  C   UNL     1     -10.174  19.166  66.684  1.00  0.00    -0.411 A  
HETATM   34  N   UNL     1      -9.949  18.259  65.738  1.00  0.00    -0.523 NA 
HETATM   35  N   UNL     1      -9.934  20.494  66.382  1.00  0.00    -0.577 NA 
HETATM   36  H1  UNL     1      -9.644  20.708  65.427  1.00  0.00     0.000 HD 
HETATM   37  C   UNL     1     -10.181  16.970  66.071  1.00  0.00    -0.325 A  
HETATM   38  H2  UNL     1      -9.252  20.874  67.039  1.00  0.00     0.000 HD 
ENDBRANCH  29  30
ENDBRANCH   9  26
ENDBRANCH   2   3
TORSDOF 8
ENDMDL
MODEL       56
REMARK 921   NORMALIZED FREE ENERGY PREDICTED BY IDOCK:   -5.73 KCAL/MOL
REMARK 922        TOTAL FREE ENERGY PREDICTED BY IDOCK:   -9.61 KCAL/MOL
REMARK 923 INTER-LIGAND FREE ENERGY PREDICTED BY IDOCK:   -8.29 KCAL/MOL
REMARK 924 INTRA-LIGAND FREE ENERGY PREDICTED BY IDOCK:   -1.32 KCAL/MOL
REMARK 927      BINDING AFFINITY PREDICTED BY RF-SCORE:    0.00 PKD
ROOT
HETATM    1  C   UNL     1     -10.763  10.755  66.198  1.00  0.00    -0.118 C  
HETATM    2  O   UNL     1     -10.773  10.553  67.608  1.00  0.00    -0.232 OA 
ENDROOT
BRANCH   2   3
HETATM    3  C   UNL     1      -9.548  10.294  68.185  1.00  0.00    -0.140 A  
HETATM    4  C   UNL     1      -9.265   8.923  68.443  1.00  0.00    -0.140 A  
HETATM    5  C   UNL     1      -8.035   8.548  69.006  1.00  0.00    -0.113 A  
HETATM    6  C   UNL     1      -5.438  13.434  70.610  1.00  0.00    -0.160 C  
HETATM    7  N   UNL     1      -6.501  13.024  68.668  1.00  0.00    -0.080 NA 
HETATM    8  C   UNL     1      -7.112   9.513  69.388  1.00  0.00    -0.055 A  
HETATM    9  C   UNL     1      -7.734  13.472  68.243  1.00  0.00    -0.137 A  
HETATM   10  C   UNL     1      -7.410  10.842  69.134  1.00  0.00    -0.115 A  
HETATM   11  C   UNL     1      -5.358  13.783  69.128  1.00  0.00    -0.077 C  
HETATM   12  C   UNL     1      -8.586  11.280  68.494  1.00  0.00    -0.156 A  
HETATM   13  N   UNL     1      -8.769  12.674  68.195  1.00  0.00    -0.186 NA 
HETATM   14  C   UNL     1      -6.511  11.918  69.502  1.00  0.00    -0.113 A  
HETATM   15  N   UNL     1      -5.839  11.987  70.629  1.00  0.00    -0.296 NA 
BRANCH   4  16
HETATM   16  O   UNL     1     -10.225   7.988  68.103  1.00  0.00    -0.194 OA 
BRANCH  16  17
HETATM   17  C   UNL     1      -9.791   6.619  68.160  1.00  0.00    -0.132 C  
BRANCH  17  18
HETATM   18  C   UNL     1     -10.599   5.865  69.214  1.00  0.00    -0.379 C  
BRANCH  18  19
HETATM   19  C   UNL     1     -11.775   6.693  69.762  1.00  0.00    -0.216 C  
BRANCH  19  20
HETATM   20  N   UNL     1     -11.853   6.741  71.231  1.00  0.00    -0.330 NA 
HETATM   21  O   UNL     1     -12.413   9.493  72.120  1.00  0.00    -0.357 OA 
HETATM   22  C   UNL     1     -10.843   7.635  71.844  1.00  0.00    -0.233 C  
HETATM   23  C   UNL     1     -13.186   7.192  71.699  1.00  0.00    -0.346 C  
HETATM   24  C   UNL     1     -13.444   8.700  71.518  1.00  0.00    -0.309 C  
HETATM   25  C   UNL     1     -11.124   9.128  71.611  1.00  0.00    -0.375 C  
ENDBRANCH  19  20
ENDBRANCH  18  19
ENDBRANCH  17  18
ENDBRANCH  16  17
ENDBRANCH   4  16
BRANCH   9  26
HETATM   26  N   UNL     1      -8.073  14.782  67.950  1.00  0.00    -0.132 N  
HETATM   27  O   UNL     1      -9.215  15.620  69.777  1.00  0.00    -0.255 OA 
HETATM   28  H   UNL     1      -7.641  15.139  67.097  1.00  0.00     0.000 HD 
HETATM   29  C   UNL     1      -8.891  15.705  68.596  1.00  0.00    -0.201 C  
BRANCH  29  30
HETATM   30  C   UNL     1      -9.311  16.908  67.835  1.00  0.00    -0.238 A  
HETATM   31  N   UNL     1     -10.672  18.863  67.454  1.00  0.00    -0.459 NA 
HETATM   32  C   UNL     1     -10.345  17.758  68.159  1.00  0.00    -0.391 A  
HETATM   33  C   UNL     1      -9.939  19.103  66.353  1.00  0.00    -0.395 A  
HETATM   34  N   UNL     1      -8.900  18.373  65.959  1.00  0.00    -0.498 NA 
HETATM   35  N   UNL     1     -10.255  20.234  65.622  1.00  0.00    -0.477 NA 
HETATM   36  H1  UNL     1      -9.699  20.416  64.786  1.00  0.00     0.000 HD 
HETATM   37  C   UNL     1      -8.612  17.283  66.705  1.00  0.00    -0.257 A  
HETATM   38  H2  UNL     1     -10.230  21.051  66.232  1.00  0.00     0.000 HD 
ENDBRANCH  29  30
ENDBRANCH   9  26
ENDBRANCH   2   3
TORSDOF 8
ENDMDL
MODEL       57
REMARK 921   NORMALIZED FREE ENERGY PREDICTED BY IDOCK:   -5.71 KCAL/MOL
REMARK 922        TOTAL FREE ENERGY PREDICTED BY IDOCK:   -9.59 KCAL/MOL
REMARK 923 INTER-LIGAND FREE ENERGY PREDICTED BY IDOCK:   -8.77 KCAL/MOL
REMARK 924 INTRA-LIGAND FREE ENERGY PREDICTED BY IDOCK:   -0.81 KCAL/MOL
REMARK 927      BINDING AFFINITY PREDICTED BY RF-SCORE:    0.00 PKD
ROOT
HETATM    1  C   UNL     1     -11.232   6.339  67.941  1.00  0.00    -0.106 C  
HETATM    2  O   UNL     1     -10.213   6.812  68.817  1.00  0.00    -0.160 OA 
ENDROOT
BRANCH   2   3
HETATM    3  C   UNL     1     -10.647   7.311  70.026  1.00  0.00    -0.233 A  
HETATM    4  C   UNL     1     -10.485   6.445  71.144  1.00  0.00    -0.221 A  
HETATM    5  C   UNL     1     -10.871   6.867  72.428  1.00  0.00    -0.267 A  
HETATM    6  C   UNL     1     -13.731  11.816  71.707  1.00  0.00     0.324 C  
HETATM    7  N   UNL     1     -11.793  11.203  70.739  1.00  0.00    -0.290 NA 
HETATM    8  C   UNL     1     -11.484   8.100  72.609  1.00  0.00    -0.454 A  
HETATM    9  C   UNL     1     -11.561  10.806  69.439  1.00  0.00    -0.308 A  
HETATM   10  C   UNL     1     -11.637   8.924  71.505  1.00  0.00    -0.388 A  
HETATM   11  C   UNL     1     -12.412  12.415  71.231  1.00  0.00    -0.170 C  
HETATM   12  C   UNL     1     -11.194   8.600  70.208  1.00  0.00    -0.184 A  
HETATM   13  N   UNL     1     -11.319   9.555  69.142  1.00  0.00     0.038 NA 
HETATM   14  C   UNL     1     -12.269  10.226  71.596  1.00  0.00    -0.291 A  
HETATM   15  N   UNL     1     -13.344  10.493  72.305  1.00  0.00    -0.276 NA 
BRANCH   4  16
HETATM   16  O   UNL     1      -9.922   5.202  70.925  1.00  0.00    -0.185 OA 
BRANCH  16  17
HETATM   17  C   UNL     1      -9.343   4.581  72.086  1.00  0.00    -0.133 C  
BRANCH  17  18
HETATM   18  C   UNL     1      -7.819   4.610  71.979  1.00  0.00    -0.099 C  
BRANCH  18  19
HETATM   19  C   UNL     1      -7.267   6.032  71.775  1.00  0.00    -0.088 C  
BRANCH  19  20
HETATM   20  N   UNL     1      -6.145   6.381  72.662  1.00  0.00    -0.045 NA 
HETATM   21  O   UNL     1      -6.347   9.205  73.475  1.00  0.00    -0.324 OA 
HETATM   22  C   UNL     1      -5.286   7.462  72.124  1.00  0.00    -0.036 C  
HETATM   23  C   UNL     1      -6.614   6.813  74.001  1.00  0.00    -0.072 C  
HETATM   24  C   UNL     1      -7.232   8.224  74.031  1.00  0.00    -0.154 C  
HETATM   25  C   UNL     1      -5.954   8.845  72.144  1.00  0.00    -0.072 C  
ENDBRANCH  19  20
ENDBRANCH  18  19
ENDBRANCH  17  18
ENDBRANCH  16  17
ENDBRANCH   4  16
BRANCH   9  26
HETATM   26  N   UNL     1     -11.672  11.597  68.308  1.00  0.00    -0.313 N  
HETATM   27  O   UNL     1      -9.986  10.961  66.859  1.00  0.00    -0.184 OA 
HETATM   28  H   UNL     1     -12.520  12.163  68.282  1.00  0.00     0.000 HD 
HETATM   29  C   UNL     1     -10.846  11.768  67.200  1.00  0.00    -0.258 C  
BRANCH  29  30
HETATM   30  C   UNL     1     -11.092  12.946  66.331  1.00  0.00    -0.316 A  
HETATM   31  N   UNL     1     -12.310  14.185  64.657  1.00  0.00    -0.580 NA 
HETATM   32  C   UNL     1     -12.103  13.079  65.406  1.00  0.00    -0.444 A  
HETATM   33  C   UNL     1     -11.434  15.190  64.830  1.00  0.00    -0.374 A  
HETATM   34  N   UNL     1     -10.440  15.188  65.713  1.00  0.00    -0.315 NA 
HETATM   35  N   UNL     1     -11.633  16.334  64.077  1.00  0.00    -1.504 NA 
HETATM   36  H1  UNL     1     -10.968  17.097  64.208  1.00  0.00     0.000 HD 
HETATM   37  C   UNL     1     -10.283  14.060  66.440  1.00  0.00    -0.291 A  
HETATM   38  H2  UNL     1     -12.581  16.679  64.228  1.00  0.00     0.000 HD 
ENDBRANCH  29  30
ENDBRANCH   9  26
ENDBRANCH   2   3
TORSDOF 8
ENDMDL
MODEL       58
REMARK 921   NORMALIZED FREE ENERGY PREDICTED BY IDOCK:   -5.71 KCAL/MOL
REMARK 922        TOTAL FREE ENERGY PREDICTED BY IDOCK:   -9.58 KCAL/MOL
REMARK 923 INTER-LIGAND FREE ENERGY PREDICTED BY IDOCK:   -9.30 KCAL/MOL
REMARK 924 INTRA-LIGAND FREE ENERGY PREDICTED BY IDOCK:   -0.28 KCAL/MOL
REMARK 927      BINDING AFFINITY PREDICTED BY RF-SCORE:    0.00 PKD
ROOT
HETATM    1  C   UNL     1     -13.402  11.891  71.797  1.00  0.00    -0.232 C  
HETATM    2  O   UNL     1     -12.476  12.845  71.286  1.00  0.00    -0.323 OA 
ENDROOT
BRANCH   2   3
HETATM    3  C   UNL     1     -11.998  12.597  70.018  1.00  0.00    -0.306 A  
HETATM    4  C   UNL     1     -12.038  13.699  69.117  1.00  0.00    -0.319 A  
HETATM    5  C   UNL     1     -11.552  13.561  67.807  1.00  0.00    -0.374 A  
HETATM    6  C   UNL     1     -10.530   7.942  67.051  1.00  0.00    -0.349 C  
HETATM    7  N   UNL     1      -9.986   9.202  68.836  1.00  0.00    -0.175 NA 
HETATM    8  C   UNL     1     -11.097  12.330  67.351  1.00  0.00    -0.333 A  
HETATM    9  C   UNL     1     -10.566   9.230  70.087  1.00  0.00    -0.231 A  
HETATM   10  C   UNL     1     -11.073  11.269  68.243  1.00  0.00    -0.297 A  
HETATM   11  C   UNL     1      -9.436   8.082  68.104  1.00  0.00    -0.143 C  
HETATM   12  C   UNL     1     -11.464  11.361  69.592  1.00  0.00    -0.309 A  
HETATM   13  N   UNL     1     -11.322  10.228  70.464  1.00  0.00    -0.323 NA 
HETATM   14  C   UNL     1     -10.621   9.947  67.856  1.00  0.00    -0.254 A  
HETATM   15  N   UNL     1     -10.905   9.357  66.717  1.00  0.00    -0.046 NA 
BRANCH   4  16
HETATM   16  O   UNL     1     -12.546  14.898  69.582  1.00  0.00    -0.192 OA 
BRANCH  16  17
HETATM   17  C   UNL     1     -11.618  15.707  70.324  1.00  0.00    -0.356 C  
BRANCH  17  18
HETATM   18  C   UNL     1     -10.380  15.983  69.474  1.00  0.00    -0.278 C  
BRANCH  18  19
HETATM   19  C   UNL     1     -10.330  17.430  68.953  1.00  0.00    -0.340 C  
BRANCH  19  20
HETATM   20  N   UNL     1     -10.780  17.589  67.559  1.00  0.00    -0.324 NA 
HETATM   21  O   UNL     1      -8.521  18.424  65.864  1.00  0.00    -0.497 OA 
HETATM   22  C   UNL     1     -10.599  18.964  67.038  1.00  0.00    -0.438 C  
HETATM   23  C   UNL     1     -10.065  16.670  66.641  1.00  0.00    -0.301 C  
HETATM   24  C   UNL     1      -8.610  17.076  66.343  1.00  0.00    -0.276 C  
HETATM   25  C   UNL     1      -9.130  19.337  66.786  1.00  0.00    -0.323 C  
ENDBRANCH  19  20
ENDBRANCH  18  19
ENDBRANCH  17  18
ENDBRANCH  16  17
ENDBRANCH   4  16
BRANCH   9  26
HETATM   26  N   UNL     1     -10.545   8.210  71.022  1.00  0.00    -0.208 N  
HETATM   27  O   UNL     1      -8.895   8.723  72.559  1.00  0.00    -0.402 OA 
HETATM   28  H   UNL     1     -11.321   7.553  70.934  1.00  0.00     0.000 HD 
HETATM   29  C   UNL     1      -9.667   7.909  72.060  1.00  0.00    -0.187 C  
BRANCH  29  30
HETATM   30  C   UNL     1      -9.744   6.553  72.658  1.00  0.00    -0.168 A  
HETATM   31  N   UNL     1     -10.815   4.805  73.931  1.00  0.00    -0.298 NA 
HETATM   32  C   UNL     1     -10.771   6.061  73.432  1.00  0.00    -0.262 A  
HETATM   33  C   UNL     1      -9.757   4.022  73.660  1.00  0.00    -0.109 A  
HETATM   34  N   UNL     1      -8.725   4.376  72.900  1.00  0.00    -0.107 NA 
HETATM   35  N   UNL     1      -9.786   2.731  74.156  1.00  0.00    -0.097 NA 
HETATM   36  H1  UNL     1      -8.983   2.136  73.950  1.00  0.00     0.000 HD 
HETATM   37  C   UNL     1      -8.735   5.640  72.422  1.00  0.00    -0.128 A  
HETATM   38  H2  UNL     1     -10.641   2.267  73.846  1.00  0.00     0.000 HD 
ENDBRANCH  29  30
ENDBRANCH   9  26
ENDBRANCH   2   3
TORSDOF 8
ENDMDL
MODEL       59
REMARK 921   NORMALIZED FREE ENERGY PREDICTED BY IDOCK:   -5.68 KCAL/MOL
REMARK 922        TOTAL FREE ENERGY PREDICTED BY IDOCK:   -9.53 KCAL/MOL
REMARK 923 INTER-LIGAND FREE ENERGY PREDICTED BY IDOCK:   -8.25 KCAL/MOL
REMARK 924 INTRA-LIGAND FREE ENERGY PREDICTED BY IDOCK:   -1.28 KCAL/MOL
REMARK 927      BINDING AFFINITY PREDICTED BY RF-SCORE:    0.00 PKD
ROOT
HETATM    1  C   UNL     1      -9.651   9.017  71.579  1.00  0.00    -0.270 C  
HETATM    2  O   UNL     1      -8.292   9.192  71.192  1.00  0.00    -0.241 OA 
ENDROOT
BRANCH   2   3
HETATM    3  C   UNL     1      -7.840   8.355  70.194  1.00  0.00    -0.102 A  
HETATM    4  C   UNL     1      -7.261   7.130  70.631  1.00  0.00    -0.067 A  
HETATM    5  C   UNL     1      -6.793   6.195  69.694  1.00  0.00    -0.065 A  
HETATM    6  C   UNL     1      -6.946   8.828  64.572  1.00  0.00    -0.084 C  
HETATM    7  N   UNL     1      -8.539   8.839  66.163  1.00  0.00    -0.138 NA 
HETATM    8  C   UNL     1      -6.818   6.486  68.336  1.00  0.00    -0.071 A  
HETATM    9  C   UNL     1      -8.896   9.854  67.026  1.00  0.00    -0.134 A  
HETATM   10  C   UNL     1      -7.379   7.687  67.934  1.00  0.00    -0.102 A  
HETATM   11  C   UNL     1      -8.464   8.847  64.718  1.00  0.00    -0.176 C  
HETATM   12  C   UNL     1      -7.945   8.629  68.813  1.00  0.00    -0.114 A  
HETATM   13  N   UNL     1      -8.583   9.809  68.295  1.00  0.00    -0.118 NA 
HETATM   14  C   UNL     1      -7.444   8.079  66.539  1.00  0.00    -0.088 A  
HETATM   15  N   UNL     1      -6.481   7.905  65.662  1.00  0.00    -0.042 NA 
BRANCH   4  16
HETATM   16  O   UNL     1      -7.201   6.891  71.991  1.00  0.00    -0.080 OA 
BRANCH  16  17
HETATM   17  C   UNL     1      -6.630   5.625  72.363  1.00  0.00    -0.066 C  
BRANCH  17  18
HETATM   18  C   UNL     1      -7.653   4.810  73.153  1.00  0.00    -0.092 C  
BRANCH  18  19
HETATM   19  C   UNL     1      -9.038   5.480  73.193  1.00  0.00    -0.126 C  
BRANCH  19  20
HETATM   20  N   UNL     1     -10.142   4.618  72.738  1.00  0.00    -0.164 NA 
HETATM   21  O   UNL     1     -11.714   6.009  70.671  1.00  0.00    -0.196 OA 
HETATM   22  C   UNL     1     -11.481   5.208  72.972  1.00  0.00    -0.274 C  
HETATM   23  C   UNL     1     -10.041   4.311  71.290  1.00  0.00    -0.108 C  
HETATM   24  C   UNL     1     -10.416   5.484  70.365  1.00  0.00    -0.286 C  
HETATM   25  C   UNL     1     -11.800   6.394  72.049  1.00  0.00    -0.333 C  
ENDBRANCH  19  20
ENDBRANCH  18  19
ENDBRANCH  17  18
ENDBRANCH  16  17
ENDBRANCH   4  16
BRANCH   9  26
HETATM   26  N   UNL     1      -9.484  11.057  66.677  1.00  0.00    -0.181 N  
HETATM   27  O   UNL     1     -11.673  10.990  67.419  1.00  0.00    -0.539 OA 
HETATM   28  H   UNL     1      -8.826  11.750  66.320  1.00  0.00     0.000 HD 
HETATM   29  C   UNL     1     -10.802  11.502  66.721  1.00  0.00    -0.282 C  
BRANCH  29  30
HETATM   30  C   UNL     1     -11.144  12.726  65.954  1.00  0.00    -0.318 A  
HETATM   31  N   UNL     1     -10.683  14.918  65.056  1.00  0.00    -0.409 NA 
HETATM   32  C   UNL     1     -10.344  13.836  65.792  1.00  0.00    -0.307 A  
HETATM   33  C   UNL     1     -11.898  14.889  64.483  1.00  0.00    -0.396 A  
HETATM   34  N   UNL     1     -12.742  13.863  64.543  1.00  0.00    -0.662 NA 
HETATM   35  N   UNL     1     -12.260  15.984  63.720  1.00  0.00    -1.134 NA 
HETATM   36  H1  UNL     1     -13.183  15.962  63.285  1.00  0.00     0.000 HD 
HETATM   37  C   UNL     1     -12.350  12.804  65.287  1.00  0.00    -0.488 A  
HETATM   38  H2  UNL     1     -11.551  16.150  63.005  1.00  0.00     0.000 HD 
ENDBRANCH  29  30
ENDBRANCH   9  26
ENDBRANCH   2   3
TORSDOF 8
ENDMDL
MODEL       60
REMARK 921   NORMALIZED FREE ENERGY PREDICTED BY IDOCK:   -5.67 KCAL/MOL
REMARK 922        TOTAL FREE ENERGY PREDICTED BY IDOCK:   -9.52 KCAL/MOL
REMARK 923 INTER-LIGAND FREE ENERGY PREDICTED BY IDOCK:   -8.77 KCAL/MOL
REMARK 924 INTRA-LIGAND FREE ENERGY PREDICTED BY IDOCK:   -0.75 KCAL/MOL
REMARK 927      BINDING AFFINITY PREDICTED BY RF-SCORE:    0.00 PKD
ROOT
HETATM    1  C   UNL     1     -11.156  10.313  66.881  1.00  0.00     0.033 C  
HETATM    2  O   UNL     1     -10.363   9.916  67.996  1.00  0.00    -0.179 OA 
ENDROOT
BRANCH   2   3
HETATM    3  C   UNL     1     -10.976   9.999  69.227  1.00  0.00    -0.228 A  
HETATM    4  C   UNL     1     -11.039   8.785  69.968  1.00  0.00    -0.162 A  
HETATM    5  C   UNL     1     -11.621   8.765  71.247  1.00  0.00    -0.353 A  
HETATM    6  C   UNL     1     -14.132  13.901  71.956  1.00  0.00    -0.477 C  
HETATM    7  N   UNL     1     -12.082  13.485  71.124  1.00  0.00    -0.192 NA 
HETATM    8  C   UNL     1     -12.209   9.909  71.770  1.00  0.00    -0.425 A  
HETATM    9  C   UNL     1     -11.647  13.548  69.817  1.00  0.00    -0.244 A  
HETATM   10  C   UNL     1     -12.142  11.078  71.029  1.00  0.00    -0.406 A  
HETATM   11  C   UNL     1     -12.730  14.500  71.925  1.00  0.00    -0.338 C  
HETATM   12  C   UNL     1     -11.499  11.188  69.781  1.00  0.00    -0.312 A  
HETATM   13  N   UNL     1     -11.406  12.464  69.127  1.00  0.00    -0.264 NA 
HETATM   14  C   UNL     1     -12.732  12.319  71.492  1.00  0.00    -0.233 A  
HETATM   15  N   UNL     1     -13.901  12.423  72.085  1.00  0.00    -0.196 NA 
BRANCH   4  16
HETATM   16  O   UNL     1     -10.493   7.649  69.399  1.00  0.00    -0.215 OA 
BRANCH  16  17
HETATM   17  C   UNL     1      -9.803   6.780  70.313  1.00  0.00    -0.174 C  
BRANCH  17  18
HETATM   18  C   UNL     1      -8.514   6.275  69.668  1.00  0.00    -0.129 C  
BRANCH  18  19
HETATM   19  C   UNL     1      -7.646   7.415  69.107  1.00  0.00    -0.105 C  
BRANCH  19  20
HETATM   20  N   UNL     1      -6.893   7.063  67.892  1.00  0.00    -0.074 NA 
HETATM   21  O   UNL     1      -7.976   8.530  65.578  1.00  0.00    -0.099 OA 
HETATM   22  C   UNL     1      -7.733   6.446  66.839  1.00  0.00    -0.100 C  
HETATM   23  C   UNL     1      -6.229   8.247  67.293  1.00  0.00    -0.056 C  
HETATM   24  C   UNL     1      -7.187   9.209  66.564  1.00  0.00    -0.085 C  
HETATM   25  C   UNL     1      -8.694   7.435  66.162  1.00  0.00    -0.156 C  
ENDBRANCH  19  20
ENDBRANCH  18  19
ENDBRANCH  17  18
ENDBRANCH  16  17
ENDBRANCH   4  16
BRANCH   9  26
HETATM   26  N   UNL     1     -11.536  14.692  69.045  1.00  0.00    -0.274 N  
HETATM   27  O   UNL     1     -11.818  14.059  66.839  1.00  0.00    -0.385 OA 
HETATM   28  H   UNL     1     -11.507  15.555  69.587  1.00  0.00     0.000 HD 
HETATM   29  C   UNL     1     -11.457  14.889  67.669  1.00  0.00    -0.352 C  
BRANCH  29  30
HETATM   30  C   UNL     1     -11.001  16.216  67.186  1.00  0.00    -0.144 A  
HETATM   31  N   UNL     1     -10.427  17.818  65.475  1.00  0.00    -0.636 NA 
HETATM   32  C   UNL     1     -10.813  16.585  65.872  1.00  0.00    -0.095 A  
HETATM   33  C   UNL     1     -10.191  18.709  66.453  1.00  0.00    -0.425 A  
HETATM   34  N   UNL     1     -10.367  18.478  67.750  1.00  0.00    -0.384 NA 
HETATM   35  N   UNL     1      -9.801  19.979  66.066  1.00  0.00    -0.540 NA 
HETATM   36  H1  UNL     1      -9.622  20.656  66.808  1.00  0.00     0.000 HD 
HETATM   37  C   UNL     1     -10.761  17.231  68.091  1.00  0.00    -0.363 A  
HETATM   38  H2  UNL     1     -10.488  20.362  65.415  1.00  0.00     0.000 HD 
ENDBRANCH  29  30
ENDBRANCH   9  26
ENDBRANCH   2   3
TORSDOF 8
ENDMDL
MODEL       61
REMARK 921   NORMALIZED FREE ENERGY PREDICTED BY IDOCK:   -5.66 KCAL/MOL
REMARK 922        TOTAL FREE ENERGY PREDICTED BY IDOCK:   -9.51 KCAL/MOL
REMARK 923 INTER-LIGAND FREE ENERGY PREDICTED BY IDOCK:   -8.46 KCAL/MOL
REMARK 924 INTRA-LIGAND FREE ENERGY PREDICTED BY IDOCK:   -1.05 KCAL/MOL
REMARK 927      BINDING AFFINITY PREDICTED BY RF-SCORE:    0.00 PKD
ROOT
HETATM    1  C   UNL     1     -11.553  14.518  65.056  1.00  0.00    -0.382 C  
HETATM    2  O   UNL     1     -11.388  14.441  66.469  1.00  0.00    -0.331 OA 
ENDROOT
BRANCH   2   3
HETATM    3  C   UNL     1     -10.095  14.570  66.929  1.00  0.00    -0.257 A  
HETATM    4  C   UNL     1      -9.712  15.881  67.333  1.00  0.00    -0.227 A  
HETATM    5  C   UNL     1      -8.424  16.117  67.841  1.00  0.00    -0.166 A  
HETATM    6  C   UNL     1      -5.428  11.277  66.953  1.00  0.00    -0.098 C  
HETATM    7  N   UNL     1      -7.524  11.460  67.755  1.00  0.00    -0.095 NA 
HETATM    8  C   UNL     1      -7.486  15.093  67.885  1.00  0.00    -0.149 A  
HETATM    9  C   UNL     1      -8.720  11.184  67.126  1.00  0.00    -0.141 A  
HETATM   10  C   UNL     1      -7.879  13.827  67.481  1.00  0.00    -0.189 A  
HETATM   11  C   UNL     1      -6.371  10.607  67.947  1.00  0.00    -0.058 C  
HETATM   12  C   UNL     1      -9.177  13.504  67.043  1.00  0.00    -0.246 A  
HETATM   13  N   UNL     1      -9.515  12.143  66.727  1.00  0.00    -0.206 NA 
HETATM   14  C   UNL     1      -6.967  12.699  67.486  1.00  0.00    -0.150 A  
HETATM   15  N   UNL     1      -5.710  12.744  67.106  1.00  0.00    -0.341 NA 
BRANCH   4  16
HETATM   16  O   UNL     1     -10.649  16.891  67.227  1.00  0.00    -0.320 OA 
BRANCH  16  17
HETATM   17  C   UNL     1     -10.394  18.048  68.043  1.00  0.00    -0.387 C  
BRANCH  17  18
HETATM   18  C   UNL     1     -10.677  19.317  67.241  1.00  0.00    -0.594 C  
BRANCH  18  19
HETATM   19  C   UNL     1      -9.395  20.088  66.884  1.00  0.00    -0.393 C  
BRANCH  19  20
HETATM   20  N   UNL     1      -8.147  19.363  67.178  1.00  0.00    -0.261 NA 
HETATM   21  O   UNL     1      -5.857  20.774  65.979  1.00  0.00    -0.199 OA 
HETATM   22  C   UNL     1      -7.435  18.903  65.963  1.00  0.00    -0.244 C  
HETATM   23  C   UNL     1      -7.199  20.193  67.961  1.00  0.00    -0.281 C  
HETATM   24  C   UNL     1      -6.503  21.299  67.146  1.00  0.00    -0.341 C  
HETATM   25  C   UNL     1      -6.783  20.044  65.166  1.00  0.00    -0.286 C  
ENDBRANCH  19  20
ENDBRANCH  18  19
ENDBRANCH  17  18
ENDBRANCH  16  17
ENDBRANCH   4  16
BRANCH   9  26
HETATM   26  N   UNL     1      -9.169   9.936  66.730  1.00  0.00    -0.146 N  
HETATM   27  O   UNL     1     -10.432   9.080  68.466  1.00  0.00    -0.211 OA 
HETATM   28  H   UNL     1      -8.988   9.726  65.748  1.00  0.00     0.000 HD 
HETATM   29  C   UNL     1      -9.820   8.914  67.415  1.00  0.00    -0.193 C  
BRANCH  29  30
HETATM   30  C   UNL     1      -9.854   7.572  66.783  1.00  0.00    -0.295 A  
HETATM   31  N   UNL     1      -8.943   5.788  65.438  1.00  0.00    -0.093 NA 
HETATM   32  C   UNL     1      -8.885   7.030  65.967  1.00  0.00    -0.135 A  
HETATM   33  C   UNL     1     -10.044   5.072  65.722  1.00  0.00    -0.123 A  
HETATM   34  N   UNL     1     -11.027   5.477  66.521  1.00  0.00    -0.177 NA 
HETATM   35  N   UNL     1     -10.118   3.795  65.195  1.00  0.00    -0.375 NA 
HETATM   36  H1  UNL     1     -10.955   3.252  65.411  1.00  0.00     0.000 HD 
HETATM   37  C   UNL     1     -10.916   6.725  67.028  1.00  0.00    -0.368 A  
HETATM   38  H2  UNL     1      -9.289   3.266  65.468  1.00  0.00     0.000 HD 
ENDBRANCH  29  30
ENDBRANCH   9  26
ENDBRANCH   2   3
TORSDOF 8
ENDMDL
MODEL       62
REMARK 921   NORMALIZED FREE ENERGY PREDICTED BY IDOCK:   -5.64 KCAL/MOL
REMARK 922        TOTAL FREE ENERGY PREDICTED BY IDOCK:   -9.48 KCAL/MOL
REMARK 923 INTER-LIGAND FREE ENERGY PREDICTED BY IDOCK:   -8.43 KCAL/MOL
REMARK 924 INTRA-LIGAND FREE ENERGY PREDICTED BY IDOCK:   -1.06 KCAL/MOL
REMARK 927      BINDING AFFINITY PREDICTED BY RF-SCORE:    0.00 PKD
ROOT
HETATM    1  C   UNL     1      -9.701  11.557  65.030  1.00  0.00    -0.238 C  
HETATM    2  O   UNL     1     -11.002  11.279  65.539  1.00  0.00    -0.229 OA 
ENDROOT
BRANCH   2   3
HETATM    3  C   UNL     1     -11.122  11.286  66.913  1.00  0.00    -0.275 A  
HETATM    4  C   UNL     1     -11.537  12.520  67.489  1.00  0.00    -0.361 A  
HETATM    5  C   UNL     1     -11.715  12.628  68.878  1.00  0.00    -0.370 A  
HETATM    6  C   UNL     1      -9.618   7.769  71.155  1.00  0.00    -0.158 C  
HETATM    7  N   UNL     1     -10.949   7.970  69.350  1.00  0.00    -0.087 NA 
HETATM    8  C   UNL     1     -11.415  11.558  69.712  1.00  0.00    -0.362 A  
HETATM    9  C   UNL     1     -10.628   7.832  68.016  1.00  0.00    -0.139 A  
HETATM   10  C   UNL     1     -11.006  10.369  69.129  1.00  0.00    -0.285 A  
HETATM   11  C   UNL     1     -10.753   7.041  70.442  1.00  0.00    -0.234 C  
HETATM   12  C   UNL     1     -10.891  10.166  67.741  1.00  0.00    -0.292 A  
HETATM   13  N   UNL     1     -10.543   8.870  67.226  1.00  0.00    -0.275 NA 
HETATM   14  C   UNL     1     -10.666   9.200  69.919  1.00  0.00    -0.231 A  
HETATM   15  N   UNL     1      -9.979   9.222  71.039  1.00  0.00    -0.292 NA 
BRANCH   4  16
HETATM   16  O   UNL     1     -11.777  13.584  66.640  1.00  0.00    -0.348 OA 
BRANCH  16  17
HETATM   17  C   UNL     1     -11.557  14.884  67.214  1.00  0.00    -0.324 C  
BRANCH  17  18
HETATM   18  C   UNL     1     -10.210  15.432  66.747  1.00  0.00    -0.273 C  
BRANCH  18  19
HETATM   19  C   UNL     1     -10.266  16.933  66.412  1.00  0.00    -0.321 C  
BRANCH  19  20
HETATM   20  N   UNL     1     -10.502  17.806  67.575  1.00  0.00    -0.369 NA 
HETATM   21  O   UNL     1      -8.602  20.056  67.544  1.00  0.00    -0.322 OA 
HETATM   22  C   UNL     1      -9.330  17.913  68.475  1.00  0.00    -0.296 C  
HETATM   23  C   UNL     1     -10.873  19.182  67.165  1.00  0.00    -0.410 C  
HETATM   24  C   UNL     1      -9.700  20.021  66.623  1.00  0.00    -0.442 C  
HETATM   25  C   UNL     1      -8.173  18.731  67.882  1.00  0.00    -0.269 C  
ENDBRANCH  19  20
ENDBRANCH  18  19
ENDBRANCH  17  18
ENDBRANCH  16  17
ENDBRANCH   4  16
BRANCH   9  26
HETATM   26  N   UNL     1     -10.243   6.663  67.383  1.00  0.00    -0.168 N  
HETATM   27  O   UNL     1      -8.036   6.271  67.952  1.00  0.00    -0.112 OA 
HETATM   28  H   UNL     1     -11.013   6.159  66.942  1.00  0.00     0.000 HD 
HETATM   29  C   UNL     1      -9.005   6.044  67.233  1.00  0.00    -0.109 C  
BRANCH  29  30
HETATM   30  C   UNL     1      -8.885   4.978  66.206  1.00  0.00    -0.118 A  
HETATM   31  N   UNL     1      -9.760   3.478  64.531  1.00  0.00    -0.164 NA 
HETATM   32  C   UNL     1      -9.918   4.426  65.482  1.00  0.00    -0.230 A  
HETATM   33  C   UNL     1      -8.503   3.048  64.326  1.00  0.00    -0.089 A  
HETATM   34  N   UNL     1      -7.427   3.528  64.940  1.00  0.00    -0.072 NA 
HETATM   35  N   UNL     1      -8.320   2.083  63.351  1.00  0.00    -0.076 NA 
HETATM   36  H1  UNL     1      -7.366   1.756  63.196  1.00  0.00     0.000 HD 
HETATM   37  C   UNL     1      -7.641   4.479  65.877  1.00  0.00    -0.086 A  
HETATM   38  H2  UNL     1      -8.715   2.410  62.470  1.00  0.00     0.000 HD 
ENDBRANCH  29  30
ENDBRANCH   9  26
ENDBRANCH   2   3
TORSDOF 8
ENDMDL
MODEL       63
REMARK 921   NORMALIZED FREE ENERGY PREDICTED BY IDOCK:   -5.64 KCAL/MOL
REMARK 922        TOTAL FREE ENERGY PREDICTED BY IDOCK:   -9.48 KCAL/MOL
REMARK 923 INTER-LIGAND FREE ENERGY PREDICTED BY IDOCK:   -8.68 KCAL/MOL
REMARK 924 INTRA-LIGAND FREE ENERGY PREDICTED BY IDOCK:   -0.79 KCAL/MOL
REMARK 927      BINDING AFFINITY PREDICTED BY RF-SCORE:    0.00 PKD
ROOT
HETATM    1  C   UNL     1      -9.717   8.903  70.862  1.00  0.00    -0.239 C  
HETATM    2  O   UNL     1     -10.804   8.610  69.989  1.00  0.00    -0.232 OA 
ENDROOT
BRANCH   2   3
HETATM    3  C   UNL     1     -10.459   8.123  68.746  1.00  0.00    -0.174 A  
HETATM    4  C   UNL     1     -10.371   6.706  68.642  1.00  0.00    -0.188 A  
HETATM    5  C   UNL     1     -10.052   6.105  67.413  1.00  0.00    -0.190 A  
HETATM    6  C   UNL     1      -8.472  10.380  63.889  1.00  0.00    -0.161 C  
HETATM    7  N   UNL     1     -10.243  10.337  65.279  1.00  0.00    -0.289 NA 
HETATM    8  C   UNL     1      -9.743   6.886  66.307  1.00  0.00    -0.049 A  
HETATM    9  C   UNL     1     -10.420  10.995  66.478  1.00  0.00    -0.257 A  
HETATM   10  C   UNL     1      -9.828   8.263  66.433  1.00  0.00    -0.283 A  
HETATM   11  C   UNL     1      -9.912  10.876  63.977  1.00  0.00    -0.344 C  
HETATM   12  C   UNL     1     -10.226   8.927  67.609  1.00  0.00    -0.237 A  
HETATM   13  N   UNL     1     -10.368  10.357  67.618  1.00  0.00    -0.204 NA 
HETATM   14  C   UNL     1      -9.519   9.158  65.334  1.00  0.00    -0.160 A  
HETATM   15  N   UNL     1      -8.515   9.009  64.500  1.00  0.00    -0.176 NA 
BRANCH   4  16
HETATM   16  O   UNL     1     -10.631   5.956  69.774  1.00  0.00    -0.243 OA 
BRANCH  16  17
HETATM   17  C   UNL     1     -10.007   4.661  69.804  1.00  0.00    -0.225 C  
BRANCH  17  18
HETATM   18  C   UNL     1      -8.814   4.686  70.758  1.00  0.00    -0.155 C  
BRANCH  18  19
HETATM   19  C   UNL     1      -8.781   3.466  71.695  1.00  0.00    -0.085 C  
BRANCH  19  20
HETATM   20  N   UNL     1      -8.450   3.784  73.095  1.00  0.00    -0.090 NA 
HETATM   21  O   UNL     1     -10.875   4.632  74.534  1.00  0.00    -0.339 OA 
HETATM   22  C   UNL     1      -8.745   5.188  73.464  1.00  0.00    -0.114 C  
HETATM   23  C   UNL     1      -9.182   2.911  74.046  1.00  0.00    -0.081 C  
HETATM   24  C   UNL     1     -10.676   3.253  74.197  1.00  0.00    -0.185 C  
HETATM   25  C   UNL     1     -10.248   5.490  73.573  1.00  0.00    -0.209 C  
ENDBRANCH  19  20
ENDBRANCH  18  19
ENDBRANCH  17  18
ENDBRANCH  16  17
ENDBRANCH   4  16
BRANCH   9  26
HETATM   26  N   UNL     1     -10.539  12.363  66.652  1.00  0.00    -0.228 N  
HETATM   27  O   UNL     1     -12.544  13.004  65.694  1.00  0.00    -0.505 OA 
HETATM   28  H   UNL     1      -9.831  12.764  67.267  1.00  0.00     0.000 HD 
HETATM   29  C   UNL     1     -11.441  13.296  66.148  1.00  0.00    -0.328 C  
BRANCH  29  30
HETATM   30  C   UNL     1     -11.083  14.733  66.258  1.00  0.00    -0.341 A  
HETATM   31  N   UNL     1     -10.676  16.775  67.476  1.00  0.00    -0.310 NA 
HETATM   32  C   UNL     1     -11.040  15.475  67.417  1.00  0.00    -0.285 A  
HETATM   33  C   UNL     1     -10.372  17.360  66.305  1.00  0.00    -0.330 A  
HETATM   34  N   UNL     1     -10.348  16.738  65.130  1.00  0.00    -0.637 NA 
HETATM   35  N   UNL     1      -9.990  18.689  66.345  1.00  0.00    -0.369 NA 
HETATM   36  H1  UNL     1      -9.759  19.133  65.456  1.00  0.00     0.000 HD 
HETATM   37  C   UNL     1     -10.713  15.437  65.129  1.00  0.00    -0.440 A  
HETATM   38  H2  UNL     1      -9.210  18.799  66.993  1.00  0.00     0.000 HD 
ENDBRANCH  29  30
ENDBRANCH   9  26
ENDBRANCH   2   3
TORSDOF 8
ENDMDL
MODEL       64
REMARK 921   NORMALIZED FREE ENERGY PREDICTED BY IDOCK:   -5.62 KCAL/MOL
REMARK 922        TOTAL FREE ENERGY PREDICTED BY IDOCK:   -9.45 KCAL/MOL
REMARK 923 INTER-LIGAND FREE ENERGY PREDICTED BY IDOCK:   -8.44 KCAL/MOL
REMARK 924 INTRA-LIGAND FREE ENERGY PREDICTED BY IDOCK:   -1.01 KCAL/MOL
REMARK 927      BINDING AFFINITY PREDICTED BY RF-SCORE:    0.00 PKD
ROOT
HETATM    1  C   UNL     1      -8.873  11.154  66.301  1.00  0.00    -0.185 C  
HETATM    2  O   UNL     1      -8.686  12.067  67.378  1.00  0.00    -0.156 OA 
ENDROOT
BRANCH   2   3
HETATM    3  C   UNL     1      -9.837  12.535  67.974  1.00  0.00    -0.214 A  
HETATM    4  C   UNL     1     -10.223  13.858  67.618  1.00  0.00    -0.242 A  
HETATM    5  C   UNL     1     -11.394  14.422  68.149  1.00  0.00    -0.317 A  
HETATM    6  C   UNL     1     -13.214  10.800  72.243  1.00  0.00    -0.067 C  
HETATM    7  N   UNL     1     -12.484  10.275  70.178  1.00  0.00    -0.173 NA 
HETATM    8  C   UNL     1     -12.148  13.727  69.086  1.00  0.00    -0.374 A  
HETATM    9  C   UNL     1     -11.283   9.712  69.800  1.00  0.00    -0.174 A  
HETATM   10  C   UNL     1     -11.751  12.442  69.423  1.00  0.00    -0.384 A  
HETATM   11  C   UNL     1     -13.466   9.792  71.126  1.00  0.00    -0.237 C  
HETATM   12  C   UNL     1     -10.638  11.786  68.864  1.00  0.00    -0.180 A  
HETATM   13  N   UNL     1     -10.355  10.420  69.212  1.00  0.00    -0.217 NA 
HETATM   14  C   UNL     1     -12.472  11.642  70.394  1.00  0.00    -0.221 A  
HETATM   15  N   UNL     1     -12.967  12.095  71.524  1.00  0.00    -0.360 NA 
BRANCH   4  16
HETATM   16  O   UNL     1      -9.423  14.548  66.725  1.00  0.00    -0.245 OA 
BRANCH  16  17
HETATM   17  C   UNL     1     -10.104  15.062  65.568  1.00  0.00    -0.369 C  
BRANCH  17  18
HETATM   18  C   UNL     1     -10.298  16.571  65.713  1.00  0.00    -0.359 C  
BRANCH  18  19
HETATM   19  C   UNL     1      -9.122  17.252  66.434  1.00  0.00    -0.253 C  
BRANCH  19  20
HETATM   20  N   UNL     1      -9.497  17.970  67.664  1.00  0.00    -0.261 NA 
HETATM   21  O   UNL     1      -9.446  20.875  67.188  1.00  0.00    -0.379 OA 
HETATM   22  C   UNL     1      -8.434  18.872  68.164  1.00  0.00    -0.309 C  
HETATM   23  C   UNL     1     -10.720  18.787  67.474  1.00  0.00    -0.411 C  
HETATM   24  C   UNL     1     -10.503  20.070  66.650  1.00  0.00    -0.395 C  
HETATM   25  C   UNL     1      -8.231  20.123  67.294  1.00  0.00    -0.336 C  
ENDBRANCH  19  20
ENDBRANCH  18  19
ENDBRANCH  17  18
ENDBRANCH  16  17
ENDBRANCH   4  16
BRANCH   9  26
HETATM   26  N   UNL     1     -10.854   8.427  70.088  1.00  0.00    -0.240 N  
HETATM   27  O   UNL     1     -10.366   8.358  72.347  1.00  0.00    -0.305 OA 
HETATM   28  H   UNL     1     -10.979   7.769  69.319  1.00  0.00     0.000 HD 
HETATM   29  C   UNL     1     -10.284   7.863  71.226  1.00  0.00    -0.187 C  
BRANCH  29  30
HETATM   30  C   UNL     1      -9.627   6.540  71.086  1.00  0.00    -0.181 A  
HETATM   31  N   UNL     1      -9.622   4.135  70.884  1.00  0.00    -0.166 NA 
HETATM   32  C   UNL     1     -10.259   5.317  71.046  1.00  0.00    -0.229 A  
HETATM   33  C   UNL     1      -8.283   4.192  70.789  1.00  0.00    -0.070 A  
HETATM   34  N   UNL     1      -7.568   5.313  70.783  1.00  0.00    -0.081 NA 
HETATM   35  N   UNL     1      -7.613   2.993  70.616  1.00  0.00    -0.040 NA 
HETATM   36  H1  UNL     1      -6.596   3.036  70.544  1.00  0.00     0.000 HD 
HETATM   37  C   UNL     1      -8.256   6.466  70.941  1.00  0.00    -0.125 A  
HETATM   38  H2  UNL     1      -7.992   2.507  69.803  1.00  0.00     0.000 HD 
ENDBRANCH  29  30
ENDBRANCH   9  26
ENDBRANCH   2   3
TORSDOF 8
ENDMDL
MODEL       65
REMARK 921   NORMALIZED FREE ENERGY PREDICTED BY IDOCK:   -5.62 KCAL/MOL
REMARK 922        TOTAL FREE ENERGY PREDICTED BY IDOCK:   -9.45 KCAL/MOL
REMARK 923 INTER-LIGAND FREE ENERGY PREDICTED BY IDOCK:   -8.54 KCAL/MOL
REMARK 924 INTRA-LIGAND FREE ENERGY PREDICTED BY IDOCK:   -0.91 KCAL/MOL
REMARK 927      BINDING AFFINITY PREDICTED BY RF-SCORE:    0.00 PKD
ROOT
HETATM    1  C   UNL     1      -6.961  10.311  70.373  1.00  0.00    -0.072 C  
HETATM    2  O   UNL     1      -8.047   9.540  70.877  1.00  0.00    -0.297 OA 
ENDROOT
BRANCH   2   3
HETATM    3  C   UNL     1      -8.048   8.206  70.531  1.00  0.00    -0.104 A  
HETATM    4  C   UNL     1      -7.591   7.307  71.536  1.00  0.00    -0.086 A  
HETATM    5  C   UNL     1      -7.575   5.924  71.295  1.00  0.00    -0.104 A  
HETATM    6  C   UNL     1      -8.711   5.252  65.686  1.00  0.00    -0.146 C  
HETATM    7  N   UNL     1      -9.762   6.612  67.141  1.00  0.00    -0.135 NA 
HETATM    8  C   UNL     1      -7.932   5.423  70.049  1.00  0.00    -0.082 A  
HETATM    9  C   UNL     1      -9.679   7.983  67.262  1.00  0.00    -0.177 A  
HETATM   10  C   UNL     1      -8.367   6.316  69.084  1.00  0.00    -0.120 A  
HETATM   11  C   UNL     1     -10.098   5.811  65.984  1.00  0.00     0.084 C  
HETATM   12  C   UNL     1      -8.490   7.704  69.288  1.00  0.00    -0.138 A  
HETATM   13  N   UNL     1      -9.034   8.541  68.253  1.00  0.00    -0.139 NA 
HETATM   14  C   UNL     1      -8.755   5.886  67.754  1.00  0.00    -0.104 A  
HETATM   15  N   UNL     1      -8.124   4.980  67.041  1.00  0.00    -0.107 NA 
BRANCH   4  16
HETATM   16  O   UNL     1      -7.191   7.839  72.748  1.00  0.00    -0.072 OA 
BRANCH  16  17
HETATM   17  C   UNL     1      -8.253   8.102  73.679  1.00  0.00    -0.231 C  
BRANCH  17  18
HETATM   18  C   UNL     1      -9.358   7.061  73.508  1.00  0.00    -0.211 C  
BRANCH  18  19
HETATM   19  C   UNL     1     -10.741   7.698  73.287  1.00  0.00    -0.350 C  
BRANCH  19  20
HETATM   20  N   UNL     1     -11.026   8.062  71.888  1.00  0.00    -0.248 NA 
HETATM   21  O   UNL     1     -13.917   8.492  71.529  1.00  0.00    -0.382 OA 
HETATM   22  C   UNL     1     -11.927   7.105  71.205  1.00  0.00    -0.342 C  
HETATM   23  C   UNL     1     -11.644   9.406  71.783  1.00  0.00    -0.363 C  
HETATM   24  C   UNL     1     -13.119   9.461  72.222  1.00  0.00    -0.428 C  
HETATM   25  C   UNL     1     -13.381   7.174  71.696  1.00  0.00    -0.331 C  
ENDBRANCH  19  20
ENDBRANCH  18  19
ENDBRANCH  17  18
ENDBRANCH  16  17
ENDBRANCH   4  16
BRANCH   9  26
HETATM   26  N   UNL     1     -10.125   8.915  66.341  1.00  0.00    -0.292 N  
HETATM   27  O   UNL     1      -8.325   9.462  64.996  1.00  0.00    -0.133 OA 
HETATM   28  H   UNL     1     -11.136   9.049  66.345  1.00  0.00     0.000 HD 
HETATM   29  C   UNL     1      -9.455   9.705  65.410  1.00  0.00    -0.278 C  
BRANCH  29  30
HETATM   30  C   UNL     1     -10.193  10.846  64.814  1.00  0.00    -0.398 A  
HETATM   31  N   UNL     1     -10.956  12.209  62.975  1.00  0.00    -0.148 NA 
HETATM   32  C   UNL     1     -10.242  11.177  63.478  1.00  0.00    -0.390 A  
HETATM   33  C   UNL     1     -11.625  12.958  63.867  1.00  0.00    -0.453 A  
HETATM   34  N   UNL     1     -11.677  12.718  65.173  1.00  0.00    -0.341 NA 
HETATM   35  N   UNL     1     -12.367  14.015  63.370  1.00  0.00    -1.154 NA 
HETATM   36  H1  UNL     1     -12.875  14.585  64.047  1.00  0.00     0.000 HD 
HETATM   37  C   UNL     1     -10.951  11.670  65.622  1.00  0.00    -0.266 A  
HETATM   38  H2  UNL     1     -13.014  13.672  62.660  1.00  0.00     0.000 HD 
ENDBRANCH  29  30
ENDBRANCH   9  26
ENDBRANCH   2   3
TORSDOF 8
ENDMDL
MODEL       66
REMARK 921   NORMALIZED FREE ENERGY PREDICTED BY IDOCK:   -5.62 KCAL/MOL
REMARK 922        TOTAL FREE ENERGY PREDICTED BY IDOCK:   -9.45 KCAL/MOL
REMARK 923 INTER-LIGAND FREE ENERGY PREDICTED BY IDOCK:   -7.87 KCAL/MOL
REMARK 924 INTRA-LIGAND FREE ENERGY PREDICTED BY IDOCK:   -1.58 KCAL/MOL
REMARK 927      BINDING AFFINITY PREDICTED BY RF-SCORE:    0.00 PKD
ROOT
HETATM    1  C   UNL     1      -9.910  10.009  65.096  1.00  0.00    -0.318 C  
HETATM    2  O   UNL     1     -10.187   9.753  66.470  1.00  0.00    -0.232 OA 
ENDROOT
BRANCH   2   3
HETATM    3  C   UNL     1      -9.086   9.603  67.285  1.00  0.00    -0.134 A  
HETATM    4  C   UNL     1      -8.716   8.261  67.582  1.00  0.00    -0.133 A  
HETATM    5  C   UNL     1      -7.594   7.996  68.384  1.00  0.00    -0.108 A  
HETATM    6  C   UNL     1      -5.919  13.069  70.540  1.00  0.00    -0.084 C  
HETATM    7  N   UNL     1      -6.513  12.615  68.416  1.00  0.00    -0.072 NA 
HETATM    8  C   UNL     1      -6.878   9.038  68.958  1.00  0.00    -0.055 A  
HETATM    9  C   UNL     1      -7.673  12.947  67.750  1.00  0.00    -0.151 A  
HETATM   10  C   UNL     1      -7.259  10.337  68.661  1.00  0.00    -0.081 A  
HETATM   11  C   UNL     1      -5.575  13.472  69.110  1.00  0.00    -0.075 C  
HETATM   12  C   UNL     1      -8.318  10.672  67.797  1.00  0.00    -0.115 A  
HETATM   13  N   UNL     1      -8.584  12.049  67.480  1.00  0.00    -0.159 NA 
HETATM   14  C   UNL     1      -6.574  11.488  69.218  1.00  0.00    -0.113 A  
HETATM   15  N   UNL     1      -6.159  11.589  70.461  1.00  0.00    -0.307 NA 
BRANCH   4  16
HETATM   16  O   UNL     1      -9.480   7.243  67.040  1.00  0.00    -0.142 OA 
BRANCH  16  17
HETATM   17  C   UNL     1      -9.673   6.104  67.895  1.00  0.00    -0.116 C  
BRANCH  17  18
HETATM   18  C   UNL     1     -11.014   6.223  68.618  1.00  0.00    -0.423 C  
BRANCH  18  19
HETATM   19  C   UNL     1     -10.881   6.061  70.142  1.00  0.00    -0.339 C  
BRANCH  19  20
HETATM   20  N   UNL     1     -11.658   7.035  70.927  1.00  0.00    -0.311 NA 
HETATM   21  O   UNL     1      -9.846   8.698  72.547  1.00  0.00    -0.285 OA 
HETATM   22  C   UNL     1     -11.483   6.884  72.390  1.00  0.00    -0.259 C  
HETATM   23  C   UNL     1     -11.303   8.433  70.579  1.00  0.00    -0.216 C  
HETATM   24  C   UNL     1      -9.942   8.897  71.131  1.00  0.00    -0.272 C  
HETATM   25  C   UNL     1     -10.100   7.330  72.891  1.00  0.00    -0.227 C  
ENDBRANCH  19  20
ENDBRANCH  18  19
ENDBRANCH  17  18
ENDBRANCH  16  17
ENDBRANCH   4  16
BRANCH   9  26
HETATM   26  N   UNL     1      -8.084  14.224  67.406  1.00  0.00    -0.189 N  
HETATM   27  O   UNL     1      -8.930  15.210  69.318  1.00  0.00    -0.218 OA 
HETATM   28  H   UNL     1      -7.804  14.508  66.467  1.00  0.00     0.000 HD 
HETATM   29  C   UNL     1      -8.805  15.194  68.097  1.00  0.00    -0.169 C  
BRANCH  29  30
HETATM   30  C   UNL     1      -9.368  16.323  67.316  1.00  0.00    -0.231 A  
HETATM   31  N   UNL     1     -10.372  17.314  65.358  1.00  0.00    -0.639 NA 
HETATM   32  C   UNL     1      -9.836  16.265  66.022  1.00  0.00    -0.343 A  
HETATM   33  C   UNL     1     -10.408  18.481  66.024  1.00  0.00    -0.393 A  
HETATM   34  N   UNL     1     -10.016  18.650  67.283  1.00  0.00    -0.315 NA 
HETATM   35  N   UNL     1     -10.960  19.565  65.364  1.00  0.00    -0.369 NA 
HETATM   36  H1  UNL     1     -10.987  20.451  65.869  1.00  0.00     0.000 HD 
HETATM   37  C   UNL     1      -9.494  17.567  67.901  1.00  0.00    -0.277 A  
HETATM   38  H2  UNL     1     -11.899  19.326  65.044  1.00  0.00     0.000 HD 
ENDBRANCH  29  30
ENDBRANCH   9  26
ENDBRANCH   2   3
TORSDOF 8
ENDMDL
MODEL       67
REMARK 921   NORMALIZED FREE ENERGY PREDICTED BY IDOCK:   -5.61 KCAL/MOL
REMARK 922        TOTAL FREE ENERGY PREDICTED BY IDOCK:   -9.43 KCAL/MOL
REMARK 923 INTER-LIGAND FREE ENERGY PREDICTED BY IDOCK:   -8.74 KCAL/MOL
REMARK 924 INTRA-LIGAND FREE ENERGY PREDICTED BY IDOCK:   -0.69 KCAL/MOL
REMARK 927      BINDING AFFINITY PREDICTED BY RF-SCORE:    0.00 PKD
ROOT
HETATM    1  C   UNL     1      -9.955  11.958  66.427  1.00  0.00    -0.213 C  
HETATM    2  O   UNL     1      -9.443  11.533  67.686  1.00  0.00    -0.163 OA 
ENDROOT
BRANCH   2   3
HETATM    3  C   UNL     1     -10.350  11.512  68.725  1.00  0.00    -0.196 A  
HETATM    4  C   UNL     1     -10.684  10.221  69.225  1.00  0.00    -0.234 A  
HETATM    5  C   UNL     1     -11.579  10.089  70.300  1.00  0.00    -0.354 A  
HETATM    6  C   UNL     1     -13.842  15.315  71.168  1.00  0.00    -0.417 C  
HETATM    7  N   UNL     1     -11.677  14.804  70.815  1.00  0.00    -0.296 NA 
HETATM    8  C   UNL     1     -12.206  11.206  70.836  1.00  0.00    -0.468 A  
HETATM    9  C   UNL     1     -10.914  14.998  69.683  1.00  0.00    -0.279 A  
HETATM   10  C   UNL     1     -11.870  12.452  70.328  1.00  0.00    -0.315 A  
HETATM   11  C   UNL     1     -12.443  15.763  71.581  1.00  0.00    -0.463 C  
HETATM   12  C   UNL     1     -10.918  12.662  69.313  1.00  0.00    -0.066 A  
HETATM   13  N   UNL     1     -10.573  13.999  68.912  1.00  0.00    -0.245 NA 
HETATM   14  C   UNL     1     -12.477  13.673  70.821  1.00  0.00    -0.359 A  
HETATM   15  N   UNL     1     -13.750  13.817  71.115  1.00  0.00    -0.056 NA 
BRANCH   4  16
HETATM   16  O   UNL     1     -10.085   9.123  68.637  1.00  0.00    -0.181 OA 
BRANCH  16  17
HETATM   17  C   UNL     1     -10.907   8.410  67.698  1.00  0.00    -0.008 C  
BRANCH  17  18
HETATM   18  C   UNL     1     -10.034   7.503  66.832  1.00  0.00    -0.318 C  
BRANCH  18  19
HETATM   19  C   UNL     1      -8.531   7.709  67.089  1.00  0.00    -0.121 C  
BRANCH  19  20
HETATM   20  N   UNL     1      -7.654   7.124  66.062  1.00  0.00    -0.086 NA 
HETATM   21  O   UNL     1      -5.965   9.221  64.869  1.00  0.00    -0.062 OA 
HETATM   22  C   UNL     1      -7.871   7.694  64.711  1.00  0.00    -0.129 C  
HETATM   23  C   UNL     1      -6.219   7.304  66.394  1.00  0.00    -0.040 C  
HETATM   24  C   UNL     1      -5.697   8.739  66.192  1.00  0.00    -0.046 C  
HETATM   25  C   UNL     1      -7.363   9.137  64.565  1.00  0.00    -0.099 C  
ENDBRANCH  19  20
ENDBRANCH  18  19
ENDBRANCH  17  18
ENDBRANCH  16  17
ENDBRANCH   4  16
BRANCH   9  26
HETATM   26  N   UNL     1     -10.530  16.218  69.154  1.00  0.00    -0.259 N  
HETATM   27  O   UNL     1     -10.948  16.141  66.881  1.00  0.00    -0.237 OA 
HETATM   28  H   UNL     1     -10.296  16.919  69.858  1.00  0.00     0.000 HD 
HETATM   29  C   UNL     1     -10.401  16.672  67.844  1.00  0.00    -0.310 C  
BRANCH  29  30
HETATM   30  C   UNL     1      -9.640  17.925  67.619  1.00  0.00    -0.270 A  
HETATM   31  N   UNL     1      -9.149  19.982  66.455  1.00  0.00    -0.363 NA 
HETATM   32  C   UNL     1      -9.847  18.834  66.604  1.00  0.00    -0.356 A  
HETATM   33  C   UNL     1      -8.177  20.206  67.356  1.00  0.00    -0.340 A  
HETATM   34  N   UNL     1      -7.906  19.419  68.393  1.00  0.00    -0.331 NA 
HETATM   35  N   UNL     1      -7.456  21.380  67.224  1.00  0.00    -0.750 NA 
HETATM   36  H1  UNL     1      -6.718  21.550  67.908  1.00  0.00     0.000 HD 
HETATM   37  C   UNL     1      -8.639  18.288  68.498  1.00  0.00    -0.306 A  
HETATM   38  H2  UNL     1      -8.098  22.173  67.212  1.00  0.00     0.000 HD 
ENDBRANCH  29  30
ENDBRANCH   9  26
ENDBRANCH   2   3
TORSDOF 8
ENDMDL
MODEL       68
REMARK 921   NORMALIZED FREE ENERGY PREDICTED BY IDOCK:   -5.58 KCAL/MOL
REMARK 922        TOTAL FREE ENERGY PREDICTED BY IDOCK:   -9.40 KCAL/MOL
REMARK 923 INTER-LIGAND FREE ENERGY PREDICTED BY IDOCK:   -8.39 KCAL/MOL
REMARK 924 INTRA-LIGAND FREE ENERGY PREDICTED BY IDOCK:   -1.01 KCAL/MOL
REMARK 927      BINDING AFFINITY PREDICTED BY RF-SCORE:    0.00 PKD
ROOT
HETATM    1  C   UNL     1     -11.666  12.639  66.409  1.00  0.00    -0.405 C  
HETATM    2  O   UNL     1     -10.874  12.935  67.556  1.00  0.00    -0.230 OA 
ENDROOT
BRANCH   2   3
HETATM    3  C   UNL     1     -11.325  12.410  68.748  1.00  0.00    -0.293 A  
HETATM    4  C   UNL     1     -12.076  13.299  69.568  1.00  0.00    -0.258 A  
HETATM    5  C   UNL     1     -12.604  12.858  70.792  1.00  0.00    -0.314 A  
HETATM    6  C   UNL     1     -10.319   7.656  71.751  1.00  0.00    -0.197 C  
HETATM    7  N   UNL     1     -11.183   8.436  69.824  1.00  0.00    -0.055 NA 
HETATM    8  C   UNL     1     -12.336  11.575  71.252  1.00  0.00    -0.314 A  
HETATM    9  C   UNL     1     -10.527   8.839  68.680  1.00  0.00    -0.183 A  
HETATM   10  C   UNL     1     -11.598  10.728  70.440  1.00  0.00    -0.431 A  
HETATM   11  C   UNL     1     -11.102   7.178  70.533  1.00  0.00    -0.271 C  
HETATM   12  C   UNL     1     -11.114  11.078  69.166  1.00  0.00    -0.243 A  
HETATM   13  N   UNL     1     -10.431  10.104  68.360  1.00  0.00    -0.196 NA 
HETATM   14  C   UNL     1     -11.265   9.374  70.839  1.00  0.00    -0.325 A  
HETATM   15  N   UNL     1     -10.887   9.015  72.046  1.00  0.00    -0.338 NA 
BRANCH   4  16
HETATM   16  O   UNL     1     -12.280  14.588  69.110  1.00  0.00    -0.284 OA 
BRANCH  16  17
HETATM   17  C   UNL     1     -11.691  15.623  69.914  1.00  0.00    -0.362 C  
BRANCH  17  18
HETATM   18  C   UNL     1     -10.171  15.475  69.912  1.00  0.00    -0.305 C  
BRANCH  18  19
HETATM   19  C   UNL     1      -9.478  16.508  69.006  1.00  0.00    -0.249 C  
BRANCH  19  20
HETATM   20  N   UNL     1     -10.379  17.532  68.452  1.00  0.00    -0.361 NA 
HETATM   21  O   UNL     1      -8.842  19.460  66.842  1.00  0.00    -0.284 OA 
HETATM   22  C   UNL     1     -10.050  18.907  68.897  1.00  0.00    -0.311 C  
HETATM   23  C   UNL     1     -10.369  17.532  66.969  1.00  0.00    -0.324 C  
HETATM   24  C   UNL     1      -9.100  18.141  66.344  1.00  0.00    -0.241 C  
HETATM   25  C   UNL     1      -8.760  19.461  68.273  1.00  0.00    -0.334 C  
ENDBRANCH  19  20
ENDBRANCH  18  19
ENDBRANCH  17  18
ENDBRANCH  16  17
ENDBRANCH   4  16
BRANCH   9  26
HETATM   26  N   UNL     1      -9.802   8.029  67.823  1.00  0.00    -0.157 N  
HETATM   27  O   UNL     1     -11.308   6.627  66.769  1.00  0.00    -0.270 OA 
HETATM   28  H   UNL     1      -8.825   8.304  67.723  1.00  0.00     0.000 HD 
HETATM   29  C   UNL     1     -10.153   6.911  67.071  1.00  0.00    -0.221 C  
BRANCH  29  30
HETATM   30  C   UNL     1      -9.055   6.074  66.525  1.00  0.00    -0.153 A  
HETATM   31  N   UNL     1      -7.773   4.039  66.335  1.00  0.00    -0.089 NA 
HETATM   32  C   UNL     1      -8.764   4.777  66.884  1.00  0.00    -0.107 A  
HETATM   33  C   UNL     1      -7.023   4.652  65.404  1.00  0.00    -0.062 A  
HETATM   34  N   UNL     1      -7.228   5.887  64.956  1.00  0.00    -0.064 NA 
HETATM   35  N   UNL     1      -6.007   3.911  64.826  1.00  0.00    -0.022 NA 
HETATM   36  H1  UNL     1      -5.438   4.377  64.119  1.00  0.00     0.000 HD 
HETATM   37  C   UNL     1      -8.237   6.577  65.533  1.00  0.00    -0.138 A  
HETATM   38  H2  UNL     1      -6.393   3.050  64.439  1.00  0.00     0.000 HD 
ENDBRANCH  29  30
ENDBRANCH   9  26
ENDBRANCH   2   3
TORSDOF 8
ENDMDL
MODEL       69
REMARK 921   NORMALIZED FREE ENERGY PREDICTED BY IDOCK:   -5.46 KCAL/MOL
REMARK 922        TOTAL FREE ENERGY PREDICTED BY IDOCK:   -9.22 KCAL/MOL
REMARK 923 INTER-LIGAND FREE ENERGY PREDICTED BY IDOCK:   -7.95 KCAL/MOL
REMARK 924 INTRA-LIGAND FREE ENERGY PREDICTED BY IDOCK:   -1.27 KCAL/MOL
REMARK 927      BINDING AFFINITY PREDICTED BY RF-SCORE:    0.00 PKD
ROOT
HETATM    1  C   UNL     1      -8.666   7.918  67.281  1.00  0.00    -0.131 C  
HETATM    2  O   UNL     1      -8.268   7.960  68.649  1.00  0.00    -0.124 OA 
ENDROOT
BRANCH   2   3
HETATM    3  C   UNL     1      -9.191   7.487  69.556  1.00  0.00    -0.146 A  
HETATM    4  C   UNL     1      -8.999   6.143  69.988  1.00  0.00    -0.147 A  
HETATM    5  C   UNL     1      -9.869   5.572  70.931  1.00  0.00    -0.241 A  
HETATM    6  C   UNL     1     -14.223   9.291  71.570  1.00  0.00    -0.053 C  
HETATM    7  N   UNL     1     -12.022   9.761  71.501  1.00  0.00    -0.395 NA 
HETATM    8  C   UNL     1     -10.969   6.282  71.395  1.00  0.00    -0.327 A  
HETATM    9  C   UNL     1     -11.290  10.337  70.485  1.00  0.00    -0.341 A  
HETATM   10  C   UNL     1     -11.139   7.586  70.957  1.00  0.00    -0.274 A  
HETATM   11  C   UNL     1     -13.205  10.253  72.173  1.00  0.00    -0.340 C  
HETATM   12  C   UNL     1     -10.258   8.248  70.081  1.00  0.00    -0.199 A  
HETATM   13  N   UNL     1     -10.471   9.630  69.750  1.00  0.00    -0.221 NA 
HETATM   14  C   UNL     1     -12.260   8.402  71.383  1.00  0.00    -0.302 A  
HETATM   15  N   UNL     1     -13.498   7.977  71.507  1.00  0.00    -0.316 NA 
BRANCH   4  16
HETATM   16  O   UNL     1      -7.928   5.442  69.467  1.00  0.00    -0.086 OA 
BRANCH  16  17
HETATM   17  C   UNL     1      -7.375   4.439  70.336  1.00  0.00    -0.049 C  
BRANCH  17  18
HETATM   18  C   UNL     1      -6.154   5.001  71.061  1.00  0.00    -0.018 C  
BRANCH  18  19
HETATM   19  C   UNL     1      -6.449   5.357  72.529  1.00  0.00    -0.056 C  
BRANCH  19  20
HETATM   20  N   UNL     1      -5.633   6.461  73.063  1.00  0.00    -0.037 NA 
HETATM   21  O   UNL     1      -7.222   8.939  73.144  1.00  0.00    -0.348 OA 
HETATM   22  C   UNL     1      -5.467   7.582  72.109  1.00  0.00    -0.036 C  
HETATM   23  C   UNL     1      -6.210   7.020  74.310  1.00  0.00    -0.074 C  
HETATM   24  C   UNL     1      -7.461   7.892  74.094  1.00  0.00    -0.162 C  
HETATM   25  C   UNL     1      -6.748   8.405  71.901  1.00  0.00    -0.081 C  
ENDBRANCH  19  20
ENDBRANCH  18  19
ENDBRANCH  17  18
ENDBRANCH  16  17
ENDBRANCH   4  16
BRANCH   9  26
HETATM   26  N   UNL     1     -11.403  11.640  70.031  1.00  0.00    -0.499 N  
HETATM   27  O   UNL     1     -12.345  11.550  67.921  1.00  0.00    -0.390 OA 
HETATM   28  H   UNL     1     -11.202  12.344  70.741  1.00  0.00     0.000 HD 
HETATM   29  C   UNL     1     -11.740  12.173  68.789  1.00  0.00    -0.321 C  
BRANCH  29  30
HETATM   30  C   UNL     1     -11.436  13.605  68.546  1.00  0.00    -0.347 A  
HETATM   31  N   UNL     1     -10.983  15.515  67.143  1.00  0.00    -0.317 NA 
HETATM   32  C   UNL     1     -11.226  14.197  67.320  1.00  0.00    -0.316 A  
HETATM   33  C   UNL     1     -10.919  16.262  68.258  1.00  0.00    -0.348 A  
HETATM   34  N   UNL     1     -11.134  15.808  69.489  1.00  0.00    -0.280 NA 
HETATM   35  N   UNL     1     -10.678  17.614  68.096  1.00  0.00    -0.354 NA 
HETATM   36  H1  UNL     1     -10.629  18.182  68.943  1.00  0.00     0.000 HD 
HETATM   37  C   UNL     1     -11.380  14.484  69.609  1.00  0.00    -0.273 A  
HETATM   38  H2  UNL     1     -11.372  18.010  67.462  1.00  0.00     0.000 HD 
ENDBRANCH  29  30
ENDBRANCH   9  26
ENDBRANCH   2   3
TORSDOF 8
ENDMDL
MODEL       70
REMARK 921   NORMALIZED FREE ENERGY PREDICTED BY IDOCK:   -5.46 KCAL/MOL
REMARK 922        TOTAL FREE ENERGY PREDICTED BY IDOCK:   -9.21 KCAL/MOL
REMARK 923 INTER-LIGAND FREE ENERGY PREDICTED BY IDOCK:   -9.35 KCAL/MOL
REMARK 924 INTRA-LIGAND FREE ENERGY PREDICTED BY IDOCK:    0.14 KCAL/MOL
REMARK 927      BINDING AFFINITY PREDICTED BY RF-SCORE:    0.00 PKD
ROOT
HETATM    1  C   UNL     1      -8.049  13.195  67.704  1.00  0.00    -0.176 C  
HETATM    2  O   UNL     1      -9.013  13.960  66.986  1.00  0.00    -0.227 OA 
ENDROOT
BRANCH   2   3
HETATM    3  C   UNL     1      -9.586  15.005  67.679  1.00  0.00    -0.203 A  
HETATM    4  C   UNL     1      -9.203  16.310  67.254  1.00  0.00    -0.208 A  
HETATM    5  C   UNL     1      -9.748  17.445  67.877  1.00  0.00    -0.272 A  
HETATM    6  C   UNL     1     -12.628  15.532  72.485  1.00  0.00    -0.403 C  
HETATM    7  N   UNL     1     -12.660  14.679  70.401  1.00  0.00    -0.349 NA 
HETATM    8  C   UNL     1     -10.604  17.310  68.962  1.00  0.00    -0.247 A  
HETATM    9  C   UNL     1     -12.067  13.528  69.926  1.00  0.00    -0.341 A  
HETATM   10  C   UNL     1     -10.958  16.031  69.362  1.00  0.00    -0.321 A  
HETATM   11  C   UNL     1     -13.578  14.849  71.506  1.00  0.00    -0.429 C  
HETATM   12  C   UNL     1     -10.518  14.854  68.728  1.00  0.00    -0.242 A  
HETATM   13  N   UNL     1     -11.008  13.574  69.162  1.00  0.00    -0.216 NA 
HETATM   14  C   UNL     1     -11.842  15.792  70.487  1.00  0.00    -0.375 A  
HETATM   15  N   UNL     1     -11.808  16.449  71.625  1.00  0.00    -0.406 NA 
BRANCH   4  16
HETATM   16  O   UNL     1      -8.307  16.413  66.207  1.00  0.00    -0.302 OA 
BRANCH  16  17
HETATM   17  C   UNL     1      -6.950  16.695  66.591  1.00  0.00    -0.208 C  
BRANCH  17  18
HETATM   18  C   UNL     1      -6.358  17.748  65.656  1.00  0.00    -0.151 C  
BRANCH  18  19
HETATM   19  C   UNL     1      -5.365  18.682  66.369  1.00  0.00    -0.143 C  
BRANCH  19  20
HETATM   20  N   UNL     1      -5.520  20.107  66.031  1.00  0.00    -0.170 NA 
HETATM   21  O   UNL     1      -7.844  21.229  67.450  1.00  0.00    -0.312 OA 
HETATM   22  C   UNL     1      -6.815  20.418  65.382  1.00  0.00    -0.252 C  
HETATM   23  C   UNL     1      -5.404  20.973  67.229  1.00  0.00    -0.227 C  
HETATM   24  C   UNL     1      -6.632  20.938  68.158  1.00  0.00    -0.216 C  
HETATM   25  C   UNL     1      -8.015  20.340  66.339  1.00  0.00    -0.198 C  
ENDBRANCH  19  20
ENDBRANCH  18  19
ENDBRANCH  17  18
ENDBRANCH  16  17
ENDBRANCH   4  16
BRANCH   9  26
HETATM   26  N   UNL     1     -12.403  12.230  70.273  1.00  0.00    -0.239 N  
HETATM   27  O   UNL     1     -13.095  12.269  72.479  1.00  0.00    -0.254 OA 
HETATM   28  H   UNL     1     -12.421  11.583  69.485  1.00  0.00     0.000 HD 
HETATM   29  C   UNL     1     -12.720  11.640  71.494  1.00  0.00    -0.318 C  
BRANCH  29  30
HETATM   30  C   UNL     1     -12.696  10.158  71.571  1.00  0.00    -0.541 A  
HETATM   31  N   UNL     1     -13.697   7.966  71.439  1.00  0.00    -0.300 NA 
HETATM   32  C   UNL     1     -13.771   9.315  71.393  1.00  0.00    -0.261 A  
HETATM   33  C   UNL     1     -12.487   7.447  71.710  1.00  0.00    -0.336 A  
HETATM   34  N   UNL     1     -11.375   8.158  71.869  1.00  0.00    -0.277 NA 
HETATM   35  N   UNL     1     -12.391   6.068  71.755  1.00  0.00     0.052 NA 
HETATM   36  H1  UNL     1     -11.472   5.674  71.960  1.00  0.00     0.000 HD 
HETATM   37  C   UNL     1     -11.504   9.502  71.806  1.00  0.00    -0.279 A  
HETATM   38  H2  UNL     1     -12.743   5.674  70.882  1.00  0.00     0.000 HD 
ENDBRANCH  29  30
ENDBRANCH   9  26
ENDBRANCH   2   3
TORSDOF 8
ENDMDL
MODEL       71
REMARK 921   NORMALIZED FREE ENERGY PREDICTED BY IDOCK:   -5.45 KCAL/MOL
REMARK 922        TOTAL FREE ENERGY PREDICTED BY IDOCK:   -9.21 KCAL/MOL
REMARK 923 INTER-LIGAND FREE ENERGY PREDICTED BY IDOCK:   -8.23 KCAL/MOL
REMARK 924 INTRA-LIGAND FREE ENERGY PREDICTED BY IDOCK:   -0.98 KCAL/MOL
REMARK 927      BINDING AFFINITY PREDICTED BY RF-SCORE:    0.00 PKD
ROOT
HETATM    1  C   UNL     1     -11.342   6.629  71.052  1.00  0.00    -0.315 C  
HETATM    2  O   UNL     1     -11.529   6.638  69.639  1.00  0.00    -0.338 OA 
ENDROOT
BRANCH   2   3
HETATM    3  C   UNL     1     -10.462   7.097  68.896  1.00  0.00    -0.207 A  
HETATM    4  C   UNL     1      -9.764   6.110  68.144  1.00  0.00    -0.120 A  
HETATM    5  C   UNL     1      -8.677   6.475  67.334  1.00  0.00    -0.117 A  
HETATM    6  C   UNL     1      -7.501  11.973  68.594  1.00  0.00    -0.113 C  
HETATM    7  N   UNL     1      -9.526  11.054  68.239  1.00  0.00    -0.165 NA 
HETATM    8  C   UNL     1      -8.223   7.788  67.315  1.00  0.00    -0.119 A  
HETATM    9  C   UNL     1     -10.512  10.747  69.153  1.00  0.00    -0.218 A  
HETATM   10  C   UNL     1      -8.914   8.731  68.059  1.00  0.00    -0.141 A  
HETATM   11  C   UNL     1      -8.861  12.316  67.995  1.00  0.00    -0.182 C  
HETATM   12  C   UNL     1     -10.061   8.449  68.824  1.00  0.00    -0.196 A  
HETATM   13  N   UNL     1     -10.762   9.510  69.495  1.00  0.00    -0.224 NA 
HETATM   14  C   UNL     1      -8.510  10.123  68.105  1.00  0.00    -0.118 A  
HETATM   15  N   UNL     1      -7.268  10.545  68.189  1.00  0.00    -0.085 NA 
BRANCH   4  16
HETATM   16  O   UNL     1     -10.205   4.802  68.225  1.00  0.00    -0.093 OA 
BRANCH  16  17
HETATM   17  C   UNL     1      -9.716   3.929  67.193  1.00  0.00    -0.139 C  
BRANCH  17  18
HETATM   18  C   UNL     1      -9.242   2.615  67.812  1.00  0.00    -0.244 C  
BRANCH  18  19
HETATM   19  C   UNL     1      -8.062   2.808  68.780  1.00  0.00    -0.055 C  
BRANCH  19  20
HETATM   20  N   UNL     1      -8.138   1.988  70.001  1.00  0.00    -0.041 NA 
HETATM   21  O   UNL     1      -8.671   3.704  72.334  1.00  0.00    -0.088 OA 
HETATM   22  C   UNL     1      -7.119   2.349  71.015  1.00  0.00    -0.033 C  
HETATM   23  C   UNL     1      -9.467   2.090  70.652  1.00  0.00    -0.112 C  
HETATM   24  C   UNL     1      -9.711   3.420  71.389  1.00  0.00    -0.164 C  
HETATM   25  C   UNL     1      -7.386   3.697  71.700  1.00  0.00    -0.051 C  
ENDBRANCH  19  20
ENDBRANCH  18  19
ENDBRANCH  17  18
ENDBRANCH  16  17
ENDBRANCH   4  16
BRANCH   9  26
HETATM   26  N   UNL     1     -11.248  11.652  69.899  1.00  0.00    -0.486 N  
HETATM   27  O   UNL     1     -12.101  13.218  68.428  1.00  0.00    -0.333 OA 
HETATM   28  H   UNL     1     -11.383  11.373  70.871  1.00  0.00     0.000 HD 
HETATM   29  C   UNL     1     -11.839  12.871  69.575  1.00  0.00    -0.320 C  
BRANCH  29  30
HETATM   30  C   UNL     1     -12.262  13.751  70.693  1.00  0.00    -0.434 A  
HETATM   31  N   UNL     1     -12.200  15.784  71.991  1.00  0.00    -0.419 NA 
HETATM   32  C   UNL     1     -11.761  15.001  70.980  1.00  0.00    -0.332 A  
HETATM   33  C   UNL     1     -13.169  15.265  72.765  1.00  0.00    -0.482 A  
HETATM   34  N   UNL     1     -13.750  14.086  72.566  1.00  0.00    -0.615 NA 
HETATM   35  N   UNL     1     -13.637  16.054  73.801  1.00  0.00    -0.814 NA 
HETATM   36  H1  UNL     1     -14.372  15.660  74.389  1.00  0.00     0.000 HD 
HETATM   37  C   UNL     1     -13.277  13.347  71.538  1.00  0.00    -0.312 A  
HETATM   38  H2  UNL     1     -13.942  16.954  73.431  1.00  0.00     0.000 HD 
ENDBRANCH  29  30
ENDBRANCH   9  26
ENDBRANCH   2   3
TORSDOF 8
ENDMDL
MODEL       72
REMARK 921   NORMALIZED FREE ENERGY PREDICTED BY IDOCK:   -5.42 KCAL/MOL
REMARK 922        TOTAL FREE ENERGY PREDICTED BY IDOCK:   -9.16 KCAL/MOL
REMARK 923 INTER-LIGAND FREE ENERGY PREDICTED BY IDOCK:   -8.03 KCAL/MOL
REMARK 924 INTRA-LIGAND FREE ENERGY PREDICTED BY IDOCK:   -1.12 KCAL/MOL
REMARK 927      BINDING AFFINITY PREDICTED BY RF-SCORE:    0.00 PKD
ROOT
HETATM    1  C   UNL     1      -9.806   9.707  70.643  1.00  0.00    -0.200 C  
HETATM    2  O   UNL     1      -8.678   9.478  69.803  1.00  0.00    -0.158 OA 
ENDROOT
BRANCH   2   3
HETATM    3  C   UNL     1      -8.956   8.982  68.548  1.00  0.00    -0.133 A  
HETATM    4  C   UNL     1      -8.918   7.564  68.422  1.00  0.00    -0.128 A  
HETATM    5  C   UNL     1      -9.211   6.954  67.192  1.00  0.00    -0.153 A  
HETATM    6  C   UNL     1      -9.508  11.206  63.315  1.00  0.00    -0.332 C  
HETATM    7  N   UNL     1     -10.414  11.169  65.375  1.00  0.00    -0.268 NA 
HETATM    8  C   UNL     1      -9.465   7.727  66.066  1.00  0.00    -0.058 A  
HETATM    9  C   UNL     1     -10.010  11.836  66.513  1.00  0.00    -0.204 A  
HETATM   10  C   UNL     1      -9.491   9.105  66.209  1.00  0.00    -0.299 A  
HETATM   11  C   UNL     1     -10.739  11.697  64.068  1.00  0.00    -0.384 C  
HETATM   12  C   UNL     1      -9.292   9.777  67.430  1.00  0.00    -0.134 A  
HETATM   13  N   UNL     1      -9.423  11.207  67.498  1.00  0.00    -0.167 NA 
HETATM   14  C   UNL     1      -9.742   9.993  65.090  1.00  0.00    -0.311 A  
HETATM   15  N   UNL     1      -9.248   9.840  63.881  1.00  0.00    -0.245 NA 
BRANCH   4  16
HETATM   16  O   UNL     1      -8.609   6.822  69.547  1.00  0.00    -0.131 OA 
BRANCH  16  17
HETATM   17  C   UNL     1      -9.730   6.191  70.188  1.00  0.00    -0.163 C  
BRANCH  17  18
HETATM   18  C   UNL     1      -9.414   4.718  70.445  1.00  0.00    -0.241 C  
BRANCH  18  19
HETATM   19  C   UNL     1      -9.751   3.822  69.240  1.00  0.00    -0.050 C  
BRANCH  19  20
HETATM   20  N   UNL     1      -8.821   2.698  69.041  1.00  0.00    -0.086 NA 
HETATM   21  O   UNL     1      -7.429   2.989  66.462  1.00  0.00    -0.073 OA 
HETATM   22  C   UNL     1      -9.127   1.889  67.838  1.00  0.00    -0.164 C  
HETATM   23  C   UNL     1      -7.416   3.159  68.919  1.00  0.00    -0.048 C  
HETATM   24  C   UNL     1      -7.083   3.828  67.572  1.00  0.00    -0.059 C  
HETATM   25  C   UNL     1      -8.809   2.607  66.518  1.00  0.00    -0.132 C  
ENDBRANCH  19  20
ENDBRANCH  18  19
ENDBRANCH  17  18
ENDBRANCH  16  17
ENDBRANCH   4  16
BRANCH   9  26
HETATM   26  N   UNL     1     -10.042  13.205  66.715  1.00  0.00    -0.248 N  
HETATM   27  O   UNL     1     -12.170  13.740  67.444  1.00  0.00    -0.368 OA 
HETATM   28  H   UNL     1      -9.128  13.653  66.651  1.00  0.00     0.000 HD 
HETATM   29  C   UNL     1     -11.084  14.087  66.988  1.00  0.00    -0.304 C  
BRANCH  29  30
HETATM   30  C   UNL     1     -10.827  15.537  66.808  1.00  0.00    -0.291 A  
HETATM   31  N   UNL     1     -10.326  17.762  67.599  1.00  0.00    -0.358 NA 
HETATM   32  C   UNL     1     -10.589  16.453  67.810  1.00  0.00    -0.321 A  
HETATM   33  C   UNL     1     -10.334  18.169  66.318  1.00  0.00    -0.397 A  
HETATM   34  N   UNL     1     -10.520  17.373  65.269  1.00  0.00    -0.615 NA 
HETATM   35  N   UNL     1     -10.060  19.504  66.081  1.00  0.00    -0.446 NA 
HETATM   36  H1  UNL     1     -10.067  19.814  65.109  1.00  0.00     0.000 HD 
HETATM   37  C   UNL     1     -10.772  16.073  65.537  1.00  0.00    -0.361 A  
HETATM   38  H2  UNL     1      -9.168  19.749  66.510  1.00  0.00     0.000 HD 
ENDBRANCH  29  30
ENDBRANCH   9  26
ENDBRANCH   2   3
TORSDOF 8
ENDMDL
MODEL       73
REMARK 921   NORMALIZED FREE ENERGY PREDICTED BY IDOCK:   -5.41 KCAL/MOL
REMARK 922        TOTAL FREE ENERGY PREDICTED BY IDOCK:   -9.14 KCAL/MOL
REMARK 923 INTER-LIGAND FREE ENERGY PREDICTED BY IDOCK:   -8.27 KCAL/MOL
REMARK 924 INTRA-LIGAND FREE ENERGY PREDICTED BY IDOCK:   -0.88 KCAL/MOL
REMARK 927      BINDING AFFINITY PREDICTED BY RF-SCORE:    0.00 PKD
ROOT
HETATM    1  C   UNL     1      -9.116   7.991  66.942  1.00  0.00    -0.152 C  
HETATM    2  O   UNL     1      -8.617   7.868  68.271  1.00  0.00    -0.124 OA 
ENDROOT
BRANCH   2   3
HETATM    3  C   UNL     1      -9.462   7.261  69.174  1.00  0.00    -0.148 A  
HETATM    4  C   UNL     1      -9.253   5.867  69.373  1.00  0.00    -0.130 A  
HETATM    5  C   UNL     1     -10.044   5.156  70.291  1.00  0.00    -0.338 A  
HETATM    6  C   UNL     1     -14.264   8.736  71.894  1.00  0.00    -0.389 C  
HETATM    7  N   UNL     1     -12.071   9.208  71.698  1.00  0.00    -0.338 NA 
HETATM    8  C   UNL     1     -11.086   5.787  70.958  1.00  0.00    -0.264 A  
HETATM    9  C   UNL     1     -11.425   9.935  70.721  1.00  0.00    -0.354 A  
HETATM   10  C   UNL     1     -11.275   7.143  70.745  1.00  0.00    -0.309 A  
HETATM   11  C   UNL     1     -13.181   9.591  72.543  1.00  0.00    -0.276 C  
HETATM   12  C   UNL     1     -10.466   7.932  69.906  1.00  0.00    -0.229 A  
HETATM   13  N   UNL     1     -10.686   9.350  69.814  1.00  0.00    -0.228 NA 
HETATM   14  C   UNL     1     -12.340   7.884  71.393  1.00  0.00    -0.312 A  
HETATM   15  N   UNL     1     -13.568   7.447  71.561  1.00  0.00    -0.390 NA 
BRANCH   4  16
HETATM   16  O   UNL     1      -8.244   5.253  68.655  1.00  0.00    -0.093 OA 
BRANCH  16  17
HETATM   17  C   UNL     1      -8.668   4.175  67.805  1.00  0.00    -0.107 C  
BRANCH  17  18
HETATM   18  C   UNL     1      -7.456   3.565  67.102  1.00  0.00    -0.074 C  
BRANCH  18  19
HETATM   19  C   UNL     1      -7.745   3.200  65.635  1.00  0.00    -0.081 C  
BRANCH  19  20
HETATM   20  N   UNL     1      -6.733   3.681  64.679  1.00  0.00    -0.043 NA 
HETATM   21  O   UNL     1      -7.936   5.649  62.848  1.00  0.00    -0.087 OA 
HETATM   22  C   UNL     1      -7.078   3.395  63.267  1.00  0.00    -0.048 C  
HETATM   23  C   UNL     1      -6.516   5.143  64.796  1.00  0.00    -0.035 C  
HETATM   24  C   UNL     1      -7.651   6.002  64.208  1.00  0.00    -0.093 C  
HETATM   25  C   UNL     1      -8.236   4.252  62.733  1.00  0.00    -0.083 C  
ENDBRANCH  19  20
ENDBRANCH  18  19
ENDBRANCH  17  18
ENDBRANCH  16  17
ENDBRANCH   4  16
BRANCH   9  26
HETATM   26  N   UNL     1     -11.558  11.293  70.486  1.00  0.00    -0.467 N  
HETATM   27  O   UNL     1     -12.270  11.543  68.301  1.00  0.00    -0.561 OA 
HETATM   28  H   UNL     1     -11.468  11.867  71.324  1.00  0.00     0.000 HD 
HETATM   29  C   UNL     1     -11.792  12.024  69.325  1.00  0.00    -0.318 C  
BRANCH  29  30
HETATM   30  C   UNL     1     -11.539  13.485  69.366  1.00  0.00    -0.369 A  
HETATM   31  N   UNL     1     -11.868  15.716  70.224  1.00  0.00    -0.341 NA 
HETATM   32  C   UNL     1     -12.154  14.396  70.198  1.00  0.00    -0.335 A  
HETATM   33  C   UNL     1     -10.942  16.141  69.348  1.00  0.00    -0.333 A  
HETATM   34  N   UNL     1     -10.262  15.353  68.521  1.00  0.00    -0.215 NA 
HETATM   35  N   UNL     1     -10.631  17.489  69.365  1.00  0.00    -0.350 NA 
HETATM   36  H1  UNL     1      -9.928  17.812  68.700  1.00  0.00     0.000 HD 
HETATM   37  C   UNL     1     -10.581  14.040  68.540  1.00  0.00    -0.254 A  
HETATM   38  H2  UNL     1     -10.358  17.763  70.309  1.00  0.00     0.000 HD 
ENDBRANCH  29  30
ENDBRANCH   9  26
ENDBRANCH   2   3
TORSDOF 8
ENDMDL
MODEL       74
REMARK 921   NORMALIZED FREE ENERGY PREDICTED BY IDOCK:   -5.39 KCAL/MOL
REMARK 922        TOTAL FREE ENERGY PREDICTED BY IDOCK:   -9.12 KCAL/MOL
REMARK 923 INTER-LIGAND FREE ENERGY PREDICTED BY IDOCK:   -8.16 KCAL/MOL
REMARK 924 INTRA-LIGAND FREE ENERGY PREDICTED BY IDOCK:   -0.96 KCAL/MOL
REMARK 927      BINDING AFFINITY PREDICTED BY RF-SCORE:    0.00 PKD
ROOT
HETATM    1  C   UNL     1      -5.784  13.617  68.628  1.00  0.00    -0.087 C  
HETATM    2  O   UNL     1      -6.848  14.508  68.949  1.00  0.00    -0.088 OA 
ENDROOT
BRANCH   2   3
HETATM    3  C   UNL     1      -7.594  14.960  67.882  1.00  0.00    -0.136 A  
HETATM    4  C   UNL     1      -7.227  16.237  67.370  1.00  0.00    -0.169 A  
HETATM    5  C   UNL     1      -7.907  16.779  66.266  1.00  0.00    -0.334 A  
HETATM    6  C   UNL     1     -12.446  13.357  65.327  1.00  0.00    -0.483 C  
HETATM    7  N   UNL     1     -10.325  12.730  65.751  1.00  0.00    -0.277 NA 
HETATM    8  C   UNL     1      -8.992  16.113  65.711  1.00  0.00    -0.086 A  
HETATM    9  C   UNL     1      -9.792  12.201  66.907  1.00  0.00    -0.203 A  
HETATM   10  C   UNL     1      -9.335  14.874  66.230  1.00  0.00    -0.329 A  
HETATM   11  C   UNL     1     -11.444  12.266  64.961  1.00  0.00    -0.336 C  
HETATM   12  C   UNL     1      -8.643  14.235  67.276  1.00  0.00    -0.215 A  
HETATM   13  N   UNL     1      -9.020  12.911  67.689  1.00  0.00    -0.181 NA 
HETATM   14  C   UNL     1     -10.456  14.108  65.718  1.00  0.00    -0.311 A  
HETATM   15  N   UNL     1     -11.622  14.612  65.383  1.00  0.00    -0.350 NA 
BRANCH   4  16
HETATM   16  O   UNL     1      -6.178  16.902  67.977  1.00  0.00    -0.130 OA 
BRANCH  16  17
HETATM   17  C   UNL     1      -5.869  18.191  67.420  1.00  0.00    -0.141 C  
BRANCH  17  18
HETATM   18  C   UNL     1      -6.354  19.290  68.364  1.00  0.00    -0.259 C  
BRANCH  18  19
HETATM   19  C   UNL     1      -7.811  19.084  68.813  1.00  0.00    -0.342 C  
BRANCH  19  20
HETATM   20  N   UNL     1      -8.664  20.277  68.673  1.00  0.00     0.195 NA 
HETATM   21  O   UNL     1     -10.571  19.898  66.461  1.00  0.00    -0.460 OA 
HETATM   22  C   UNL     1      -8.541  20.936  67.352  1.00  0.00    -0.012 C  
HETATM   23  C   UNL     1     -10.097  19.957  68.878  1.00  0.00    -0.335 C  
HETATM   24  C   UNL     1     -10.753  19.207  67.704  1.00  0.00    -0.417 C  
HETATM   25  C   UNL     1      -9.181  20.136  66.206  1.00  0.00    -0.284 C  
ENDBRANCH  19  20
ENDBRANCH  18  19
ENDBRANCH  17  18
ENDBRANCH  16  17
ENDBRANCH   4  16
BRANCH   9  26
HETATM   26  N   UNL     1     -10.080  10.960  67.449  1.00  0.00    -0.186 N  
HETATM   27  O   UNL     1     -12.167  11.112  68.435  1.00  0.00    -0.610 OA 
HETATM   28  H   UNL     1      -9.419  10.230  67.186  1.00  0.00     0.000 HD 
HETATM   29  C   UNL     1     -11.102  10.519  68.286  1.00  0.00    -0.284 C  
BRANCH  29  30
HETATM   30  C   UNL     1     -10.928   9.206  68.956  1.00  0.00    -0.035 A  
HETATM   31  N   UNL     1     -10.199   6.908  69.060  1.00  0.00    -0.174 NA 
HETATM   32  C   UNL     1     -10.368   8.076  68.401  1.00  0.00    -0.199 A  
HETATM   33  C   UNL     1     -10.645   6.872  70.328  1.00  0.00    -0.218 A  
HETATM   34  N   UNL     1     -11.172   7.906  70.977  1.00  0.00    -0.265 NA 
HETATM   35  N   UNL     1     -10.474   5.687  71.021  1.00  0.00    -0.238 NA 
HETATM   36  H1  UNL     1     -10.813   5.660  71.983  1.00  0.00     0.000 HD 
HETATM   37  C   UNL     1     -11.312   9.051  70.273  1.00  0.00    -0.178 A  
HETATM   38  H2  UNL     1      -9.490   5.419  70.998  1.00  0.00     0.000 HD 
ENDBRANCH  29  30
ENDBRANCH   9  26
ENDBRANCH   2   3
TORSDOF 8
ENDMDL
MODEL       75
REMARK 921   NORMALIZED FREE ENERGY PREDICTED BY IDOCK:   -5.39 KCAL/MOL
REMARK 922        TOTAL FREE ENERGY PREDICTED BY IDOCK:   -9.11 KCAL/MOL
REMARK 923 INTER-LIGAND FREE ENERGY PREDICTED BY IDOCK:   -8.59 KCAL/MOL
REMARK 924 INTRA-LIGAND FREE ENERGY PREDICTED BY IDOCK:   -0.52 KCAL/MOL
REMARK 927      BINDING AFFINITY PREDICTED BY RF-SCORE:    0.00 PKD
ROOT
HETATM    1  C   UNL     1     -11.045  11.413  69.236  1.00  0.00    -0.254 C  
HETATM    2  O   UNL     1     -11.847  11.355  68.060  1.00  0.00    -0.570 OA 
ENDROOT
BRANCH   2   3
HETATM    3  C   UNL     1     -11.245  11.796  66.901  1.00  0.00    -0.327 A  
HETATM    4  C   UNL     1     -11.387  13.184  66.621  1.00  0.00    -0.325 A  
HETATM    5  C   UNL     1     -10.791  13.741  65.478  1.00  0.00    -0.299 A  
HETATM    6  C   UNL     1      -8.867   9.308  62.341  1.00  0.00    -0.233 C  
HETATM    7  N   UNL     1      -8.655   9.605  64.563  1.00  0.00    -0.173 NA 
HETATM    8  C   UNL     1     -10.121  12.933  64.569  1.00  0.00    -0.259 A  
HETATM    9  C   UNL     1      -9.322   8.971  65.590  1.00  0.00    -0.222 A  
HETATM   10  C   UNL     1     -10.000  11.582  64.858  1.00  0.00    -0.303 A  
HETATM   11  C   UNL     1      -7.887   9.034  63.478  1.00  0.00    -0.140 C  
HETATM   12  C   UNL     1     -10.498  10.976  66.027  1.00  0.00    -0.245 A  
HETATM   13  N   UNL     1     -10.248   9.584  66.281  1.00  0.00    -0.255 NA 
HETATM   14  C   UNL     1      -9.323  10.661  63.966  1.00  0.00    -0.266 A  
HETATM   15  N   UNL     1      -9.429  10.664  62.656  1.00  0.00    -0.305 NA 
BRANCH   4  16
HETATM   16  O   UNL     1     -12.106  13.955  67.516  1.00  0.00    -0.389 OA 
BRANCH  16  17
HETATM   17  C   UNL     1     -11.860  15.369  67.438  1.00  0.00     0.095 C  
BRANCH  17  18
HETATM   18  C   UNL     1     -10.718  15.747  68.378  1.00  0.00    -0.281 C  
BRANCH  18  19
HETATM   19  C   UNL     1      -9.583  16.498  67.659  1.00  0.00    -0.235 C  
BRANCH  19  20
HETATM   20  N   UNL     1      -9.027  17.631  68.418  1.00  0.00    -0.275 NA 
HETATM   21  O   UNL     1      -9.096  20.073  66.773  1.00  0.00    -0.335 OA 
HETATM   22  C   UNL     1      -7.833  18.235  67.782  1.00  0.00    -0.240 C  
HETATM   23  C   UNL     1     -10.026  18.712  68.604  1.00  0.00    -0.388 C  
HETATM   24  C   UNL     1     -10.303  19.543  67.337  1.00  0.00    -0.450 C  
HETATM   25  C   UNL     1      -8.154  19.027  66.505  1.00  0.00    -0.289 C  
ENDBRANCH  19  20
ENDBRANCH  18  19
ENDBRANCH  17  18
ENDBRANCH  16  17
ENDBRANCH   4  16
BRANCH   9  26
HETATM   26  N   UNL     1      -9.214   7.635  65.936  1.00  0.00    -0.382 N  
HETATM   27  O   UNL     1     -11.183   7.039  66.992  1.00  0.00    -0.328 OA 
HETATM   28  H   UNL     1      -8.396   7.171  65.541  1.00  0.00     0.000 HD 
HETATM   29  C   UNL     1     -10.009   6.803  66.720  1.00  0.00    -0.178 C  
BRANCH  29  30
HETATM   30  C   UNL     1      -9.427   5.513  67.167  1.00  0.00    -0.122 A  
HETATM   31  N   UNL     1      -9.223   3.634  68.667  1.00  0.00    -0.147 NA 
HETATM   32  C   UNL     1      -9.755   4.825  68.315  1.00  0.00    -0.140 A  
HETATM   33  C   UNL     1      -8.294   3.130  67.837  1.00  0.00    -0.080 A  
HETATM   34  N   UNL     1      -7.920   3.687  66.689  1.00  0.00    -0.088 NA 
HETATM   35  N   UNL     1      -7.742   1.908  68.177  1.00  0.00    -0.054 NA 
HETATM   36  H1  UNL     1      -7.036   1.526  67.547  1.00  0.00     0.000 HD 
HETATM   37  C   UNL     1      -8.489   4.874  66.382  1.00  0.00    -0.111 A  
HETATM   38  H2  UNL     1      -8.487   1.224  68.309  1.00  0.00     0.000 HD 
ENDBRANCH  29  30
ENDBRANCH   9  26
ENDBRANCH   2   3
TORSDOF 8
ENDMDL
MODEL       76
REMARK 921   NORMALIZED FREE ENERGY PREDICTED BY IDOCK:   -5.35 KCAL/MOL
REMARK 922        TOTAL FREE ENERGY PREDICTED BY IDOCK:   -9.05 KCAL/MOL
REMARK 923 INTER-LIGAND FREE ENERGY PREDICTED BY IDOCK:   -8.33 KCAL/MOL
REMARK 924 INTRA-LIGAND FREE ENERGY PREDICTED BY IDOCK:   -0.72 KCAL/MOL
REMARK 927      BINDING AFFINITY PREDICTED BY RF-SCORE:    0.00 PKD
ROOT
HETATM    1  C   UNL     1      -6.483  11.796  68.436  1.00  0.00    -0.053 C  
HETATM    2  O   UNL     1      -7.717  11.866  69.144  1.00  0.00     0.004 OA 
ENDROOT
BRANCH   2   3
HETATM    3  C   UNL     1      -8.816  11.363  68.483  1.00  0.00    -0.151 A  
HETATM    4  C   UNL     1      -9.040   9.965  68.633  1.00  0.00    -0.132 A  
HETATM    5  C   UNL     1     -10.147   9.355  68.021  1.00  0.00    -0.230 A  
HETATM    6  C   UNL     1     -12.445  13.319  64.529  1.00  0.00    -0.319 C  
HETATM    7  N   UNL     1     -11.745  13.606  66.649  1.00  0.00    -0.366 NA 
HETATM    8  C   UNL     1     -10.993  10.092  67.202  1.00  0.00    -0.177 A  
HETATM    9  C   UNL     1     -10.611  14.242  67.109  1.00  0.00    -0.279 A  
HETATM   10  C   UNL     1     -10.753  11.450  67.065  1.00  0.00    -0.304 A  
HETATM   11  C   UNL     1     -12.792  14.109  65.787  1.00  0.00    -0.329 C  
HETATM   12  C   UNL     1      -9.714  12.139  67.718  1.00  0.00    -0.197 A  
HETATM   13  N   UNL     1      -9.596  13.565  67.583  1.00  0.00    -0.215 NA 
HETATM   14  C   UNL     1     -11.578  12.298  66.227  1.00  0.00    -0.385 A  
HETATM   15  N   UNL     1     -12.038  11.967  65.040  1.00  0.00    -0.339 NA 
BRANCH   4  16
HETATM   16  O   UNL     1      -8.150   9.246  69.410  1.00  0.00    -0.098 OA 
BRANCH  16  17
HETATM   17  C   UNL     1      -8.750   8.268  70.277  1.00  0.00    -0.139 C  
BRANCH  17  18
HETATM   18  C   UNL     1      -8.317   6.867  69.851  1.00  0.00    -0.139 C  
BRANCH  18  19
HETATM   19  C   UNL     1      -7.825   6.014  71.034  1.00  0.00    -0.111 C  
BRANCH  19  20
HETATM   20  N   UNL     1      -7.806   6.721  72.326  1.00  0.00    -0.095 NA 
HETATM   21  O   UNL     1      -7.314   4.810  74.511  1.00  0.00    -0.079 OA 
HETATM   22  C   UNL     1      -8.849   6.253  73.267  1.00  0.00    -0.125 C  
HETATM   23  C   UNL     1      -6.497   6.584  73.010  1.00  0.00    -0.067 C  
HETATM   24  C   UNL     1      -6.250   5.196  73.631  1.00  0.00    -0.055 C  
HETATM   25  C   UNL     1      -8.577   4.852  73.837  1.00  0.00    -0.103 C  
ENDBRANCH  19  20
ENDBRANCH  18  19
ENDBRANCH  17  18
ENDBRANCH  16  17
ENDBRANCH   4  16
BRANCH   9  26
HETATM   26  N   UNL     1     -10.338  15.596  67.022  1.00  0.00    -0.283 N  
HETATM   27  O   UNL     1     -10.449  16.174  64.786  1.00  0.00    -0.592 OA 
HETATM   28  H   UNL     1     -10.297  16.068  67.925  1.00  0.00     0.000 HD 
HETATM   29  C   UNL     1     -10.109  16.437  65.936  1.00  0.00    -0.347 C  
BRANCH  29  30
HETATM   30  C   UNL     1      -9.509  17.767  66.207  1.00  0.00    -0.232 A  
HETATM   31  N   UNL     1      -9.601  20.151  66.567  1.00  0.00    -0.407 NA 
HETATM   32  C   UNL     1     -10.185  18.965  66.284  1.00  0.00    -0.438 A  
HETATM   33  C   UNL     1      -8.270  20.129  66.748  1.00  0.00    -0.304 A  
HETATM   34  N   UNL     1      -7.519  19.033  66.728  1.00  0.00    -0.214 NA 
HETATM   35  N   UNL     1      -7.656  21.333  67.044  1.00  0.00    -0.768 NA 
HETATM   36  H1  UNL     1      -6.645  21.317  67.182  1.00  0.00     0.000 HD 
HETATM   37  C   UNL     1      -8.154  17.873  66.448  1.00  0.00    -0.261 A  
HETATM   38  H2  UNL     1      -8.103  21.751  67.860  1.00  0.00     0.000 HD 
ENDBRANCH  29  30
ENDBRANCH   9  26
ENDBRANCH   2   3
TORSDOF 8
ENDMDL
MODEL       77
REMARK 921   NORMALIZED FREE ENERGY PREDICTED BY IDOCK:   -5.34 KCAL/MOL
REMARK 922        TOTAL FREE ENERGY PREDICTED BY IDOCK:   -9.04 KCAL/MOL
REMARK 923 INTER-LIGAND FREE ENERGY PREDICTED BY IDOCK:   -8.04 KCAL/MOL
REMARK 924 INTRA-LIGAND FREE ENERGY PREDICTED BY IDOCK:   -1.00 KCAL/MOL
REMARK 927      BINDING AFFINITY PREDICTED BY RF-SCORE:    0.00 PKD
ROOT
HETATM    1  C   UNL     1     -11.595   6.682  69.495  1.00  0.00    -0.195 C  
HETATM    2  O   UNL     1     -11.147   6.026  68.313  1.00  0.00    -0.309 OA 
ENDROOT
BRANCH   2   3
HETATM    3  C   UNL     1      -9.787   6.058  68.089  1.00  0.00    -0.131 A  
HETATM    4  C   UNL     1      -9.059   4.925  68.551  1.00  0.00    -0.114 A  
HETATM    5  C   UNL     1      -7.671   4.845  68.351  1.00  0.00    -0.082 A  
HETATM    6  C   UNL     1      -6.024  10.012  66.404  1.00  0.00    -0.065 C  
HETATM    7  N   UNL     1      -7.809   8.807  65.745  1.00  0.00    -0.097 NA 
HETATM    8  C   UNL     1      -6.982   5.902  67.769  1.00  0.00    -0.069 A  
HETATM    9  C   UNL     1      -9.144   9.010  66.025  1.00  0.00    -0.208 A  
HETATM   10  C   UNL     1      -7.710   6.997  67.332  1.00  0.00    -0.110 A  
HETATM   11  C   UNL     1      -6.847   9.713  65.155  1.00  0.00    -0.098 C  
HETATM   12  C   UNL     1      -9.111   7.104  67.424  1.00  0.00    -0.121 A  
HETATM   13  N   UNL     1      -9.787   8.242  66.864  1.00  0.00    -0.222 NA 
HETATM   14  C   UNL     1      -7.077   8.149  66.719  1.00  0.00    -0.077 A  
HETATM   15  N   UNL     1      -5.953   8.695  67.124  1.00  0.00    -0.052 NA 
BRANCH   4  16
HETATM   16  O   UNL     1      -9.763   3.912  69.175  1.00  0.00    -0.176 OA 
BRANCH  16  17
HETATM   17  C   UNL     1      -9.024   3.173  70.162  1.00  0.00    -0.105 C  
BRANCH  17  18
HETATM   18  C   UNL     1      -9.794   3.159  71.481  1.00  0.00    -0.200 C  
BRANCH  18  19
HETATM   19  C   UNL     1     -10.114   4.575  71.993  1.00  0.00    -0.196 C  
BRANCH  19  20
HETATM   20  N   UNL     1      -9.514   4.898  73.298  1.00  0.00    -0.123 NA 
HETATM   21  O   UNL     1      -9.121   7.808  73.530  1.00  0.00    -0.233 OA 
HETATM   22  C   UNL     1      -8.196   5.568  73.188  1.00  0.00    -0.118 C  
HETATM   23  C   UNL     1     -10.392   5.779  74.106  1.00  0.00    -0.282 C  
HETATM   24  C   UNL     1     -10.434   7.242  73.629  1.00  0.00    -0.344 C  
HETATM   25  C   UNL     1      -8.284   7.015  72.679  1.00  0.00    -0.108 C  
ENDBRANCH  19  20
ENDBRANCH  18  19
ENDBRANCH  17  18
ENDBRANCH  16  17
ENDBRANCH   4  16
BRANCH   9  26
HETATM   26  N   UNL     1      -9.920  10.071  65.590  1.00  0.00    -0.288 N  
HETATM   27  O   UNL     1      -9.755  10.140  63.285  1.00  0.00    -0.264 OA 
HETATM   28  H   UNL     1     -10.496  10.488  66.321  1.00  0.00     0.000 HD 
HETATM   29  C   UNL     1     -10.064  10.677  64.344  1.00  0.00    -0.349 C  
BRANCH  29  30
HETATM   30  C   UNL     1     -10.720  12.007  64.295  1.00  0.00    -0.382 A  
HETATM   31  N   UNL     1     -11.004  14.307  64.966  1.00  0.00    -0.364 NA 
HETATM   32  C   UNL     1     -10.400  13.102  65.067  1.00  0.00    -0.330 A  
HETATM   33  C   UNL     1     -11.997  14.400  64.065  1.00  0.00    -0.258 A  
HETATM   34  N   UNL     1     -12.372  13.422  63.246  1.00  0.00    -0.703 NA 
HETATM   35  N   UNL     1     -12.623  15.628  63.943  1.00  0.00    -0.807 NA 
HETATM   36  H1  UNL     1     -13.377  15.698  63.259  1.00  0.00     0.000 HD 
HETATM   37  C   UNL     1     -11.731  12.241  63.384  1.00  0.00    -0.457 A  
HETATM   38  H2  UNL     1     -11.925  16.347  63.754  1.00  0.00     0.000 HD 
ENDBRANCH  29  30
ENDBRANCH   9  26
ENDBRANCH   2   3
TORSDOF 8
ENDMDL
MODEL       78
REMARK 921   NORMALIZED FREE ENERGY PREDICTED BY IDOCK:   -5.30 KCAL/MOL
REMARK 922        TOTAL FREE ENERGY PREDICTED BY IDOCK:   -8.98 KCAL/MOL
REMARK 923 INTER-LIGAND FREE ENERGY PREDICTED BY IDOCK:   -8.29 KCAL/MOL
REMARK 924 INTRA-LIGAND FREE ENERGY PREDICTED BY IDOCK:   -0.69 KCAL/MOL
REMARK 927      BINDING AFFINITY PREDICTED BY RF-SCORE:    0.00 PKD
ROOT
HETATM    1  C   UNL     1     -12.026   9.864  71.374  1.00  0.00    -0.404 C  
HETATM    2  O   UNL     1     -12.094   8.549  70.829  1.00  0.00    -0.206 OA 
ENDROOT
BRANCH   2   3
HETATM    3  C   UNL     1     -10.896   8.013  70.407  1.00  0.00    -0.247 A  
HETATM    4  C   UNL     1     -10.446   6.869  71.125  1.00  0.00    -0.212 A  
HETATM    5  C   UNL     1      -9.249   6.230  70.759  1.00  0.00    -0.160 A  
HETATM    6  C   UNL     1      -6.707   9.658  66.890  1.00  0.00    -0.075 C  
HETATM    7  N   UNL     1      -8.877   9.065  66.974  1.00  0.00    -0.119 NA 
HETATM    8  C   UNL     1      -8.455   6.750  69.746  1.00  0.00    -0.133 A  
HETATM    9  C   UNL     1      -9.967   9.817  67.361  1.00  0.00    -0.191 A  
HETATM   10  C   UNL     1      -8.910   7.868  69.065  1.00  0.00    -0.145 A  
HETATM   11  C   UNL     1      -7.879   9.348  65.965  1.00  0.00    -0.099 C  
HETATM   12  C   UNL     1     -10.139   8.505  69.322  1.00  0.00    -0.202 A  
HETATM   13  N   UNL     1     -10.566   9.607  68.505  1.00  0.00    -0.219 NA 
HETATM   14  C   UNL     1      -8.147   8.484  67.996  1.00  0.00    -0.115 A  
HETATM   15  N   UNL     1      -6.845   8.666  68.008  1.00  0.00    -0.069 NA 
BRANCH   4  16
HETATM   16  O   UNL     1     -11.230   6.405  72.164  1.00  0.00    -0.251 OA 
BRANCH  16  17
HETATM   17  C   UNL     1     -10.772   6.761  73.480  1.00  0.00    -0.292 C  
BRANCH  17  18
HETATM   18  C   UNL     1     -10.303   5.509  74.219  1.00  0.00    -0.293 C  
BRANCH  18  19
HETATM   19  C   UNL     1     -11.059   4.244  73.777  1.00  0.00    -0.234 C  
BRANCH  19  20
HETATM   20  N   UNL     1     -10.531   2.992  74.345  1.00  0.00    -0.169 NA 
HETATM   21  O   UNL     1      -9.074   1.484  72.276  1.00  0.00    -0.066 OA 
HETATM   22  C   UNL     1     -11.058   1.777  73.680  1.00  0.00    -0.169 C  
HETATM   23  C   UNL     1      -9.051   2.933  74.269  1.00  0.00    -0.078 C  
HETATM   24  C   UNL     1      -8.499   2.663  72.856  1.00  0.00    -0.071 C  
HETATM   25  C   UNL     1     -10.505   1.566  72.262  1.00  0.00    -0.149 C  
ENDBRANCH  19  20
ENDBRANCH  18  19
ENDBRANCH  17  18
ENDBRANCH  16  17
ENDBRANCH   4  16
BRANCH   9  26
HETATM   26  N   UNL     1     -10.476  10.922  66.702  1.00  0.00    -0.246 N  
HETATM   27  O   UNL     1     -10.662  10.360  64.467  1.00  0.00    -0.015 OA 
HETATM   28  H   UNL     1     -10.792  11.665  67.325  1.00  0.00     0.000 HD 
HETATM   29  C   UNL     1     -10.640  11.212  65.350  1.00  0.00    -0.227 C  
BRANCH  29  30
HETATM   30  C   UNL     1     -10.900  12.624  64.973  1.00  0.00    -0.321 A  
HETATM   31  N   UNL     1     -10.325  14.961  64.805  1.00  0.00    -0.304 NA 
HETATM   32  C   UNL     1     -10.062  13.694  65.195  1.00  0.00    -0.275 A  
HETATM   33  C   UNL     1     -11.504  15.160  64.190  1.00  0.00     0.006 A  
HETATM   34  N   UNL     1     -12.377  14.202  63.895  1.00  0.00    -0.739 NA 
HETATM   35  N   UNL     1     -11.788  16.449  63.777  1.00  0.00    -1.377 NA 
HETATM   36  H1  UNL     1     -12.683  16.601  63.311  1.00  0.00     0.000 HD 
HETATM   37  C   UNL     1     -12.061  12.952  64.302  1.00  0.00    -0.419 A  
HETATM   38  H2  UNL     1     -11.033  16.790  63.183  1.00  0.00     0.000 HD 
ENDBRANCH  29  30
ENDBRANCH   9  26
ENDBRANCH   2   3
TORSDOF 8
ENDMDL
MODEL       79
REMARK 921   NORMALIZED FREE ENERGY PREDICTED BY IDOCK:   -5.24 KCAL/MOL
REMARK 922        TOTAL FREE ENERGY PREDICTED BY IDOCK:   -8.89 KCAL/MOL
REMARK 923 INTER-LIGAND FREE ENERGY PREDICTED BY IDOCK:   -8.13 KCAL/MOL
REMARK 924 INTRA-LIGAND FREE ENERGY PREDICTED BY IDOCK:   -0.76 KCAL/MOL
REMARK 927      BINDING AFFINITY PREDICTED BY RF-SCORE:    0.00 PKD
ROOT
HETATM    1  C   UNL     1     -12.797  11.188  71.515  1.00  0.00    -0.437 C  
HETATM    2  O   UNL     1     -12.663  10.318  70.395  1.00  0.00    -0.273 OA 
ENDROOT
BRANCH   2   3
HETATM    3  C   UNL     1     -11.381   9.897  70.113  1.00  0.00    -0.275 A  
HETATM    4  C   UNL     1     -11.089   8.544  70.446  1.00  0.00    -0.231 A  
HETATM    5  C   UNL     1      -9.819   8.007  70.177  1.00  0.00    -0.184 A  
HETATM    6  C   UNL     1      -6.496  12.438  68.594  1.00  0.00    -0.077 C  
HETATM    7  N   UNL     1      -8.598  11.996  67.918  1.00  0.00    -0.157 NA 
HETATM    8  C   UNL     1      -8.813   8.808  69.655  1.00  0.00    -0.141 A  
HETATM    9  C   UNL     1      -9.773  12.622  68.275  1.00  0.00    -0.216 A  
HETATM   10  C   UNL     1      -9.117  10.124  69.344  1.00  0.00    -0.217 A  
HETATM   11  C   UNL     1      -7.388  12.562  67.363  1.00  0.00    -0.147 C  
HETATM   12  C   UNL     1     -10.391  10.701  69.507  1.00  0.00    -0.182 A  
HETATM   13  N   UNL     1     -10.634  12.050  69.076  1.00  0.00    -0.153 NA 
HETATM   14  C   UNL     1      -8.130  11.036  68.800  1.00  0.00    -0.145 A  
HETATM   15  N   UNL     1      -6.879  11.118  69.198  1.00  0.00    -0.091 NA 
BRANCH   4  16
HETATM   16  O   UNL     1     -12.095   7.785  71.015  1.00  0.00    -0.302 OA 
BRANCH  16  17
HETATM   17  C   UNL     1     -11.974   7.576  72.433  1.00  0.00    -0.222 C  
BRANCH  17  18
HETATM   18  C   UNL     1     -11.469   6.160  72.704  1.00  0.00    -0.277 C  
BRANCH  18  19
HETATM   19  C   UNL     1     -10.392   6.116  73.802  1.00  0.00    -0.278 C  
BRANCH  19  20
HETATM   20  N   UNL     1      -9.486   4.958  73.717  1.00  0.00    -0.127 NA 
HETATM   21  O   UNL     1      -7.060   5.687  72.214  1.00  0.00    -0.082 OA 
HETATM   22  C   UNL     1      -9.213   4.526  72.327  1.00  0.00    -0.126 C  
HETATM   23  C   UNL     1      -8.179   5.233  74.362  1.00  0.00    -0.101 C  
HETATM   24  C   UNL     1      -7.257   6.164  73.552  1.00  0.00    -0.088 C  
HETATM   25  C   UNL     1      -8.315   5.500  71.547  1.00  0.00    -0.123 C  
ENDBRANCH  19  20
ENDBRANCH  18  19
ENDBRANCH  17  18
ENDBRANCH  16  17
ENDBRANCH   4  16
BRANCH   9  26
HETATM   26  N   UNL     1     -10.135  13.922  67.965  1.00  0.00    -0.238 N  
HETATM   27  O   UNL     1     -11.607  13.817  66.184  1.00  0.00    -0.329 OA 
HETATM   28  H   UNL     1      -9.816  14.613  68.645  1.00  0.00     0.000 HD 
HETATM   29  C   UNL     1     -10.851  14.467  66.902  1.00  0.00    -0.301 C  
BRANCH  29  30
HETATM   30  C   UNL     1     -10.768  15.934  66.693  1.00  0.00    -0.270 A  
HETATM   31  N   UNL     1     -10.331  18.200  67.397  1.00  0.00    -0.373 NA 
HETATM   32  C   UNL     1     -10.426  16.874  67.640  1.00  0.00    -0.332 A  
HETATM   33  C   UNL     1     -10.626  18.596  66.147  1.00  0.00    -0.363 A  
HETATM   34  N   UNL     1     -10.937  17.780  65.145  1.00  0.00    -0.609 NA 
HETATM   35  N   UNL     1     -10.528  19.950  65.877  1.00  0.00    -0.505 NA 
HETATM   36  H1  UNL     1     -10.751  20.251  64.928  1.00  0.00     0.000 HD 
HETATM   37  C   UNL     1     -11.011  16.464  65.442  1.00  0.00    -0.160 A  
HETATM   38  H2  UNL     1      -9.595  20.280  66.128  1.00  0.00     0.000 HD 
ENDBRANCH  29  30
ENDBRANCH   9  26
ENDBRANCH   2   3
TORSDOF 8
ENDMDL
MODEL       80
REMARK 921   NORMALIZED FREE ENERGY PREDICTED BY IDOCK:   -5.21 KCAL/MOL
REMARK 922        TOTAL FREE ENERGY PREDICTED BY IDOCK:   -8.85 KCAL/MOL
REMARK 923 INTER-LIGAND FREE ENERGY PREDICTED BY IDOCK:   -8.45 KCAL/MOL
REMARK 924 INTRA-LIGAND FREE ENERGY PREDICTED BY IDOCK:   -0.40 KCAL/MOL
REMARK 927      BINDING AFFINITY PREDICTED BY RF-SCORE:    0.00 PKD
ROOT
HETATM    1  C   UNL     1      -7.515  15.388  67.748  1.00  0.00    -0.155 C  
HETATM    2  O   UNL     1      -8.924  15.456  67.950  1.00  0.00    -0.171 OA 
ENDROOT
BRANCH   2   3
HETATM    3  C   UNL     1      -9.689  15.544  66.808  1.00  0.00    -0.239 A  
HETATM    4  C   UNL     1     -10.015  16.864  66.383  1.00  0.00    -0.309 A  
HETATM    5  C   UNL     1     -10.770  17.066  65.217  1.00  0.00    -0.108 A  
HETATM    6  C   UNL     1     -12.664  11.871  63.600  1.00  0.00    -0.390 C  
HETATM    7  N   UNL     1     -10.588  12.419  64.279  1.00  0.00    -0.336 NA 
HETATM    8  C   UNL     1     -11.272  15.983  64.506  1.00  0.00    -0.309 A  
HETATM    9  C   UNL     1      -9.968  12.146  65.479  1.00  0.00    -0.246 A  
HETATM   10  C   UNL     1     -10.948  14.708  64.941  1.00  0.00    -0.419 A  
HETATM   11  C   UNL     1     -11.205  11.511  63.336  1.00  0.00    -0.249 C  
HETATM   12  C   UNL     1     -10.126  14.435  66.050  1.00  0.00    -0.322 A  
HETATM   13  N   UNL     1      -9.774  13.080  66.374  1.00  0.00    -0.265 NA 
HETATM   14  C   UNL     1     -11.431  13.518  64.267  1.00  0.00    -0.383 A  
HETATM   15  N   UNL     1     -12.648  13.360  63.797  1.00  0.00    -0.708 NA 
BRANCH   4  16
HETATM   16  O   UNL     1      -9.547  17.922  67.140  1.00  0.00    -0.267 OA 
BRANCH  16  17
HETATM   17  C   UNL     1      -9.664  19.214  66.521  1.00  0.00    -0.359 C  
BRANCH  17  18
HETATM   18  C   UNL     1      -9.400  20.307  67.555  1.00  0.00    -0.513 C  
BRANCH  18  19
HETATM   19  C   UNL     1      -8.036  20.991  67.357  1.00  0.00    -0.012 C  
BRANCH  19  20
HETATM   20  N   UNL     1      -6.902  20.059  67.228  1.00  0.00    -0.215 NA 
HETATM   21  O   UNL     1      -5.302  20.073  69.701  1.00  0.00    -0.202 OA 
HETATM   22  C   UNL     1      -5.582  20.719  67.357  1.00  0.00    -0.211 C  
HETATM   23  C   UNL     1      -6.959  18.978  68.242  1.00  0.00    -0.256 C  
HETATM   24  C   UNL     1      -6.581  19.426  69.667  1.00  0.00    -0.272 C  
HETATM   25  C   UNL     1      -5.262  21.177  68.788  1.00  0.00    -0.255 C  
ENDBRANCH  19  20
ENDBRANCH  18  19
ENDBRANCH  17  18
ENDBRANCH  16  17
ENDBRANCH   4  16
BRANCH   9  26
HETATM   26  N   UNL     1      -9.599  10.895  65.945  1.00  0.00    -0.206 N  
HETATM   27  O   UNL     1      -7.727  10.245  64.753  1.00  0.00    -0.146 OA 
HETATM   28  H   UNL     1     -10.109  10.598  66.777  1.00  0.00     0.000 HD 
HETATM   29  C   UNL     1      -8.666   9.965  65.493  1.00  0.00    -0.151 C  
BRANCH  29  30
HETATM   30  C   UNL     1      -8.761   8.581  66.018  1.00  0.00    -0.188 A  
HETATM   31  N   UNL     1      -9.141   6.943  67.749  1.00  0.00    -0.119 NA 
HETATM   32  C   UNL     1      -9.032   8.220  67.320  1.00  0.00    -0.137 A  
HETATM   33  C   UNL     1      -8.937   5.987  66.826  1.00  0.00    -0.122 A  
HETATM   34  N   UNL     1      -8.701   6.214  65.538  1.00  0.00    -0.134 NA 
HETATM   35  N   UNL     1      -9.052   4.674  67.245  1.00  0.00    -0.118 NA 
HETATM   36  H1  UNL     1      -8.896   3.948  66.544  1.00  0.00     0.000 HD 
HETATM   37  C   UNL     1      -8.608   7.509  65.161  1.00  0.00     0.042 A  
HETATM   38  H2  UNL     1      -9.963   4.535  67.682  1.00  0.00     0.000 HD 
ENDBRANCH  29  30
ENDBRANCH   9  26
ENDBRANCH   2   3
TORSDOF 8
ENDMDL
MODEL       81
REMARK 921   NORMALIZED FREE ENERGY PREDICTED BY IDOCK:   -5.19 KCAL/MOL
REMARK 922        TOTAL FREE ENERGY PREDICTED BY IDOCK:   -8.81 KCAL/MOL
REMARK 923 INTER-LIGAND FREE ENERGY PREDICTED BY IDOCK:   -8.16 KCAL/MOL
REMARK 924 INTRA-LIGAND FREE ENERGY PREDICTED BY IDOCK:   -0.65 KCAL/MOL
REMARK 927      BINDING AFFINITY PREDICTED BY RF-SCORE:    0.00 PKD
ROOT
HETATM    1  C   UNL     1     -12.051  11.412  70.111  1.00  0.00    -0.357 C  
HETATM    2  O   UNL     1     -12.459  11.215  68.760  1.00  0.00    -0.468 OA 
ENDROOT
BRANCH   2   3
HETATM    3  C   UNL     1     -11.441  11.073  67.841  1.00  0.00    -0.282 A  
HETATM    4  C   UNL     1     -11.216  12.193  66.992  1.00  0.00    -0.314 A  
HETATM    5  C   UNL     1     -10.187  12.161  66.037  1.00  0.00    -0.265 A  
HETATM    6  C   UNL     1      -8.241   6.739  65.941  1.00  0.00    -0.132 C  
HETATM    7  N   UNL     1      -8.707   7.993  67.752  1.00  0.00    -0.127 NA 
HETATM    8  C   UNL     1      -9.427  11.012  65.858  1.00  0.00    -0.244 A  
HETATM    9  C   UNL     1      -9.779   7.905  68.615  1.00  0.00    -0.158 A  
HETATM   10  C   UNL     1      -9.668   9.932  66.692  1.00  0.00    -0.252 A  
HETATM   11  C   UNL     1      -7.754   6.975  67.367  1.00  0.00    -0.110 C  
HETATM   12  C   UNL     1     -10.624   9.927  67.725  1.00  0.00    -0.261 A  
HETATM   13  N   UNL     1     -10.743   8.789  68.595  1.00  0.00    -0.129 NA 
HETATM   14  C   UNL     1      -8.929   8.689  66.576  1.00  0.00    -0.154 A  
HETATM   15  N   UNL     1      -8.603   8.109  65.442  1.00  0.00    -0.154 NA 
BRANCH   4  16
HETATM   16  O   UNL     1     -12.023  13.303  67.156  1.00  0.00    -0.368 OA 
BRANCH  16  17
HETATM   17  C   UNL     1     -11.450  14.545  66.713  1.00  0.00    -0.367 C  
BRANCH  17  18
HETATM   18  C   UNL     1     -11.162  15.438  67.918  1.00  0.00    -0.329 C  
BRANCH  18  19
HETATM   19  C   UNL     1     -10.078  16.492  67.627  1.00  0.00    -0.266 C  
BRANCH  19  20
HETATM   20  N   UNL     1      -8.898  16.408  68.504  1.00  0.00    -0.214 NA 
HETATM   21  O   UNL     1      -6.575  15.441  66.973  1.00  0.00    -0.268 OA 
HETATM   22  C   UNL     1      -8.345  15.037  68.614  1.00  0.00    -0.166 C  
HETATM   23  C   UNL     1      -7.802  17.292  68.039  1.00  0.00    -0.205 C  
HETATM   24  C   UNL     1      -7.059  16.778  66.791  1.00  0.00    -0.235 C  
HETATM   25  C   UNL     1      -7.642  14.555  67.336  1.00  0.00    -0.184 C  
ENDBRANCH  19  20
ENDBRANCH  18  19
ENDBRANCH  17  18
ENDBRANCH  16  17
ENDBRANCH   4  16
BRANCH   9  26
HETATM   26  N   UNL     1     -10.047   6.863  69.485  1.00  0.00    -0.170 N  
HETATM   27  O   UNL     1     -11.803   7.531  70.834  1.00  0.00    -0.292 OA 
HETATM   28  H   UNL     1      -9.545   6.002  69.266  1.00  0.00     0.000 HD 
HETATM   29  C   UNL     1     -10.871   6.765  70.603  1.00  0.00    -0.250 C  
BRANCH  29  30
HETATM   30  C   UNL     1     -10.668   5.609  71.512  1.00  0.00    -0.306 A  
HETATM   31  N   UNL     1      -9.953   3.364  72.033  1.00  0.00    -0.167 NA 
HETATM   32  C   UNL     1     -10.152   4.380  71.164  1.00  0.00    -0.126 A  
HETATM   33  C   UNL     1     -10.324   3.590  73.305  1.00  0.00    -0.164 A  
HETATM   34  N   UNL     1     -10.803   4.742  73.762  1.00  0.00    -0.294 NA 
HETATM   35  N   UNL     1     -10.122   2.564  74.210  1.00  0.00    -0.112 NA 
HETATM   36  H1  UNL     1     -10.403   2.735  75.176  1.00  0.00     0.000 HD 
HETATM   37  C   UNL     1     -10.975   5.727  72.853  1.00  0.00    -0.274 A  
HETATM   38  H2  UNL     1      -9.143   2.277  74.187  1.00  0.00     0.000 HD 
ENDBRANCH  29  30
ENDBRANCH   9  26
ENDBRANCH   2   3
TORSDOF 8
ENDMDL
MODEL       82
REMARK 921   NORMALIZED FREE ENERGY PREDICTED BY IDOCK:   -5.15 KCAL/MOL
REMARK 922        TOTAL FREE ENERGY PREDICTED BY IDOCK:   -8.76 KCAL/MOL
REMARK 923 INTER-LIGAND FREE ENERGY PREDICTED BY IDOCK:   -7.85 KCAL/MOL
REMARK 924 INTRA-LIGAND FREE ENERGY PREDICTED BY IDOCK:   -0.91 KCAL/MOL
REMARK 927      BINDING AFFINITY PREDICTED BY RF-SCORE:    0.00 PKD
ROOT
HETATM    1  C   UNL     1     -11.429   6.118  71.549  1.00  0.00    -0.264 C  
HETATM    2  O   UNL     1     -10.038   6.037  71.843  1.00  0.00    -0.187 OA 
ENDROOT
BRANCH   2   3
HETATM    3  C   UNL     1      -9.188   6.446  70.838  1.00  0.00    -0.158 A  
HETATM    4  C   UNL     1      -8.317   5.445  70.321  1.00  0.00    -0.112 A  
HETATM    5  C   UNL     1      -7.428   5.750  69.277  1.00  0.00    -0.083 A  
HETATM    6  C   UNL     1      -7.629  11.469  68.608  1.00  0.00    -0.134 C  
HETATM    7  N   UNL     1      -9.366  10.061  68.871  1.00  0.00    -0.164 NA 
HETATM    8  C   UNL     1      -7.334   7.047  68.789  1.00  0.00    -0.093 A  
HETATM    9  C   UNL     1     -10.165   9.866  69.978  1.00  0.00    -0.271 A  
HETATM   10  C   UNL     1      -8.186   8.007  69.312  1.00  0.00    -0.127 A  
HETATM   11  C   UNL     1      -9.073  11.284  68.155  1.00  0.00    -0.166 C  
HETATM   12  C   UNL     1      -9.159   7.749  70.296  1.00  0.00    -0.152 A  
HETATM   13  N   UNL     1     -10.057   8.791  70.714  1.00  0.00    -0.197 NA 
HETATM   14  C   UNL     1      -8.156   9.388  68.869  1.00  0.00    -0.103 A  
HETATM   15  N   UNL     1      -7.064  10.077  68.625  1.00  0.00    -0.076 NA 
BRANCH   4  16
HETATM   16  O   UNL     1      -8.395   4.175  70.862  1.00  0.00    -0.076 OA 
BRANCH  16  17
HETATM   17  C   UNL     1      -8.191   3.100  69.930  1.00  0.00    -0.044 C  
BRANCH  17  18
HETATM   18  C   UNL     1      -9.507   2.771  69.227  1.00  0.00    -0.145 C  
BRANCH  18  19
HETATM   19  C   UNL     1      -9.354   2.679  67.699  1.00  0.00    -0.163 C  
BRANCH  19  20
HETATM   20  N   UNL     1      -8.889   3.921  67.058  1.00  0.00    -0.118 NA 
HETATM   21  O   UNL     1      -9.885   4.059  64.290  1.00  0.00    -0.166 OA 
HETATM   22  C   UNL     1      -8.047   3.685  65.862  1.00  0.00    -0.093 C  
HETATM   23  C   UNL     1     -10.022   4.783  66.641  1.00  0.00    -0.235 C  
HETATM   24  C   UNL     1     -10.773   4.281  65.393  1.00  0.00    -0.053 C  
HETATM   25  C   UNL     1      -8.833   3.156  64.653  1.00  0.00    -0.115 C  
ENDBRANCH  19  20
ENDBRANCH  18  19
ENDBRANCH  17  18
ENDBRANCH  16  17
ENDBRANCH   4  16
BRANCH   9  26
HETATM   26  N   UNL     1     -11.051  10.781  70.520  1.00  0.00    -0.433 N  
HETATM   27  O   UNL     1     -12.470  11.449  68.822  1.00  0.00    -0.396 OA 
HETATM   28  H   UNL     1     -10.998  10.856  71.536  1.00  0.00     0.000 HD 
HETATM   29  C   UNL     1     -12.001  11.620  69.943  1.00  0.00    -0.340 C  
BRANCH  29  30
HETATM   30  C   UNL     1     -12.545  12.723  70.774  1.00  0.00    -0.308 A  
HETATM   31  N   UNL     1     -13.828  13.621  72.610  1.00  0.00    -0.754 NA 
HETATM   32  C   UNL     1     -13.382  12.588  71.860  1.00  0.00    -0.368 A  
HETATM   33  C   UNL     1     -13.434  14.847  72.225  1.00  0.00    -0.409 A  
HETATM   34  N   UNL     1     -12.606  15.096  71.216  1.00  0.00    -0.322 NA 
HETATM   35  N   UNL     1     -13.875  15.916  72.984  1.00  0.00    -0.659 NA 
HETATM   36  H1  UNL     1     -13.577  16.847  72.692  1.00  0.00     0.000 HD 
HETATM   37  C   UNL     1     -12.185  14.028  70.504  1.00  0.00    -0.365 A  
HETATM   38  H2  UNL     1     -13.620  15.768  73.961  1.00  0.00     0.000 HD 
ENDBRANCH  29  30
ENDBRANCH   9  26
ENDBRANCH   2   3
TORSDOF 8
ENDMDL
MODEL       83
REMARK 921   NORMALIZED FREE ENERGY PREDICTED BY IDOCK:   -5.13 KCAL/MOL
REMARK 922        TOTAL FREE ENERGY PREDICTED BY IDOCK:   -8.73 KCAL/MOL
REMARK 923 INTER-LIGAND FREE ENERGY PREDICTED BY IDOCK:   -7.93 KCAL/MOL
REMARK 924 INTRA-LIGAND FREE ENERGY PREDICTED BY IDOCK:   -0.80 KCAL/MOL
REMARK 927      BINDING AFFINITY PREDICTED BY RF-SCORE:    0.00 PKD
ROOT
HETATM    1  C   UNL     1      -6.823  12.064  68.912  1.00  0.00    -0.103 C  
HETATM    2  O   UNL     1      -6.848  11.735  67.526  1.00  0.00    -0.092 OA 
ENDROOT
BRANCH   2   3
HETATM    3  C   UNL     1      -8.042  11.239  67.049  1.00  0.00    -0.149 A  
HETATM    4  C   UNL     1      -8.145   9.820  66.998  1.00  0.00    -0.113 A  
HETATM    5  C   UNL     1      -9.330   9.212  66.551  1.00  0.00    -0.244 A  
HETATM    6  C   UNL     1     -12.602  13.439  64.403  1.00  0.00    -0.190 C  
HETATM    7  N   UNL     1     -11.440  13.455  66.332  1.00  0.00    -0.317 NA 
HETATM    8  C   UNL     1     -10.384   9.985  66.082  1.00  0.00    -0.225 A  
HETATM    9  C   UNL     1     -10.267  14.115  66.632  1.00  0.00    -0.270 A  
HETATM   10  C   UNL     1     -10.259  11.364  66.134  1.00  0.00    -0.282 A  
HETATM   11  C   UNL     1     -12.687  13.985  65.825  1.00  0.00    -0.450 C  
HETATM   12  C   UNL     1      -9.136  12.038  66.650  1.00  0.00    -0.205 A  
HETATM   13  N   UNL     1      -9.134  13.472  66.743  1.00  0.00    -0.237 NA 
HETATM   14  C   UNL     1     -11.305  12.251  65.661  1.00  0.00    -0.350 A  
HETATM   15  N   UNL     1     -12.011  12.069  64.568  1.00  0.00    -0.304 NA 
BRANCH   4  16
HETATM   16  O   UNL     1      -7.059   9.076  67.421  1.00  0.00    -0.078 OA 
BRANCH  16  17
HETATM   17  C   UNL     1      -7.297   7.663  67.539  1.00  0.00    -0.095 C  
BRANCH  17  18
HETATM   18  C   UNL     1      -7.302   7.263  69.013  1.00  0.00    -0.091 C  
BRANCH  18  19
HETATM   19  C   UNL     1      -6.929   5.785  69.225  1.00  0.00    -0.064 C  
BRANCH  19  20
HETATM   20  N   UNL     1      -7.739   4.835  68.444  1.00  0.00    -0.080 NA 
HETATM   21  O   UNL     1      -6.941   2.072  69.078  1.00  0.00    -0.036 OA 
HETATM   22  C   UNL     1      -6.934   3.979  67.543  1.00  0.00    -0.055 C  
HETATM   23  C   UNL     1      -8.532   3.937  69.319  1.00  0.00    -0.069 C  
HETATM   24  C   UNL     1      -7.705   2.841  70.017  1.00  0.00    -0.043 C  
HETATM   25  C   UNL     1      -6.102   2.921  68.285  1.00  0.00    -0.025 C  
ENDBRANCH  19  20
ENDBRANCH  18  19
ENDBRANCH  17  18
ENDBRANCH  16  17
ENDBRANCH   4  16
BRANCH   9  26
HETATM   26  N   UNL     1     -10.099  15.486  66.724  1.00  0.00    -0.257 N  
HETATM   27  O   UNL     1     -10.732  16.391  64.692  1.00  0.00    -0.693 OA 
HETATM   28  H   UNL     1      -9.887  15.814  67.666  1.00  0.00     0.000 HD 
HETATM   29  C   UNL     1     -10.163  16.503  65.775  1.00  0.00    -0.329 C  
BRANCH  29  30
HETATM   30  C   UNL     1      -9.596  17.825  66.140  1.00  0.00    -0.202 A  
HETATM   31  N   UNL     1      -9.753  20.144  66.787  1.00  0.00    -0.421 NA 
HETATM   32  C   UNL     1     -10.311  18.967  66.426  1.00  0.00    -0.448 A  
HETATM   33  C   UNL     1      -8.410  20.176  66.829  1.00  0.00    -0.301 A  
HETATM   34  N   UNL     1      -7.618  19.131  66.604  1.00  0.00    -0.233 NA 
HETATM   35  N   UNL     1      -7.820  21.370  67.203  1.00  0.00    -0.665 NA 
HETATM   36  H1  UNL     1      -6.800  21.394  67.235  1.00  0.00     0.000 HD 
HETATM   37  C   UNL     1      -8.229  17.977  66.254  1.00  0.00    -0.208 A  
HETATM   38  H2  UNL     1      -8.196  21.668  68.104  1.00  0.00     0.000 HD 
ENDBRANCH  29  30
ENDBRANCH   9  26
ENDBRANCH   2   3
TORSDOF 8
ENDMDL
MODEL       84
REMARK 921   NORMALIZED FREE ENERGY PREDICTED BY IDOCK:   -5.12 KCAL/MOL
REMARK 922        TOTAL FREE ENERGY PREDICTED BY IDOCK:   -8.72 KCAL/MOL
REMARK 923 INTER-LIGAND FREE ENERGY PREDICTED BY IDOCK:   -7.77 KCAL/MOL
REMARK 924 INTRA-LIGAND FREE ENERGY PREDICTED BY IDOCK:   -0.94 KCAL/MOL
REMARK 927      BINDING AFFINITY PREDICTED BY RF-SCORE:    0.00 PKD
ROOT
HETATM    1  C   UNL     1     -10.459  10.157  66.388  1.00  0.00    -0.140 C  
HETATM    2  O   UNL     1     -10.417  11.163  67.395  1.00  0.00    -0.201 OA 
ENDROOT
BRANCH   2   3
HETATM    3  C   UNL     1      -9.165  11.471  67.883  1.00  0.00    -0.168 A  
HETATM    4  C   UNL     1      -8.594  12.682  67.399  1.00  0.00    -0.189 A  
HETATM    5  C   UNL     1      -7.333  13.101  67.852  1.00  0.00    -0.131 A  
HETATM    6  C   UNL     1      -5.161   8.703  70.874  1.00  0.00    -0.028 C  
HETATM    7  N   UNL     1      -7.254   9.529  70.973  1.00  0.00    -0.310 NA 
HETATM    8  C   UNL     1      -6.594  12.303  68.716  1.00  0.00    -0.084 A  
HETATM    9  C   UNL     1      -8.422   8.994  70.473  1.00  0.00    -0.200 A  
HETATM   10  C   UNL     1      -7.166  11.125  69.169  1.00  0.00    -0.123 A  
HETATM   11  C   UNL     1      -6.287   8.941  71.875  1.00  0.00    -0.061 C  
HETATM   12  C   UNL     1      -8.460  10.689  68.824  1.00  0.00    -0.149 A  
HETATM   13  N   UNL     1      -9.001   9.495  69.413  1.00  0.00    -0.160 NA 
HETATM   14  C   UNL     1      -6.469  10.226  70.069  1.00  0.00    -0.116 A  
HETATM   15  N   UNL     1      -5.196   9.911  69.983  1.00  0.00    -0.036 NA 
BRANCH   4  16
HETATM   16  O   UNL     1      -9.329  13.429  66.497  1.00  0.00    -0.256 OA 
BRANCH  16  17
HETATM   17  C   UNL     1      -9.738  14.724  66.968  1.00  0.00    -0.237 C  
BRANCH  17  18
HETATM   18  C   UNL     1      -9.549  15.759  65.860  1.00  0.00    -0.382 C  
BRANCH  18  19
HETATM   19  C   UNL     1     -10.284  17.079  66.152  1.00  0.00    -0.337 C  
BRANCH  19  20
HETATM   20  N   UNL     1      -9.444  18.282  66.030  1.00  0.00    -0.513 NA 
HETATM   21  O   UNL     1      -9.161  19.582  68.658  1.00  0.00    -0.360 OA 
HETATM   22  C   UNL     1     -10.144  19.529  66.417  1.00  0.00    -0.455 C  
HETATM   23  C   UNL     1      -8.219  18.185  66.861  1.00  0.00    -0.243 C  
HETATM   24  C   UNL     1      -8.461  18.364  68.371  1.00  0.00    -0.326 C  
HETATM   25  C   UNL     1     -10.393  19.650  67.929  1.00  0.00    -0.454 C  
ENDBRANCH  19  20
ENDBRANCH  18  19
ENDBRANCH  17  18
ENDBRANCH  16  17
ENDBRANCH   4  16
BRANCH   9  26
HETATM   26  N   UNL     1      -9.046   7.838  70.910  1.00  0.00    -0.147 N  
HETATM   27  O   UNL     1     -10.829   8.482  72.235  1.00  0.00    -0.330 OA 
HETATM   28  H   UNL     1      -8.705   6.989  70.459  1.00  0.00     0.000 HD 
HETATM   29  C   UNL     1     -10.052   7.614  71.846  1.00  0.00    -0.178 C  
BRANCH  29  30
HETATM   30  C   UNL     1     -10.253   6.224  72.324  1.00  0.00    -0.209 A  
HETATM   31  N   UNL     1     -10.103   3.823  72.127  1.00  0.00    -0.169 NA 
HETATM   32  C   UNL     1      -9.932   5.072  71.639  1.00  0.00    -0.187 A  
HETATM   33  C   UNL     1     -10.652   3.734  73.351  1.00  0.00    -0.193 A  
HETATM   34  N   UNL     1     -10.972   4.773  74.116  1.00  0.00    -0.312 NA 
HETATM   35  N   UNL     1     -10.828   2.464  73.870  1.00  0.00    -0.170 NA 
HETATM   36  H1  UNL     1     -11.245   2.397  74.799  1.00  0.00     0.000 HD 
HETATM   37  C   UNL     1     -10.775   5.999  73.583  1.00  0.00    -0.219 A  
HETATM   38  H2  UNL     1      -9.938   1.966  73.860  1.00  0.00     0.000 HD 
ENDBRANCH  29  30
ENDBRANCH   9  26
ENDBRANCH   2   3
TORSDOF 8
ENDMDL
MODEL       85
REMARK 921   NORMALIZED FREE ENERGY PREDICTED BY IDOCK:   -5.11 KCAL/MOL
REMARK 922        TOTAL FREE ENERGY PREDICTED BY IDOCK:   -8.71 KCAL/MOL
REMARK 923 INTER-LIGAND FREE ENERGY PREDICTED BY IDOCK:   -8.01 KCAL/MOL
REMARK 924 INTRA-LIGAND FREE ENERGY PREDICTED BY IDOCK:   -0.69 KCAL/MOL
REMARK 927      BINDING AFFINITY PREDICTED BY RF-SCORE:    0.00 PKD
ROOT
HETATM    1  C   UNL     1      -7.746   9.648  69.139  1.00  0.00    -0.087 C  
HETATM    2  O   UNL     1      -8.783   8.924  68.484  1.00  0.00    -0.132 OA 
ENDROOT
BRANCH   2   3
HETATM    3  C   UNL     1      -9.034   9.286  67.178  1.00  0.00    -0.126 A  
HETATM    4  C   UNL     1      -8.447   8.453  66.184  1.00  0.00    -0.131 A  
HETATM    5  C   UNL     1      -8.661   8.718  64.821  1.00  0.00    -0.161 A  
HETATM    6  C   UNL     1     -11.268  13.850  64.568  1.00  0.00    -0.365 C  
HETATM    7  N   UNL     1     -11.739  12.144  65.960  1.00  0.00    -0.504 NA 
HETATM    8  C   UNL     1      -9.382   9.838  64.427  1.00  0.00    -0.278 A  
HETATM    9  C   UNL     1     -11.463  12.021  67.305  1.00  0.00    -0.335 A  
HETATM   10  C   UNL     1      -9.939  10.638  65.412  1.00  0.00    -0.343 A  
HETATM   11  C   UNL     1     -12.455  13.190  65.262  1.00  0.00    -0.495 C  
HETATM   12  C   UNL     1      -9.837  10.381  66.792  1.00  0.00    -0.195 A  
HETATM   13  N   UNL     1     -10.522  11.221  67.736  1.00  0.00    -0.180 NA 
HETATM   14  C   UNL     1     -10.704  11.830  65.096  1.00  0.00    -0.291 A  
HETATM   15  N   UNL     1     -10.391  12.700  64.162  1.00  0.00    -0.391 NA 
BRANCH   4  16
HETATM   16  O   UNL     1      -7.688   7.377  66.605  1.00  0.00    -0.097 OA 
BRANCH  16  17
HETATM   17  C   UNL     1      -6.752   6.874  65.637  1.00  0.00    -0.052 C  
BRANCH  17  18
HETATM   18  C   UNL     1      -6.597   5.363  65.806  1.00  0.00    -0.044 C  
BRANCH  18  19
HETATM   19  C   UNL     1      -7.543   4.788  66.874  1.00  0.00    -0.087 C  
BRANCH  19  20
HETATM   20  N   UNL     1      -7.943   3.389  66.642  1.00  0.00    -0.080 NA 
HETATM   21  O   UNL     1      -5.735   1.579  67.364  1.00  0.00    -0.017 OA 
HETATM   22  C   UNL     1      -7.087   2.691  65.654  1.00  0.00    -0.061 C  
HETATM   23  C   UNL     1      -7.917   2.593  67.893  1.00  0.00    -0.059 C  
HETATM   24  C   UNL     1      -6.503   2.231  68.384  1.00  0.00    -0.029 C  
HETATM   25  C   UNL     1      -5.676   2.379  66.177  1.00  0.00    -0.021 C  
ENDBRANCH  19  20
ENDBRANCH  18  19
ENDBRANCH  17  18
ENDBRANCH  16  17
ENDBRANCH   4  16
BRANCH   9  26
HETATM   26  N   UNL     1     -12.013  12.775  68.327  1.00  0.00    -0.293 N  
HETATM   27  O   UNL     1     -11.189  14.925  68.111  1.00  0.00    -0.274 OA 
HETATM   28  H   UNL     1     -12.747  12.294  68.846  1.00  0.00     0.000 HD 
HETATM   29  C   UNL     1     -11.755  14.066  68.781  1.00  0.00    -0.353 C  
BRANCH  29  30
HETATM   30  C   UNL     1     -12.284  14.448  70.114  1.00  0.00    -0.401 A  
HETATM   31  N   UNL     1     -12.932  14.002  72.395  1.00  0.00    -0.386 NA 
HETATM   32  C   UNL     1     -12.477  13.604  71.186  1.00  0.00    -0.359 A  
HETATM   33  C   UNL     1     -13.235  15.306  72.516  1.00  0.00    -0.430 A  
HETATM   34  N   UNL     1     -13.063  16.217  71.563  1.00  0.00    -0.073 NA 
HETATM   35  N   UNL     1     -13.697  15.733  73.748  1.00  0.00    -0.643 NA 
HETATM   36  H1  UNL     1     -13.927  16.723  73.840  1.00  0.00     0.000 HD 
HETATM   37  C   UNL     1     -12.598  15.766  70.376  1.00  0.00    -0.239 A  
HETATM   38  H2  UNL     1     -13.026  15.472  74.471  1.00  0.00     0.000 HD 
ENDBRANCH  29  30
ENDBRANCH   9  26
ENDBRANCH   2   3
TORSDOF 8
ENDMDL
MODEL       86
REMARK 921   NORMALIZED FREE ENERGY PREDICTED BY IDOCK:   -5.08 KCAL/MOL
REMARK 922        TOTAL FREE ENERGY PREDICTED BY IDOCK:   -8.66 KCAL/MOL
REMARK 923 INTER-LIGAND FREE ENERGY PREDICTED BY IDOCK:   -7.38 KCAL/MOL
REMARK 924 INTRA-LIGAND FREE ENERGY PREDICTED BY IDOCK:   -1.28 KCAL/MOL
REMARK 927      BINDING AFFINITY PREDICTED BY RF-SCORE:    0.00 PKD
ROOT
HETATM    1  C   UNL     1     -11.622   6.455  69.810  1.00  0.00    -0.327 C  
HETATM    2  O   UNL     1     -10.207   6.563  69.691  1.00  0.00    -0.175 OA 
ENDROOT
BRANCH   2   3
HETATM    3  C   UNL     1      -9.710   6.536  68.405  1.00  0.00    -0.132 A  
HETATM    4  C   UNL     1      -9.232   5.273  67.955  1.00  0.00    -0.112 A  
HETATM    5  C   UNL     1      -8.728   5.131  66.651  1.00  0.00    -0.109 A  
HETATM    6  C   UNL     1      -8.307  10.457  64.494  1.00  0.00    -0.146 C  
HETATM    7  N   UNL     1     -10.030   9.581  65.649  1.00  0.00    -0.280 NA 
HETATM    8  C   UNL     1      -8.620   6.234  65.814  1.00  0.00    -0.153 A  
HETATM    9  C   UNL     1     -10.412   9.821  66.952  1.00  0.00    -0.211 A  
HETATM   10  C   UNL     1      -9.086   7.455  66.275  1.00  0.00    -0.195 A  
HETATM   11  C   UNL     1      -9.829  10.518  64.565  1.00  0.00    -0.337 C  
HETATM   12  C   UNL     1      -9.681   7.649  67.536  1.00  0.00    -0.156 A  
HETATM   13  N   UNL     1     -10.214   8.935  67.893  1.00  0.00    -0.210 NA 
HETATM   14  C   UNL     1      -9.010   8.662  65.475  1.00  0.00    -0.158 A  
HETATM   15  N   UNL     1      -7.983   9.010  64.732  1.00  0.00    -0.121 NA 
BRANCH   4  16
HETATM   16  O   UNL     1      -9.301   4.205  68.829  1.00  0.00    -0.135 OA 
BRANCH  16  17
HETATM   17  C   UNL     1      -8.034   3.719  69.302  1.00  0.00    -0.054 C  
BRANCH  17  18
HETATM   18  C   UNL     1      -8.046   3.647  70.827  1.00  0.00    -0.064 C  
BRANCH  18  19
HETATM   19  C   UNL     1      -9.471   3.590  71.405  1.00  0.00    -0.156 C  
BRANCH  19  20
HETATM   20  N   UNL     1      -9.529   3.537  72.876  1.00  0.00    -0.109 NA 
HETATM   21  O   UNL     1     -10.677   6.037  73.928  1.00  0.00    -0.252 OA 
HETATM   22  C   UNL     1      -8.734   4.602  73.533  1.00  0.00    -0.103 C  
HETATM   23  C   UNL     1     -10.920   3.648  73.378  1.00  0.00    -0.215 C  
HETATM   24  C   UNL     1     -11.515   5.066  73.287  1.00  0.00    -0.259 C  
HETATM   25  C   UNL     1      -9.349   6.003  73.390  1.00  0.00    -0.134 C  
ENDBRANCH  19  20
ENDBRANCH  18  19
ENDBRANCH  17  18
ENDBRANCH  16  17
ENDBRANCH   4  16
BRANCH   9  26
HETATM   26  N   UNL     1     -10.909  11.012  67.454  1.00  0.00    -0.256 N  
HETATM   27  O   UNL     1      -9.194  12.560  67.370  1.00  0.00    -0.174 OA 
HETATM   28  H   UNL     1     -11.917  11.006  67.608  1.00  0.00     0.000 HD 
HETATM   29  C   UNL     1     -10.295  12.216  67.790  1.00  0.00    -0.206 C  
BRANCH  29  30
HETATM   30  C   UNL     1     -11.063  13.175  68.622  1.00  0.00    -0.304 A  
HETATM   31  N   UNL     1     -11.831  15.379  69.234  1.00  0.00    -0.342 NA 
HETATM   32  C   UNL     1     -11.090  14.544  68.472  1.00  0.00    -0.256 A  
HETATM   33  C   UNL     1     -12.554  14.805  70.211  1.00  0.00    -0.315 A  
HETATM   34  N   UNL     1     -12.631  13.496  70.430  1.00  0.00    -0.245 NA 
HETATM   35  N   UNL     1     -13.325  15.643  70.998  1.00  0.00    -0.669 NA 
HETATM   36  H1  UNL     1     -13.874  15.208  71.740  1.00  0.00     0.000 HD 
HETATM   37  C   UNL     1     -11.875  12.707  69.635  1.00  0.00    -0.311 A  
HETATM   38  H2  UNL     1     -13.939  16.199  70.401  1.00  0.00     0.000 HD 
ENDBRANCH  29  30
ENDBRANCH   9  26
ENDBRANCH   2   3
TORSDOF 8
ENDMDL
MODEL       87
REMARK 921   NORMALIZED FREE ENERGY PREDICTED BY IDOCK:   -5.04 KCAL/MOL
REMARK 922        TOTAL FREE ENERGY PREDICTED BY IDOCK:   -8.60 KCAL/MOL
REMARK 923 INTER-LIGAND FREE ENERGY PREDICTED BY IDOCK:   -8.69 KCAL/MOL
REMARK 924 INTRA-LIGAND FREE ENERGY PREDICTED BY IDOCK:    0.09 KCAL/MOL
REMARK 927      BINDING AFFINITY PREDICTED BY RF-SCORE:    0.00 PKD
ROOT
HETATM    1  C   UNL     1     -12.283  13.208  69.862  1.00  0.00    -0.225 C  
HETATM    2  O   UNL     1     -11.425  14.308  69.572  1.00  0.00    -0.261 OA 
ENDROOT
BRANCH   2   3
HETATM    3  C   UNL     1     -11.006  14.414  68.263  1.00  0.00    -0.247 A  
HETATM    4  C   UNL     1     -10.880  15.740  67.761  1.00  0.00    -0.316 A  
HETATM    5  C   UNL     1     -10.436  15.960  66.447  1.00  0.00    -0.311 A  
HETATM    6  C   UNL     1     -10.331  10.795  63.895  1.00  0.00    -0.259 C  
HETATM    7  N   UNL     1      -9.574  11.321  65.950  1.00  0.00    -0.213 NA 
HETATM    8  C   UNL     1     -10.189  14.888  65.599  1.00  0.00    -0.382 A  
HETATM    9  C   UNL     1     -10.128  11.030  67.178  1.00  0.00    -0.193 A  
HETATM   10  C   UNL     1     -10.324  13.605  66.107  1.00  0.00    -0.297 A  
HETATM   11  C   UNL     1      -9.217  10.427  64.869  1.00  0.00    -0.221 C  
HETATM   12  C   UNL     1     -10.681  13.316  67.438  1.00  0.00    -0.258 A  
HETATM   13  N   UNL     1     -10.712  11.954  67.897  1.00  0.00    -0.197 NA 
HETATM   14  C   UNL     1     -10.092  12.426  65.295  1.00  0.00    -0.265 A  
HETATM   15  N   UNL     1     -10.480  12.282  64.048  1.00  0.00    -0.366 NA 
BRANCH   4  16
HETATM   16  O   UNL     1     -11.186  16.787  68.611  1.00  0.00    -0.298 OA 
BRANCH  16  17
HETATM   17  C   UNL     1     -10.089  17.663  68.918  1.00  0.00    -0.351 C  
BRANCH  17  18
HETATM   18  C   UNL     1     -10.177  18.921  68.055  1.00  0.00    -0.452 C  
BRANCH  18  19
HETATM   19  C   UNL     1      -8.795  19.433  67.614  1.00  0.00    -0.308 C  
BRANCH  19  20
HETATM   20  N   UNL     1      -7.663  18.636  68.115  1.00  0.00    -0.272 NA 
HETATM   21  O   UNL     1      -5.474  18.648  66.145  1.00  0.00    -0.142 OA 
HETATM   22  C   UNL     1      -7.324  17.485  67.246  1.00  0.00    -0.181 C  
HETATM   23  C   UNL     1      -6.435  19.456  68.264  1.00  0.00    -0.240 C  
HETATM   24  C   UNL     1      -5.747  19.814  66.933  1.00  0.00    -0.172 C  
HETATM   25  C   UNL     1      -6.669  17.892  65.917  1.00  0.00    -0.277 C  
ENDBRANCH  19  20
ENDBRANCH  18  19
ENDBRANCH  17  18
ENDBRANCH  16  17
ENDBRANCH   4  16
BRANCH   9  26
HETATM   26  N   UNL     1     -10.260   9.772  67.741  1.00  0.00    -0.194 N  
HETATM   27  O   UNL     1      -9.938  10.004  70.019  1.00  0.00    -0.249 OA 
HETATM   28  H   UNL     1     -10.604   9.064  67.092  1.00  0.00     0.000 HD 
HETATM   29  C   UNL     1     -10.012   9.290  69.023  1.00  0.00    -0.182 C  
BRANCH  29  30
HETATM   30  C   UNL     1      -9.932   7.819  69.204  1.00  0.00    -0.182 A  
HETATM   31  N   UNL     1     -10.766   5.680  69.947  1.00  0.00    -0.331 NA 
HETATM   32  C   UNL     1     -10.864   7.023  69.834  1.00  0.00    -0.251 A  
HETATM   33  C   UNL     1      -9.661   5.119  69.426  1.00  0.00    -0.177 A  
HETATM   34  N   UNL     1      -8.712   5.780  68.770  1.00  0.00    -0.108 NA 
HETATM   35  N   UNL     1      -9.547   3.744  69.526  1.00  0.00    -0.189 NA 
HETATM   36  H1  UNL     1      -8.708   3.319  69.131  1.00  0.00     0.000 HD 
HETATM   37  C   UNL     1      -8.863   7.120  68.680  1.00  0.00    -0.126 A  
HETATM   38  H2  UNL     1     -10.374   3.304  69.123  1.00  0.00     0.000 HD 
ENDBRANCH  29  30
ENDBRANCH   9  26
ENDBRANCH   2   3
TORSDOF 8
ENDMDL
MODEL       88
REMARK 921   NORMALIZED FREE ENERGY PREDICTED BY IDOCK:   -5.03 KCAL/MOL
REMARK 922        TOTAL FREE ENERGY PREDICTED BY IDOCK:   -8.59 KCAL/MOL
REMARK 923 INTER-LIGAND FREE ENERGY PREDICTED BY IDOCK:   -7.83 KCAL/MOL
REMARK 924 INTRA-LIGAND FREE ENERGY PREDICTED BY IDOCK:   -0.76 KCAL/MOL
REMARK 927      BINDING AFFINITY PREDICTED BY RF-SCORE:    0.00 PKD
ROOT
HETATM    1  C   UNL     1     -10.914   6.607  66.923  1.00  0.00    -0.326 C  
HETATM    2  O   UNL     1     -10.400   6.514  68.248  1.00  0.00    -0.158 OA 
ENDROOT
BRANCH   2   3
HETATM    3  C   UNL     1      -9.040   6.696  68.378  1.00  0.00    -0.124 A  
HETATM    4  C   UNL     1      -8.298   5.546  68.769  1.00  0.00    -0.102 A  
HETATM    5  C   UNL     1      -6.902   5.617  68.905  1.00  0.00    -0.058 A  
HETATM    6  C   UNL     1      -5.522  11.196  68.499  1.00  0.00    -0.043 C  
HETATM    7  N   UNL     1      -6.947  10.041  67.192  1.00  0.00    -0.083 NA 
HETATM    8  C   UNL     1      -6.238   6.825  68.735  1.00  0.00    -0.027 A  
HETATM    9  C   UNL     1      -8.325  10.076  67.169  1.00  0.00    -0.121 A  
HETATM   10  C   UNL     1      -6.981   7.933  68.360  1.00  0.00    -0.075 A  
HETATM   11  C   UNL     1      -5.998  11.124  67.051  1.00  0.00    -0.091 C  
HETATM   12  C   UNL     1      -8.369   7.912  68.123  1.00  0.00    -0.124 A  
HETATM   13  N   UNL     1      -9.039   9.093  67.653  1.00  0.00    -0.123 NA 
HETATM   14  C   UNL     1      -6.376   9.237  68.165  1.00  0.00    -0.054 A  
HETATM   15  N   UNL     1      -5.449   9.761  68.935  1.00  0.00    -0.036 NA 
BRANCH   4  16
HETATM   16  O   UNL     1      -8.991   4.370  68.985  1.00  0.00    -0.096 OA 
BRANCH  16  17
HETATM   17  C   UNL     1      -8.878   3.829  70.312  1.00  0.00    -0.086 C  
BRANCH  17  18
HETATM   18  C   UNL     1     -10.005   4.374  71.188  1.00  0.00    -0.243 C  
BRANCH  18  19
HETATM   19  C   UNL     1      -9.550   5.545  72.076  1.00  0.00    -0.151 C  
BRANCH  19  20
HETATM   20  N   UNL     1     -10.631   6.169  72.858  1.00  0.00    -0.220 NA 
HETATM   21  O   UNL     1     -11.190   8.870  71.825  1.00  0.00    -0.315 OA 
HETATM   22  C   UNL     1     -10.216   7.419  73.539  1.00  0.00    -0.349 C  
HETATM   23  C   UNL     1     -11.807   6.493  72.014  1.00  0.00    -0.329 C  
HETATM   24  C   UNL     1     -11.609   7.711  71.093  1.00  0.00    -0.280 C  
HETATM   25  C   UNL     1     -10.001   8.598  72.577  1.00  0.00    -0.187 C  
ENDBRANCH  19  20
ENDBRANCH  18  19
ENDBRANCH  17  18
ENDBRANCH  16  17
ENDBRANCH   4  16
BRANCH   9  26
HETATM   26  N   UNL     1      -9.111  11.147  66.777  1.00  0.00    -0.162 N  
HETATM   27  O   UNL     1     -11.233  10.783  67.619  1.00  0.00    -0.303 OA 
HETATM   28  H   UNL     1      -8.585  11.910  66.351  1.00  0.00     0.000 HD 
HETATM   29  C   UNL     1     -10.481  11.380  66.854  1.00  0.00    -0.240 C  
BRANCH  29  30
HETATM   30  C   UNL     1     -11.041  12.482  66.033  1.00  0.00    -0.329 A  
HETATM   31  N   UNL     1     -12.511  13.400  64.354  1.00  0.00    -0.620 NA 
HETATM   32  C   UNL     1     -12.005  12.362  65.056  1.00  0.00    -0.402 A  
HETATM   33  C   UNL     1     -11.996  14.610  64.631  1.00  0.00    -0.462 A  
HETATM   34  N   UNL     1     -11.088  14.852  65.571  1.00  0.00    -0.340 NA 
HETATM   35  N   UNL     1     -12.507  15.686  63.926  1.00  0.00    -0.881 NA 
HETATM   36  H1  UNL     1     -12.116  16.605  64.136  1.00  0.00     0.000 HD 
HETATM   37  C   UNL     1     -10.621  13.780  66.248  1.00  0.00    -0.289 A  
HETATM   38  H2  UNL     1     -13.521  15.715  64.036  1.00  0.00     0.000 HD 
ENDBRANCH  29  30
ENDBRANCH   9  26
ENDBRANCH   2   3
TORSDOF 8
ENDMDL
MODEL       89
REMARK 921   NORMALIZED FREE ENERGY PREDICTED BY IDOCK:   -5.01 KCAL/MOL
REMARK 922        TOTAL FREE ENERGY PREDICTED BY IDOCK:   -8.55 KCAL/MOL
REMARK 923 INTER-LIGAND FREE ENERGY PREDICTED BY IDOCK:   -7.57 KCAL/MOL
REMARK 924 INTRA-LIGAND FREE ENERGY PREDICTED BY IDOCK:   -0.98 KCAL/MOL
REMARK 927      BINDING AFFINITY PREDICTED BY RF-SCORE:    0.00 PKD
ROOT
HETATM    1  C   UNL     1     -11.216  10.993  69.277  1.00  0.00    -0.257 C  
HETATM    2  O   UNL     1     -11.913  10.731  68.063  1.00  0.00    -0.537 OA 
ENDROOT
BRANCH   2   3
HETATM    3  C   UNL     1     -11.152  10.768  66.914  1.00  0.00    -0.133 A  
HETATM    4  C   UNL     1     -11.329  11.918  66.093  1.00  0.00    -0.324 A  
HETATM    5  C   UNL     1     -10.583  12.067  64.913  1.00  0.00    -0.334 A  
HETATM    6  C   UNL     1      -7.890   7.045  64.062  1.00  0.00    -0.109 C  
HETATM    7  N   UNL     1      -8.076   8.187  65.994  1.00  0.00    -0.106 NA 
HETATM    8  C   UNL     1      -9.721  11.062  64.494  1.00  0.00    -0.323 A  
HETATM    9  C   UNL     1      -8.867   7.914  67.090  1.00  0.00    -0.132 A  
HETATM   10  C   UNL     1      -9.569   9.948  65.305  1.00  0.00    -0.361 A  
HETATM   11  C   UNL     1      -7.102   7.345  65.333  1.00  0.00    -0.061 C  
HETATM   12  C   UNL     1     -10.219   9.776  66.541  1.00  0.00    -0.219 A  
HETATM   13  N   UNL     1      -9.932   8.626  67.355  1.00  0.00    -0.192 NA 
HETATM   14  C   UNL     1      -8.696   8.847  64.947  1.00  0.00    -0.149 A  
HETATM   15  N   UNL     1      -8.580   8.339  63.740  1.00  0.00     0.082 NA 
BRANCH   4  16
HETATM   16  O   UNL     1     -12.234  12.877  66.508  1.00  0.00    -0.441 OA 
BRANCH  16  17
HETATM   17  C   UNL     1     -12.009  14.196  65.982  1.00  0.00    -0.413 C  
BRANCH  17  18
HETATM   18  C   UNL     1     -11.157  15.003  66.960  1.00  0.00    -0.334 C  
BRANCH  18  19
HETATM   19  C   UNL     1     -10.263  16.036  66.252  1.00  0.00    -0.316 C  
BRANCH  19  20
HETATM   20  N   UNL     1     -10.382  17.406  66.781  1.00  0.00    -0.317 NA 
HETATM   21  O   UNL     1      -7.937  18.130  68.254  1.00  0.00    -0.276 OA 
HETATM   22  C   UNL     1     -10.295  17.474  68.258  1.00  0.00    -0.379 C  
HETATM   23  C   UNL     1      -9.334  18.301  66.232  1.00  0.00    -0.213 C  
HETATM   24  C   UNL     1      -7.930  18.068  66.822  1.00  0.00    -0.237 C  
HETATM   25  C   UNL     1      -8.883  17.205  68.803  1.00  0.00    -0.235 C  
ENDBRANCH  19  20
ENDBRANCH  18  19
ENDBRANCH  17  18
ENDBRANCH  16  17
ENDBRANCH   4  16
BRANCH   9  26
HETATM   26  N   UNL     1      -8.738   6.834  67.946  1.00  0.00    -0.121 N  
HETATM   27  O   UNL     1      -9.466   4.962  66.800  1.00  0.00    -0.131 OA 
HETATM   28  H   UNL     1      -8.233   7.047  68.806  1.00  0.00     0.000 HD 
HETATM   29  C   UNL     1      -9.165   5.512  67.856  1.00  0.00    -0.108 C  
BRANCH  29  30
HETATM   30  C   UNL     1      -9.161   4.698  69.097  1.00  0.00    -0.184 A  
HETATM   31  N   UNL     1      -9.864   4.176  71.346  1.00  0.00    -0.187 NA 
HETATM   32  C   UNL     1      -9.872   4.963  70.247  1.00  0.00    -0.236 A  
HETATM   33  C   UNL     1      -9.077   3.088  71.290  1.00  0.00    -0.109 A  
HETATM   34  N   UNL     1      -8.371   2.715  70.226  1.00  0.00    -0.041 NA 
HETATM   35  N   UNL     1      -9.060   2.265  72.402  1.00  0.00    -0.077 NA 
HETATM   36  H1  UNL     1      -8.463   1.439  72.360  1.00  0.00     0.000 HD 
HETATM   37  C   UNL     1      -8.421   3.534  69.153  1.00  0.00    -0.066 A  
HETATM   38  H2  UNL     1     -10.014   1.984  72.631  1.00  0.00     0.000 HD 
ENDBRANCH  29  30
ENDBRANCH   9  26
ENDBRANCH   2   3
TORSDOF 8
ENDMDL
MODEL       90
REMARK 921   NORMALIZED FREE ENERGY PREDICTED BY IDOCK:   -5.00 KCAL/MOL
REMARK 922        TOTAL FREE ENERGY PREDICTED BY IDOCK:   -8.54 KCAL/MOL
REMARK 923 INTER-LIGAND FREE ENERGY PREDICTED BY IDOCK:   -7.71 KCAL/MOL
REMARK 924 INTRA-LIGAND FREE ENERGY PREDICTED BY IDOCK:   -0.84 KCAL/MOL
REMARK 927      BINDING AFFINITY PREDICTED BY RF-SCORE:    0.00 PKD
ROOT
HETATM    1  C   UNL     1      -6.089  10.782  66.693  1.00  0.00    -0.090 C  
HETATM    2  O   UNL     1      -6.988  10.644  67.789  1.00  0.00    -0.076 OA 
ENDROOT
BRANCH   2   3
HETATM    3  C   UNL     1      -8.316  10.481  67.458  1.00  0.00    -0.118 A  
HETATM    4  C   UNL     1      -8.772   9.135  67.381  1.00  0.00    -0.115 A  
HETATM    5  C   UNL     1     -10.115   8.858  67.075  1.00  0.00    -0.331 A  
HETATM    6  C   UNL     1     -12.474  13.871  65.492  1.00  0.00    -0.511 C  
HETATM    7  N   UNL     1     -11.121  13.491  67.252  1.00  0.00    -0.280 NA 
HETATM    8  C   UNL     1     -10.994   9.889  66.769  1.00  0.00     0.009 A  
HETATM    9  C   UNL     1      -9.795  13.829  67.415  1.00  0.00    -0.238 A  
HETATM   10  C   UNL     1     -10.527  11.192  66.844  1.00  0.00    -0.289 A  
HETATM   11  C   UNL     1     -12.250  14.336  66.927  1.00  0.00    -0.331 C  
HETATM   12  C   UNL     1      -9.219  11.543  67.228  1.00  0.00    -0.167 A  
HETATM   13  N   UNL     1      -8.850  12.926  67.359  1.00  0.00    -0.189 NA 
HETATM   14  C   UNL     1     -11.369  12.332  66.537  1.00  0.00    -0.351 A  
HETATM   15  N   UNL     1     -12.224  12.390  65.540  1.00  0.00    -0.604 NA 
BRANCH   4  16
HETATM   16  O   UNL     1      -7.862   8.127  67.638  1.00  0.00    -0.110 OA 
BRANCH  16  17
HETATM   17  C   UNL     1      -7.922   7.573  68.963  1.00  0.00    -0.122 C  
BRANCH  17  18
HETATM   18  C   UNL     1      -8.387   6.119  68.893  1.00  0.00    -0.115 C  
BRANCH  18  19
HETATM   19  C   UNL     1      -8.481   5.461  70.281  1.00  0.00    -0.119 C  
BRANCH  19  20
HETATM   20  N   UNL     1      -7.562   4.327  70.479  1.00  0.00    -0.051 NA 
HETATM   21  O   UNL     1      -8.979   2.103  71.791  1.00  0.00    -0.070 OA 
HETATM   22  C   UNL     1      -7.385   3.957  71.902  1.00  0.00    -0.059 C  
HETATM   23  C   UNL     1      -8.022   3.114  69.759  1.00  0.00    -0.045 C  
HETATM   24  C   UNL     1      -9.224   2.407  70.411  1.00  0.00    -0.122 C  
HETATM   25  C   UNL     1      -8.621   3.283  72.520  1.00  0.00    -0.084 C  
ENDBRANCH  19  20
ENDBRANCH  18  19
ENDBRANCH  17  18
ENDBRANCH  16  17
ENDBRANCH   4  16
BRANCH   9  26
HETATM   26  N   UNL     1      -9.283  15.111  67.523  1.00  0.00    -0.184 N  
HETATM   27  O   UNL     1      -9.851  15.901  69.620  1.00  0.00    -0.268 OA 
HETATM   28  H   UNL     1      -8.663  15.373  66.756  1.00  0.00     0.000 HD 
HETATM   29  C   UNL     1      -9.453  16.110  68.477  1.00  0.00    -0.216 C  
BRANCH  29  30
HETATM   30  C   UNL     1      -9.034  17.487  68.118  1.00  0.00    -0.266 A  
HETATM   31  N   UNL     1      -9.431  19.827  67.681  1.00  0.00    -0.337 NA 
HETATM   32  C   UNL     1      -9.861  18.581  67.979  1.00  0.00    -0.341 A  
HETATM   33  C   UNL     1      -8.109  19.968  67.485  1.00  0.00    -0.316 A  
HETATM   34  N   UNL     1      -7.214  18.995  67.621  1.00  0.00    -0.222 NA 
HETATM   35  N   UNL     1      -7.650  21.238  67.186  1.00  0.00    -0.755 NA 
HETATM   36  H1  UNL     1      -6.646  21.345  67.036  1.00  0.00     0.000 HD 
HETATM   37  C   UNL     1      -7.696  17.770  67.927  1.00  0.00    -0.225 A  
HETATM   38  H2  UNL     1      -7.958  21.890  67.908  1.00  0.00     0.000 HD 
ENDBRANCH  29  30
ENDBRANCH   9  26
ENDBRANCH   2   3
TORSDOF 8
ENDMDL
MODEL       91
REMARK 921   NORMALIZED FREE ENERGY PREDICTED BY IDOCK:   -4.98 KCAL/MOL
REMARK 922        TOTAL FREE ENERGY PREDICTED BY IDOCK:   -8.51 KCAL/MOL
REMARK 923 INTER-LIGAND FREE ENERGY PREDICTED BY IDOCK:   -7.37 KCAL/MOL
REMARK 924 INTRA-LIGAND FREE ENERGY PREDICTED BY IDOCK:   -1.14 KCAL/MOL
REMARK 927      BINDING AFFINITY PREDICTED BY RF-SCORE:    0.00 PKD
ROOT
HETATM    1  C   UNL     1      -8.166   6.814  68.099  1.00  0.00    -0.114 C  
HETATM    2  O   UNL     1      -7.858   6.825  69.490  1.00  0.00    -0.108 OA 
ENDROOT
BRANCH   2   3
HETATM    3  C   UNL     1      -8.891   6.482  70.336  1.00  0.00    -0.151 A  
HETATM    4  C   UNL     1      -8.816   5.178  70.904  1.00  0.00    -0.134 A  
HETATM    5  C   UNL     1      -9.805   4.738  71.799  1.00  0.00    -0.242 A  
HETATM    6  C   UNL     1     -13.994   8.691  71.644  1.00  0.00    -0.401 C  
HETATM    7  N   UNL     1     -11.775   9.054  71.763  1.00  0.00    -0.347 NA 
HETATM    8  C   UNL     1     -10.905   5.538  72.081  1.00  0.00    -0.293 A  
HETATM    9  C   UNL     1     -10.915   9.498  70.780  1.00  0.00    -0.321 A  
HETATM   10  C   UNL     1     -10.961   6.800  71.511  1.00  0.00    -0.274 A  
HETATM   11  C   UNL     1     -12.990   9.660  72.261  1.00  0.00    -0.356 C  
HETATM   12  C   UNL     1      -9.962   7.336  70.676  1.00  0.00    -0.186 A  
HETATM   13  N   UNL     1     -10.066   8.689  70.202  1.00  0.00    -0.181 NA 
HETATM   14  C   UNL     1     -12.073   7.702  71.743  1.00  0.00    -0.305 A  
HETATM   15  N   UNL     1     -13.338   7.346  71.775  1.00  0.00    -0.340 NA 
BRANCH   4  16
HETATM   16  O   UNL     1      -7.737   4.384  70.563  1.00  0.00    -0.052 OA 
BRANCH  16  17
HETATM   17  C   UNL     1      -7.636   3.147  71.289  1.00  0.00    -0.044 C  
BRANCH  17  18
HETATM   18  C   UNL     1      -7.300   2.010  70.326  1.00  0.00    -0.033 C  
BRANCH  18  19
HETATM   19  C   UNL     1      -8.360   1.836  69.224  1.00  0.00    -0.048 C  
BRANCH  19  20
HETATM   20  N   UNL     1      -7.809   1.505  67.899  1.00  0.00    -0.057 NA 
HETATM   21  O   UNL     1      -7.971   3.853  66.129  1.00  0.00    -0.093 OA 
HETATM   22  C   UNL     1      -8.794   1.649  66.801  1.00  0.00    -0.116 C  
HETATM   23  C   UNL     1      -6.641   2.354  67.560  1.00  0.00    -0.036 C  
HETATM   24  C   UNL     1      -6.999   3.803  67.181  1.00  0.00    -0.058 C  
HETATM   25  C   UNL     1      -9.145   3.110  66.479  1.00  0.00    -0.158 C  
ENDBRANCH  19  20
ENDBRANCH  18  19
ENDBRANCH  17  18
ENDBRANCH  16  17
ENDBRANCH   4  16
BRANCH   9  26
HETATM   26  N   UNL     1     -10.912  10.756  70.201  1.00  0.00    -0.458 N  
HETATM   27  O   UNL     1     -12.737  10.861  68.785  1.00  0.00    -0.122 OA 
HETATM   28  H   UNL     1     -10.232  11.397  70.610  1.00  0.00     0.000 HD 
HETATM   29  C   UNL     1     -11.661  11.312  69.167  1.00  0.00    -0.341 C  
BRANCH  29  30
HETATM   30  C   UNL     1     -11.173  12.577  68.565  1.00  0.00    -0.322 A  
HETATM   31  N   UNL     1      -9.606  13.914  67.307  1.00  0.00    -0.236 NA 
HETATM   32  C   UNL     1      -9.997  12.748  67.869  1.00  0.00    -0.229 A  
HETATM   33  C   UNL     1     -10.428  14.962  67.485  1.00  0.00    -0.254 A  
HETATM   34  N   UNL     1     -11.600  14.911  68.110  1.00  0.00    -0.328 NA 
HETATM   35  N   UNL     1     -10.049  16.163  66.912  1.00  0.00    -0.265 NA 
HETATM   36  H1  UNL     1     -10.672  16.959  67.047  1.00  0.00     0.000 HD 
HETATM   37  C   UNL     1     -11.945  13.719  68.646  1.00  0.00    -0.366 A  
HETATM   38  H2  UNL     1      -9.883  16.026  65.915  1.00  0.00     0.000 HD 
ENDBRANCH  29  30
ENDBRANCH   9  26
ENDBRANCH   2   3
TORSDOF 8
ENDMDL
MODEL       92
REMARK 921   NORMALIZED FREE ENERGY PREDICTED BY IDOCK:   -4.90 KCAL/MOL
REMARK 922        TOTAL FREE ENERGY PREDICTED BY IDOCK:   -8.40 KCAL/MOL
REMARK 923 INTER-LIGAND FREE ENERGY PREDICTED BY IDOCK:   -7.18 KCAL/MOL
REMARK 924 INTRA-LIGAND FREE ENERGY PREDICTED BY IDOCK:   -1.22 KCAL/MOL
REMARK 927      BINDING AFFINITY PREDICTED BY RF-SCORE:    0.00 PKD
ROOT
HETATM    1  C   UNL     1      -6.346   9.537  69.612  1.00  0.00    -0.040 C  
HETATM    2  O   UNL     1      -7.284   8.465  69.607  1.00  0.00    -0.055 OA 
ENDROOT
BRANCH   2   3
HETATM    3  C   UNL     1      -7.879   8.195  68.393  1.00  0.00    -0.118 A  
HETATM    4  C   UNL     1      -7.802   6.842  67.955  1.00  0.00    -0.114 A  
HETATM    5  C   UNL     1      -8.398   6.455  66.744  1.00  0.00    -0.111 A  
HETATM    6  C   UNL     1     -10.007  11.320  64.110  1.00  0.00    -0.300 C  
HETATM    7  N   UNL     1     -10.290  10.781  66.278  1.00  0.00    -0.248 NA 
HETATM    8  C   UNL     1      -9.001   7.399  65.923  1.00  0.00    -0.114 A  
HETATM    9  C   UNL     1      -9.617  11.254  67.385  1.00  0.00    -0.169 A  
HETATM   10  C   UNL     1      -9.059   8.711  66.365  1.00  0.00    -0.218 A  
HETATM   11  C   UNL     1     -10.999  11.514  65.252  1.00  0.00    -0.228 C  
HETATM   12  C   UNL     1      -8.559   9.150  67.606  1.00  0.00    -0.117 A  
HETATM   13  N   UNL     1      -8.742  10.515  68.017  1.00  0.00    -0.126 NA 
HETATM   14  C   UNL     1      -9.663   9.766  65.574  1.00  0.00    -0.312 A  
HETATM   15  N   UNL     1      -9.524   9.908  64.275  1.00  0.00    -0.269 NA 
BRANCH   4  16
HETATM   16  O   UNL     1      -7.148   5.934  68.768  1.00  0.00    -0.075 OA 
BRANCH  16  17
HETATM   17  C   UNL     1      -7.996   4.961  69.400  1.00  0.00    -0.074 C  
BRANCH  17  18
HETATM   18  C   UNL     1      -8.195   5.327  70.869  1.00  0.00    -0.112 C  
BRANCH  18  19
HETATM   19  C   UNL     1      -9.660   5.660  71.203  1.00  0.00    -0.168 C  
BRANCH  19  20
HETATM   20  N   UNL     1     -10.118   6.964  70.694  1.00  0.00    -0.194 NA 
HETATM   21  O   UNL     1     -12.555   7.800  72.121  1.00  0.00    -0.288 OA 
HETATM   22  C   UNL     1     -11.477   6.921  70.107  1.00  0.00    -0.303 C  
HETATM   23  C   UNL     1     -10.127   7.998  71.758  1.00  0.00    -0.191 C  
HETATM   24  C   UNL     1     -11.279   7.855  72.771  1.00  0.00    -0.405 C  
HETATM   25  C   UNL     1     -12.591   6.746  71.151  1.00  0.00    -0.250 C  
ENDBRANCH  19  20
ENDBRANCH  18  19
ENDBRANCH  17  18
ENDBRANCH  16  17
ENDBRANCH   4  16
BRANCH   9  26
HETATM   26  N   UNL     1      -9.664  12.545  67.882  1.00  0.00    -0.199 N  
HETATM   27  O   UNL     1     -11.464  12.657  69.328  1.00  0.00    -0.277 OA 
HETATM   28  H   UNL     1      -8.849  13.110  67.641  1.00  0.00     0.000 HD 
HETATM   29  C   UNL     1     -10.611  13.219  68.648  1.00  0.00    -0.246 C  
BRANCH  29  30
HETATM   30  C   UNL     1     -10.514  14.698  68.721  1.00  0.00    -0.246 A  
HETATM   31  N   UNL     1     -11.364  16.940  68.448  1.00  0.00    -0.122 NA 
HETATM   32  C   UNL     1     -11.481  15.598  68.333  1.00  0.00    -0.369 A  
HETATM   33  C   UNL     1     -10.202  17.393  68.950  1.00  0.00    -0.352 A  
HETATM   34  N   UNL     1      -9.212  16.621  69.386  1.00  0.00    -0.063 NA 
HETATM   35  N   UNL     1     -10.066  18.763  69.081  1.00  0.00    -0.467 NA 
HETATM   36  H1  UNL     1      -9.184  19.107  69.462  1.00  0.00     0.000 HD 
HETATM   37  C   UNL     1      -9.384  15.287  69.254  1.00  0.00    -0.239 A  
HETATM   38  H2  UNL     1     -10.841  19.131  69.633  1.00  0.00     0.000 HD 
ENDBRANCH  29  30
ENDBRANCH   9  26
ENDBRANCH   2   3
TORSDOF 8
ENDMDL
MODEL       93
REMARK 921   NORMALIZED FREE ENERGY PREDICTED BY IDOCK:   -4.88 KCAL/MOL
REMARK 922        TOTAL FREE ENERGY PREDICTED BY IDOCK:   -8.36 KCAL/MOL
REMARK 923 INTER-LIGAND FREE ENERGY PREDICTED BY IDOCK:   -8.31 KCAL/MOL
REMARK 924 INTRA-LIGAND FREE ENERGY PREDICTED BY IDOCK:   -0.05 KCAL/MOL
REMARK 927      BINDING AFFINITY PREDICTED BY RF-SCORE:    0.00 PKD
ROOT
HETATM    1  C   UNL     1      -7.843  11.956  67.183  1.00  0.00    -0.168 C  
HETATM    2  O   UNL     1      -8.898  11.156  66.658  1.00  0.00    -0.156 OA 
ENDROOT
BRANCH   2   3
HETATM    3  C   UNL     1      -9.023   9.896  67.204  1.00  0.00    -0.138 A  
HETATM    4  C   UNL     1      -8.284   8.867  66.555  1.00  0.00    -0.114 A  
HETATM    5  C   UNL     1      -8.321   7.551  67.045  1.00  0.00    -0.121 A  
HETATM    6  C   UNL     1     -12.438   7.449  71.074  1.00  0.00    -0.250 C  
HETATM    7  N   UNL     1     -10.838   9.009  70.794  1.00  0.00    -0.233 NA 
HETATM    8  C   UNL     1      -9.137   7.224  68.120  1.00  0.00    -0.134 A  
HETATM    9  C   UNL     1     -10.952  10.287  70.289  1.00  0.00    -0.309 A  
HETATM   10  C   UNL     1      -9.853   8.241  68.733  1.00  0.00    -0.179 A  
HETATM   11  C   UNL     1     -11.552   8.387  71.888  1.00  0.00    -0.329 C  
HETATM   12  C   UNL     1      -9.794   9.593  68.347  1.00  0.00    -0.153 A  
HETATM   13  N   UNL     1     -10.506  10.591  69.098  1.00  0.00    -0.214 NA 
HETATM   14  C   UNL     1     -10.735   7.993  69.857  1.00  0.00    -0.242 A  
HETATM   15  N   UNL     1     -11.547   6.966  69.967  1.00  0.00    -0.280 NA 
BRANCH   4  16
HETATM   16  O   UNL     1      -7.522   9.212  65.454  1.00  0.00    -0.091 OA 
BRANCH  16  17
HETATM   17  C   UNL     1      -8.192   9.093  64.187  1.00  0.00    -0.162 C  
BRANCH  17  18
HETATM   18  C   UNL     1      -8.274  10.463  63.517  1.00  0.00    -0.135 C  
BRANCH  18  19
HETATM   19  C   UNL     1      -9.723  10.948  63.339  1.00  0.00    -0.352 C  
BRANCH  19  20
HETATM   20  N   UNL     1     -10.271  11.664  64.504  1.00  0.00    -0.274 NA 
HETATM   21  O   UNL     1     -12.764  13.042  63.756  1.00  0.00    -0.686 OA 
HETATM   22  C   UNL     1     -10.379  13.127  64.296  1.00  0.00    -0.339 C  
HETATM   23  C   UNL     1     -11.620  11.168  64.871  1.00  0.00     0.406 C  
HETATM   24  C   UNL     1     -12.742  11.618  63.918  1.00  0.00    -0.051 C  
HETATM   25  C   UNL     1     -11.490  13.528  63.314  1.00  0.00     0.426 C  
ENDBRANCH  19  20
ENDBRANCH  18  19
ENDBRANCH  17  18
ENDBRANCH  16  17
ENDBRANCH   4  16
BRANCH   9  26
HETATM   26  N   UNL     1     -11.630  11.342  70.876  1.00  0.00    -0.242 N  
HETATM   27  O   UNL     1     -12.211  12.807  69.184  1.00  0.00    -0.196 OA 
HETATM   28  H   UNL     1     -11.857  11.191  71.859  1.00  0.00     0.000 HD 
HETATM   29  C   UNL     1     -12.062  12.569  70.379  1.00  0.00    -0.297 C  
BRANCH  29  30
HETATM   30  C   UNL     1     -12.457  13.610  71.360  1.00  0.00    -0.374 A  
HETATM   31  N   UNL     1     -13.792  14.485  73.170  1.00  0.00    -0.321 NA 
HETATM   32  C   UNL     1     -13.488  13.523  72.270  1.00  0.00    -0.571 A  
HETATM   33  C   UNL     1     -13.040  15.598  73.126  1.00  0.00    -0.558 A  
HETATM   34  N   UNL     1     -12.003  15.782  72.314  1.00  0.00    -0.444 NA 
HETATM   35  N   UNL     1     -13.332  16.592  74.043  1.00  0.00    -0.730 NA 
HETATM   36  H1  UNL     1     -12.761  17.437  74.010  1.00  0.00     0.000 HD 
HETATM   37  C   UNL     1     -11.738  14.786  71.440  1.00  0.00    -0.292 A  
HETATM   38  H2  UNL     1     -13.308  16.202  74.986  1.00  0.00     0.000 HD 
ENDBRANCH  29  30
ENDBRANCH   9  26
ENDBRANCH   2   3
TORSDOF 8
ENDMDL
MODEL       94
REMARK 921   NORMALIZED FREE ENERGY PREDICTED BY IDOCK:   -4.87 KCAL/MOL
REMARK 922        TOTAL FREE ENERGY PREDICTED BY IDOCK:   -8.35 KCAL/MOL
REMARK 923 INTER-LIGAND FREE ENERGY PREDICTED BY IDOCK:   -7.81 KCAL/MOL
REMARK 924 INTRA-LIGAND FREE ENERGY PREDICTED BY IDOCK:   -0.54 KCAL/MOL
REMARK 927      BINDING AFFINITY PREDICTED BY RF-SCORE:    0.00 PKD
ROOT
HETATM    1  C   UNL     1      -6.044  10.754  66.655  1.00  0.00    -0.090 C  
HETATM    2  O   UNL     1      -6.826  10.681  67.844  1.00  0.00    -0.071 OA 
ENDROOT
BRANCH   2   3
HETATM    3  C   UNL     1      -8.187  10.558  67.660  1.00  0.00    -0.111 A  
HETATM    4  C   UNL     1      -8.692   9.227  67.668  1.00  0.00    -0.116 A  
HETATM    5  C   UNL     1     -10.068   8.991  67.514  1.00  0.00    -0.285 A  
HETATM    6  C   UNL     1     -12.417  14.046  66.056  1.00  0.00    -0.455 C  
HETATM    7  N   UNL     1     -10.898  13.660  67.672  1.00  0.00    -0.254 NA 
HETATM    8  C   UNL     1     -10.941  10.045  67.275  1.00  0.00    -0.225 A  
HETATM    9  C   UNL     1      -9.551  13.954  67.684  1.00  0.00    -0.215 A  
HETATM   10  C   UNL     1     -10.426  11.332  67.265  1.00  0.00    -0.249 A  
HETATM   11  C   UNL     1     -12.026  14.536  67.446  1.00  0.00    -0.335 C  
HETATM   12  C   UNL     1      -9.073  11.645  67.498  1.00  0.00    -0.172 A  
HETATM   13  N   UNL     1      -8.648  13.017  67.553  1.00  0.00    -0.180 NA 
HETATM   14  C   UNL     1     -11.259  12.494  67.018  1.00  0.00    -0.302 A  
HETATM   15  N   UNL     1     -12.212  12.559  66.116  1.00  0.00    -0.608 NA 
BRANCH   4  16
HETATM   16  O   UNL     1      -7.793   8.193  67.854  1.00  0.00    -0.117 OA 
BRANCH  16  17
HETATM   17  C   UNL     1      -8.063   7.005  67.090  1.00  0.00    -0.118 C  
BRANCH  17  18
HETATM   18  C   UNL     1      -7.586   7.198  65.652  1.00  0.00    -0.093 C  
BRANCH  18  19
HETATM   19  C   UNL     1      -7.402   5.864  64.907  1.00  0.00    -0.073 C  
BRANCH  19  20
HETATM   20  N   UNL     1      -8.654   5.266  64.413  1.00  0.00    -0.126 NA 
HETATM   21  O   UNL     1      -8.761   2.414  65.142  1.00  0.00    -0.104 OA 
HETATM   22  C   UNL     1      -8.436   4.157  63.455  1.00  0.00    -0.100 C  
HETATM   23  C   UNL     1      -9.486   4.738  65.521  1.00  0.00    -0.163 C  
HETATM   24  C   UNL     1      -8.963   3.426  66.137  1.00  0.00    -0.145 C  
HETATM   25  C   UNL     1      -7.885   2.881  64.108  1.00  0.00    -0.077 C  
ENDBRANCH  19  20
ENDBRANCH  18  19
ENDBRANCH  17  18
ENDBRANCH  16  17
ENDBRANCH   4  16
BRANCH   9  26
HETATM   26  N   UNL     1      -8.988  15.219  67.702  1.00  0.00    -0.176 N  
HETATM   27  O   UNL     1      -9.697  16.255  69.644  1.00  0.00    -0.187 OA 
HETATM   28  H   UNL     1      -8.292  15.372  66.973  1.00  0.00     0.000 HD 
HETATM   29  C   UNL     1      -9.192  16.322  68.527  1.00  0.00    -0.211 C  
BRANCH  29  30
HETATM   30  C   UNL     1      -8.677  17.635  68.064  1.00  0.00    -0.253 A  
HETATM   31  N   UNL     1      -8.771  19.656  66.749  1.00  0.00    -0.317 NA 
HETATM   32  C   UNL     1      -9.258  18.450  67.118  1.00  0.00    -0.264 A  
HETATM   33  C   UNL     1      -7.628  20.040  67.342  1.00  0.00    -0.281 A  
HETATM   34  N   UNL     1      -6.995  19.354  68.288  1.00  0.00    -0.272 NA 
HETATM   35  N   UNL     1      -7.117  21.275  66.983  1.00  0.00    -0.776 NA 
HETATM   36  H1  UNL     1      -6.249  21.567  67.432  1.00  0.00     0.000 HD 
HETATM   37  C   UNL     1      -7.529  18.158  68.624  1.00  0.00    -0.290 A  
HETATM   38  H2  UNL     1      -7.830  21.991  67.122  1.00  0.00     0.000 HD 
ENDBRANCH  29  30
ENDBRANCH   9  26
ENDBRANCH   2   3
TORSDOF 8
ENDMDL
MODEL       95
REMARK 921   NORMALIZED FREE ENERGY PREDICTED BY IDOCK:   -4.86 KCAL/MOL
REMARK 922        TOTAL FREE ENERGY PREDICTED BY IDOCK:   -8.34 KCAL/MOL
REMARK 923 INTER-LIGAND FREE ENERGY PREDICTED BY IDOCK:   -7.36 KCAL/MOL
REMARK 924 INTRA-LIGAND FREE ENERGY PREDICTED BY IDOCK:   -0.98 KCAL/MOL
REMARK 927      BINDING AFFINITY PREDICTED BY RF-SCORE:    0.00 PKD
ROOT
HETATM    1  C   UNL     1     -10.909  10.983  66.390  1.00  0.00    -0.191 C  
HETATM    2  O   UNL     1     -10.933  10.637  67.771  1.00  0.00    -0.262 OA 
ENDROOT
BRANCH   2   3
HETATM    3  C   UNL     1      -9.709  10.355  68.340  1.00  0.00    -0.158 A  
HETATM    4  C   UNL     1      -9.435   8.976  68.562  1.00  0.00    -0.143 A  
HETATM    5  C   UNL     1      -8.205   8.578  69.113  1.00  0.00    -0.119 A  
HETATM    6  C   UNL     1      -5.573  13.405  70.835  1.00  0.00    -0.197 C  
HETATM    7  N   UNL     1      -6.643  13.052  68.886  1.00  0.00    -0.090 NA 
HETATM    8  C   UNL     1      -7.276   9.527  69.518  1.00  0.00    -0.074 A  
HETATM    9  C   UNL     1      -7.874  13.519  68.475  1.00  0.00    -0.125 A  
HETATM   10  C   UNL     1      -7.566  10.864  69.297  1.00  0.00    -0.113 A  
HETATM   11  C   UNL     1      -5.494  13.791  69.362  1.00  0.00    -0.084 C  
HETATM   12  C   UNL     1      -8.739  11.326  68.672  1.00  0.00    -0.136 A  
HETATM   13  N   UNL     1      -8.914  12.729  68.408  1.00  0.00    -0.161 NA 
HETATM   14  C   UNL     1      -6.659  11.925  69.691  1.00  0.00    -0.062 A  
HETATM   15  N   UNL     1      -5.984  11.961  70.818  1.00  0.00    -0.325 NA 
BRANCH   4  16
HETATM   16  O   UNL     1     -10.401   8.056  68.200  1.00  0.00    -0.201 OA 
BRANCH  16  17
HETATM   17  C   UNL     1     -10.852   7.195  69.259  1.00  0.00    -0.183 C  
BRANCH  17  18
HETATM   18  C   UNL     1     -10.684   5.735  68.843  1.00  0.00    -0.334 C  
BRANCH  18  19
HETATM   19  C   UNL     1     -10.464   5.573  67.329  1.00  0.00    -0.236 C  
BRANCH  19  20
HETATM   20  N   UNL     1      -9.072   5.285  66.944  1.00  0.00    -0.113 NA 
HETATM   21  O   UNL     1      -8.922   2.672  65.593  1.00  0.00    -0.131 OA 
HETATM   22  C   UNL     1      -8.531   4.057  67.573  1.00  0.00    -0.099 C  
HETATM   23  C   UNL     1      -8.927   5.132  65.475  1.00  0.00    -0.155 C  
HETATM   24  C   UNL     1      -9.480   3.807  64.918  1.00  0.00    -0.167 C  
HETATM   25  C   UNL     1      -9.134   2.762  67.008  1.00  0.00    -0.159 C  
ENDBRANCH  19  20
ENDBRANCH  18  19
ENDBRANCH  17  18
ENDBRANCH  16  17
ENDBRANCH   4  16
BRANCH   9  26
HETATM   26  N   UNL     1      -8.205  14.838  68.215  1.00  0.00    -0.135 N  
HETATM   27  O   UNL     1      -9.606  15.539  69.915  1.00  0.00    -0.275 OA 
HETATM   28  H   UNL     1      -7.671  15.254  67.452  1.00  0.00     0.000 HD 
HETATM   29  C   UNL     1      -9.127  15.703  68.796  1.00  0.00    -0.208 C  
BRANCH  29  30
HETATM   30  C   UNL     1      -9.471  16.943  68.057  1.00  0.00    -0.243 A  
HETATM   31  N   UNL     1     -10.354  19.182  67.876  1.00  0.00    -0.400 NA 
HETATM   32  C   UNL     1     -10.088  18.059  68.579  1.00  0.00    -0.393 A  
HETATM   33  C   UNL     1     -10.008  19.164  66.577  1.00  0.00    -0.383 A  
HETATM   34  N   UNL     1      -9.381  18.160  65.972  1.00  0.00    -0.519 NA 
HETATM   35  N   UNL     1     -10.266  20.307  65.842  1.00  0.00    -0.536 NA 
HETATM   36  H1  UNL     1     -10.003  20.294  64.856  1.00  0.00     0.000 HD 
HETATM   37  C   UNL     1      -9.134  17.064  66.724  1.00  0.00    -0.246 A  
HETATM   38  H2  UNL     1      -9.832  21.110  66.299  1.00  0.00     0.000 HD 
ENDBRANCH  29  30
ENDBRANCH   9  26
ENDBRANCH   2   3
TORSDOF 8
ENDMDL
MODEL       96
REMARK 921   NORMALIZED FREE ENERGY PREDICTED BY IDOCK:   -4.81 KCAL/MOL
REMARK 922        TOTAL FREE ENERGY PREDICTED BY IDOCK:   -8.26 KCAL/MOL
REMARK 923 INTER-LIGAND FREE ENERGY PREDICTED BY IDOCK:   -7.32 KCAL/MOL
REMARK 924 INTRA-LIGAND FREE ENERGY PREDICTED BY IDOCK:   -0.95 KCAL/MOL
REMARK 927      BINDING AFFINITY PREDICTED BY RF-SCORE:    0.00 PKD
ROOT
HETATM    1  C   UNL     1     -11.592  12.086  64.709  1.00  0.00    -0.281 C  
HETATM    2  O   UNL     1     -11.692  11.727  66.084  1.00  0.00    -0.462 OA 
ENDROOT
BRANCH   2   3
HETATM    3  C   UNL     1     -10.518  11.780  66.804  1.00  0.00    -0.225 A  
HETATM    4  C   UNL     1     -10.243  13.022  67.445  1.00  0.00    -0.231 A  
HETATM    5  C   UNL     1      -9.085  13.175  68.225  1.00  0.00    -0.181 A  
HETATM    6  C   UNL     1      -5.896   8.464  67.319  1.00  0.00    -0.043 C  
HETATM    7  N   UNL     1      -8.112   8.561  67.707  1.00  0.00    -0.114 NA 
HETATM    8  C   UNL     1      -8.158  12.145  68.319  1.00  0.00    -0.166 A  
HETATM    9  C   UNL     1      -9.155   8.384  66.823  1.00  0.00    -0.157 A  
HETATM   10  C   UNL     1      -8.443  10.948  67.682  1.00  0.00    -0.123 A  
HETATM   11  C   UNL     1      -7.006   7.678  68.010  1.00  0.00    -0.079 C  
HETATM   12  C   UNL     1      -9.624  10.698  66.957  1.00  0.00    -0.169 A  
HETATM   13  N   UNL     1      -9.870   9.395  66.403  1.00  0.00    -0.247 NA 
HETATM   14  C   UNL     1      -7.533   9.819  67.719  1.00  0.00    -0.090 A  
HETATM   15  N   UNL     1      -6.226   9.900  67.604  1.00  0.00    -0.058 NA 
BRANCH   4  16
HETATM   16  O   UNL     1     -11.157  14.048  67.290  1.00  0.00    -0.289 OA 
BRANCH  16  17
HETATM   17  C   UNL     1     -11.778  14.500  68.504  1.00  0.00    -0.318 C  
BRANCH  17  18
HETATM   18  C   UNL     1     -11.728  16.025  68.572  1.00  0.00    -0.244 C  
BRANCH  18  19
HETATM   19  C   UNL     1     -10.678  16.625  67.621  1.00  0.00    -0.306 C  
BRANCH  19  20
HETATM   20  N   UNL     1     -10.197  17.961  68.012  1.00  0.00    -0.357 NA 
HETATM   21  O   UNL     1      -8.814  19.235  65.745  1.00  0.00    -0.395 OA 
HETATM   22  C   UNL     1      -8.726  18.107  67.915  1.00  0.00    -0.261 C  
HETATM   23  C   UNL     1     -10.804  19.030  67.182  1.00  0.00    -0.387 C  
HETATM   24  C   UNL     1     -10.242  19.117  65.750  1.00  0.00    -0.206 C  
HETATM   25  C   UNL     1      -8.208  18.157  66.469  1.00  0.00    -0.267 C  
ENDBRANCH  19  20
ENDBRANCH  18  19
ENDBRANCH  17  18
ENDBRANCH  16  17
ENDBRANCH   4  16
BRANCH   9  26
HETATM   26  N   UNL     1      -9.497   7.204  66.184  1.00  0.00    -0.387 N  
HETATM   27  O   UNL     1     -10.486   5.833  67.762  1.00  0.00    -0.196 OA 
HETATM   28  H   UNL     1      -9.387   7.237  65.170  1.00  0.00     0.000 HD 
HETATM   29  C   UNL     1      -9.961   5.981  66.662  1.00  0.00    -0.166 C  
BRANCH  29  30
HETATM   30  C   UNL     1      -9.904   4.816  65.745  1.00  0.00    -0.214 A  
HETATM   31  N   UNL     1      -8.888   2.827  64.832  1.00  0.00    -0.114 NA 
HETATM   32  C   UNL     1      -8.883   3.895  65.661  1.00  0.00    -0.124 A  
HETATM   33  C   UNL     1      -9.960   2.702  64.031  1.00  0.00    -0.129 A  
HETATM   34  N   UNL     1     -11.016   3.508  64.046  1.00  0.00    -0.277 NA 
HETATM   35  N   UNL     1      -9.986   1.611  63.181  1.00  0.00    -0.105 NA 
HETATM   36  H1  UNL     1     -10.799   1.516  62.572  1.00  0.00     0.000 HD 
HETATM   37  C   UNL     1     -10.963   4.556  64.898  1.00  0.00     0.055 A  
HETATM   38  H2  UNL     1      -9.864   0.755  63.722  1.00  0.00     0.000 HD 
ENDBRANCH  29  30
ENDBRANCH   9  26
ENDBRANCH   2   3
TORSDOF 8
ENDMDL
MODEL       97
REMARK 921   NORMALIZED FREE ENERGY PREDICTED BY IDOCK:   -4.75 KCAL/MOL
REMARK 922        TOTAL FREE ENERGY PREDICTED BY IDOCK:   -8.17 KCAL/MOL
REMARK 923 INTER-LIGAND FREE ENERGY PREDICTED BY IDOCK:   -7.40 KCAL/MOL
REMARK 924 INTRA-LIGAND FREE ENERGY PREDICTED BY IDOCK:   -0.77 KCAL/MOL
REMARK 927      BINDING AFFINITY PREDICTED BY RF-SCORE:    0.00 PKD
ROOT
HETATM    1  C   UNL     1     -11.809  11.178  68.570  1.00  0.00    -0.260 C  
HETATM    2  O   UNL     1     -10.848  10.579  67.707  1.00  0.00    -0.249 OA 
ENDROOT
BRANCH   2   3
HETATM    3  C   UNL     1      -9.639  10.258  68.287  1.00  0.00    -0.142 A  
HETATM    4  C   UNL     1      -9.416   8.871  68.520  1.00  0.00    -0.147 A  
HETATM    5  C   UNL     1      -8.207   8.434  69.084  1.00  0.00    -0.120 A  
HETATM    6  C   UNL     1      -5.419  13.174  70.800  1.00  0.00    -0.177 C  
HETATM    7  N   UNL     1      -6.484  12.847  68.844  1.00  0.00    -0.085 NA 
HETATM    8  C   UNL     1      -7.247   9.351  69.491  1.00  0.00    -0.067 A  
HETATM    9  C   UNL     1      -7.694  13.355  68.419  1.00  0.00    -0.138 A  
HETATM   10  C   UNL     1      -7.488  10.697  69.260  1.00  0.00    -0.130 A  
HETATM   11  C   UNL     1      -5.313  13.548  69.325  1.00  0.00    -0.074 C  
HETATM   12  C   UNL     1      -8.639  11.196  68.622  1.00  0.00    -0.151 A  
HETATM   13  N   UNL     1      -8.761  12.602  68.348  1.00  0.00    -0.156 NA 
HETATM   14  C   UNL     1      -6.547  11.727  69.655  1.00  0.00    -0.081 A  
HETATM   15  N   UNL     1      -5.881  11.746  70.788  1.00  0.00    -0.343 NA 
BRANCH   4  16
HETATM   16  O   UNL     1     -10.412   7.984  68.155  1.00  0.00    -0.205 OA 
BRANCH  16  17
HETATM   17  C   UNL     1     -10.222   7.344  66.882  1.00  0.00    -0.276 C  
BRANCH  17  18
HETATM   18  C   UNL     1     -10.903   5.977  66.885  1.00  0.00    -0.396 C  
BRANCH  18  19
HETATM   19  C   UNL     1      -9.922   4.827  66.594  1.00  0.00    -0.235 C  
BRANCH  19  20
HETATM   20  N   UNL     1      -9.457   4.765  65.198  1.00  0.00    -0.139 NA 
HETATM   21  O   UNL     1      -7.561   2.535  64.869  1.00  0.00    -0.070 OA 
HETATM   22  C   UNL     1      -7.992   4.937  65.059  1.00  0.00    -0.099 C  
HETATM   23  C   UNL     1      -9.815   3.477  64.555  1.00  0.00    -0.179 C  
HETATM   24  C   UNL     1      -8.964   2.279  65.017  1.00  0.00    -0.126 C  
HETATM   25  C   UNL     1      -7.182   3.731  65.562  1.00  0.00    -0.071 C  
ENDBRANCH  19  20
ENDBRANCH  18  19
ENDBRANCH  17  18
ENDBRANCH  16  17
ENDBRANCH   4  16
BRANCH   9  26
HETATM   26  N   UNL     1      -7.976  14.683  68.149  1.00  0.00    -0.127 N  
HETATM   27  O   UNL     1      -9.483  15.403  69.747  1.00  0.00    -0.260 OA 
HETATM   28  H   UNL     1      -7.378  15.094  67.432  1.00  0.00     0.000 HD 
HETATM   29  C   UNL     1      -8.919  15.565  68.669  1.00  0.00    -0.194 C  
BRANCH  29  30
HETATM   30  C   UNL     1      -9.180  16.819  67.919  1.00  0.00    -0.225 A  
HETATM   31  N   UNL     1      -8.887  18.333  66.063  1.00  0.00    -0.507 NA 
HETATM   32  C   UNL     1      -8.594  17.194  66.730  1.00  0.00    -0.243 A  
HETATM   33  C   UNL     1      -9.790  19.143  66.641  1.00  0.00    -0.353 A  
HETATM   34  N   UNL     1     -10.442  18.873  67.767  1.00  0.00    -0.413 NA 
HETATM   35  N   UNL     1     -10.107  20.311  65.970  1.00  0.00    -0.585 NA 
HETATM   36  H1  UNL     1     -10.792  20.926  66.408  1.00  0.00     0.000 HD 
HETATM   37  C   UNL     1     -10.116  17.718  68.389  1.00  0.00    -0.376 A  
HETATM   38  H2  UNL     1     -10.409  20.086  65.021  1.00  0.00     0.000 HD 
ENDBRANCH  29  30
ENDBRANCH   9  26
ENDBRANCH   2   3
TORSDOF 8
ENDMDL
MODEL       98
REMARK 921   NORMALIZED FREE ENERGY PREDICTED BY IDOCK:   -4.57 KCAL/MOL
REMARK 922        TOTAL FREE ENERGY PREDICTED BY IDOCK:   -7.90 KCAL/MOL
REMARK 923 INTER-LIGAND FREE ENERGY PREDICTED BY IDOCK:   -6.81 KCAL/MOL
REMARK 924 INTRA-LIGAND FREE ENERGY PREDICTED BY IDOCK:   -1.09 KCAL/MOL
REMARK 927      BINDING AFFINITY PREDICTED BY RF-SCORE:    0.00 PKD
ROOT
HETATM    1  C   UNL     1     -10.392  10.056  66.781  1.00  0.00    -0.217 C  
HETATM    2  O   UNL     1      -9.003   9.879  66.520  1.00  0.00    -0.143 OA 
ENDROOT
BRANCH   2   3
HETATM    3  C   UNL     1      -8.681   8.850  65.661  1.00  0.00    -0.182 A  
HETATM    4  C   UNL     1      -8.333   9.239  64.336  1.00  0.00    -0.171 A  
HETATM    5  C   UNL     1      -7.964   8.271  63.388  1.00  0.00    -0.155 A  
HETATM    6  C   UNL     1      -9.108   3.155  65.778  1.00  0.00    -0.149 C  
HETATM    7  N   UNL     1      -8.094   4.919  66.743  1.00  0.00    -0.107 NA 
HETATM    8  C   UNL     1      -8.008   6.920  63.708  1.00  0.00    -0.064 A  
HETATM    9  C   UNL     1      -8.592   5.799  67.680  1.00  0.00    -0.101 A  
HETATM   10  C   UNL     1      -8.355   6.564  65.002  1.00  0.00    -0.076 A  
HETATM   11  C   UNL     1      -8.014   3.475  66.792  1.00  0.00    -0.084 C  
HETATM   12  C   UNL     1      -8.652   7.486  66.023  1.00  0.00    -0.151 A  
HETATM   13  N   UNL     1      -8.917   7.024  67.358  1.00  0.00    -0.117 NA 
HETATM   14  C   UNL     1      -8.433   5.179  65.426  1.00  0.00    -0.141 A  
HETATM   15  N   UNL     1      -8.942   4.200  64.713  1.00  0.00    -0.133 NA 
BRANCH   4  16
HETATM   16  O   UNL     1      -8.351  10.587  64.030  1.00  0.00    -0.161 OA 
BRANCH  16  17
HETATM   17  C   UNL     1      -9.205  10.953  62.932  1.00  0.00    -0.332 C  
BRANCH  17  18
HETATM   18  C   UNL     1     -10.516  11.525  63.467  1.00  0.00    -0.486 C  
BRANCH  18  19
HETATM   19  C   UNL     1     -10.342  12.923  64.086  1.00  0.00    -0.361 C  
BRANCH  19  20
HETATM   20  N   UNL     1     -11.596  13.680  64.239  1.00  0.00    -0.389 NA 
HETATM   21  O   UNL     1     -11.892  14.579  67.028  1.00  0.00    -0.394 OA 
HETATM   22  C   UNL     1     -12.534  13.070  65.211  1.00  0.00    -0.499 C  
HETATM   23  C   UNL     1     -11.348  15.075  64.678  1.00  0.00    -0.352 C  
HETATM   24  C   UNL     1     -10.945  15.212  66.158  1.00  0.00    -0.331 C  
HETATM   25  C   UNL     1     -12.076  13.203  66.672  1.00  0.00    -0.346 C  
ENDBRANCH  19  20
ENDBRANCH  18  19
ENDBRANCH  17  18
ENDBRANCH  16  17
ENDBRANCH   4  16
BRANCH   9  26
HETATM   26  N   UNL     1      -8.926   5.499  68.990  1.00  0.00    -0.107 N  
HETATM   27  O   UNL     1      -7.039   5.856  70.277  1.00  0.00    -0.068 OA 
HETATM   28  H   UNL     1      -9.923   5.338  69.135  1.00  0.00     0.000 HD 
HETATM   29  C   UNL     1      -8.161   5.376  70.147  1.00  0.00    -0.100 C  
BRANCH  29  30
HETATM   30  C   UNL     1      -8.783   4.709  71.318  1.00  0.00    -0.139 A  
HETATM   31  N   UNL     1     -10.413   4.518  73.087  1.00  0.00    -0.181 NA 
HETATM   32  C   UNL     1      -9.856   5.175  72.045  1.00  0.00    -0.171 A  
HETATM   33  C   UNL     1      -9.838   3.351  73.428  1.00  0.00    -0.112 A  
HETATM   34  N   UNL     1      -8.821   2.789  72.782  1.00  0.00    -0.081 NA 
HETATM   35  N   UNL     1     -10.398   2.661  74.488  1.00  0.00    -0.146 NA 
HETATM   36  H1  UNL     1      -9.961   1.775  74.747  1.00  0.00     0.000 HD 
HETATM   37  C   UNL     1      -8.308   3.485  71.744  1.00  0.00    -0.066 A  
HETATM   38  H2  UNL     1     -11.391   2.511  74.310  1.00  0.00     0.000 HD 
ENDBRANCH  29  30
ENDBRANCH   9  26
ENDBRANCH   2   3
TORSDOF 8
ENDMDL
MODEL       99
REMARK 921   NORMALIZED FREE ENERGY PREDICTED BY IDOCK:   -4.51 KCAL/MOL
REMARK 922        TOTAL FREE ENERGY PREDICTED BY IDOCK:   -7.81 KCAL/MOL
REMARK 923 INTER-LIGAND FREE ENERGY PREDICTED BY IDOCK:   -7.59 KCAL/MOL
REMARK 924 INTRA-LIGAND FREE ENERGY PREDICTED BY IDOCK:   -0.22 KCAL/MOL
REMARK 927      BINDING AFFINITY PREDICTED BY RF-SCORE:    0.00 PKD
ROOT
HETATM    1  C   UNL     1     -10.616   7.558  67.568  1.00  0.00    -0.261 C  
HETATM    2  O   UNL     1     -10.583   7.854  68.961  1.00  0.00    -0.219 OA 
ENDROOT
BRANCH   2   3
HETATM    3  C   UNL     1      -9.329   8.027  69.507  1.00  0.00    -0.156 A  
HETATM    4  C   UNL     1      -8.840   6.941  70.287  1.00  0.00    -0.148 A  
HETATM    5  C   UNL     1      -7.563   7.005  70.867  1.00  0.00    -0.086 A  
HETATM    6  C   UNL     1      -5.724  12.415  70.130  1.00  0.00    -0.157 C  
HETATM    7  N   UNL     1      -6.727  11.092  68.609  1.00  0.00    -0.058 NA 
HETATM    8  C   UNL     1      -6.794   8.156  70.752  1.00  0.00    -0.038 A  
HETATM    9  C   UNL     1      -8.017  11.151  68.124  1.00  0.00    -0.125 A  
HETATM   10  C   UNL     1      -7.292   9.203  69.994  1.00  0.00    -0.070 A  
HETATM   11  C   UNL     1      -5.708  12.119  68.634  1.00  0.00    -0.053 C  
HETATM   12  C   UNL     1      -8.525   9.172  69.315  1.00  0.00    -0.132 A  
HETATM   13  N   UNL     1      -8.919  10.274  68.481  1.00  0.00    -0.129 NA 
HETATM   14  C   UNL     1      -6.564  10.446  69.822  1.00  0.00    -0.103 A  
HETATM   15  N   UNL     1      -5.902  11.069  70.771  1.00  0.00    -0.300 NA 
BRANCH   4  16
HETATM   16  O   UNL     1      -9.650   5.829  70.430  1.00  0.00    -0.161 OA 
BRANCH  16  17
HETATM   17  C   UNL     1     -10.674   5.946  71.431  1.00  0.00    -0.260 C  
BRANCH  17  18
HETATM   18  C   UNL     1     -10.144   5.442  72.772  1.00  0.00    -0.211 C  
BRANCH  18  19
HETATM   19  C   UNL     1     -11.159   4.554  73.513  1.00  0.00    -0.314 C  
BRANCH  19  20
HETATM   20  N   UNL     1     -10.579   3.342  74.118  1.00  0.00    -0.192 NA 
HETATM   21  O   UNL     1      -9.092   1.817  72.084  1.00  0.00    -0.070 OA 
HETATM   22  C   UNL     1     -11.068   2.087  73.502  1.00  0.00    -0.192 C  
HETATM   23  C   UNL     1      -9.098   3.335  74.024  1.00  0.00    -0.089 C  
HETATM   24  C   UNL     1      -8.554   3.035  72.614  1.00  0.00    -0.083 C  
HETATM   25  C   UNL     1     -10.525   1.846  72.085  1.00  0.00    -0.042 C  
ENDBRANCH  19  20
ENDBRANCH  18  19
ENDBRANCH  17  18
ENDBRANCH  16  17
ENDBRANCH   4  16
BRANCH   9  26
HETATM   26  N   UNL     1      -8.552  12.160  67.341  1.00  0.00    -0.166 N  
HETATM   27  O   UNL     1      -8.947  13.967  68.728  1.00  0.00    -0.121 OA 
HETATM   28  H   UNL     1      -8.523  11.965  66.340  1.00  0.00     0.000 HD 
HETATM   29  C   UNL     1      -9.123  13.389  67.659  1.00  0.00    -0.203 C  
BRANCH  29  30
HETATM   30  C   UNL     1      -9.908  14.080  66.606  1.00  0.00    -0.288 A  
HETATM   31  N   UNL     1     -11.830  14.368  65.176  1.00  0.00    -0.372 NA 
HETATM   32  C   UNL     1     -11.134  13.689  66.115  1.00  0.00    -0.295 A  
HETATM   33  C   UNL     1     -11.244  15.475  64.688  1.00  0.00    -0.371 A  
HETATM   34  N   UNL     1     -10.080  15.965  65.105  1.00  0.00    -0.453 NA 
HETATM   35  N   UNL     1     -11.944  16.187  63.731  1.00  0.00    -1.338 NA 
HETATM   36  H1  UNL     1     -11.499  17.027  63.360  1.00  0.00     0.000 HD 
HETATM   37  C   UNL     1      -9.430  15.250  66.051  1.00  0.00    -0.337 A  
HETATM   38  H2  UNL     1     -12.869  16.423  64.091  1.00  0.00     0.000 HD 
ENDBRANCH  29  30
ENDBRANCH   9  26
ENDBRANCH   2   3
TORSDOF 8
ENDMDL
MODEL      100
REMARK 921   NORMALIZED FREE ENERGY PREDICTED BY IDOCK:   -4.50 KCAL/MOL
REMARK 922        TOTAL FREE ENERGY PREDICTED BY IDOCK:   -7.80 KCAL/MOL
REMARK 923 INTER-LIGAND FREE ENERGY PREDICTED BY IDOCK:   -8.01 KCAL/MOL
REMARK 924 INTRA-LIGAND FREE ENERGY PREDICTED BY IDOCK:    0.21 KCAL/MOL
REMARK 927      BINDING AFFINITY PREDICTED BY RF-SCORE:    0.00 PKD
ROOT
HETATM    1  C   UNL     1     -11.311   9.150  68.659  1.00  0.00     0.466 C  
HETATM    2  O   UNL     1     -11.169   9.992  69.800  1.00  0.00    -0.247 OA 
ENDROOT
BRANCH   2   3
HETATM    3  C   UNL     1     -11.454  11.326  69.599  1.00  0.00    -0.309 A  
HETATM    4  C   UNL     1     -12.186  11.963  70.641  1.00  0.00    -0.331 A  
HETATM    5  C   UNL     1     -12.507  13.327  70.548  1.00  0.00    -0.332 A  
HETATM    6  C   UNL     1     -11.129  14.948  65.194  1.00  0.00    -0.393 C  
HETATM    7  N   UNL     1      -9.904  13.684  66.598  1.00  0.00    -0.276 NA 
HETATM    8  C   UNL     1     -12.183  14.051  69.408  1.00  0.00    -0.336 A  
HETATM    9  C   UNL     1      -9.672  12.325  66.563  1.00  0.00    -0.234 A  
HETATM   10  C   UNL     1     -11.476  13.408  68.404  1.00  0.00    -0.351 A  
HETATM   11  C   UNL     1      -9.676  14.680  65.574  1.00  0.00    -0.212 C  
HETATM   12  C   UNL     1     -11.048  12.069  68.470  1.00  0.00    -0.244 A  
HETATM   13  N   UNL     1     -10.244  11.514  67.415  1.00  0.00    -0.200 NA 
HETATM   14  C   UNL     1     -11.098  14.081  67.175  1.00  0.00    -0.303 A  
HETATM   15  N   UNL     1     -11.867  14.907  66.501  1.00  0.00    -0.218 NA 
BRANCH   4  16
HETATM   16  O   UNL     1     -12.543  11.204  71.740  1.00  0.00    -0.308 OA 
BRANCH  16  17
HETATM   17  C   UNL     1     -13.503  10.166  71.479  1.00  0.00    -0.264 C  
BRANCH  17  18
HETATM   18  C   UNL     1     -13.125   8.908  72.258  1.00  0.00    -0.491 C  
BRANCH  18  19
HETATM   19  C   UNL     1     -11.603   8.705  72.353  1.00  0.00    -0.315 C  
BRANCH  19  20
HETATM   20  N   UNL     1     -11.196   7.464  73.032  1.00  0.00    -0.327 NA 
HETATM   21  O   UNL     1      -9.590   5.800  71.208  1.00  0.00    -0.162 OA 
HETATM   22  C   UNL     1     -11.700   6.239  72.368  1.00  0.00    -0.257 C  
HETATM   23  C   UNL     1      -9.721   7.343  73.124  1.00  0.00    -0.231 C  
HETATM   24  C   UNL     1      -9.031   6.982  71.795  1.00  0.00    -0.133 C  
HETATM   25  C   UNL     1     -11.006   5.936  71.031  1.00  0.00    -0.266 C  
ENDBRANCH  19  20
ENDBRANCH  18  19
ENDBRANCH  17  18
ENDBRANCH  16  17
ENDBRANCH   4  16
BRANCH   9  26
HETATM   26  N   UNL     1      -8.950  11.642  65.599  1.00  0.00    -0.395 N  
HETATM   27  O   UNL     1     -10.466  10.847  64.044  1.00  0.00    -0.364 OA 
HETATM   28  H   UNL     1      -7.940  11.752  65.684  1.00  0.00     0.000 HD 
HETATM   29  C   UNL     1      -9.341  10.832  64.536  1.00  0.00    -0.236 C  
BRANCH  29  30
HETATM   30  C   UNL     1      -8.306   9.978  63.902  1.00  0.00    -0.167 A  
HETATM   31  N   UNL     1      -6.473   9.560  62.390  1.00  0.00    -0.096 NA 
HETATM   32  C   UNL     1      -7.423  10.363  62.917  1.00  0.00    -0.110 A  
HETATM   33  C   UNL     1      -6.434   8.300  62.858  1.00  0.00    -0.086 A  
HETATM   34  N   UNL     1      -7.213   7.826  63.825  1.00  0.00    -0.083 NA 
HETATM   35  N   UNL     1      -5.464   7.464  62.335  1.00  0.00    -0.045 NA 
HETATM   36  H1  UNL     1      -5.434   6.508  62.690  1.00  0.00     0.000 HD 
HETATM   37  C   UNL     1      -8.141   8.674  64.322  1.00  0.00    -0.158 A  
HETATM   38  H2  UNL     1      -4.546   7.897  62.447  1.00  0.00     0.000 HD 
ENDBRANCH  29  30
ENDBRANCH   9  26
ENDBRANCH   2   3
TORSDOF 8
ENDMDL
MODEL      101
REMARK 921   NORMALIZED FREE ENERGY PREDICTED BY IDOCK:   -4.48 KCAL/MOL
REMARK 922        TOTAL FREE ENERGY PREDICTED BY IDOCK:   -7.78 KCAL/MOL
REMARK 923 INTER-LIGAND FREE ENERGY PREDICTED BY IDOCK:   -7.09 KCAL/MOL
REMARK 924 INTRA-LIGAND FREE ENERGY PREDICTED BY IDOCK:   -0.69 KCAL/MOL
REMARK 927      BINDING AFFINITY PREDICTED BY RF-SCORE:    0.00 PKD
ROOT
HETATM    1  C   UNL     1     -12.017  11.297  68.582  1.00  0.00    -0.243 C  
HETATM    2  O   UNL     1     -11.511  11.715  67.318  1.00  0.00    -0.386 OA 
ENDROOT
BRANCH   2   3
HETATM    3  C   UNL     1     -10.174  12.048  67.288  1.00  0.00    -0.204 A  
HETATM    4  C   UNL     1      -9.882  13.437  67.391  1.00  0.00    -0.227 A  
HETATM    5  C   UNL     1      -8.549  13.882  67.396  1.00  0.00    -0.206 A  
HETATM    6  C   UNL     1      -5.317   9.305  66.054  1.00  0.00    -0.040 C  
HETATM    7  N   UNL     1      -7.037   9.386  67.505  1.00  0.00    -0.078 NA 
HETATM    8  C   UNL     1      -7.506  12.981  67.223  1.00  0.00    -0.083 A  
HETATM    9  C   UNL     1      -8.317   8.895  67.361  1.00  0.00    -0.108 A  
HETATM   10  C   UNL     1      -7.814  11.634  67.117  1.00  0.00    -0.163 A  
HETATM   11  C   UNL     1      -5.770   8.699  67.378  1.00  0.00    -0.039 C  
HETATM   12  C   UNL     1      -9.120  11.113  67.192  1.00  0.00    -0.147 A  
HETATM   13  N   UNL     1      -9.334   9.692  67.159  1.00  0.00    -0.137 NA 
HETATM   14  C   UNL     1      -6.793  10.622  66.929  1.00  0.00    -0.099 A  
HETATM   15  N   UNL     1      -5.752  10.740  66.136  1.00  0.00    -0.113 NA 
BRANCH   4  16
HETATM   16  O   UNL     1     -10.943  14.316  67.508  1.00  0.00    -0.278 OA 
BRANCH  16  17
HETATM   17  C   UNL     1     -11.466  14.809  66.263  1.00  0.00    -0.316 C  
BRANCH  17  18
HETATM   18  C   UNL     1     -10.559  15.913  65.724  1.00  0.00    -0.368 C  
BRANCH  18  19
HETATM   19  C   UNL     1     -10.627  17.199  66.566  1.00  0.00    -0.172 C  
BRANCH  19  20
HETATM   20  N   UNL     1      -9.627  18.217  66.203  1.00  0.00    -0.498 NA 
HETATM   21  O   UNL     1      -8.626  19.553  68.629  1.00  0.00    -0.356 OA 
HETATM   22  C   UNL     1     -10.011  19.589  66.612  1.00  0.00    -0.407 C  
HETATM   23  C   UNL     1      -8.303  17.929  66.806  1.00  0.00    -0.252 C  
HETATM   24  C   UNL     1      -8.219  18.215  68.317  1.00  0.00    -0.290 C  
HETATM   25  C   UNL     1      -9.942  19.818  68.130  1.00  0.00    -0.440 C  
ENDBRANCH  19  20
ENDBRANCH  18  19
ENDBRANCH  17  18
ENDBRANCH  16  17
ENDBRANCH   4  16
BRANCH   9  26
HETATM   26  N   UNL     1      -8.678   7.561  67.280  1.00  0.00    -0.120 N  
HETATM   27  O   UNL     1      -7.927   6.530  69.208  1.00  0.00    -0.108 OA 
HETATM   28  H   UNL     1      -9.301   7.348  66.500  1.00  0.00     0.000 HD 
HETATM   29  C   UNL     1      -8.353   6.454  68.059  1.00  0.00    -0.115 C  
BRANCH  29  30
HETATM   30  C   UNL     1      -8.634   5.108  67.499  1.00  0.00    -0.104 A  
HETATM   31  N   UNL     1      -9.305   2.796  67.653  1.00  0.00    -0.198 NA 
HETATM   32  C   UNL     1      -9.028   3.996  68.210  1.00  0.00    -0.118 A  
HETATM   33  C   UNL     1      -9.146   2.708  66.322  1.00  0.00    -0.109 A  
HETATM   34  N   UNL     1      -8.801   3.719  65.530  1.00  0.00    -0.118 NA 
HETATM   35  N   UNL     1      -9.431   1.489  65.733  1.00  0.00    -0.329 NA 
HETATM   36  H1  UNL     1      -9.310   1.423  64.722  1.00  0.00     0.000 HD 
HETATM   37  C   UNL     1      -8.542   4.899  66.138  1.00  0.00    -0.116 A  
HETATM   38  H2  UNL     1     -10.379   1.205  65.981  1.00  0.00     0.000 HD 
ENDBRANCH  29  30
ENDBRANCH   9  26
ENDBRANCH   2   3
TORSDOF 8
ENDMDL
MODEL      102
REMARK 921   NORMALIZED FREE ENERGY PREDICTED BY IDOCK:   -4.48 KCAL/MOL
REMARK 922        TOTAL FREE ENERGY PREDICTED BY IDOCK:   -7.77 KCAL/MOL
REMARK 923 INTER-LIGAND FREE ENERGY PREDICTED BY IDOCK:   -7.10 KCAL/MOL
REMARK 924 INTRA-LIGAND FREE ENERGY PREDICTED BY IDOCK:   -0.67 KCAL/MOL
REMARK 927      BINDING AFFINITY PREDICTED BY RF-SCORE:    0.00 PKD
ROOT
HETATM    1  C   UNL     1      -8.311  12.626  66.828  1.00  0.00    -0.005 C  
HETATM    2  O   UNL     1      -8.317  12.455  68.242  1.00  0.00    -0.165 OA 
ENDROOT
BRANCH   2   3
HETATM    3  C   UNL     1      -9.544  12.180  68.808  1.00  0.00     0.039 A  
HETATM    4  C   UNL     1     -10.472  13.259  68.823  1.00  0.00    -0.169 A  
HETATM    5  C   UNL     1     -11.760  13.078  69.354  1.00  0.00    -0.386 A  
HETATM    6  C   UNL     1     -11.739   7.915  71.910  1.00  0.00    -0.297 C  
HETATM    7  N   UNL     1     -10.901   8.443  69.888  1.00  0.00    -0.233 NA 
HETATM    8  C   UNL     1     -12.117  11.869  69.937  1.00  0.00    -0.344 A  
HETATM    9  C   UNL     1      -9.583   8.587  69.507  1.00  0.00    -0.170 A  
HETATM   10  C   UNL     1     -11.195  10.834  69.917  1.00  0.00    -0.371 A  
HETATM   11  C   UNL     1     -11.555   7.317  70.519  1.00  0.00    -0.258 C  
HETATM   12  C   UNL     1      -9.921  10.921  69.325  1.00  0.00    -0.113 A  
HETATM   13  N   UNL     1      -9.067   9.767  69.277  1.00  0.00    -0.172 NA 
HETATM   14  C   UNL     1     -11.477   9.540  70.507  1.00  0.00    -0.276 A  
HETATM   15  N   UNL     1     -12.094   9.351  71.652  1.00  0.00    -0.365 NA 
BRANCH   4  16
HETATM   16  O   UNL     1     -10.070  14.467  68.284  1.00  0.00    -0.220 OA 
BRANCH  16  17
HETATM   17  C   UNL     1     -11.125  15.264  67.718  1.00  0.00    -0.318 C  
BRANCH  17  18
HETATM   18  C   UNL     1     -10.810  15.573  66.256  1.00  0.00    -0.283 C  
BRANCH  18  19
HETATM   19  C   UNL     1     -10.176  16.962  66.069  1.00  0.00    -0.336 C  
BRANCH  19  20
HETATM   20  N   UNL     1      -9.841  17.652  67.326  1.00  0.00    -0.293 NA 
HETATM   21  O   UNL     1      -8.940  20.398  66.758  1.00  0.00    -0.296 OA 
HETATM   22  C   UNL     1      -8.428  18.091  67.396  1.00  0.00    -0.240 C  
HETATM   23  C   UNL     1     -10.689  18.850  67.540  1.00  0.00    -0.434 C  
HETATM   24  C   UNL     1     -10.327  20.051  66.647  1.00  0.00    -0.440 C  
HETATM   25  C   UNL     1      -8.105  19.271  66.466  1.00  0.00    -0.299 C  
ENDBRANCH  19  20
ENDBRANCH  18  19
ENDBRANCH  17  18
ENDBRANCH  16  17
ENDBRANCH   4  16
BRANCH   9  26
HETATM   26  N   UNL     1      -8.634   7.582  69.443  1.00  0.00    -0.133 N  
HETATM   27  O   UNL     1      -8.338   7.061  67.209  1.00  0.00    -0.120 OA 
HETATM   28  H   UNL     1      -8.173   7.393  70.332  1.00  0.00     0.000 HD 
HETATM   29  C   UNL     1      -8.189   6.780  68.395  1.00  0.00    -0.119 C  
BRANCH  29  30
HETATM   30  C   UNL     1      -7.405   5.568  68.739  1.00  0.00    -0.075 A  
HETATM   31  N   UNL     1      -6.196   4.127  70.251  1.00  0.00    -0.025 NA 
HETATM   32  C   UNL     1      -6.878   5.261  69.974  1.00  0.00    -0.052 A  
HETATM   33  C   UNL     1      -6.013   3.280  69.224  1.00  0.00    -0.024 A  
HETATM   34  N   UNL     1      -6.499   3.454  67.999  1.00  0.00    -0.036 NA 
HETATM   35  N   UNL     1      -5.323   2.110  69.490  1.00  0.00    -0.012 NA 
HETATM   36  H1  UNL     1      -5.183   1.467  68.710  1.00  0.00     0.000 HD 
HETATM   37  C   UNL     1      -7.179   4.601  67.779  1.00  0.00    -0.066 A  
HETATM   38  H2  UNL     1      -5.774   1.617  70.261  1.00  0.00     0.000 HD 
ENDBRANCH  29  30
ENDBRANCH   9  26
ENDBRANCH   2   3
TORSDOF 8
ENDMDL
MODEL      103
REMARK 921   NORMALIZED FREE ENERGY PREDICTED BY IDOCK:   -4.45 KCAL/MOL
REMARK 922        TOTAL FREE ENERGY PREDICTED BY IDOCK:   -7.74 KCAL/MOL
REMARK 923 INTER-LIGAND FREE ENERGY PREDICTED BY IDOCK:   -7.50 KCAL/MOL
REMARK 924 INTRA-LIGAND FREE ENERGY PREDICTED BY IDOCK:   -0.23 KCAL/MOL
REMARK 927      BINDING AFFINITY PREDICTED BY RF-SCORE:    0.00 PKD
ROOT
HETATM    1  C   UNL     1      -7.681   8.349  65.289  1.00  0.00    -0.098 C  
HETATM    2  O   UNL     1      -6.883   7.415  66.010  1.00  0.00    -0.055 OA 
ENDROOT
BRANCH   2   3
HETATM    3  C   UNL     1      -7.322   7.105  67.279  1.00  0.00    -0.091 A  
HETATM    4  C   UNL     1      -6.743   5.944  67.866  1.00  0.00    -0.058 A  
HETATM    5  C   UNL     1      -7.102   5.555  69.167  1.00  0.00    -0.064 A  
HETATM    6  C   UNL     1     -11.567   8.872  70.669  1.00  0.00    -0.215 C  
HETATM    7  N   UNL     1      -9.660   9.519  69.661  1.00  0.00    -0.188 NA 
HETATM    8  C   UNL     1      -8.080   6.251  69.865  1.00  0.00    -0.120 A  
HETATM    9  C   UNL     1      -9.454   9.881  68.347  1.00  0.00    -0.137 A  
HETATM   10  C   UNL     1      -8.635   7.374  69.272  1.00  0.00    -0.137 A  
HETATM   11  C   UNL     1     -10.601  10.052  70.623  1.00  0.00    -0.202 C  
HETATM   12  C   UNL     1      -8.258   7.869  68.009  1.00  0.00    -0.127 A  
HETATM   13  N   UNL     1      -8.829   9.091  67.513  1.00  0.00    -0.123 NA 
HETATM   14  C   UNL     1      -9.666   8.159  69.923  1.00  0.00    -0.176 A  
HETATM   15  N   UNL     1     -10.678   7.663  70.598  1.00  0.00    -0.227 NA 
BRANCH   4  16
HETATM   16  O   UNL     1      -5.811   5.240  67.126  1.00  0.00    -0.017 OA 
BRANCH  16  17
HETATM   17  C   UNL     1      -5.992   3.814  67.117  1.00  0.00    -0.024 C  
BRANCH  17  18
HETATM   18  C   UNL     1      -7.328   3.467  66.463  1.00  0.00    -0.075 C  
BRANCH  18  19
HETATM   19  C   UNL     1      -7.310   3.674  64.938  1.00  0.00    -0.072 C  
BRANCH  19  20
HETATM   20  N   UNL     1      -8.076   4.843  64.475  1.00  0.00    -0.106 NA 
HETATM   21  O   UNL     1     -10.604   3.967  63.244  1.00  0.00    -0.215 OA 
HETATM   22  C   UNL     1      -8.329   4.839  63.015  1.00  0.00    -0.109 C  
HETATM   23  C   UNL     1      -9.392   4.944  65.152  1.00  0.00    -0.096 C  
HETATM   24  C   UNL     1     -10.435   3.921  64.667  1.00  0.00    -0.182 C  
HETATM   25  C   UNL     1      -9.352   3.781  62.573  1.00  0.00    -0.100 C  
ENDBRANCH  19  20
ENDBRANCH  18  19
ENDBRANCH  17  18
ENDBRANCH  16  17
ENDBRANCH   4  16
BRANCH   9  26
HETATM   26  N   UNL     1      -9.962  11.005  67.717  1.00  0.00    -0.171 N  
HETATM   27  O   UNL     1     -12.234  11.060  68.142  1.00  0.00    -0.578 OA 
HETATM   28  H   UNL     1      -9.245  11.628  67.344  1.00  0.00     0.000 HD 
HETATM   29  C   UNL     1     -11.263  11.447  67.497  1.00  0.00    -0.292 C  
BRANCH  29  30
HETATM   30  C   UNL     1     -11.468  12.520  66.492  1.00  0.00    -0.418 A  
HETATM   31  N   UNL     1     -12.543  13.512  64.573  1.00  0.00    -0.640 NA 
HETATM   32  C   UNL     1     -12.367  12.497  65.448  1.00  0.00    -0.359 A  
HETATM   33  C   UNL     1     -11.752  14.586  64.743  1.00  0.00    -0.422 A  
HETATM   34  N   UNL     1     -10.873  14.733  65.729  1.00  0.00    -0.318 NA 
HETATM   35  N   UNL     1     -11.922  15.638  63.861  1.00  0.00    -1.010 NA 
HETATM   36  H1  UNL     1     -11.322  16.453  63.989  1.00  0.00     0.000 HD 
HETATM   37  C   UNL     1     -10.742  13.691  66.580  1.00  0.00    -0.284 A  
HETATM   38  H2  UNL     1     -12.900  15.931  63.866  1.00  0.00     0.000 HD 
ENDBRANCH  29  30
ENDBRANCH   9  26
ENDBRANCH   2   3
TORSDOF 8
ENDMDL
MODEL      104
REMARK 921   NORMALIZED FREE ENERGY PREDICTED BY IDOCK:   -4.45 KCAL/MOL
REMARK 922        TOTAL FREE ENERGY PREDICTED BY IDOCK:   -7.73 KCAL/MOL
REMARK 923 INTER-LIGAND FREE ENERGY PREDICTED BY IDOCK:   -7.13 KCAL/MOL
REMARK 924 INTRA-LIGAND FREE ENERGY PREDICTED BY IDOCK:   -0.61 KCAL/MOL
REMARK 927      BINDING AFFINITY PREDICTED BY RF-SCORE:    0.00 PKD
ROOT
HETATM    1  C   UNL     1     -11.717  12.229  65.509  1.00  0.00    -0.377 C  
HETATM    2  O   UNL     1     -10.348  12.342  65.131  1.00  0.00    -0.276 OA 
ENDROOT
BRANCH   2   3
HETATM    3  C   UNL     1      -9.502  12.859  66.089  1.00  0.00    -0.154 A  
HETATM    4  C   UNL     1      -9.395  14.278  66.116  1.00  0.00    -0.160 A  
HETATM    5  C   UNL     1      -8.579  14.908  67.070  1.00  0.00    -0.265 A  
HETATM    6  C   UNL     1      -5.572  10.719  69.639  1.00  0.00    -0.041 C  
HETATM    7  N   UNL     1      -7.772  10.726  69.159  1.00  0.00    -0.135 NA 
HETATM    8  C   UNL     1      -7.810  14.154  67.947  1.00  0.00    -0.157 A  
HETATM    9  C   UNL     1      -8.445  10.040  68.171  1.00  0.00    -0.114 A  
HETATM   10  C   UNL     1      -7.925  12.773  67.898  1.00  0.00    -0.158 A  
HETATM   11  C   UNL     1      -6.900  10.219  70.197  1.00  0.00    -0.151 C  
HETATM   12  C   UNL     1      -8.788  12.082  67.027  1.00  0.00    -0.197 A  
HETATM   13  N   UNL     1      -8.903  10.652  67.109  1.00  0.00    -0.137 NA 
HETATM   14  C   UNL     1      -7.158  11.905  68.770  1.00  0.00    -0.111 A  
HETATM   15  N   UNL     1      -5.892  12.075  69.080  1.00  0.00    -0.064 NA 
BRANCH   4  16
HETATM   16  O   UNL     1     -10.130  15.001  65.196  1.00  0.00    -0.361 OA 
BRANCH  16  17
HETATM   17  C   UNL     1     -11.201  15.784  65.751  1.00  0.00    -0.025 C  
BRANCH  17  18
HETATM   18  C   UNL     1     -10.764  17.243  65.870  1.00  0.00    -0.126 C  
BRANCH  18  19
HETATM   19  C   UNL     1     -10.659  17.712  67.332  1.00  0.00    -0.318 C  
BRANCH  19  20
HETATM   20  N   UNL     1     -10.627  19.175  67.500  1.00  0.00    -0.461 NA 
HETATM   21  O   UNL     1      -7.846  20.138  67.397  1.00  0.00    -0.289 OA 
HETATM   22  C   UNL     1      -9.857  19.612  68.688  1.00  0.00    -0.427 C  
HETATM   23  C   UNL     1     -10.042  19.853  66.318  1.00  0.00    -0.502 C  
HETATM   24  C   UNL     1      -8.512  19.714  66.201  1.00  0.00    -0.334 C  
HETATM   25  C   UNL     1      -8.339  19.426  68.538  1.00  0.00    -0.363 C  
ENDBRANCH  19  20
ENDBRANCH  18  19
ENDBRANCH  17  18
ENDBRANCH  16  17
ENDBRANCH   4  16
BRANCH   9  26
HETATM   26  N   UNL     1      -8.612   8.668  68.093  1.00  0.00    -0.140 N  
HETATM   27  O   UNL     1      -6.503   7.726  68.002  1.00  0.00    -0.051 OA 
HETATM   28  H   UNL     1      -9.574   8.360  68.239  1.00  0.00     0.000 HD 
HETATM   29  C   UNL     1      -7.717   7.628  67.855  1.00  0.00    -0.115 C  
BRANCH  29  30
HETATM   30  C   UNL     1      -8.280   6.301  67.499  1.00  0.00    -0.113 A  
HETATM   31  N   UNL     1     -10.058   4.681  67.319  1.00  0.00    -0.156 NA 
HETATM   32  C   UNL     1      -9.580   5.890  67.689  1.00  0.00    -0.111 A  
HETATM   33  C   UNL     1      -9.173   3.839  66.759  1.00  0.00    -0.177 A  
HETATM   34  N   UNL     1      -7.904   4.136  66.498  1.00  0.00    -0.093 NA 
HETATM   35  N   UNL     1      -9.645   2.599  66.367  1.00  0.00    -0.382 NA 
HETATM   36  H1  UNL     1      -8.973   1.960  65.942  1.00  0.00     0.000 HD 
HETATM   37  C   UNL     1      -7.480   5.360  66.882  1.00  0.00    -0.088 A  
HETATM   38  H2  UNL     1     -10.442   2.721  65.741  1.00  0.00     0.000 HD 
ENDBRANCH  29  30
ENDBRANCH   9  26
ENDBRANCH   2   3
TORSDOF 8
ENDMDL
MODEL      105
REMARK 921   NORMALIZED FREE ENERGY PREDICTED BY IDOCK:   -4.43 KCAL/MOL
REMARK 922        TOTAL FREE ENERGY PREDICTED BY IDOCK:   -7.70 KCAL/MOL
REMARK 923 INTER-LIGAND FREE ENERGY PREDICTED BY IDOCK:   -8.09 KCAL/MOL
REMARK 924 INTRA-LIGAND FREE ENERGY PREDICTED BY IDOCK:    0.39 KCAL/MOL
REMARK 927      BINDING AFFINITY PREDICTED BY RF-SCORE:    0.00 PKD
ROOT
HETATM    1  C   UNL     1      -8.911   7.873  67.024  1.00  0.00    -0.128 C  
HETATM    2  O   UNL     1      -8.429   7.698  68.353  1.00  0.00    -0.124 OA 
ENDROOT
BRANCH   2   3
HETATM    3  C   UNL     1      -9.312   7.121  69.240  1.00  0.00    -0.146 A  
HETATM    4  C   UNL     1      -9.139   5.726  69.464  1.00  0.00    -0.130 A  
HETATM    5  C   UNL     1      -9.970   5.046  70.369  1.00  0.00    -0.317 A  
HETATM    6  C   UNL     1     -14.160   8.734  71.796  1.00  0.00    -0.401 C  
HETATM    7  N   UNL     1     -11.953   9.159  71.658  1.00  0.00    -0.342 NA 
HETATM    8  C   UNL     1     -11.018   5.708  70.997  1.00  0.00    -0.247 A  
HETATM    9  C   UNL     1     -11.263   9.858  70.690  1.00  0.00    -0.344 A  
HETATM   10  C   UNL     1     -11.172   7.064  70.758  1.00  0.00    -0.323 A  
HETATM   11  C   UNL     1     -13.079   9.577  72.465  1.00  0.00    -0.246 C  
HETATM   12  C   UNL     1     -10.323   7.824  69.932  1.00  0.00    -0.223 A  
HETATM   13  N   UNL     1     -10.511   9.244  69.814  1.00  0.00    -0.212 NA 
HETATM   14  C   UNL     1     -12.240   7.837  71.364  1.00  0.00    -0.319 A  
HETATM   15  N   UNL     1     -13.481   7.427  71.502  1.00  0.00    -0.387 NA 
BRANCH   4  16
HETATM   16  O   UNL     1      -8.122   5.082  68.785  1.00  0.00    -0.084 OA 
BRANCH  16  17
HETATM   17  C   UNL     1      -8.044   3.663  69.005  1.00  0.00    -0.057 C  
BRANCH  17  18
HETATM   18  C   UNL     1      -7.519   3.388  70.412  1.00  0.00    -0.041 C  
BRANCH  18  19
HETATM   19  C   UNL     1      -8.596   2.801  71.341  1.00  0.00    -0.064 C  
BRANCH  19  20
HETATM   20  N   UNL     1      -8.186   2.689  72.751  1.00  0.00    -0.065 NA 
HETATM   21  O   UNL     1     -10.547   2.881  74.502  1.00  0.00    -0.169 OA 
HETATM   22  C   UNL     1      -8.524   3.885  73.558  1.00  0.00    -0.088 C  
HETATM   23  C   UNL     1      -8.808   1.517  73.414  1.00  0.00    -0.061 C  
HETATM   24  C   UNL     1     -10.303   1.692  73.739  1.00  0.00    -0.092 C  
HETATM   25  C   UNL     1     -10.029   4.036  73.830  1.00  0.00    -0.126 C  
ENDBRANCH  19  20
ENDBRANCH  18  19
ENDBRANCH  17  18
ENDBRANCH  16  17
ENDBRANCH   4  16
BRANCH   9  26
HETATM   26  N   UNL     1     -11.361  11.214  70.432  1.00  0.00    -0.473 N  
HETATM   27  O   UNL     1     -12.488  11.450  68.427  1.00  0.00    -0.379 OA 
HETATM   28  H   UNL     1     -11.068  11.805  71.211  1.00  0.00     0.000 HD 
HETATM   29  C   UNL     1     -11.784  11.926  69.313  1.00  0.00    -0.328 C  
BRANCH  29  30
HETATM   30  C   UNL     1     -11.442  13.369  69.242  1.00  0.00    -0.345 A  
HETATM   31  N   UNL     1     -10.120  15.248  68.504  1.00  0.00    -0.217 NA 
HETATM   32  C   UNL     1     -10.376  13.922  68.568  1.00  0.00    -0.244 A  
HETATM   33  C   UNL     1     -10.964  16.048  69.178  1.00  0.00    -0.297 A  
HETATM   34  N   UNL     1     -12.041  15.632  69.836  1.00  0.00    -0.363 NA 
HETATM   35  N   UNL     1     -10.723  17.409  69.118  1.00  0.00    -0.350 NA 
HETATM   36  H1  UNL     1     -11.363  18.016  69.630  1.00  0.00     0.000 HD 
HETATM   37  C   UNL     1     -12.253  14.298  69.863  1.00  0.00    -0.352 A  
HETATM   38  H2  UNL     1     -10.680  17.704  68.142  1.00  0.00     0.000 HD 
ENDBRANCH  29  30
ENDBRANCH   9  26
ENDBRANCH   2   3
TORSDOF 8
ENDMDL
MODEL      106
REMARK 921   NORMALIZED FREE ENERGY PREDICTED BY IDOCK:   -4.40 KCAL/MOL
REMARK 922        TOTAL FREE ENERGY PREDICTED BY IDOCK:   -7.66 KCAL/MOL
REMARK 923 INTER-LIGAND FREE ENERGY PREDICTED BY IDOCK:   -7.19 KCAL/MOL
REMARK 924 INTRA-LIGAND FREE ENERGY PREDICTED BY IDOCK:   -0.47 KCAL/MOL
REMARK 927      BINDING AFFINITY PREDICTED BY RF-SCORE:    0.00 PKD
ROOT
HETATM    1  C   UNL     1      -7.947  10.462  67.613  1.00  0.00    -0.106 C  
HETATM    2  O   UNL     1      -8.786   9.432  67.098  1.00  0.00    -0.127 OA 
ENDROOT
BRANCH   2   3
HETATM    3  C   UNL     1      -8.966   8.339  67.918  1.00  0.00    -0.134 A  
HETATM    4  C   UNL     1      -8.167   7.201  67.612  1.00  0.00    -0.114 A  
HETATM    5  C   UNL     1      -8.254   6.042  68.401  1.00  0.00    -0.110 A  
HETATM    6  C   UNL     1     -12.750   6.821  71.918  1.00  0.00    -0.255 C  
HETATM    7  N   UNL     1     -11.129   8.303  71.423  1.00  0.00    -0.243 NA 
HETATM    8  C   UNL     1      -9.173   5.965  69.439  1.00  0.00    -0.144 A  
HETATM    9  C   UNL     1     -11.191   9.418  70.616  1.00  0.00    -0.284 A  
HETATM   10  C   UNL     1      -9.945   7.083  69.715  1.00  0.00    -0.179 A  
HETATM   11  C   UNL     1     -11.948   7.947  72.562  1.00  0.00    -0.295 C  
HETATM   12  C   UNL     1      -9.847   8.303  69.020  1.00  0.00    -0.176 A  
HETATM   13  N   UNL     1     -10.629   9.436  69.435  1.00  0.00    -0.217 NA 
HETATM   14  C   UNL     1     -10.934   7.094  70.776  1.00  0.00    -0.252 A  
HETATM   15  N   UNL     1     -11.754   6.105  71.052  1.00  0.00    -0.215 NA 
BRANCH   4  16
HETATM   16  O   UNL     1      -7.300   7.287  66.539  1.00  0.00    -0.077 OA 
BRANCH  16  17
HETATM   17  C   UNL     1      -5.954   6.857  66.806  1.00  0.00    -0.029 C  
BRANCH  17  18
HETATM   18  C   UNL     1      -5.181   6.741  65.494  1.00  0.00    -0.022 C  
BRANCH  18  19
HETATM   19  C   UNL     1      -5.195   5.312  64.923  1.00  0.00    -0.009 C  
BRANCH  19  20
HETATM   20  N   UNL     1      -5.221   5.245  63.452  1.00  0.00    -0.009 NA 
HETATM   21  O   UNL     1      -7.964   4.712  62.520  1.00  0.00    -0.064 OA 
HETATM   22  C   UNL     1      -5.680   3.935  62.933  1.00  0.00    -0.013 C  
HETATM   23  C   UNL     1      -6.102   6.287  62.869  1.00  0.00    -0.026 C  
HETATM   24  C   UNL     1      -7.608   6.005  63.028  1.00  0.00    -0.084 C  
HETATM   25  C   UNL     1      -7.182   3.685  63.141  1.00  0.00    -0.049 C  
ENDBRANCH  19  20
ENDBRANCH  18  19
ENDBRANCH  17  18
ENDBRANCH  16  17
ENDBRANCH   4  16
BRANCH   9  26
HETATM   26  N   UNL     1     -11.923  10.568  70.861  1.00  0.00    -0.357 N  
HETATM   27  O   UNL     1     -11.608  11.978  69.055  1.00  0.00    -0.264 OA 
HETATM   28  H   UNL     1     -12.539  10.500  71.670  1.00  0.00     0.000 HD 
HETATM   29  C   UNL     1     -11.978  11.799  70.212  1.00  0.00    -0.343 C  
BRANCH  29  30
HETATM   30  C   UNL     1     -12.612  12.931  70.933  1.00  0.00    -0.355 A  
HETATM   31  N   UNL     1     -13.929  13.904  72.704  1.00  0.00    -0.713 NA 
HETATM   32  C   UNL     1     -13.398  12.841  72.060  1.00  0.00    -0.466 A  
HETATM   33  C   UNL     1     -13.679  15.110  72.166  1.00  0.00    -0.477 A  
HETATM   34  N   UNL     1     -12.911  15.322  71.101  1.00  0.00    -0.418 NA 
HETATM   35  N   UNL     1     -14.209  16.211  72.815  1.00  0.00    -0.207 NA 
HETATM   36  H1  UNL     1     -14.020  17.126  72.406  1.00  0.00     0.000 HD 
HETATM   37  C   UNL     1     -12.400  14.225  70.500  1.00  0.00    -0.360 A  
HETATM   38  H2  UNL     1     -13.911  16.206  73.791  1.00  0.00     0.000 HD 
ENDBRANCH  29  30
ENDBRANCH   9  26
ENDBRANCH   2   3
TORSDOF 8
ENDMDL
MODEL      107
REMARK 921   NORMALIZED FREE ENERGY PREDICTED BY IDOCK:   -4.39 KCAL/MOL
REMARK 922        TOTAL FREE ENERGY PREDICTED BY IDOCK:   -7.65 KCAL/MOL
REMARK 923 INTER-LIGAND FREE ENERGY PREDICTED BY IDOCK:   -6.55 KCAL/MOL
REMARK 924 INTRA-LIGAND FREE ENERGY PREDICTED BY IDOCK:   -1.10 KCAL/MOL
REMARK 927      BINDING AFFINITY PREDICTED BY RF-SCORE:    0.00 PKD
ROOT
HETATM    1  C   UNL     1     -10.559   8.082  66.752  1.00  0.00    -0.155 C  
HETATM    2  O   UNL     1     -10.406   7.851  68.150  1.00  0.00    -0.199 OA 
ENDROOT
BRANCH   2   3
HETATM    3  C   UNL     1      -9.113   7.890  68.625  1.00  0.00    -0.136 A  
HETATM    4  C   UNL     1      -8.466   6.628  68.758  1.00  0.00    -0.123 A  
HETATM    5  C   UNL     1      -7.138   6.557  69.210  1.00  0.00    -0.084 A  
HETATM    6  C   UNL     1      -5.765  11.852  71.018  1.00  0.00     0.066 C  
HETATM    7  N   UNL     1      -6.843  11.291  69.122  1.00  0.00    -0.098 NA 
HETATM    8  C   UNL     1      -6.467   7.707  69.606  1.00  0.00    -0.031 A  
HETATM    9  C   UNL     1      -8.180  11.424  68.813  1.00  0.00    -0.107 A  
HETATM   10  C   UNL     1      -7.118   8.923  69.474  1.00  0.00    -0.059 A  
HETATM   11  C   UNL     1      -5.900  12.295  69.565  1.00  0.00    -0.101 C  
HETATM   12  C   UNL     1      -8.415   9.074  68.948  1.00  0.00    -0.130 A  
HETATM   13  N   UNL     1      -8.975  10.386  68.770  1.00  0.00    -0.149 NA 
HETATM   14  C   UNL     1      -6.499  10.175  69.866  1.00  0.00    -0.086 A  
HETATM   15  N   UNL     1      -5.778  10.352  70.951  1.00  0.00    -0.144 NA 
BRANCH   4  16
HETATM   16  O   UNL     1      -9.177   5.495  68.408  1.00  0.00    -0.110 OA 
BRANCH  16  17
HETATM   17  C   UNL     1      -9.301   4.508  69.445  1.00  0.00    -0.149 C  
BRANCH  17  18
HETATM   18  C   UNL     1     -10.422   4.906  70.404  1.00  0.00    -0.164 C  
BRANCH  18  19
HETATM   19  C   UNL     1     -10.090   4.578  71.870  1.00  0.00    -0.188 C  
BRANCH  19  20
HETATM   20  N   UNL     1     -11.101   5.035  72.839  1.00  0.00    -0.274 NA 
HETATM   21  O   UNL     1     -10.396   7.713  73.840  1.00  0.00    -0.184 OA 
HETATM   22  C   UNL     1     -10.546   5.295  74.188  1.00  0.00    -0.259 C  
HETATM   23  C   UNL     1     -11.774   6.277  72.389  1.00  0.00    -0.257 C  
HETATM   24  C   UNL     1     -10.910   7.546  72.512  1.00  0.00    -0.299 C  
HETATM   25  C   UNL     1      -9.665   6.553  74.256  1.00  0.00    -0.287 C  
ENDBRANCH  19  20
ENDBRANCH  18  19
ENDBRANCH  17  18
ENDBRANCH  16  17
ENDBRANCH   4  16
BRANCH   9  26
HETATM   26  N   UNL     1      -8.868  12.613  68.644  1.00  0.00    -0.386 N  
HETATM   27  O   UNL     1      -9.456  12.752  66.412  1.00  0.00    -0.246 OA 
HETATM   28  H   UNL     1      -9.096  13.086  69.519  1.00  0.00     0.000 HD 
HETATM   29  C   UNL     1      -9.308  13.287  67.508  1.00  0.00    -0.218 C  
BRANCH  29  30
HETATM   30  C   UNL     1      -9.714  14.706  67.660  1.00  0.00    -0.214 A  
HETATM   31  N   UNL     1     -11.106  16.480  68.519  1.00  0.00    -0.354 NA 
HETATM   32  C   UNL     1     -10.792  15.173  68.380  1.00  0.00    -0.255 A  
HETATM   33  C   UNL     1     -10.312  17.353  67.875  1.00  0.00    -0.369 A  
HETATM   34  N   UNL     1      -9.229  17.023  67.179  1.00  0.00    -0.230 NA 
HETATM   35  N   UNL     1     -10.614  18.696  68.011  1.00  0.00    -0.346 NA 
HETATM   36  H1  UNL     1     -10.011  19.359  67.523  1.00  0.00     0.000 HD 
HETATM   37  C   UNL     1      -8.957  15.703  67.078  1.00  0.00    -0.222 A  
HETATM   38  H2  UNL     1     -10.652  18.937  69.002  1.00  0.00     0.000 HD 
ENDBRANCH  29  30
ENDBRANCH   9  26
ENDBRANCH   2   3
TORSDOF 8
ENDMDL
MODEL      108
REMARK 921   NORMALIZED FREE ENERGY PREDICTED BY IDOCK:   -4.38 KCAL/MOL
REMARK 922        TOTAL FREE ENERGY PREDICTED BY IDOCK:   -7.64 KCAL/MOL
REMARK 923 INTER-LIGAND FREE ENERGY PREDICTED BY IDOCK:   -7.10 KCAL/MOL
REMARK 924 INTRA-LIGAND FREE ENERGY PREDICTED BY IDOCK:   -0.54 KCAL/MOL
REMARK 927      BINDING AFFINITY PREDICTED BY RF-SCORE:    0.00 PKD
ROOT
HETATM    1  C   UNL     1      -8.187   8.192  70.384  1.00  0.00    -0.114 C  
HETATM    2  O   UNL     1      -7.216   7.155  70.276  1.00  0.00    -0.068 OA 
ENDROOT
BRANCH   2   3
HETATM    3  C   UNL     1      -7.686   5.937  69.837  1.00  0.00    -0.088 A  
HETATM    4  C   UNL     1      -7.431   4.831  70.697  1.00  0.00    -0.057 A  
HETATM    5  C   UNL     1      -7.890   3.548  70.356  1.00  0.00    -0.047 A  
HETATM    6  C   UNL     1      -9.816   3.912  64.938  1.00  0.00    -0.197 C  
HETATM    7  N   UNL     1     -10.199   5.353  66.625  1.00  0.00    -0.217 NA 
HETATM    8  C   UNL     1      -8.529   3.329  69.142  1.00  0.00    -0.096 A  
HETATM    9  C   UNL     1      -9.665   6.608  66.832  1.00  0.00    -0.164 A  
HETATM   10  C   UNL     1      -8.761   4.418  68.318  1.00  0.00    -0.116 A  
HETATM   11  C   UNL     1     -10.906   4.835  65.474  1.00  0.00    -0.038 C  
HETATM   12  C   UNL     1      -8.406   5.742  68.638  1.00  0.00    -0.107 A  
HETATM   13  N   UNL     1      -8.765   6.820  67.757  1.00  0.00    -0.120 NA 
HETATM   14  C   UNL     1      -9.416   4.286  67.031  1.00  0.00    -0.184 A  
HETATM   15  N   UNL     1      -9.197   3.317  66.170  1.00  0.00    -0.159 NA 
BRANCH   4  16
HETATM   16  O   UNL     1      -6.745   5.069  71.873  1.00  0.00    -0.044 OA 
BRANCH  16  17
HETATM   17  C   UNL     1      -7.232   4.353  73.020  1.00  0.00    -0.074 C  
BRANCH  17  18
HETATM   18  C   UNL     1      -7.612   5.340  74.122  1.00  0.00    -0.090 C  
BRANCH  18  19
HETATM   19  C   UNL     1      -8.494   6.491  73.606  1.00  0.00    -0.122 C  
BRANCH  19  20
HETATM   20  N   UNL     1      -9.793   6.614  74.289  1.00  0.00    -0.299 NA 
HETATM   21  O   UNL     1     -11.933   5.527  72.583  1.00  0.00    -0.245 OA 
HETATM   22  C   UNL     1     -10.768   7.450  73.550  1.00  0.00    -0.296 C  
HETATM   23  C   UNL     1     -10.424   5.291  74.515  1.00  0.00    -0.199 C  
HETATM   24  C   UNL     1     -11.017   4.647  73.248  1.00  0.00    -0.303 C  
HETATM   25  C   UNL     1     -11.308   6.780  72.277  1.00  0.00    -0.273 C  
ENDBRANCH  19  20
ENDBRANCH  18  19
ENDBRANCH  17  18
ENDBRANCH  16  17
ENDBRANCH   4  16
BRANCH   9  26
HETATM   26  N   UNL     1      -9.889   7.732  66.056  1.00  0.00    -0.431 N  
HETATM   27  O   UNL     1      -7.922   8.948  66.030  1.00  0.00    -0.103 OA 
HETATM   28  H   UNL     1     -10.777   7.718  65.556  1.00  0.00     0.000 HD 
HETATM   29  C   UNL     1      -9.131   8.877  65.827  1.00  0.00    -0.221 C  
BRANCH  29  30
HETATM   30  C   UNL     1      -9.811  10.043  65.210  1.00  0.00    -0.388 A  
HETATM   31  N   UNL     1     -11.199  12.016  65.260  1.00  0.00    -0.325 NA 
HETATM   32  C   UNL     1     -10.625  10.948  65.856  1.00  0.00    -0.178 A  
HETATM   33  C   UNL     1     -10.964  12.159  63.945  1.00  0.00    -0.402 A  
HETATM   34  N   UNL     1     -10.174  11.370  63.225  1.00  0.00    -0.380 NA 
HETATM   35  N   UNL     1     -11.538  13.251  63.319  1.00  0.00    -0.659 NA 
HETATM   36  H1  UNL     1     -11.360  13.360  62.320  1.00  0.00     0.000 HD 
HETATM   37  C   UNL     1      -9.619  10.320  63.871  1.00  0.00    -0.293 A  
HETATM   38  H2  UNL     1     -11.266  14.105  63.807  1.00  0.00     0.000 HD 
ENDBRANCH  29  30
ENDBRANCH   9  26
ENDBRANCH   2   3
TORSDOF 8
ENDMDL
MODEL      109
REMARK 921   NORMALIZED FREE ENERGY PREDICTED BY IDOCK:   -4.36 KCAL/MOL
REMARK 922        TOTAL FREE ENERGY PREDICTED BY IDOCK:   -7.59 KCAL/MOL
REMARK 923 INTER-LIGAND FREE ENERGY PREDICTED BY IDOCK:   -6.62 KCAL/MOL
REMARK 924 INTRA-LIGAND FREE ENERGY PREDICTED BY IDOCK:   -0.97 KCAL/MOL
REMARK 927      BINDING AFFINITY PREDICTED BY RF-SCORE:    0.00 PKD
ROOT
HETATM    1  C   UNL     1     -12.313  10.878  70.872  1.00  0.00    -0.400 C  
HETATM    2  O   UNL     1     -11.990  10.514  69.533  1.00  0.00    -0.259 OA 
ENDROOT
BRANCH   2   3
HETATM    3  C   UNL     1     -10.711  10.823  69.120  1.00  0.00    -0.227 A  
HETATM    4  C   UNL     1     -10.560  12.081  68.472  1.00  0.00    -0.231 A  
HETATM    5  C   UNL     1      -9.294  12.504  68.034  1.00  0.00    -0.205 A  
HETATM    6  C   UNL     1      -5.787   7.970  68.620  1.00  0.00    -0.039 C  
HETATM    7  N   UNL     1      -7.303   8.727  70.102  1.00  0.00    -0.051 NA 
HETATM    8  C   UNL     1      -8.191  11.669  68.160  1.00  0.00    -0.151 A  
HETATM    9  C   UNL     1      -8.531   8.194  70.436  1.00  0.00    -0.129 A  
HETATM   10  C   UNL     1      -8.363  10.446  68.788  1.00  0.00    -0.134 A  
HETATM   11  C   UNL     1      -5.997   8.105  70.124  1.00  0.00    -0.025 C  
HETATM   12  C   UNL     1      -9.584   9.998  69.327  1.00  0.00    -0.216 A  
HETATM   13  N   UNL     1      -9.645   8.751  70.038  1.00  0.00    -0.165 NA 
HETATM   14  C   UNL     1      -7.271   9.507  68.959  1.00  0.00    -0.071 A  
HETATM   15  N   UNL     1      -6.360   9.237  68.051  1.00  0.00    -0.054 NA 
BRANCH   4  16
HETATM   16  O   UNL     1     -11.685  12.868  68.312  1.00  0.00    -0.312 OA 
BRANCH  16  17
HETATM   17  C   UNL     1     -11.858  13.426  66.999  1.00  0.00    -0.394 C  
BRANCH  17  18
HETATM   18  C   UNL     1     -12.017  14.942  67.100  1.00  0.00    -0.136 C  
BRANCH  18  19
HETATM   19  C   UNL     1     -10.666  15.673  67.187  1.00  0.00    -0.314 C  
BRANCH  19  20
HETATM   20  N   UNL     1     -10.664  16.841  68.084  1.00  0.00    -0.351 NA 
HETATM   21  O   UNL     1      -8.316  18.530  67.531  1.00  0.00    -0.253 OA 
HETATM   22  C   UNL     1      -9.469  16.909  68.957  1.00  0.00    -0.199 C  
HETATM   23  C   UNL     1     -10.736  18.116  67.329  1.00  0.00    -0.315 C  
HETATM   24  C   UNL     1      -9.425  18.508  66.623  1.00  0.00    -0.311 C  
HETATM   25  C   UNL     1      -8.179  17.273  68.204  1.00  0.00    -0.231 C  
ENDBRANCH  19  20
ENDBRANCH  18  19
ENDBRANCH  17  18
ENDBRANCH  16  17
ENDBRANCH   4  16
BRANCH   9  26
HETATM   26  N   UNL     1      -8.753   6.993  71.087  1.00  0.00    -0.137 N  
HETATM   27  O   UNL     1      -8.722   5.328  69.483  1.00  0.00    -0.102 OA 
HETATM   28  H   UNL     1      -8.734   7.065  72.104  1.00  0.00     0.000 HD 
HETATM   29  C   UNL     1      -8.998   5.705  70.618  1.00  0.00    -0.146 C  
BRANCH  29  30
HETATM   30  C   UNL     1      -9.531   4.709  71.581  1.00  0.00    -0.210 A  
HETATM   31  N   UNL     1      -9.505   2.599  72.752  1.00  0.00    -0.094 NA 
HETATM   32  C   UNL     1      -9.004   3.463  71.841  1.00  0.00    -0.100 A  
HETATM   33  C   UNL     1     -10.606   3.002  73.408  1.00  0.00    -0.174 A  
HETATM   34  N   UNL     1     -11.184   4.191  73.265  1.00  0.00    -0.234 NA 
HETATM   35  N   UNL     1     -11.129   2.134  74.350  1.00  0.00    -0.036 NA 
HETATM   36  H1  UNL     1     -11.966   2.439  74.849  1.00  0.00     0.000 HD 
HETATM   37  C   UNL     1     -10.638   5.018  72.346  1.00  0.00    -0.215 A  
HETATM   38  H2  UNL     1     -10.404   1.885  75.023  1.00  0.00     0.000 HD 
ENDBRANCH  29  30
ENDBRANCH   9  26
ENDBRANCH   2   3
TORSDOF 8
ENDMDL
MODEL      110
REMARK 921   NORMALIZED FREE ENERGY PREDICTED BY IDOCK:   -4.33 KCAL/MOL
REMARK 922        TOTAL FREE ENERGY PREDICTED BY IDOCK:   -7.55 KCAL/MOL
REMARK 923 INTER-LIGAND FREE ENERGY PREDICTED BY IDOCK:   -6.98 KCAL/MOL
REMARK 924 INTRA-LIGAND FREE ENERGY PREDICTED BY IDOCK:   -0.57 KCAL/MOL
REMARK 927      BINDING AFFINITY PREDICTED BY RF-SCORE:    0.00 PKD
ROOT
HETATM    1  C   UNL     1     -11.358  11.133  67.254  1.00  0.00    -0.226 C  
HETATM    2  O   UNL     1     -11.062  10.363  68.416  1.00  0.00    -0.250 OA 
ENDROOT
BRANCH   2   3
HETATM    3  C   UNL     1      -9.724  10.208  68.707  1.00  0.00    -0.172 A  
HETATM    4  C   UNL     1      -9.278   8.865  68.863  1.00  0.00    -0.140 A  
HETATM    5  C   UNL     1      -7.927   8.595  69.136  1.00  0.00    -0.110 A  
HETATM    6  C   UNL     1      -5.462  13.678  70.267  1.00  0.00    -0.123 C  
HETATM    7  N   UNL     1      -6.885  13.190  68.591  1.00  0.00    -0.093 NA 
HETATM    8  C   UNL     1      -7.028   9.634  69.334  1.00  0.00    -0.056 A  
HETATM    9  C   UNL     1      -8.214  13.532  68.454  1.00  0.00    -0.141 A  
HETATM   10  C   UNL     1      -7.485  10.934  69.185  1.00  0.00    -0.130 A  
HETATM   11  C   UNL     1      -5.736  14.042  68.812  1.00  0.00    -0.085 C  
HETATM   12  C   UNL     1      -8.804  11.272  68.827  1.00  0.00    -0.102 A  
HETATM   13  N   UNL     1      -9.163  12.647  68.610  1.00  0.00    -0.044 NA 
HETATM   14  C   UNL     1      -6.620  12.082  69.378  1.00  0.00    -0.100 A  
HETATM   15  N   UNL     1      -5.728  12.201  70.335  1.00  0.00    -0.161 NA 
BRANCH   4  16
HETATM   16  O   UNL     1     -10.208   7.852  68.713  1.00  0.00    -0.197 OA 
BRANCH  16  17
HETATM   17  C   UNL     1     -10.500   7.111  69.910  1.00  0.00    -0.223 C  
BRANCH  17  18
HETATM   18  C   UNL     1     -10.063   5.658  69.736  1.00  0.00    -0.286 C  
BRANCH  18  19
HETATM   19  C   UNL     1     -10.311   4.811  70.996  1.00  0.00    -0.118 C  
BRANCH  19  20
HETATM   20  N   UNL     1     -10.130   5.539  72.263  1.00  0.00    -0.178 NA 
HETATM   21  O   UNL     1      -9.306   3.674  74.388  1.00  0.00    -0.094 OA 
HETATM   22  C   UNL     1     -11.026   5.067  73.345  1.00  0.00    -0.327 C  
HETATM   23  C   UNL     1      -8.738   5.437  72.764  1.00  0.00    -0.123 C  
HETATM   24  C   UNL     1      -8.380   4.065  73.365  1.00  0.00    -0.089 C  
HETATM   25  C   UNL     1     -10.650   3.681  73.892  1.00  0.00    -0.210 C  
ENDBRANCH  19  20
ENDBRANCH  18  19
ENDBRANCH  17  18
ENDBRANCH  16  17
ENDBRANCH   4  16
BRANCH   9  26
HETATM   26  N   UNL     1      -8.717  14.809  68.275  1.00  0.00    -0.163 N  
HETATM   27  O   UNL     1      -9.775  14.845  66.219  1.00  0.00    -0.262 OA 
HETATM   28  H   UNL     1      -8.656  15.398  69.106  1.00  0.00     0.000 HD 
HETATM   29  C   UNL     1      -9.292  15.443  67.176  1.00  0.00    -0.214 C  
BRANCH  29  30
HETATM   30  C   UNL     1      -9.412  16.922  67.217  1.00  0.00    -0.242 A  
HETATM   31  N   UNL     1      -9.213  19.082  68.275  1.00  0.00    -0.320 NA 
HETATM   32  C   UNL     1      -9.120  17.734  68.292  1.00  0.00    -0.281 A  
HETATM   33  C   UNL     1      -9.651  19.632  67.129  1.00  0.00    -0.348 A  
HETATM   34  N   UNL     1      -9.933  18.954  66.020  1.00  0.00    -0.510 NA 
HETATM   35  N   UNL     1      -9.747  21.011  67.090  1.00  0.00    -0.620 NA 
HETATM   36  H1  UNL     1     -10.079  21.429  66.220  1.00  0.00     0.000 HD 
HETATM   37  C   UNL     1      -9.816  17.609  66.090  1.00  0.00    -0.242 A  
HETATM   38  H2  UNL     1      -8.847  21.422  67.342  1.00  0.00     0.000 HD 
ENDBRANCH  29  30
ENDBRANCH   9  26
ENDBRANCH   2   3
TORSDOF 8
ENDMDL
MODEL      111
REMARK 921   NORMALIZED FREE ENERGY PREDICTED BY IDOCK:   -4.30 KCAL/MOL
REMARK 922        TOTAL FREE ENERGY PREDICTED BY IDOCK:   -7.51 KCAL/MOL
REMARK 923 INTER-LIGAND FREE ENERGY PREDICTED BY IDOCK:   -7.23 KCAL/MOL
REMARK 924 INTRA-LIGAND FREE ENERGY PREDICTED BY IDOCK:   -0.28 KCAL/MOL
REMARK 927      BINDING AFFINITY PREDICTED BY RF-SCORE:    0.00 PKD
ROOT
HETATM    1  C   UNL     1      -9.647   9.479  66.404  1.00  0.00    -0.213 C  
HETATM    2  O   UNL     1     -10.308   8.221  66.501  1.00  0.00    -0.276 OA 
ENDROOT
BRANCH   2   3
HETATM    3  C   UNL     1      -9.891   7.403  67.529  1.00  0.00    -0.158 A  
HETATM    4  C   UNL     1      -9.100   6.283  67.144  1.00  0.00    -0.119 A  
HETATM    5  C   UNL     1      -8.603   5.400  68.116  1.00  0.00    -0.096 A  
HETATM    6  C   UNL     1     -11.160   6.849  73.071  1.00  0.00    -0.232 C  
HETATM    7  N   UNL     1     -10.246   8.233  71.548  1.00  0.00    -0.202 NA 
HETATM    8  C   UNL     1      -8.939   5.563  69.454  1.00  0.00    -0.120 A  
HETATM    9  C   UNL     1     -10.874   9.060  70.640  1.00  0.00    -0.243 A  
HETATM   10  C   UNL     1      -9.716   6.656  69.805  1.00  0.00    -0.168 A  
HETATM   11  C   UNL     1     -10.397   8.167  72.985  1.00  0.00    -0.187 C  
HETATM   12  C   UNL     1     -10.174   7.627  68.893  1.00  0.00    -0.210 A  
HETATM   13  N   UNL     1     -10.902   8.773  69.364  1.00  0.00    -0.166 NA 
HETATM   14  C   UNL     1     -10.121   6.906  71.175  1.00  0.00    -0.191 A  
HETATM   15  N   UNL     1     -10.525   5.984  72.021  1.00  0.00    -0.203 NA 
BRANCH   4  16
HETATM   16  O   UNL     1      -8.826   6.115  65.799  1.00  0.00    -0.157 OA 
BRANCH  16  17
HETATM   17  C   UNL     1      -9.734   5.252  65.095  1.00  0.00     0.274 C  
BRANCH  17  18
HETATM   18  C   UNL     1      -9.336   3.794  65.315  1.00  0.00    -0.158 C  
BRANCH  18  19
HETATM   19  C   UNL     1      -8.714   3.155  64.061  1.00  0.00    -0.089 C  
BRANCH  19  20
HETATM   20  N   UNL     1      -7.485   3.816  63.588  1.00  0.00    -0.058 NA 
HETATM   21  O   UNL     1      -5.196   1.979  63.834  1.00  0.00    -0.007 OA 
HETATM   22  C   UNL     1      -6.441   3.930  64.632  1.00  0.00    -0.042 C  
HETATM   23  C   UNL     1      -6.884   3.102  62.435  1.00  0.00    -0.030 C  
HETATM   24  C   UNL     1      -6.175   1.786  62.804  1.00  0.00    -0.009 C  
HETATM   25  C   UNL     1      -5.783   2.588  64.991  1.00  0.00    -0.017 C  
ENDBRANCH  19  20
ENDBRANCH  18  19
ENDBRANCH  17  18
ENDBRANCH  16  17
ENDBRANCH   4  16
BRANCH   9  26
HETATM   26  N   UNL     1     -11.635  10.177  70.939  1.00  0.00    -0.351 N  
HETATM   27  O   UNL     1     -11.790  11.437  69.006  1.00  0.00    -0.306 OA 
HETATM   28  H   UNL     1     -12.076  10.142  71.858  1.00  0.00     0.000 HD 
HETATM   29  C   UNL     1     -11.914  11.339  70.224  1.00  0.00    -0.379 C  
BRANCH  29  30
HETATM   30  C   UNL     1     -12.485  12.488  70.969  1.00  0.00    -0.353 A  
HETATM   31  N   UNL     1     -13.885  13.492  72.658  1.00  0.00    -0.753 NA 
HETATM   32  C   UNL     1     -13.415  12.420  71.983  1.00  0.00    -0.360 A  
HETATM   33  C   UNL     1     -13.417  14.690  72.269  1.00  0.00    -0.408 A  
HETATM   34  N   UNL     1     -12.497  14.877  71.327  1.00  0.00    -0.306 NA 
HETATM   35  N   UNL     1     -13.881  15.800  72.953  1.00  0.00    -0.604 NA 
HETATM   36  H1  UNL     1     -13.526  16.709  72.658  1.00  0.00     0.000 HD 
HETATM   37  C   UNL     1     -12.056  13.770  70.689  1.00  0.00    -0.333 A  
HETATM   38  H2  UNL     1     -13.715  15.677  73.953  1.00  0.00     0.000 HD 
ENDBRANCH  29  30
ENDBRANCH   9  26
ENDBRANCH   2   3
TORSDOF 8
ENDMDL
MODEL      112
REMARK 921   NORMALIZED FREE ENERGY PREDICTED BY IDOCK:   -4.26 KCAL/MOL
REMARK 922        TOTAL FREE ENERGY PREDICTED BY IDOCK:   -7.45 KCAL/MOL
REMARK 923 INTER-LIGAND FREE ENERGY PREDICTED BY IDOCK:   -6.06 KCAL/MOL
REMARK 924 INTRA-LIGAND FREE ENERGY PREDICTED BY IDOCK:   -1.39 KCAL/MOL
REMARK 927      BINDING AFFINITY PREDICTED BY RF-SCORE:    0.00 PKD
ROOT
HETATM    1  C   UNL     1     -10.839  11.334  65.134  1.00  0.00    -0.200 C  
HETATM    2  O   UNL     1     -10.408  10.737  66.354  1.00  0.00    -0.239 OA 
ENDROOT
BRANCH   2   3
HETATM    3  C   UNL     1      -9.045  10.717  66.563  1.00  0.00    -0.162 A  
HETATM    4  C   UNL     1      -8.391   9.492  66.247  1.00  0.00    -0.115 A  
HETATM    5  C   UNL     1      -7.000   9.373  66.400  1.00  0.00    -0.084 A  
HETATM    6  C   UNL     1      -5.268  14.119  69.169  1.00  0.00    -0.077 C  
HETATM    7  N   UNL     1      -6.706  13.992  67.440  1.00  0.00    -0.256 NA 
HETATM    8  C   UNL     1      -6.258  10.420  66.931  1.00  0.00    -0.066 A  
HETATM    9  C   UNL     1      -8.078  14.135  67.441  1.00  0.00    -0.189 A  
HETATM   10  C   UNL     1      -6.916  11.600  67.237  1.00  0.00    -0.131 A  
HETATM   11  C   UNL     1      -5.689  14.899  67.927  1.00  0.00    -0.125 C  
HETATM   12  C   UNL     1      -8.292  11.816  67.028  1.00  0.00    -0.172 A  
HETATM   13  N   UNL     1      -8.870  13.105  67.296  1.00  0.00    -0.200 NA 
HETATM   14  C   UNL     1      -6.226  12.744  67.801  1.00  0.00    -0.138 A  
HETATM   15  N   UNL     1      -5.301  12.682  68.732  1.00  0.00    -0.058 NA 
BRANCH   4  16
HETATM   16  O   UNL     1      -9.163   8.449  65.771  1.00  0.00    -0.182 OA 
BRANCH  16  17
HETATM   17  C   UNL     1      -9.257   7.311  66.645  1.00  0.00    -0.157 C  
BRANCH  17  18
HETATM   18  C   UNL     1     -10.598   7.332  67.376  1.00  0.00    -0.370 C  
BRANCH  18  19
HETATM   19  C   UNL     1     -10.445   7.147  68.896  1.00  0.00    -0.207 C  
BRANCH  19  20
HETATM   20  N   UNL     1     -11.074   8.207  69.703  1.00  0.00    -0.088 NA 
HETATM   21  O   UNL     1      -9.253   9.041  71.862  1.00  0.00    -0.353 OA 
HETATM   22  C   UNL     1     -11.251   7.834  71.126  1.00  0.00    -0.264 C  
HETATM   23  C   UNL     1     -10.289   9.465  69.668  1.00  0.00    -0.216 C  
HETATM   24  C   UNL     1      -8.997   9.429  70.506  1.00  0.00    -0.253 C  
HETATM   25  C   UNL     1      -9.933   7.781  71.915  1.00  0.00    -0.174 C  
ENDBRANCH  19  20
ENDBRANCH  18  19
ENDBRANCH  17  18
ENDBRANCH  16  17
ENDBRANCH   4  16
BRANCH   9  26
HETATM   26  N   UNL     1      -8.780  15.297  67.712  1.00  0.00    -0.162 N  
HETATM   27  O   UNL     1      -8.832  16.536  65.760  1.00  0.00    -0.474 OA 
HETATM   28  H   UNL     1      -9.237  15.300  68.624  1.00  0.00     0.000 HD 
HETATM   29  C   UNL     1      -8.981  16.462  66.976  1.00  0.00    -0.212 C  
BRANCH  29  30
HETATM   30  C   UNL     1      -9.500  17.652  67.696  1.00  0.00    -0.258 A  
HETATM   31  N   UNL     1     -10.301  18.823  69.648  1.00  0.00     0.419 NA 
HETATM   32  C   UNL     1      -9.863  17.707  69.024  1.00  0.00    -0.231 A  
HETATM   33  C   UNL     1     -10.406  19.926  68.887  1.00  0.00    -0.185 A  
HETATM   34  N   UNL     1     -10.057  20.001  67.606  1.00  0.00    -0.413 NA 
HETATM   35  N   UNL     1     -10.846  21.080  69.509  1.00  0.00     0.247 NA 
HETATM   36  H1  UNL     1     -10.926  21.918  68.932  1.00  0.00     0.000 HD 
HETATM   37  C   UNL     1      -9.619  18.857  67.033  1.00  0.00    -0.312 A  
HETATM   38  H2  UNL     1     -10.254  21.279  70.316  1.00  0.00     0.000 HD 
ENDBRANCH  29  30
ENDBRANCH   9  26
ENDBRANCH   2   3
TORSDOF 8
ENDMDL
MODEL      113
REMARK 921   NORMALIZED FREE ENERGY PREDICTED BY IDOCK:   -4.19 KCAL/MOL
REMARK 922        TOTAL FREE ENERGY PREDICTED BY IDOCK:   -7.35 KCAL/MOL
REMARK 923 INTER-LIGAND FREE ENERGY PREDICTED BY IDOCK:   -6.37 KCAL/MOL
REMARK 924 INTRA-LIGAND FREE ENERGY PREDICTED BY IDOCK:   -0.97 KCAL/MOL
REMARK 927      BINDING AFFINITY PREDICTED BY RF-SCORE:    0.00 PKD
ROOT
HETATM    1  C   UNL     1      -7.368  10.114  65.105  1.00  0.00    -0.141 C  
HETATM    2  O   UNL     1      -8.472  10.286  65.989  1.00  0.00    -0.132 OA 
ENDROOT
BRANCH   2   3
HETATM    3  C   UNL     1      -8.215  10.044  67.322  1.00  0.00    -0.117 A  
HETATM    4  C   UNL     1      -7.856  11.183  68.097  1.00  0.00    -0.118 A  
HETATM    5  C   UNL     1      -7.598  11.052  69.471  1.00  0.00    -0.001 A  
HETATM    6  C   UNL     1      -7.444   5.395  70.550  1.00  0.00    -0.072 C  
HETATM    7  N   UNL     1      -8.952   6.508  69.303  1.00  0.00    -0.131 NA 
HETATM    8  C   UNL     1      -7.616   9.801  70.074  1.00  0.00    -0.169 A  
HETATM    9  C   UNL     1      -9.087   6.543  67.931  1.00  0.00    -0.113 A  
HETATM   10  C   UNL     1      -7.962   8.705  69.300  1.00  0.00    -0.103 A  
HETATM   11  C   UNL     1      -8.927   5.369  70.194  1.00  0.00    -0.134 C  
HETATM   12  C   UNL     1      -8.316   8.779  67.939  1.00  0.00    -0.118 A  
HETATM   13  N   UNL     1      -8.745   7.598  67.239  1.00  0.00    -0.124 NA 
HETATM   14  C   UNL     1      -8.002   7.360  69.841  1.00  0.00    -0.121 A  
HETATM   15  N   UNL     1      -7.118   6.856  70.672  1.00  0.00    -0.066 NA 
BRANCH   4  16
HETATM   16  O   UNL     1      -7.793  12.408  67.458  1.00  0.00    -0.147 OA 
BRANCH  16  17
HETATM   17  C   UNL     1      -8.576  13.452  68.062  1.00  0.00    -0.174 C  
BRANCH  17  18
HETATM   18  C   UNL     1      -9.256  14.280  66.973  1.00  0.00    -0.249 C  
BRANCH  18  19
HETATM   19  C   UNL     1     -10.792  14.199  67.041  1.00  0.00    -0.295 C  
BRANCH  19  20
HETATM   20  N   UNL     1     -11.480  14.716  65.846  1.00  0.00    -0.346 NA 
HETATM   21  O   UNL     1     -11.838  12.555  63.878  1.00  0.00    -0.382 OA 
HETATM   22  C   UNL     1     -10.681  14.585  64.605  1.00  0.00    -0.310 C  
HETATM   23  C   UNL     1     -12.774  14.029  65.615  1.00  0.00    -0.481 C  
HETATM   24  C   UNL     1     -12.642  12.597  65.064  1.00  0.00    -0.430 C  
HETATM   25  C   UNL     1     -10.550  13.137  64.110  1.00  0.00    -0.361 C  
ENDBRANCH  19  20
ENDBRANCH  18  19
ENDBRANCH  17  18
ENDBRANCH  16  17
ENDBRANCH   4  16
BRANCH   9  26
HETATM   26  N   UNL     1      -9.457   5.485  67.118  1.00  0.00    -0.118 N  
HETATM   27  O   UNL     1      -7.651   4.047  67.001  1.00  0.00    -0.082 OA 
HETATM   28  H   UNL     1     -10.448   5.479  66.873  1.00  0.00     0.000 HD 
HETATM   29  C   UNL     1      -8.735   4.428  66.570  1.00  0.00    -0.112 C  
BRANCH  29  30
HETATM   30  C   UNL     1      -9.364   3.661  65.466  1.00  0.00    -0.160 A  
HETATM   31  N   UNL     1      -9.694   1.692  64.111  1.00  0.00    -0.133 NA 
HETATM   32  C   UNL     1      -9.072   2.364  65.105  1.00  0.00    -0.126 A  
HETATM   33  C   UNL     1     -10.632   2.373  63.430  1.00  0.00    -0.200 A  
HETATM   34  N   UNL     1     -11.018   3.615  63.706  1.00  0.00    -0.289 NA 
HETATM   35  N   UNL     1     -11.284   1.700  62.413  1.00  0.00    -0.176 NA 
HETATM   36  H1  UNL     1     -11.996   2.217  61.896  1.00  0.00     0.000 HD 
HETATM   37  C   UNL     1     -10.369   4.238  64.715  1.00  0.00    -0.143 A  
HETATM   38  H2  UNL     1     -11.689   0.839  62.781  1.00  0.00     0.000 HD 
ENDBRANCH  29  30
ENDBRANCH   9  26
ENDBRANCH   2   3
TORSDOF 8
ENDMDL
MODEL      114
REMARK 921   NORMALIZED FREE ENERGY PREDICTED BY IDOCK:   -4.18 KCAL/MOL
REMARK 922        TOTAL FREE ENERGY PREDICTED BY IDOCK:   -7.33 KCAL/MOL
REMARK 923 INTER-LIGAND FREE ENERGY PREDICTED BY IDOCK:   -6.69 KCAL/MOL
REMARK 924 INTRA-LIGAND FREE ENERGY PREDICTED BY IDOCK:   -0.64 KCAL/MOL
REMARK 927      BINDING AFFINITY PREDICTED BY RF-SCORE:    0.00 PKD
ROOT
HETATM    1  C   UNL     1     -10.543  10.099  66.232  1.00  0.00    -0.051 C  
HETATM    2  O   UNL     1     -10.590  10.071  67.655  1.00  0.00    -0.232 OA 
ENDROOT
BRANCH   2   3
HETATM    3  C   UNL     1      -9.372   9.970  68.293  1.00  0.00    -0.132 A  
HETATM    4  C   UNL     1      -8.958   8.649  68.627  1.00  0.00    -0.142 A  
HETATM    5  C   UNL     1      -7.721   8.433  69.256  1.00  0.00    -0.098 A  
HETATM    6  C   UNL     1      -5.729  13.634  70.731  1.00  0.00    -0.197 C  
HETATM    7  N   UNL     1      -6.655  13.030  68.769  1.00  0.00    -0.090 NA 
HETATM    8  C   UNL     1      -6.923   9.507  69.629  1.00  0.00    -0.066 A  
HETATM    9  C   UNL     1      -7.908  13.324  68.274  1.00  0.00    -0.143 A  
HETATM   10  C   UNL     1      -7.349  10.784  69.300  1.00  0.00    -0.129 A  
HETATM   11  C   UNL     1      -5.619  13.925  69.238  1.00  0.00    -0.083 C  
HETATM   12  C   UNL     1      -8.534  11.066  68.594  1.00  0.00    -0.157 A  
HETATM   13  N   UNL     1      -8.849  12.418  68.222  1.00  0.00    -0.188 NA 
HETATM   14  C   UNL     1      -6.586  11.966  69.653  1.00  0.00    -0.062 A  
HETATM   15  N   UNL     1      -5.976  12.154  70.802  1.00  0.00    -0.296 NA 
BRANCH   4  16
HETATM   16  O   UNL     1      -9.798   7.603  68.292  1.00  0.00    -0.157 OA 
BRANCH  16  17
HETATM   17  C   UNL     1     -10.572   7.070  69.380  1.00  0.00    -0.230 C  
BRANCH  17  18
HETATM   18  C   UNL     1      -9.886   5.825  69.939  1.00  0.00    -0.234 C  
BRANCH  18  19
HETATM   19  C   UNL     1      -9.449   4.845  68.837  1.00  0.00    -0.143 C  
BRANCH  19  20
HETATM   20  N   UNL     1      -9.571   3.424  69.205  1.00  0.00    -0.138 NA 
HETATM   21  O   UNL     1      -7.040   2.022  68.654  1.00  0.00    -0.042 OA 
HETATM   22  C   UNL     1      -9.366   2.502  68.063  1.00  0.00    -0.202 C  
HETATM   23  C   UNL     1      -8.602   3.043  70.262  1.00  0.00    -0.060 C  
HETATM   24  C   UNL     1      -7.148   2.914  69.771  1.00  0.00    -0.040 C  
HETATM   25  C   UNL     1      -7.907   2.429  67.588  1.00  0.00    -0.060 C  
ENDBRANCH  19  20
ENDBRANCH  18  19
ENDBRANCH  17  18
ENDBRANCH  16  17
ENDBRANCH   4  16
BRANCH   9  26
HETATM   26  N   UNL     1      -8.369  14.576  67.905  1.00  0.00    -0.149 N  
HETATM   27  O   UNL     1      -9.575  14.313  65.950  1.00  0.00    -0.274 OA 
HETATM   28  H   UNL     1      -8.221  15.296  68.613  1.00  0.00     0.000 HD 
HETATM   29  C   UNL     1      -8.997  15.040  66.752  1.00  0.00    -0.265 C  
BRANCH  29  30
HETATM   30  C   UNL     1      -9.052  16.508  66.539  1.00  0.00    -0.307 A  
HETATM   31  N   UNL     1      -8.069  18.685  66.198  1.00  0.00    -0.438 NA 
HETATM   32  C   UNL     1      -7.973  17.356  66.425  1.00  0.00    -0.290 A  
HETATM   33  C   UNL     1      -9.314  19.184  66.114  1.00  0.00    -0.239 A  
HETATM   34  N   UNL     1     -10.428  18.460  66.177  1.00  0.00    -0.428 NA 
HETATM   35  N   UNL     1      -9.433  20.541  65.875  1.00  0.00    -0.601 NA 
HETATM   36  H1  UNL     1     -10.378  20.920  65.811  1.00  0.00     0.000 HD 
HETATM   37  C   UNL     1     -10.274  17.136  66.398  1.00  0.00    -0.328 A  
HETATM   38  H2  UNL     1      -8.911  20.785  65.033  1.00  0.00     0.000 HD 
ENDBRANCH  29  30
ENDBRANCH   9  26
ENDBRANCH   2   3
TORSDOF 8
ENDMDL
MODEL      115
REMARK 921   NORMALIZED FREE ENERGY PREDICTED BY IDOCK:   -4.12 KCAL/MOL
REMARK 922        TOTAL FREE ENERGY PREDICTED BY IDOCK:   -7.25 KCAL/MOL
REMARK 923 INTER-LIGAND FREE ENERGY PREDICTED BY IDOCK:   -6.41 KCAL/MOL
REMARK 924 INTRA-LIGAND FREE ENERGY PREDICTED BY IDOCK:   -0.84 KCAL/MOL
REMARK 927      BINDING AFFINITY PREDICTED BY RF-SCORE:    0.00 PKD
ROOT
HETATM    1  C   UNL     1      -9.228   8.985  66.208  1.00  0.00    -0.206 C  
HETATM    2  O   UNL     1     -10.054   7.830  66.091  1.00  0.00    -0.015 OA 
ENDROOT
BRANCH   2   3
HETATM    3  C   UNL     1     -10.300   7.149  67.263  1.00  0.00    -0.272 A  
HETATM    4  C   UNL     1     -10.161   5.733  67.195  1.00  0.00    -0.181 A  
HETATM    5  C   UNL     1     -10.365   4.946  68.340  1.00  0.00    -0.033 A  
HETATM    6  C   UNL     1     -12.553   8.461  72.346  1.00  0.00    -0.316 C  
HETATM    7  N   UNL     1     -10.816   8.867  70.971  1.00  0.00    -0.240 NA 
HETATM    8  C   UNL     1     -10.778   5.529  69.531  1.00  0.00    -0.332 A  
HETATM    9  C   UNL     1     -10.762   9.684  69.862  1.00  0.00    -0.252 A  
HETATM   10  C   UNL     1     -10.914   6.907  69.573  1.00  0.00    -0.289 A  
HETATM   11  C   UNL     1     -11.211   9.185  72.327  1.00  0.00     0.053 C  
HETATM   12  C   UNL     1     -10.642   7.762  68.488  1.00  0.00    -0.114 A  
HETATM   13  N   UNL     1     -10.727   9.188  68.652  1.00  0.00    -0.165 NA 
HETATM   14  C   UNL     1     -11.345   7.604  70.770  1.00  0.00    -0.281 A  
HETATM   15  N   UNL     1     -12.302   7.197  71.574  1.00  0.00    -0.350 NA 
BRANCH   4  16
HETATM   16  O   UNL     1      -9.801   5.175  65.982  1.00  0.00    -0.166 OA 
BRANCH  16  17
HETATM   17  C   UNL     1      -8.742   4.206  66.047  1.00  0.00    -0.115 C  
BRANCH  17  18
HETATM   18  C   UNL     1      -7.453   4.812  65.494  1.00  0.00    -0.081 C  
BRANCH  18  19
HETATM   19  C   UNL     1      -7.715   5.843  64.382  1.00  0.00    -0.099 C  
BRANCH  19  20
HETATM   20  N   UNL     1      -6.516   6.231  63.620  1.00  0.00    -0.029 NA 
HETATM   21  O   UNL     1      -6.044   9.126  63.893  1.00  0.00    -0.081 OA 
HETATM   22  C   UNL     1      -6.794   7.220  62.552  1.00  0.00    -0.068 C  
HETATM   23  C   UNL     1      -5.468   6.808  64.497  1.00  0.00    -0.027 C  
HETATM   24  C   UNL     1      -5.766   8.238  64.984  1.00  0.00    -0.044 C  
HETATM   25  C   UNL     1      -7.117   8.625  63.086  1.00  0.00    -0.090 C  
ENDBRANCH  19  20
ENDBRANCH  18  19
ENDBRANCH  17  18
ENDBRANCH  16  17
ENDBRANCH   4  16
BRANCH   9  26
HETATM   26  N   UNL     1     -10.863  11.065  69.855  1.00  0.00    -0.463 N  
HETATM   27  O   UNL     1     -13.073  11.591  70.286  1.00  0.00     0.154 OA 
HETATM   28  H   UNL     1      -9.964  11.544  69.816  1.00  0.00     0.000 HD 
HETATM   29  C   UNL     1     -11.959  11.923  69.892  1.00  0.00    -0.325 C  
BRANCH  29  30
HETATM   30  C   UNL     1     -11.735  13.344  69.526  1.00  0.00    -0.385 A  
HETATM   31  N   UNL     1     -11.580  15.181  67.969  1.00  0.00    -0.341 NA 
HETATM   32  C   UNL     1     -11.757  13.871  68.254  1.00  0.00    -0.361 A  
HETATM   33  C   UNL     1     -11.340  15.988  69.016  1.00  0.00    -0.363 A  
HETATM   34  N   UNL     1     -11.326  15.600  70.287  1.00  0.00    -0.311 NA 
HETATM   35  N   UNL     1     -11.163  17.333  68.744  1.00  0.00    -0.131 NA 
HETATM   36  H1  UNL     1     -10.980  17.947  69.539  1.00  0.00     0.000 HD 
HETATM   37  C   UNL     1     -11.515  14.281  70.516  1.00  0.00    -0.093 A  
HETATM   38  H2  UNL     1     -11.966  17.683  68.222  1.00  0.00     0.000 HD 
ENDBRANCH  29  30
ENDBRANCH   9  26
ENDBRANCH   2   3
TORSDOF 8
ENDMDL
MODEL      116
REMARK 921   NORMALIZED FREE ENERGY PREDICTED BY IDOCK:   -4.11 KCAL/MOL
REMARK 922        TOTAL FREE ENERGY PREDICTED BY IDOCK:   -7.23 KCAL/MOL
REMARK 923 INTER-LIGAND FREE ENERGY PREDICTED BY IDOCK:   -7.53 KCAL/MOL
REMARK 924 INTRA-LIGAND FREE ENERGY PREDICTED BY IDOCK:    0.30 KCAL/MOL
REMARK 927      BINDING AFFINITY PREDICTED BY RF-SCORE:    0.00 PKD
ROOT
HETATM    1  C   UNL     1      -8.631  10.465  66.754  1.00  0.00    -0.124 C  
HETATM    2  O   UNL     1      -9.672   9.530  66.488  1.00  0.00    -0.189 OA 
ENDROOT
BRANCH   2   3
HETATM    3  C   UNL     1      -9.797   8.499  67.394  1.00  0.00    -0.187 A  
HETATM    4  C   UNL     1      -9.123   7.292  67.051  1.00  0.00    -0.135 A  
HETATM    5  C   UNL     1      -9.165   6.187  67.917  1.00  0.00    -0.115 A  
HETATM    6  C   UNL     1     -13.041   7.471  71.982  1.00  0.00    -0.161 C  
HETATM    7  N   UNL     1     -11.421   8.806  71.167  1.00  0.00    -0.273 NA 
HETATM    8  C   UNL     1      -9.925   6.232  69.079  1.00  0.00    -0.175 A  
HETATM    9  C   UNL     1     -11.532   9.877  70.306  1.00  0.00    -0.281 A  
HETATM   10  C   UNL     1     -10.578   7.414  69.389  1.00  0.00    -0.231 A  
HETATM   11  C   UNL     1     -12.085   8.571  72.431  1.00  0.00    -0.367 C  
HETATM   12  C   UNL     1     -10.507   8.585  68.611  1.00  0.00    -0.169 A  
HETATM   13  N   UNL     1     -11.149   9.791  69.059  1.00  0.00    -0.158 NA 
HETATM   14  C   UNL     1     -11.398   7.553  70.577  1.00  0.00    -0.260 A  
HETATM   15  N   UNL     1     -12.228   6.640  71.031  1.00  0.00    -0.344 NA 
BRANCH   4  16
HETATM   16  O   UNL     1      -8.419   7.258  65.862  1.00  0.00    -0.134 OA 
BRANCH  16  17
HETATM   17  C   UNL     1      -7.186   6.520  65.903  1.00  0.00    -0.074 C  
BRANCH  17  18
HETATM   18  C   UNL     1      -6.377   6.935  67.131  1.00  0.00    -0.044 C  
BRANCH  18  19
HETATM   19  C   UNL     1      -6.056   8.440  67.146  1.00  0.00    -0.055 C  
BRANCH  19  20
HETATM   20  N   UNL     1      -5.340   8.896  68.349  1.00  0.00    -0.037 NA 
HETATM   21  O   UNL     1      -7.045   8.549  70.726  1.00  0.00    -0.046 OA 
HETATM   22  C   UNL     1      -6.021  10.010  69.050  1.00  0.00    -0.037 C  
HETATM   23  C   UNL     1      -5.158   7.799  69.331  1.00  0.00    -0.015 C  
HETATM   24  C   UNL     1      -6.438   7.414  70.095  1.00  0.00    -0.035 C  
HETATM   25  C   UNL     1      -7.309   9.585  69.771  1.00  0.00    -0.092 C  
ENDBRANCH  19  20
ENDBRANCH  18  19
ENDBRANCH  17  18
ENDBRANCH  16  17
ENDBRANCH   4  16
BRANCH   9  26
HETATM   26  N   UNL     1     -12.148  11.087  70.579  1.00  0.00    -0.348 N  
HETATM   27  O   UNL     1     -11.269  12.647  69.117  1.00  0.00    -0.259 OA 
HETATM   28  H   UNL     1     -12.930  11.014  71.229  1.00  0.00     0.000 HD 
HETATM   29  C   UNL     1     -11.903  12.383  70.134  1.00  0.00    -0.262 C  
BRANCH  29  30
HETATM   30  C   UNL     1     -12.530  13.500  70.884  1.00  0.00    -0.448 A  
HETATM   31  N   UNL     1     -13.268  15.782  71.154  1.00  0.00    -0.526 NA 
HETATM   32  C   UNL     1     -12.659  14.802  70.450  1.00  0.00    -0.346 A  
HETATM   33  C   UNL     1     -13.740  15.438  72.364  1.00  0.00    -0.542 A  
HETATM   34  N   UNL     1     -13.701  14.210  72.873  1.00  0.00    -0.633 NA 
HETATM   35  N   UNL     1     -14.373  16.426  73.097  1.00  0.00    -0.042 NA 
HETATM   36  H1  UNL     1     -14.731  16.165  74.016  1.00  0.00     0.000 HD 
HETATM   37  C   UNL     1     -13.087  13.267  72.125  1.00  0.00    -0.385 A  
HETATM   38  H2  UNL     1     -15.126  16.832  72.540  1.00  0.00     0.000 HD 
ENDBRANCH  29  30
ENDBRANCH   9  26
ENDBRANCH   2   3
TORSDOF 8
ENDMDL
MODEL      117
REMARK 921   NORMALIZED FREE ENERGY PREDICTED BY IDOCK:   -4.11 KCAL/MOL
REMARK 922        TOTAL FREE ENERGY PREDICTED BY IDOCK:   -7.23 KCAL/MOL
REMARK 923 INTER-LIGAND FREE ENERGY PREDICTED BY IDOCK:   -7.34 KCAL/MOL
REMARK 924 INTRA-LIGAND FREE ENERGY PREDICTED BY IDOCK:    0.11 KCAL/MOL
REMARK 927      BINDING AFFINITY PREDICTED BY RF-SCORE:    0.00 PKD
ROOT
HETATM    1  C   UNL     1     -11.002   9.684  68.543  1.00  0.00    -0.108 C  
HETATM    2  O   UNL     1     -10.378   8.418  68.732  1.00  0.00    -0.208 OA 
ENDROOT
BRANCH   2   3
HETATM    3  C   UNL     1      -9.798   7.862  67.611  1.00  0.00    -0.165 A  
HETATM    4  C   UNL     1      -9.807   6.440  67.553  1.00  0.00    -0.123 A  
HETATM    5  C   UNL     1      -9.265   5.773  66.442  1.00  0.00    -0.160 A  
HETATM    6  C   UNL     1      -6.567   9.788  63.312  1.00  0.00    -0.118 C  
HETATM    7  N   UNL     1      -8.607   9.931  64.254  1.00  0.00    -0.172 NA 
HETATM    8  C   UNL     1      -8.646   6.489  65.425  1.00  0.00    -0.076 A  
HETATM    9  C   UNL     1      -9.000  10.642  65.368  1.00  0.00    -0.189 A  
HETATM   10  C   UNL     1      -8.643   7.873  65.506  1.00  0.00    -0.139 A  
HETATM   11  C   UNL     1      -7.942  10.396  63.056  1.00  0.00    -0.138 C  
HETATM   12  C   UNL     1      -9.244   8.606  66.546  1.00  0.00    -0.187 A  
HETATM   13  N   UNL     1      -9.265  10.042  66.500  1.00  0.00    -0.148 NA 
HETATM   14  C   UNL     1      -8.016   8.702  64.495  1.00  0.00    -0.144 A  
HETATM   15  N   UNL     1      -6.863   8.447  63.919  1.00  0.00    -0.075 NA 
BRANCH   4  16
HETATM   16  O   UNL     1     -10.382   5.752  68.605  1.00  0.00    -0.182 OA 
BRANCH  16  17
HETATM   17  C   UNL     1      -9.727   4.522  68.960  1.00  0.00    -0.165 C  
BRANCH  17  18
HETATM   18  C   UNL     1      -9.553   4.450  70.476  1.00  0.00    -0.269 C  
BRANCH  18  19
HETATM   19  C   UNL     1     -10.419   5.481  71.221  1.00  0.00    -0.239 C  
BRANCH  19  20
HETATM   20  N   UNL     1      -9.746   6.766  71.479  1.00  0.00    -0.164 NA 
HETATM   21  O   UNL     1      -9.197   7.052  74.359  1.00  0.00    -0.214 OA 
HETATM   22  C   UNL     1     -10.510   7.657  72.384  1.00  0.00    -0.248 C  
HETATM   23  C   UNL     1      -8.402   6.574  72.077  1.00  0.00    -0.107 C  
HETATM   24  C   UNL     1      -8.422   6.151  73.558  1.00  0.00    -0.118 C  
HETATM   25  C   UNL     1     -10.529   7.179  73.844  1.00  0.00    -0.246 C  
ENDBRANCH  19  20
ENDBRANCH  18  19
ENDBRANCH  17  18
ENDBRANCH  16  17
ENDBRANCH   4  16
BRANCH   9  26
HETATM   26  N   UNL     1      -9.041  12.021  65.488  1.00  0.00    -0.426 N  
HETATM   27  O   UNL     1      -9.076  12.511  67.748  1.00  0.00    -0.175 OA 
HETATM   28  H   UNL     1      -8.901  12.516  64.608  1.00  0.00     0.000 HD 
HETATM   29  C   UNL     1      -9.238  12.860  66.582  1.00  0.00    -0.221 C  
BRANCH  29  30
HETATM   30  C   UNL     1      -9.565  14.282  66.311  1.00  0.00    -0.310 A  
HETATM   31  N   UNL     1     -10.906  16.055  65.373  1.00  0.00    -0.353 NA 
HETATM   32  C   UNL     1     -10.627  14.746  65.567  1.00  0.00    -0.359 A  
HETATM   33  C   UNL     1     -10.055  16.932  65.930  1.00  0.00    -0.283 A  
HETATM   34  N   UNL     1      -9.017  16.603  66.692  1.00  0.00    -0.236 NA 
HETATM   35  N   UNL     1     -10.328  18.276  65.748  1.00  0.00    -0.618 NA 
HETATM   36  H1  UNL     1      -9.682  18.943  66.171  1.00  0.00     0.000 HD 
HETATM   37  C   UNL     1      -8.787  15.282  66.860  1.00  0.00    -0.254 A  
HETATM   38  H2  UNL     1     -11.278  18.476  66.064  1.00  0.00     0.000 HD 
ENDBRANCH  29  30
ENDBRANCH   9  26
ENDBRANCH   2   3
TORSDOF 8
ENDMDL
MODEL      118
REMARK 921   NORMALIZED FREE ENERGY PREDICTED BY IDOCK:   -4.07 KCAL/MOL
REMARK 922        TOTAL FREE ENERGY PREDICTED BY IDOCK:   -7.17 KCAL/MOL
REMARK 923 INTER-LIGAND FREE ENERGY PREDICTED BY IDOCK:   -6.11 KCAL/MOL
REMARK 924 INTRA-LIGAND FREE ENERGY PREDICTED BY IDOCK:   -1.06 KCAL/MOL
REMARK 927      BINDING AFFINITY PREDICTED BY RF-SCORE:    0.00 PKD
ROOT
HETATM    1  C   UNL     1     -10.674   6.730  66.810  1.00  0.00    -0.242 C  
HETATM    2  O   UNL     1     -10.654   6.506  68.217  1.00  0.00    -0.198 OA 
ENDROOT
BRANCH   2   3
HETATM    3  C   UNL     1      -9.439   6.702  68.838  1.00  0.00    -0.130 A  
HETATM    4  C   UNL     1      -8.929   5.587  69.562  1.00  0.00    -0.113 A  
HETATM    5  C   UNL     1      -7.687   5.673  70.211  1.00  0.00    -0.090 A  
HETATM    6  C   UNL     1      -6.113  11.210  69.959  1.00  0.00    -0.134 C  
HETATM    7  N   UNL     1      -6.968   9.954  68.297  1.00  0.00    -0.071 NA 
HETATM    8  C   UNL     1      -6.977   6.867  70.219  1.00  0.00    -0.066 A  
HETATM    9  C   UNL     1      -8.235   9.983  67.751  1.00  0.00    -0.113 A  
HETATM   10  C   UNL     1      -7.495   7.941  69.512  1.00  0.00    -0.093 A  
HETATM   11  C   UNL     1      -6.010  11.027  68.448  1.00  0.00    -0.042 C  
HETATM   12  C   UNL     1      -8.690   7.897  68.769  1.00  0.00    -0.128 A  
HETATM   13  N   UNL     1      -9.103   9.037  67.997  1.00  0.00    -0.136 NA 
HETATM   14  C   UNL     1      -6.828   9.228  69.468  1.00  0.00    -0.048 A  
HETATM   15  N   UNL     1      -6.248   9.812  70.492  1.00  0.00    -0.075 NA 
BRANCH   4  16
HETATM   16  O   UNL     1      -9.683   4.428  69.583  1.00  0.00    -0.194 OA 
BRANCH  16  17
HETATM   17  C   UNL     1      -9.193   3.367  68.746  1.00  0.00    -0.166 C  
BRANCH  17  18
HETATM   18  C   UNL     1      -9.095   2.076  69.556  1.00  0.00    -0.168 C  
BRANCH  18  19
HETATM   19  C   UNL     1      -7.914   2.085  70.543  1.00  0.00    -0.041 C  
BRANCH  19  20
HETATM   20  N   UNL     1      -8.240   1.572  71.884  1.00  0.00    -0.044 NA 
HETATM   21  O   UNL     1      -8.069   3.749  73.861  1.00  0.00    -0.084 OA 
HETATM   22  C   UNL     1      -7.131   1.724  72.856  1.00  0.00    -0.023 C  
HETATM   23  C   UNL     1      -9.429   2.248  72.459  1.00  0.00    -0.088 C  
HETATM   24  C   UNL     1      -9.168   3.686  72.943  1.00  0.00    -0.099 C  
HETATM   25  C   UNL     1      -6.887   3.179  73.285  1.00  0.00    -0.038 C  
ENDBRANCH  19  20
ENDBRANCH  18  19
ENDBRANCH  17  18
ENDBRANCH  16  17
ENDBRANCH   4  16
BRANCH   9  26
HETATM   26  N   UNL     1      -8.786  11.018  67.015  1.00  0.00    -0.141 N  
HETATM   27  O   UNL     1      -9.225  12.746  68.487  1.00  0.00    -0.164 OA 
HETATM   28  H   UNL     1      -8.748  10.873  66.006  1.00  0.00     0.000 HD 
HETATM   29  C   UNL     1      -9.384  12.218  67.390  1.00  0.00    -0.183 C  
BRANCH  29  30
HETATM   30  C   UNL     1     -10.176  12.944  66.367  1.00  0.00    -0.273 A  
HETATM   31  N   UNL     1     -10.953  13.355  64.120  1.00  0.00    -0.358 NA 
HETATM   32  C   UNL     1     -10.189  12.688  65.014  1.00  0.00    -0.273 A  
HETATM   33  C   UNL     1     -11.715  14.346  64.613  1.00  0.00    -0.430 A  
HETATM   34  N   UNL     1     -11.808  14.663  65.901  1.00  0.00    -0.317 NA 
HETATM   35  N   UNL     1     -12.509  15.036  63.714  1.00  0.00    -1.049 NA 
HETATM   36  H1  UNL     1     -13.087  15.788  64.088  1.00  0.00     0.000 HD 
HETATM   37  C   UNL     1     -11.028  13.960  66.752  1.00  0.00    -0.299 A  
HETATM   38  H2  UNL     1     -13.097  14.376  63.204  1.00  0.00     0.000 HD 
ENDBRANCH  29  30
ENDBRANCH   9  26
ENDBRANCH   2   3
TORSDOF 8
ENDMDL
MODEL      119
REMARK 921   NORMALIZED FREE ENERGY PREDICTED BY IDOCK:   -4.06 KCAL/MOL
REMARK 922        TOTAL FREE ENERGY PREDICTED BY IDOCK:   -7.16 KCAL/MOL
REMARK 923 INTER-LIGAND FREE ENERGY PREDICTED BY IDOCK:   -6.44 KCAL/MOL
REMARK 924 INTRA-LIGAND FREE ENERGY PREDICTED BY IDOCK:   -0.72 KCAL/MOL
REMARK 927      BINDING AFFINITY PREDICTED BY RF-SCORE:    0.00 PKD
ROOT
HETATM    1  C   UNL     1     -10.003   9.594  65.939  1.00  0.00    -0.281 C  
HETATM    2  O   UNL     1     -10.017   9.238  67.319  1.00  0.00    -0.179 OA 
ENDROOT
BRANCH   2   3
HETATM    3  C   UNL     1      -8.824   9.397  67.991  1.00  0.00    -0.124 A  
HETATM    4  C   UNL     1      -8.141   8.194  68.329  1.00  0.00    -0.128 A  
HETATM    5  C   UNL     1      -6.904   8.245  68.993  1.00  0.00    -0.056 A  
HETATM    6  C   UNL     1      -6.135  13.738  70.551  1.00  0.00    -0.122 C  
HETATM    7  N   UNL     1      -6.853  12.969  68.560  1.00  0.00    -0.088 NA 
HETATM    8  C   UNL     1      -6.370   9.463  69.394  1.00  0.00    -0.044 A  
HETATM    9  C   UNL     1      -8.126  12.990  68.031  1.00  0.00    -0.157 A  
HETATM   10  C   UNL     1      -7.055  10.621  69.060  1.00  0.00    -0.086 A  
HETATM   11  C   UNL     1      -6.051  14.063  69.064  1.00  0.00    -0.088 C  
HETATM   12  C   UNL     1      -8.253  10.646  68.321  1.00  0.00    -0.120 A  
HETATM   13  N   UNL     1      -8.845  11.901  67.947  1.00  0.00    -0.164 NA 
HETATM   14  C   UNL     1      -6.577  11.936  69.440  1.00  0.00    -0.108 A  
HETATM   15  N   UNL     1      -6.055  12.240  70.608  1.00  0.00    -0.223 NA 
BRANCH   4  16
HETATM   16  O   UNL     1      -8.723   6.994  67.965  1.00  0.00    -0.126 OA 
BRANCH  16  17
HETATM   17  C   UNL     1      -7.907   6.145  67.141  1.00  0.00    -0.102 C  
BRANCH  17  18
HETATM   18  C   UNL     1      -7.192   6.986  66.085  1.00  0.00    -0.074 C  
BRANCH  18  19
HETATM   19  C   UNL     1      -7.954   7.029  64.749  1.00  0.00    -0.122 C  
BRANCH  19  20
HETATM   20  N   UNL     1      -7.111   7.325  63.578  1.00  0.00    -0.062 NA 
HETATM   21  O   UNL     1      -7.503  10.120  62.738  1.00  0.00    -0.131 OA 
HETATM   22  C   UNL     1      -7.888   7.730  62.383  1.00  0.00    -0.132 C  
HETATM   23  C   UNL     1      -6.136   8.406  63.860  1.00  0.00    -0.071 C  
HETATM   24  C   UNL     1      -6.753   9.816  63.921  1.00  0.00    -0.120 C  
HETATM   25  C   UNL     1      -8.511   9.129  62.501  1.00  0.00    -0.209 C  
ENDBRANCH  19  20
ENDBRANCH  18  19
ENDBRANCH  17  18
ENDBRANCH  16  17
ENDBRANCH   4  16
BRANCH   9  26
HETATM   26  N   UNL     1      -8.839  14.115  67.656  1.00  0.00    -0.184 N  
HETATM   27  O   UNL     1     -10.063  13.554  65.776  1.00  0.00    -0.288 OA 
HETATM   28  H   UNL     1      -8.800  14.874  68.335  1.00  0.00     0.000 HD 
HETATM   29  C   UNL     1      -9.600  14.408  66.527  1.00  0.00    -0.293 C  
BRANCH  29  30
HETATM   30  C   UNL     1      -9.949  15.829  66.279  1.00  0.00    -0.315 A  
HETATM   31  N   UNL     1      -9.912  18.188  66.786  1.00  0.00    -0.332 NA 
HETATM   32  C   UNL     1      -9.600  16.903  67.067  1.00  0.00    -0.248 A  
HETATM   33  C   UNL     1     -10.638  18.391  65.673  1.00  0.00    -0.103 A  
HETATM   34  N   UNL     1     -11.006  17.439  64.822  1.00  0.00    -0.851 NA 
HETATM   35  N   UNL     1     -10.963  19.701  65.365  1.00  0.00    -0.339 NA 
HETATM   36  H1  UNL     1     -11.514  19.855  64.520  1.00  0.00     0.000 HD 
HETATM   37  C   UNL     1     -10.661  16.173  65.148  1.00  0.00    -0.371 A  
HETATM   38  H2  UNL     1     -10.111  20.261  65.322  1.00  0.00     0.000 HD 
ENDBRANCH  29  30
ENDBRANCH   9  26
ENDBRANCH   2   3
TORSDOF 8
ENDMDL
MODEL      120
REMARK 921   NORMALIZED FREE ENERGY PREDICTED BY IDOCK:   -3.88 KCAL/MOL
REMARK 922        TOTAL FREE ENERGY PREDICTED BY IDOCK:   -6.90 KCAL/MOL
REMARK 923 INTER-LIGAND FREE ENERGY PREDICTED BY IDOCK:   -6.19 KCAL/MOL
REMARK 924 INTRA-LIGAND FREE ENERGY PREDICTED BY IDOCK:   -0.71 KCAL/MOL
REMARK 927      BINDING AFFINITY PREDICTED BY RF-SCORE:    0.00 PKD
ROOT
HETATM    1  C   UNL     1      -6.269   9.047  68.820  1.00  0.00    -0.045 C  
HETATM    2  O   UNL     1      -6.756   7.708  68.801  1.00  0.00    -0.051 OA 
ENDROOT
BRANCH   2   3
HETATM    3  C   UNL     1      -7.119   7.220  67.564  1.00  0.00    -0.085 A  
HETATM    4  C   UNL     1      -6.979   5.814  67.390  1.00  0.00    -0.065 A  
HETATM    5  C   UNL     1      -7.344   5.211  66.175  1.00  0.00    -0.081 A  
HETATM    6  C   UNL     1      -8.375   9.513  62.484  1.00  0.00    -0.163 C  
HETATM    7  N   UNL     1      -9.063   9.351  64.623  1.00  0.00    -0.209 NA 
HETATM    8  C   UNL     1      -7.773   5.986  65.105  1.00  0.00    -0.095 A  
HETATM    9  C   UNL     1      -8.601  10.023  65.735  1.00  0.00    -0.145 A  
HETATM   10  C   UNL     1      -7.895   7.354  65.295  1.00  0.00    -0.121 A  
HETATM   11  C   UNL     1      -9.560   9.882  63.371  1.00  0.00     0.088 C  
HETATM   12  C   UNL     1      -7.629   8.011  66.511  1.00  0.00    -0.092 A  
HETATM   13  N   UNL     1      -7.868   9.423  66.637  1.00  0.00    -0.104 NA 
HETATM   14  C   UNL     1      -8.329   8.243  64.234  1.00  0.00    -0.060 A  
HETATM   15  N   UNL     1      -7.949   8.160  62.979  1.00  0.00    -0.155 NA 
BRANCH   4  16
HETATM   16  O   UNL     1      -6.498   5.074  68.454  1.00  0.00    -0.035 OA 
BRANCH  16  17
HETATM   17  C   UNL     1      -7.471   4.239  69.105  1.00  0.00    -0.055 C  
BRANCH  17  18
HETATM   18  C   UNL     1      -7.781   4.794  70.493  1.00  0.00    -0.058 C  
BRANCH  18  19
HETATM   19  C   UNL     1      -9.272   5.128  70.677  1.00  0.00    -0.147 C  
BRANCH  19  20
HETATM   20  N   UNL     1      -9.656   6.471  70.211  1.00  0.00    -0.161 NA 
HETATM   21  O   UNL     1     -11.462   7.736  72.164  1.00  0.00    -0.275 OA 
HETATM   22  C   UNL     1     -11.115   6.628  70.009  1.00  0.00    -0.339 C  
HETATM   23  C   UNL     1      -9.223   7.528  71.157  1.00  0.00    -0.147 C  
HETATM   24  C   UNL     1     -10.062   7.606  72.446  1.00  0.00    -0.211 C  
HETATM   25  C   UNL     1     -11.915   6.669  71.321  1.00  0.00    -0.355 C  
ENDBRANCH  19  20
ENDBRANCH  18  19
ENDBRANCH  17  18
ENDBRANCH  16  17
ENDBRANCH   4  16
BRANCH   9  26
HETATM   26  N   UNL     1      -8.723  11.379  65.983  1.00  0.00    -0.291 N  
HETATM   27  O   UNL     1     -10.562  11.661  67.356  1.00  0.00    -0.206 OA 
HETATM   28  H   UNL     1      -7.932  11.932  65.653  1.00  0.00     0.000 HD 
HETATM   29  C   UNL     1      -9.721  12.133  66.596  1.00  0.00    -0.219 C  
BRANCH  29  30
HETATM   30  C   UNL     1      -9.699  13.603  66.394  1.00  0.00    -0.300 A  
HETATM   31  N   UNL     1     -10.587  15.688  65.567  1.00  0.00    -0.379 NA 
HETATM   32  C   UNL     1     -10.629  14.344  65.699  1.00  0.00    -0.329 A  
HETATM   33  C   UNL     1      -9.540  16.308  66.139  1.00  0.00    -0.331 A  
HETATM   34  N   UNL     1      -8.600  15.703  66.859  1.00  0.00    -0.225 NA 
HETATM   35  N   UNL     1      -9.483  17.685  66.021  1.00  0.00    -0.518 NA 
HETATM   36  H1  UNL     1      -8.688  18.156  66.455  1.00  0.00     0.000 HD 
HETATM   37  C   UNL     1      -8.694  14.359  66.964  1.00  0.00    -0.223 A  
HETATM   38  H2  UNL     1     -10.351  18.092  66.370  1.00  0.00     0.000 HD 
ENDBRANCH  29  30
ENDBRANCH   9  26
ENDBRANCH   2   3
TORSDOF 8
ENDMDL
MODEL      121
REMARK 921   NORMALIZED FREE ENERGY PREDICTED BY IDOCK:   -3.87 KCAL/MOL
REMARK 922        TOTAL FREE ENERGY PREDICTED BY IDOCK:   -6.87 KCAL/MOL
REMARK 923 INTER-LIGAND FREE ENERGY PREDICTED BY IDOCK:   -5.92 KCAL/MOL
REMARK 924 INTRA-LIGAND FREE ENERGY PREDICTED BY IDOCK:   -0.95 KCAL/MOL
REMARK 927      BINDING AFFINITY PREDICTED BY RF-SCORE:    0.00 PKD
ROOT
HETATM    1  C   UNL     1      -7.852  10.382  64.549  1.00  0.00    -0.066 C  
HETATM    2  O   UNL     1      -8.964  10.626  65.404  1.00  0.00    -0.177 OA 
ENDROOT
BRANCH   2   3
HETATM    3  C   UNL     1      -8.715  10.522  66.756  1.00  0.00    -0.132 A  
HETATM    4  C   UNL     1      -8.500  11.752  67.440  1.00  0.00    -0.158 A  
HETATM    5  C   UNL     1      -8.263  11.759  68.825  1.00  0.00    -0.027 A  
HETATM    6  C   UNL     1      -7.520   6.257  70.364  1.00  0.00    -0.091 C  
HETATM    7  N   UNL     1      -9.110   7.095  69.008  1.00  0.00    -0.133 NA 
HETATM    8  C   UNL     1      -8.159  10.566  69.528  1.00  0.00    -0.105 A  
HETATM    9  C   UNL     1      -9.215   7.005  67.636  1.00  0.00    -0.120 A  
HETATM   10  C   UNL     1      -8.365   9.380  68.840  1.00  0.00    -0.120 A  
HETATM   11  C   UNL     1      -8.982   6.040  69.989  1.00  0.00    -0.146 C  
HETATM   12  C   UNL     1      -8.692   9.306  67.473  1.00  0.00    -0.115 A  
HETATM   13  N   UNL     1      -8.973   8.033  66.866  1.00  0.00    -0.133 NA 
HETATM   14  C   UNL     1      -8.272   8.086  69.489  1.00  0.00    -0.122 A  
HETATM   15  N   UNL     1      -7.358   7.750  70.371  1.00  0.00    -0.068 NA 
BRANCH   4  16
HETATM   16  O   UNL     1      -8.556  12.921  66.705  1.00  0.00    -0.168 OA 
BRANCH  16  17
HETATM   17  C   UNL     1      -9.641  13.802  67.041  1.00  0.00    -0.251 C  
BRANCH  17  18
HETATM   18  C   UNL     1      -9.484  15.123  66.290  1.00  0.00    -0.341 C  
BRANCH  18  19
HETATM   19  C   UNL     1     -10.070  16.316  67.064  1.00  0.00    -0.270 C  
BRANCH  19  20
HETATM   20  N   UNL     1      -9.071  17.116  67.794  1.00  0.00    -0.231 NA 
HETATM   21  O   UNL     1      -9.313  19.954  67.046  1.00  0.00    -0.331 OA 
HETATM   22  C   UNL     1      -8.120  17.822  66.904  1.00  0.00    -0.228 C  
HETATM   23  C   UNL     1      -9.709  18.136  68.661  1.00  0.00    -0.357 C  
HETATM   24  C   UNL     1     -10.290  19.342  67.898  1.00  0.00    -0.417 C  
HETATM   25  C   UNL     1      -8.751  18.996  66.140  1.00  0.00    -0.187 C  
ENDBRANCH  19  20
ENDBRANCH  18  19
ENDBRANCH  17  18
ENDBRANCH  16  17
ENDBRANCH   4  16
BRANCH   9  26
HETATM   26  N   UNL     1      -9.448   5.851  66.906  1.00  0.00    -0.130 N  
HETATM   27  O   UNL     1      -7.395   4.865  66.511  1.00  0.00    -0.079 OA 
HETATM   28  H   UNL     1     -10.435   5.605  66.827  1.00  0.00     0.000 HD 
HETATM   29  C   UNL     1      -8.592   4.964  66.259  1.00  0.00    -0.115 C  
BRANCH  29  30
HETATM   30  C   UNL     1      -9.188   4.019  65.281  1.00  0.00    -0.151 A  
HETATM   31  N   UNL     1      -9.244   1.969  64.010  1.00  0.00    -0.109 NA 
HETATM   32  C   UNL     1      -8.651   2.815  64.881  1.00  0.00    -0.098 A  
HETATM   33  C   UNL     1     -10.419   2.373  63.498  1.00  0.00    -0.174 A  
HETATM   34  N   UNL     1     -11.047   3.496  63.832  1.00  0.00    -0.271 NA 
HETATM   35  N   UNL     1     -11.046   1.517  62.610  1.00  0.00    -0.170 NA 
HETATM   36  H1  UNL     1     -11.938   1.823  62.221  1.00  0.00     0.000 HD 
HETATM   37  C   UNL     1     -10.413   4.302  64.712  1.00  0.00    -0.134 A  
HETATM   38  H2  UNL     1     -11.161   0.601  63.045  1.00  0.00     0.000 HD 
ENDBRANCH  29  30
ENDBRANCH   9  26
ENDBRANCH   2   3
TORSDOF 8
ENDMDL
MODEL      122
REMARK 921   NORMALIZED FREE ENERGY PREDICTED BY IDOCK:   -3.84 KCAL/MOL
REMARK 922        TOTAL FREE ENERGY PREDICTED BY IDOCK:   -6.84 KCAL/MOL
REMARK 923 INTER-LIGAND FREE ENERGY PREDICTED BY IDOCK:   -6.36 KCAL/MOL
REMARK 924 INTRA-LIGAND FREE ENERGY PREDICTED BY IDOCK:   -0.48 KCAL/MOL
REMARK 927      BINDING AFFINITY PREDICTED BY RF-SCORE:    0.00 PKD
ROOT
HETATM    1  C   UNL     1      -9.723   7.652  66.383  1.00  0.00    -0.127 C  
HETATM    2  O   UNL     1      -9.050   8.356  67.423  1.00  0.00    -0.135 OA 
ENDROOT
BRANCH   2   3
HETATM    3  C   UNL     1      -9.714   8.422  68.629  1.00  0.00    -0.164 A  
HETATM    4  C   UNL     1      -9.590   7.276  69.465  1.00  0.00    -0.155 A  
HETATM    5  C   UNL     1     -10.207   7.249  70.727  1.00  0.00    -0.204 A  
HETATM    6  C   UNL     1     -13.606  11.895  70.958  1.00  0.00     1.069 C  
HETATM    7  N   UNL     1     -11.485  11.789  70.210  1.00  0.00    -0.117 NA 
HETATM    8  C   UNL     1     -11.006   8.307  71.142  1.00  0.00    -0.286 A  
HETATM    9  C   UNL     1     -11.020  11.829  68.913  1.00  0.00    -0.239 A  
HETATM   10  C   UNL     1     -11.118   9.409  70.310  1.00  0.00    -0.299 A  
HETATM   11  C   UNL     1     -12.330  12.730  70.912  1.00  0.00    -0.265 C  
HETATM   12  C   UNL     1     -10.458   9.537  69.073  1.00  0.00    -0.213 A  
HETATM   13  N   UNL     1     -10.566  10.756  68.319  1.00  0.00    -0.187 NA 
HETATM   14  C   UNL     1     -11.934  10.557  70.656  1.00  0.00    -0.357 A  
HETATM   15  N   UNL     1     -13.123  10.496  71.212  1.00  0.00    -0.390 NA 
BRANCH   4  16
HETATM   16  O   UNL     1      -8.833   6.216  69.002  1.00  0.00    -0.122 OA 
BRANCH  16  17
HETATM   17  C   UNL     1      -9.472   4.930  69.077  1.00  0.00    -0.144 C  
BRANCH  17  18
HETATM   18  C   UNL     1      -9.989   4.530  67.697  1.00  0.00    -0.138 C  
BRANCH  18  19
HETATM   19  C   UNL     1      -9.347   3.232  67.178  1.00  0.00    -0.181 C  
BRANCH  19  20
HETATM   20  N   UNL     1      -8.477   3.411  66.004  1.00  0.00    -0.107 NA 
HETATM   21  O   UNL     1      -9.832   2.411  63.587  1.00  0.00    -0.120 OA 
HETATM   22  C   UNL     1      -8.134   2.137  65.328  1.00  0.00    -0.080 C  
HETATM   23  C   UNL     1      -9.097   4.298  64.989  1.00  0.00    -0.146 C  
HETATM   24  C   UNL     1     -10.241   3.645  64.190  1.00  0.00    -0.231 C  
HETATM   25  C   UNL     1      -9.313   1.507  64.571  1.00  0.00    -0.123 C  
ENDBRANCH  19  20
ENDBRANCH  18  19
ENDBRANCH  17  18
ENDBRANCH  16  17
ENDBRANCH   4  16
BRANCH   9  26
HETATM   26  N   UNL     1     -11.082  12.913  68.053  1.00  0.00    -0.241 N  
HETATM   27  O   UNL     1      -9.227  12.803  66.677  1.00  0.00    -0.226 OA 
HETATM   28  H   UNL     1     -11.963  13.425  68.098  1.00  0.00     0.000 HD 
HETATM   29  C   UNL     1     -10.171  13.437  67.140  1.00  0.00    -0.247 C  
BRANCH  29  30
HETATM   30  C   UNL     1     -10.420  14.807  66.626  1.00  0.00    -0.286 A  
HETATM   31  N   UNL     1     -10.596  17.204  66.847  1.00  0.00    -0.261 NA 
HETATM   32  C   UNL     1     -10.396  15.971  67.364  1.00  0.00    -0.294 A  
HETATM   33  C   UNL     1     -10.863  17.259  65.531  1.00  0.00    -0.023 A  
HETATM   34  N   UNL     1     -10.881  16.210  64.715  1.00  0.00    -0.669 NA 
HETATM   35  N   UNL     1     -11.064  18.513  64.983  1.00  0.00    -0.265 NA 
HETATM   36  H1  UNL     1     -11.267  18.556  63.983  1.00  0.00     0.000 HD 
HETATM   37  C   UNL     1     -10.668  15.002  65.282  1.00  0.00    -0.389 A  
HETATM   38  H2  UNL     1     -10.263  19.109  65.193  1.00  0.00     0.000 HD 
ENDBRANCH  29  30
ENDBRANCH   9  26
ENDBRANCH   2   3
TORSDOF 8
ENDMDL
MODEL      123
REMARK 921   NORMALIZED FREE ENERGY PREDICTED BY IDOCK:   -3.84 KCAL/MOL
REMARK 922        TOTAL FREE ENERGY PREDICTED BY IDOCK:   -6.84 KCAL/MOL
REMARK 923 INTER-LIGAND FREE ENERGY PREDICTED BY IDOCK:   -6.34 KCAL/MOL
REMARK 924 INTRA-LIGAND FREE ENERGY PREDICTED BY IDOCK:   -0.50 KCAL/MOL
REMARK 927      BINDING AFFINITY PREDICTED BY RF-SCORE:    0.00 PKD
ROOT
HETATM    1  C   UNL     1      -5.455  11.632  66.494  1.00  0.00    -0.064 C  
HETATM    2  O   UNL     1      -5.527  12.649  67.490  1.00  0.00    -0.118 OA 
ENDROOT
BRANCH   2   3
HETATM    3  C   UNL     1      -6.769  13.218  67.677  1.00  0.00    -0.166 A  
HETATM    4  C   UNL     1      -6.809  14.640  67.631  1.00  0.00    -0.183 A  
HETATM    5  C   UNL     1      -8.028  15.319  67.784  1.00  0.00    -0.159 A  
HETATM    6  C   UNL     1     -11.888  11.359  69.401  1.00  0.00    -0.351 C  
HETATM    7  N   UNL     1     -10.349  11.181  67.767  1.00  0.00    -0.181 NA 
HETATM    8  C   UNL     1      -9.195  14.618  68.058  1.00  0.00    -0.197 A  
HETATM    9  C   UNL     1      -9.173  10.460  67.757  1.00  0.00    -0.142 A  
HETATM   10  C   UNL     1      -9.132  13.234  68.104  1.00  0.00    -0.207 A  
HETATM   11  C   UNL     1     -11.700  10.731  68.023  1.00  0.00    -0.044 C  
HETATM   12  C   UNL     1      -7.961  12.487  67.874  1.00  0.00    -0.157 A  
HETATM   13  N   UNL     1      -8.011  11.051  67.857  1.00  0.00    -0.110 NA 
HETATM   14  C   UNL     1     -10.297  12.418  68.388  1.00  0.00    -0.229 A  
HETATM   15  N   UNL     1     -11.207  12.693  69.295  1.00  0.00    -0.225 NA 
BRANCH   4  16
HETATM   16  O   UNL     1      -5.622  15.315  67.411  1.00  0.00    -0.338 OA 
BRANCH  16  17
HETATM   17  C   UNL     1      -5.387  16.435  68.282  1.00  0.00    -0.106 C  
BRANCH  17  18
HETATM   18  C   UNL     1      -5.551  17.738  67.501  1.00  0.00    -0.148 C  
BRANCH  18  19
HETATM   19  C   UNL     1      -6.760  18.563  67.975  1.00  0.00    -0.216 C  
BRANCH  19  20
HETATM   20  N   UNL     1      -7.361  19.414  66.934  1.00  0.00    -0.213 NA 
HETATM   21  O   UNL     1     -10.298  19.319  67.128  1.00  0.00    -0.373 OA 
HETATM   22  C   UNL     1      -8.230  18.667  65.994  1.00  0.00    -0.066 C  
HETATM   23  C   UNL     1      -8.176  20.507  67.518  1.00  0.00    -0.243 C  
HETATM   24  C   UNL     1      -9.530  20.050  68.092  1.00  0.00    -0.276 C  
HETATM   25  C   UNL     1      -9.555  18.204  66.620  1.00  0.00    -0.306 C  
ENDBRANCH  19  20
ENDBRANCH  18  19
ENDBRANCH  17  18
ENDBRANCH  16  17
ENDBRANCH   4  16
BRANCH   9  26
HETATM   26  N   UNL     1      -9.059   9.080  67.774  1.00  0.00    -0.134 N  
HETATM   27  O   UNL     1      -8.345   8.428  65.673  1.00  0.00    -0.135 OA 
HETATM   28  H   UNL     1      -9.159   8.669  68.702  1.00  0.00     0.000 HD 
HETATM   29  C   UNL     1      -8.832   8.148  66.765  1.00  0.00    -0.138 C  
BRANCH  29  30
HETATM   30  C   UNL     1      -9.106   6.721  67.069  1.00  0.00    -0.139 A  
HETATM   31  N   UNL     1     -10.532   4.784  67.266  1.00  0.00    -0.052 NA 
HETATM   32  C   UNL     1     -10.333   6.097  67.012  1.00  0.00    -0.237 A  
HETATM   33  C   UNL     1      -9.446   4.078  67.625  1.00  0.00    -0.183 A  
HETATM   34  N   UNL     1      -8.210   4.565  67.685  1.00  0.00    -0.099 NA 
HETATM   35  N   UNL     1      -9.628   2.732  67.883  1.00  0.00    -0.300 NA 
HETATM   36  H1  UNL     1      -8.804   2.196  68.156  1.00  0.00     0.000 HD 
HETATM   37  C   UNL     1      -8.067   5.881  67.414  1.00  0.00    -0.102 A  
HETATM   38  H2  UNL     1     -10.071   2.288  67.078  1.00  0.00     0.000 HD 
ENDBRANCH  29  30
ENDBRANCH   9  26
ENDBRANCH   2   3
TORSDOF 8
ENDMDL
MODEL      124
REMARK 921   NORMALIZED FREE ENERGY PREDICTED BY IDOCK:   -3.76 KCAL/MOL
REMARK 922        TOTAL FREE ENERGY PREDICTED BY IDOCK:   -6.72 KCAL/MOL
REMARK 923 INTER-LIGAND FREE ENERGY PREDICTED BY IDOCK:   -5.78 KCAL/MOL
REMARK 924 INTRA-LIGAND FREE ENERGY PREDICTED BY IDOCK:   -0.94 KCAL/MOL
REMARK 927      BINDING AFFINITY PREDICTED BY RF-SCORE:    0.00 PKD
ROOT
HETATM    1  C   UNL     1     -10.827   7.076  67.189  1.00  0.00    -0.357 C  
HETATM    2  O   UNL     1     -10.854   7.035  68.612  1.00  0.00    -0.204 OA 
ENDROOT
BRANCH   2   3
HETATM    3  C   UNL     1      -9.647   7.253  69.241  1.00  0.00    -0.156 A  
HETATM    4  C   UNL     1      -9.158   6.173  70.029  1.00  0.00    -0.147 A  
HETATM    5  C   UNL     1      -7.924   6.282  70.692  1.00  0.00    -0.112 A  
HETATM    6  C   UNL     1      -6.300  11.785  70.182  1.00  0.00    -0.034 C  
HETATM    7  N   UNL     1      -7.140  10.453  68.573  1.00  0.00    -0.073 NA 
HETATM    8  C   UNL     1      -7.205   7.469  70.649  1.00  0.00    -0.067 A  
HETATM    9  C   UNL     1      -8.398  10.464  68.008  1.00  0.00    -0.118 A  
HETATM   10  C   UNL     1      -7.703   8.510  69.882  1.00  0.00    -0.091 A  
HETATM   11  C   UNL     1      -6.175  11.525  68.684  1.00  0.00    -0.052 C  
HETATM   12  C   UNL     1      -8.887   8.437  69.124  1.00  0.00    -0.142 A  
HETATM   13  N   UNL     1      -9.279   9.539  68.288  1.00  0.00    -0.130 NA 
HETATM   14  C   UNL     1      -7.024   9.787  69.782  1.00  0.00    -0.087 A  
HETATM   15  N   UNL     1      -6.454  10.418  70.784  1.00  0.00    -0.335 NA 
BRANCH   4  16
HETATM   16  O   UNL     1      -9.922   5.022  70.097  1.00  0.00    -0.216 OA 
BRANCH  16  17
HETATM   17  C   UNL     1      -9.711   4.086  69.027  1.00  0.00    -0.091 C  
BRANCH  17  18
HETATM   18  C   UNL     1      -8.844   2.929  69.517  1.00  0.00    -0.151 C  
BRANCH  18  19
HETATM   19  C   UNL     1      -8.087   2.231  68.374  1.00  0.00    -0.056 C  
BRANCH  19  20
HETATM   20  N   UNL     1      -6.635   2.107  68.593  1.00  0.00    -0.029 NA 
HETATM   21  O   UNL     1      -5.196   4.056  66.918  1.00  0.00    -0.011 OA 
HETATM   22  C   UNL     1      -5.885   1.751  67.366  1.00  0.00    -0.019 C  
HETATM   23  C   UNL     1      -6.049   3.362  69.122  1.00  0.00    -0.028 C  
HETATM   24  C   UNL     1      -5.916   4.489  68.080  1.00  0.00    -0.027 C  
HETATM   25  C   UNL     1      -5.805   2.894  66.342  1.00  0.00    -0.023 C  
ENDBRANCH  19  20
ENDBRANCH  18  19
ENDBRANCH  17  18
ENDBRANCH  16  17
ENDBRANCH   4  16
BRANCH   9  26
HETATM   26  N   UNL     1      -8.930  11.465  67.212  1.00  0.00    -0.156 N  
HETATM   27  O   UNL     1      -9.021  13.385  68.496  1.00  0.00    -0.161 OA 
HETATM   28  H   UNL     1      -9.025  11.204  66.230  1.00  0.00     0.000 HD 
HETATM   29  C   UNL     1      -9.359  12.758  67.496  1.00  0.00    -0.189 C  
BRANCH  29  30
HETATM   30  C   UNL     1     -10.193  13.448  66.480  1.00  0.00    -0.282 A  
HETATM   31  N   UNL     1     -11.170  13.697  64.288  1.00  0.00    -0.366 NA 
HETATM   32  C   UNL     1     -10.374  13.056  65.172  1.00  0.00    -0.304 A  
HETATM   33  C   UNL     1     -11.786  14.803  64.739  1.00  0.00    -0.423 A  
HETATM   34  N   UNL     1     -11.712  15.259  65.985  1.00  0.00    -0.006 NA 
HETATM   35  N   UNL     1     -12.611  15.470  63.850  1.00  0.00    -0.828 NA 
HETATM   36  H1  UNL     1     -13.079  16.310  64.192  1.00  0.00     0.000 HD 
HETATM   37  C   UNL     1     -10.907  14.576  66.830  1.00  0.00    -0.305 A  
HETATM   38  H2  UNL     1     -13.305  14.821  63.479  1.00  0.00     0.000 HD 
ENDBRANCH  29  30
ENDBRANCH   9  26
ENDBRANCH   2   3
TORSDOF 8
ENDMDL
MODEL      125
REMARK 921   NORMALIZED FREE ENERGY PREDICTED BY IDOCK:   -3.72 KCAL/MOL
REMARK 922        TOTAL FREE ENERGY PREDICTED BY IDOCK:   -6.66 KCAL/MOL
REMARK 923 INTER-LIGAND FREE ENERGY PREDICTED BY IDOCK:   -7.94 KCAL/MOL
REMARK 924 INTRA-LIGAND FREE ENERGY PREDICTED BY IDOCK:    1.27 KCAL/MOL
REMARK 927      BINDING AFFINITY PREDICTED BY RF-SCORE:    0.00 PKD
ROOT
HETATM    1  C   UNL     1      -9.088  11.191  66.339  1.00  0.00    -0.187 C  
HETATM    2  O   UNL     1      -9.964  10.133  65.962  1.00  0.00    -0.229 OA 
ENDROOT
BRANCH   2   3
HETATM    3  C   UNL     1      -9.934   9.014  66.766  1.00  0.00    -0.263 A  
HETATM    4  C   UNL     1      -9.254   7.885  66.226  1.00  0.00    -0.178 A  
HETATM    5  C   UNL     1      -9.143   6.702  66.974  1.00  0.00    -0.135 A  
HETATM    6  C   UNL     1     -12.556   7.369  71.567  1.00  0.00    -0.367 C  
HETATM    7  N   UNL     1     -11.106   8.865  70.712  1.00  0.00    -0.251 NA 
HETATM    8  C   UNL     1      -9.759   6.592  68.214  1.00  0.00    -0.131 A  
HETATM    9  C   UNL     1     -11.366  10.006  69.984  1.00  0.00    -0.275 A  
HETATM   10  C   UNL     1     -10.421   7.700  68.716  1.00  0.00    -0.208 A  
HETATM   11  C   UNL     1     -11.602   8.473  72.013  1.00  0.00    -0.362 C  
HETATM   12  C   UNL     1     -10.496   8.943  68.059  1.00  0.00    -0.208 A  
HETATM   13  N   UNL     1     -11.132  10.062  68.699  1.00  0.00    -0.208 NA 
HETATM   14  C   UNL     1     -11.099   7.678  69.999  1.00  0.00    -0.191 A  
HETATM   15  N   UNL     1     -11.827   6.681  70.449  1.00  0.00    -0.392 NA 
BRANCH   4  16
HETATM   16  O   UNL     1      -8.696   8.006  64.967  1.00  0.00    -0.073 OA 
BRANCH  16  17
HETATM   17  C   UNL     1      -7.552   7.170  64.724  1.00  0.00    -0.105 C  
BRANCH  17  18
HETATM   18  C   UNL     1      -8.009   5.742  64.432  1.00  0.00    -0.126 C  
BRANCH  18  19
HETATM   19  C   UNL     1      -7.132   4.687  65.130  1.00  0.00    -0.063 C  
BRANCH  19  20
HETATM   20  N   UNL     1      -7.525   4.392  66.518  1.00  0.00    -0.081 NA 
HETATM   21  O   UNL     1      -5.277   3.148  67.957  1.00  0.00    -0.011 OA 
HETATM   22  C   UNL     1      -7.453   2.951  66.855  1.00  0.00    -0.070 C  
HETATM   23  C   UNL     1      -6.680   5.119  67.496  1.00  0.00    -0.055 C  
HETATM   24  C   UNL     1      -5.258   4.549  67.653  1.00  0.00    -0.011 C  
HETATM   25  C   UNL     1      -6.016   2.419  66.969  1.00  0.00    -0.023 C  
ENDBRANCH  19  20
ENDBRANCH  18  19
ENDBRANCH  17  18
ENDBRANCH  16  17
ENDBRANCH   4  16
BRANCH   9  26
HETATM   26  N   UNL     1     -11.997  11.148  70.448  1.00  0.00    -0.353 N  
HETATM   27  O   UNL     1     -11.565  12.835  68.928  1.00  0.00    -0.274 OA 
HETATM   28  H   UNL     1     -12.617  10.983  71.241  1.00  0.00     0.000 HD 
HETATM   29  C   UNL     1     -11.948  12.477  70.038  1.00  0.00    -0.299 C  
BRANCH  29  30
HETATM   30  C   UNL     1     -12.482  13.506  70.964  1.00  0.00    -0.451 A  
HETATM   31  N   UNL     1     -13.148  14.332  73.132  1.00  0.00    -0.572 NA 
HETATM   32  C   UNL     1     -12.689  13.355  72.318  1.00  0.00    -0.057 A  
HETATM   33  C   UNL     1     -13.441  15.505  72.544  1.00  0.00    -0.526 A  
HETATM   34  N   UNL     1     -13.254  15.776  71.256  1.00  0.00    -0.511 NA 
HETATM   35  N   UNL     1     -13.906  16.519  73.362  1.00  0.00    -0.374 NA 
HETATM   36  H1  UNL     1     -14.129  17.410  72.916  1.00  0.00     0.000 HD 
HETATM   37  C   UNL     1     -12.786  14.766  70.489  1.00  0.00    -0.322 A  
HETATM   38  H2  UNL     1     -13.242  16.675  74.121  1.00  0.00     0.000 HD 
ENDBRANCH  29  30
ENDBRANCH   9  26
ENDBRANCH   2   3
TORSDOF 8
ENDMDL
MODEL      126
REMARK 921   NORMALIZED FREE ENERGY PREDICTED BY IDOCK:   -3.65 KCAL/MOL
REMARK 922        TOTAL FREE ENERGY PREDICTED BY IDOCK:   -6.56 KCAL/MOL
REMARK 923 INTER-LIGAND FREE ENERGY PREDICTED BY IDOCK:   -6.08 KCAL/MOL
REMARK 924 INTRA-LIGAND FREE ENERGY PREDICTED BY IDOCK:   -0.47 KCAL/MOL
REMARK 927      BINDING AFFINITY PREDICTED BY RF-SCORE:    0.00 PKD
ROOT
HETATM    1  C   UNL     1      -6.528  10.287  70.786  1.00  0.00     0.007 C  
HETATM    2  O   UNL     1      -5.888   9.091  70.350  1.00  0.00    -0.029 OA 
ENDROOT
BRANCH   2   3
HETATM    3  C   UNL     1      -6.466   8.462  69.269  1.00  0.00    -0.039 A  
HETATM    4  C   UNL     1      -6.498   7.040  69.328  1.00  0.00    -0.043 A  
HETATM    5  C   UNL     1      -7.088   6.301  68.288  1.00  0.00    -0.083 A  
HETATM    6  C   UNL     1      -8.164  10.055  64.052  1.00  0.00    -0.156 C  
HETATM    7  N   UNL     1      -8.564  10.324  66.252  1.00  0.00    -0.135 NA 
HETATM    8  C   UNL     1      -7.576   6.944  67.158  1.00  0.00    -0.107 A  
HETATM    9  C   UNL     1      -7.886  11.101  67.168  1.00  0.00    -0.139 A  
HETATM   10  C   UNL     1      -7.529   8.328  67.119  1.00  0.00    -0.089 A  
HETATM   11  C   UNL     1      -9.170  10.706  64.995  1.00  0.00    -0.211 C  
HETATM   12  C   UNL     1      -7.031   9.132  68.162  1.00  0.00    -0.076 A  
HETATM   13  N   UNL     1      -7.103  10.565  68.067  1.00  0.00    -0.084 NA 
HETATM   14  C   UNL     1      -8.010   9.085  65.979  1.00  0.00    -0.103 A  
HETATM   15  N   UNL     1      -7.817   8.756  64.721  1.00  0.00    -0.116 NA 
BRANCH   4  16
HETATM   16  O   UNL     1      -5.955   6.425  70.440  1.00  0.00    -0.022 OA 
BRANCH  16  17
HETATM   17  C   UNL     1      -6.773   5.401  71.032  1.00  0.00    -0.044 C  
BRANCH  17  18
HETATM   18  C   UNL     1      -8.018   6.031  71.653  1.00  0.00    -0.110 C  
BRANCH  18  19
HETATM   19  C   UNL     1      -9.323   5.440  71.091  1.00  0.00    -0.150 C  
BRANCH  19  20
HETATM   20  N   UNL     1     -10.523   6.251  71.361  1.00  0.00    -0.213 NA 
HETATM   21  O   UNL     1     -10.441   8.728  69.770  1.00  0.00    -0.211 OA 
HETATM   22  C   UNL     1     -10.214   7.587  71.923  1.00  0.00    -0.188 C  
HETATM   23  C   UNL     1     -11.333   6.461  70.136  1.00  0.00    -0.420 C  
HETATM   24  C   UNL     1     -10.729   7.471  69.143  1.00  0.00    -0.151 C  
HETATM   25  C   UNL     1      -9.585   8.550  70.905  1.00  0.00    -0.185 C  
ENDBRANCH  19  20
ENDBRANCH  18  19
ENDBRANCH  17  18
ENDBRANCH  16  17
ENDBRANCH   4  16
BRANCH   9  26
HETATM   26  N   UNL     1      -7.832  12.484  67.188  1.00  0.00    -0.301 N  
HETATM   27  O   UNL     1      -9.929  13.243  67.797  1.00  0.00    -0.213 OA 
HETATM   28  H   UNL     1      -6.890  12.862  67.085  1.00  0.00     0.000 HD 
HETATM   29  C   UNL     1      -8.818  13.458  67.322  1.00  0.00    -0.220 C  
BRANCH  29  30
HETATM   30  C   UNL     1      -8.464  14.853  66.960  1.00  0.00    -0.260 A  
HETATM   31  N   UNL     1      -6.995  16.765  66.888  1.00  0.00    -0.201 NA 
HETATM   32  C   UNL     1      -7.289  15.502  67.267  1.00  0.00    -0.214 A  
HETATM   33  C   UNL     1      -7.946  17.412  66.193  1.00  0.00    -0.240 A  
HETATM   34  N   UNL     1      -9.103  16.880  65.812  1.00  0.00    -0.510 NA 
HETATM   35  N   UNL     1      -7.660  18.705  65.790  1.00  0.00    -0.504 NA 
HETATM   36  H1  UNL     1      -8.382  19.196  65.262  1.00  0.00     0.000 HD 
HETATM   37  C   UNL     1      -9.343  15.612  66.212  1.00  0.00    -0.323 A  
HETATM   38  H2  UNL     1      -6.788  18.711  65.260  1.00  0.00     0.000 HD 
ENDBRANCH  29  30
ENDBRANCH   9  26
ENDBRANCH   2   3
TORSDOF 8
ENDMDL
MODEL      127
REMARK 921   NORMALIZED FREE ENERGY PREDICTED BY IDOCK:   -3.63 KCAL/MOL
REMARK 922        TOTAL FREE ENERGY PREDICTED BY IDOCK:   -6.53 KCAL/MOL
REMARK 923 INTER-LIGAND FREE ENERGY PREDICTED BY IDOCK:   -5.58 KCAL/MOL
REMARK 924 INTRA-LIGAND FREE ENERGY PREDICTED BY IDOCK:   -0.95 KCAL/MOL
REMARK 927      BINDING AFFINITY PREDICTED BY RF-SCORE:    0.00 PKD
ROOT
HETATM    1  C   UNL     1      -8.134   9.516  66.633  1.00  0.00    -0.108 C  
HETATM    2  O   UNL     1      -7.103   9.152  65.720  1.00  0.00    -0.083 OA 
ENDROOT
BRANCH   2   3
HETATM    3  C   UNL     1      -7.463   8.261  64.733  1.00  0.00    -0.093 A  
HETATM    4  C   UNL     1      -7.530   8.795  63.414  1.00  0.00    -0.107 A  
HETATM    5  C   UNL     1      -7.863   7.966  62.331  1.00  0.00    -0.139 A  
HETATM    6  C   UNL     1      -9.581   2.957  64.602  1.00  0.00    -0.126 C  
HETATM    7  N   UNL     1      -7.783   4.179  65.188  1.00  0.00    -0.084 NA 
HETATM    8  C   UNL     1      -8.206   6.636  62.541  1.00  0.00    -0.030 A  
HETATM    9  C   UNL     1      -7.593   4.960  66.309  1.00  0.00    -0.087 A  
HETATM   10  C   UNL     1      -8.141   6.140  63.834  1.00  0.00    -0.068 A  
HETATM   11  C   UNL     1      -8.148   2.782  65.095  1.00  0.00    -0.083 C  
HETATM   12  C   UNL     1      -7.731   6.892  64.950  1.00  0.00    -0.113 A  
HETATM   13  N   UNL     1      -7.612   6.266  66.239  1.00  0.00    -0.089 NA 
HETATM   14  C   UNL     1      -8.486   4.767  64.150  1.00  0.00    -0.135 A  
HETATM   15  N   UNL     1      -9.504   4.109  63.641  1.00  0.00    -0.150 NA 
BRANCH   4  16
HETATM   16  O   UNL     1      -7.236  10.135  63.242  1.00  0.00    -0.133 OA 
BRANCH  16  17
HETATM   17  C   UNL     1      -8.202  10.878  62.480  1.00  0.00    -0.172 C  
BRANCH  17  18
HETATM   18  C   UNL     1      -9.598  10.652  63.057  1.00  0.00    -0.379 C  
BRANCH  18  19
HETATM   19  C   UNL     1      -9.903  11.577  64.248  1.00  0.00    -0.244 C  
BRANCH  19  20
HETATM   20  N   UNL     1     -11.301  11.532  64.710  1.00  0.00    -0.196 NA 
HETATM   21  O   UNL     1     -12.496  14.219  64.564  1.00  0.00    -0.607 OA 
HETATM   22  C   UNL     1     -11.557  12.390  65.891  1.00  0.00    -0.396 C  
HETATM   23  C   UNL     1     -12.247  11.947  63.646  1.00  0.00    -0.479 C  
HETATM   24  C   UNL     1     -12.264  13.462  63.369  1.00  0.00    -0.349 C  
HETATM   25  C   UNL     1     -11.533  13.893  65.573  1.00  0.00    -0.316 C  
ENDBRANCH  19  20
ENDBRANCH  18  19
ENDBRANCH  17  18
ENDBRANCH  16  17
ENDBRANCH   4  16
BRANCH   9  26
HETATM   26  N   UNL     1      -7.494   4.510  67.614  1.00  0.00    -0.073 N  
HETATM   27  O   UNL     1      -9.502   3.494  68.143  1.00  0.00    -0.181 OA 
HETATM   28  H   UNL     1      -6.553   4.579  68.003  1.00  0.00     0.000 HD 
HETATM   29  C   UNL     1      -8.432   3.982  68.496  1.00  0.00    -0.091 C  
BRANCH  29  30
HETATM   30  C   UNL     1      -8.069   3.918  69.934  1.00  0.00    -0.061 A  
HETATM   31  N   UNL     1      -6.917   2.982  71.837  1.00  0.00    -0.026 NA 
HETATM   32  C   UNL     1      -7.248   2.983  70.526  1.00  0.00    -0.033 A  
HETATM   33  C   UNL     1      -7.467   3.952  72.588  1.00  0.00    -0.064 A  
HETATM   34  N   UNL     1      -8.246   4.923  72.123  1.00  0.00    -0.113 NA 
HETATM   35  N   UNL     1      -7.135   3.971  73.931  1.00  0.00    -0.059 NA 
HETATM   36  H1  UNL     1      -7.552   4.707  74.502  1.00  0.00     0.000 HD 
HETATM   37  C   UNL     1      -8.539   4.881  70.804  1.00  0.00    -0.113 A  
HETATM   38  H2  UNL     1      -6.119   3.998  74.030  1.00  0.00     0.000 HD 
ENDBRANCH  29  30
ENDBRANCH   9  26
ENDBRANCH   2   3
TORSDOF 8
ENDMDL
MODEL      128
REMARK 921   NORMALIZED FREE ENERGY PREDICTED BY IDOCK:   -3.52 KCAL/MOL
REMARK 922        TOTAL FREE ENERGY PREDICTED BY IDOCK:   -6.37 KCAL/MOL
REMARK 923 INTER-LIGAND FREE ENERGY PREDICTED BY IDOCK:   -6.99 KCAL/MOL
REMARK 924 INTRA-LIGAND FREE ENERGY PREDICTED BY IDOCK:    0.63 KCAL/MOL
REMARK 927      BINDING AFFINITY PREDICTED BY RF-SCORE:    0.00 PKD
ROOT
HETATM    1  C   UNL     1      -9.050   8.648  67.108  1.00  0.00    -0.133 C  
HETATM    2  O   UNL     1      -9.268   7.253  66.923  1.00  0.00    -0.139 OA 
ENDROOT
BRANCH   2   3
HETATM    3  C   UNL     1      -9.105   6.467  68.044  1.00  0.00    -0.113 A  
HETATM    4  C   UNL     1      -8.287   5.314  67.875  1.00  0.00    -0.098 A  
HETATM    5  C   UNL     1      -8.036   4.459  68.961  1.00  0.00    -0.072 A  
HETATM    6  C   UNL     1     -11.539   6.169  73.203  1.00  0.00     0.206 C  
HETATM    7  N   UNL     1     -10.279   7.468  71.863  1.00  0.00    -0.186 NA 
HETATM    8  C   UNL     1      -8.644   4.685  70.190  1.00  0.00    -0.101 A  
HETATM    9  C   UNL     1     -10.673   8.272  70.815  1.00  0.00    -0.218 A  
HETATM   10  C   UNL     1      -9.441   5.809  70.329  1.00  0.00    -0.196 A  
HETATM   11  C   UNL     1     -10.733   7.463  73.237  1.00  0.00    -0.391 C  
HETATM   12  C   UNL     1      -9.664   6.753  69.308  1.00  0.00    -0.151 A  
HETATM   13  N   UNL     1     -10.438   7.935  69.573  1.00  0.00    -0.225 NA 
HETATM   14  C   UNL     1     -10.120   6.124  71.572  1.00  0.00    -0.192 A  
HETATM   15  N   UNL     1     -10.723   5.247  72.343  1.00  0.00    -0.224 NA 
BRANCH   4  16
HETATM   16  O   UNL     1      -7.739   5.085  66.627  1.00  0.00    -0.091 OA 
BRANCH  16  17
HETATM   17  C   UNL     1      -8.523   4.246  65.761  1.00  0.00    -0.113 C  
BRANCH  17  18
HETATM   18  C   UNL     1      -7.599   3.411  64.877  1.00  0.00    -0.077 C  
BRANCH  18  19
HETATM   19  C   UNL     1      -8.190   2.031  64.541  1.00  0.00    -0.075 C  
BRANCH  19  20
HETATM   20  N   UNL     1      -8.560   1.857  63.126  1.00  0.00    -0.076 NA 
HETATM   21  O   UNL     1     -10.682   3.765  62.400  1.00  0.00    -0.194 OA 
HETATM   22  C   UNL     1      -9.980   1.482  62.933  1.00  0.00    -0.100 C  
HETATM   23  C   UNL     1      -8.315   3.088  62.337  1.00  0.00    -0.074 C  
HETATM   24  C   UNL     1      -9.334   4.215  62.587  1.00  0.00    -0.125 C  
HETATM   25  C   UNL     1     -10.962   2.627  63.225  1.00  0.00    -0.199 C  
ENDBRANCH  19  20
ENDBRANCH  18  19
ENDBRANCH  17  18
ENDBRANCH  16  17
ENDBRANCH   4  16
BRANCH   9  26
HETATM   26  N   UNL     1     -11.444   9.418  70.906  1.00  0.00    -0.293 N  
HETATM   27  O   UNL     1     -10.944  10.727  69.067  1.00  0.00    -0.205 OA 
HETATM   28  H   UNL     1     -12.148   9.384  71.643  1.00  0.00     0.000 HD 
HETATM   29  C   UNL     1     -11.441  10.608  70.183  1.00  0.00    -0.329 C  
BRANCH  29  30
HETATM   30  C   UNL     1     -12.169  11.767  70.758  1.00  0.00    -0.424 A  
HETATM   31  N   UNL     1     -13.585  12.842  72.389  1.00  0.00    -0.525 NA 
HETATM   32  C   UNL     1     -12.966  11.753  71.881  1.00  0.00    -0.330 A  
HETATM   33  C   UNL     1     -13.415  13.990  71.713  1.00  0.00    -0.392 A  
HETATM   34  N   UNL     1     -12.647  14.131  70.637  1.00  0.00    -0.342 NA 
HETATM   35  N   UNL     1     -14.036  15.117  72.221  1.00  0.00    -0.491 NA 
HETATM   36  H1  UNL     1     -13.907  15.990  71.708  1.00  0.00     0.000 HD 
HETATM   37  C   UNL     1     -12.045  13.013  70.175  1.00  0.00    -0.307 A  
HETATM   38  H2  UNL     1     -13.755  15.250  73.193  1.00  0.00     0.000 HD 
ENDBRANCH  29  30
ENDBRANCH   9  26
ENDBRANCH   2   3
TORSDOF 8
ENDMDL
MODEL      129
REMARK 921   NORMALIZED FREE ENERGY PREDICTED BY IDOCK:   -3.49 KCAL/MOL
REMARK 922        TOTAL FREE ENERGY PREDICTED BY IDOCK:   -6.33 KCAL/MOL
REMARK 923 INTER-LIGAND FREE ENERGY PREDICTED BY IDOCK:   -5.75 KCAL/MOL
REMARK 924 INTRA-LIGAND FREE ENERGY PREDICTED BY IDOCK:   -0.58 KCAL/MOL
REMARK 927      BINDING AFFINITY PREDICTED BY RF-SCORE:    0.00 PKD
ROOT
HETATM    1  C   UNL     1      -5.604  11.170  66.185  1.00  0.00    -0.141 C  
HETATM    2  O   UNL     1      -5.869  11.777  67.446  1.00  0.00    -0.075 OA 
ENDROOT
BRANCH   2   3
HETATM    3  C   UNL     1      -7.200  11.917  67.775  1.00  0.00    -0.104 A  
HETATM    4  C   UNL     1      -7.757  13.210  67.558  1.00  0.00    -0.166 A  
HETATM    5  C   UNL     1      -9.112  13.454  67.837  1.00  0.00    -0.208 A  
HETATM    6  C   UNL     1     -11.055   8.785  70.598  1.00  0.00    -0.246 C  
HETATM    7  N   UNL     1      -9.764   8.845  68.754  1.00  0.00    -0.161 NA 
HETATM    8  C   UNL     1      -9.904  12.461  68.398  1.00  0.00    -0.198 A  
HETATM    9  C   UNL     1      -8.418   8.573  68.628  1.00  0.00    -0.131 A  
HETATM   10  C   UNL     1      -9.340  11.212  68.608  1.00  0.00    -0.186 A  
HETATM   11  C   UNL     1     -10.820   8.020  69.300  1.00  0.00    -0.059 C  
HETATM   12  C   UNL     1      -8.015  10.876  68.271  1.00  0.00    -0.121 A  
HETATM   13  N   UNL     1      -7.545   9.529  68.446  1.00  0.00    -0.081 NA 
HETATM   14  C   UNL     1     -10.088  10.117  69.194  1.00  0.00    -0.213 A  
HETATM   15  N   UNL     1     -10.920  10.229  70.206  1.00  0.00    -0.303 NA 
BRANCH   4  16
HETATM   16  O   UNL     1      -6.930  14.194  67.048  1.00  0.00    -0.033 OA 
BRANCH  16  17
HETATM   17  C   UNL     1      -6.785  15.359  67.878  1.00  0.00    -0.160 C  
BRANCH  17  18
HETATM   18  C   UNL     1      -7.495  16.545  67.230  1.00  0.00    -0.195 C  
BRANCH  18  19
HETATM   19  C   UNL     1      -7.637  17.743  68.186  1.00  0.00    -0.250 C  
BRANCH  19  20
HETATM   20  N   UNL     1      -9.022  18.036  68.591  1.00  0.00    -0.295 NA 
HETATM   21  O   UNL     1     -10.443  19.401  66.402  1.00  0.00    -0.424 OA 
HETATM   22  C   UNL     1      -9.342  19.483  68.586  1.00  0.00    -0.370 C  
HETATM   23  C   UNL     1     -10.008  17.361  67.712  1.00  0.00    -0.301 C  
HETATM   24  C   UNL     1     -10.156  17.999  66.318  1.00  0.00    -0.363 C  
HETATM   25  C   UNL     1      -9.448  20.083  67.175  1.00  0.00    -0.386 C  
ENDBRANCH  19  20
ENDBRANCH  18  19
ENDBRANCH  17  18
ENDBRANCH  16  17
ENDBRANCH   4  16
BRANCH   9  26
HETATM   26  N   UNL     1      -7.811   7.340  68.799  1.00  0.00    -0.119 N  
HETATM   27  O   UNL     1      -7.961   6.219  66.783  1.00  0.00    -0.106 OA 
HETATM   28  H   UNL     1      -7.315   7.244  69.685  1.00  0.00     0.000 HD 
HETATM   29  C   UNL     1      -7.750   6.207  67.992  1.00  0.00    -0.102 C  
BRANCH  29  30
HETATM   30  C   UNL     1      -7.308   4.937  68.618  1.00  0.00    -0.062 A  
HETATM   31  N   UNL     1      -7.643   2.682  69.411  1.00  0.00    -0.044 NA 
HETATM   32  C   UNL     1      -8.095   3.834  68.867  1.00  0.00    -0.058 A  
HETATM   33  C   UNL     1      -6.341   2.656  69.747  1.00  0.00    -0.028 A  
HETATM   34  N   UNL     1      -5.481   3.645  69.527  1.00  0.00    -0.015 NA 
HETATM   35  N   UNL     1      -5.858   1.483  70.299  1.00  0.00    -0.017 NA 
HETATM   36  H1  UNL     1      -4.870   1.463  70.554  1.00  0.00     0.000 HD 
HETATM   37  C   UNL     1      -5.985   4.771  68.974  1.00  0.00    -0.025 A  
HETATM   38  H2  UNL     1      -6.064   0.703  69.674  1.00  0.00     0.000 HD 
ENDBRANCH  29  30
ENDBRANCH   9  26
ENDBRANCH   2   3
TORSDOF 8
ENDMDL
MODEL      130
REMARK 921   NORMALIZED FREE ENERGY PREDICTED BY IDOCK:   -3.44 KCAL/MOL
REMARK 922        TOTAL FREE ENERGY PREDICTED BY IDOCK:   -6.25 KCAL/MOL
REMARK 923 INTER-LIGAND FREE ENERGY PREDICTED BY IDOCK:   -5.68 KCAL/MOL
REMARK 924 INTRA-LIGAND FREE ENERGY PREDICTED BY IDOCK:   -0.57 KCAL/MOL
REMARK 927      BINDING AFFINITY PREDICTED BY RF-SCORE:    0.00 PKD
ROOT
HETATM    1  C   UNL     1     -10.636  12.089  66.676  1.00  0.00    -0.232 C  
HETATM    2  O   UNL     1      -9.316  12.532  66.376  1.00  0.00    -0.234 OA 
ENDROOT
BRANCH   2   3
HETATM    3  C   UNL     1      -8.398  12.417  67.398  1.00  0.00    -0.180 A  
HETATM    4  C   UNL     1      -7.946  13.643  67.963  1.00  0.00    -0.154 A  
HETATM    5  C   UNL     1      -7.029  13.637  69.027  1.00  0.00    -0.098 A  
HETATM    6  C   UNL     1      -5.223   8.193  69.569  1.00  0.00    -0.026 C  
HETATM    7  N   UNL     1      -7.339   8.910  69.282  1.00  0.00    -0.069 NA 
HETATM    8  C   UNL     1      -6.496  12.441  69.490  1.00  0.00    -0.090 A  
HETATM    9  C   UNL     1      -8.130   8.846  68.155  1.00  0.00    -0.106 A  
HETATM   10  C   UNL     1      -6.946  11.260  68.921  1.00  0.00    -0.099 A  
HETATM   11  C   UNL     1      -6.650   7.846  69.981  1.00  0.00    -0.037 C  
HETATM   12  C   UNL     1      -7.925  11.190  67.913  1.00  0.00    -0.114 A  
HETATM   13  N   UNL     1      -8.392   9.913  67.445  1.00  0.00    -0.118 NA 
HETATM   14  C   UNL     1      -6.442   9.964  69.336  1.00  0.00    -0.046 A  
HETATM   15  N   UNL     1      -5.184   9.694  69.599  1.00  0.00    -0.034 NA 
BRANCH   4  16
HETATM   16  O   UNL     1      -8.453  14.821  67.445  1.00  0.00    -0.175 OA 
BRANCH  16  17
HETATM   17  C   UNL     1      -7.469  15.737  66.937  1.00  0.00    -0.169 C  
BRANCH  17  18
HETATM   18  C   UNL     1      -7.387  16.962  67.847  1.00  0.00    -0.176 C  
BRANCH  18  19
HETATM   19  C   UNL     1      -8.769  17.560  68.160  1.00  0.00    -0.262 C  
BRANCH  19  20
HETATM   20  N   UNL     1      -9.458  18.141  66.996  1.00  0.00    -0.267 NA 
HETATM   21  O   UNL     1      -9.847  21.032  67.396  1.00  0.00    -0.393 OA 
HETATM   22  C   UNL     1     -10.760  18.762  67.334  1.00  0.00    -0.424 C  
HETATM   23  C   UNL     1      -8.633  19.175  66.326  1.00  0.00    -0.296 C  
HETATM   24  C   UNL     1      -8.547  20.510  67.090  1.00  0.00    -0.271 C  
HETATM   25  C   UNL     1     -10.626  20.074  68.123  1.00  0.00    -0.171 C  
ENDBRANCH  19  20
ENDBRANCH  18  19
ENDBRANCH  17  18
ENDBRANCH  16  17
ENDBRANCH   4  16
BRANCH   9  26
HETATM   26  N   UNL     1      -8.627   7.695  67.567  1.00  0.00    -0.119 N  
HETATM   27  O   UNL     1      -9.519   6.393  69.256  1.00  0.00    -0.136 OA 
HETATM   28  H   UNL     1      -8.636   7.724  66.547  1.00  0.00     0.000 HD 
HETATM   29  C   UNL     1      -9.117   6.507  68.102  1.00  0.00    -0.114 C  
BRANCH  29  30
HETATM   30  C   UNL     1      -9.251   5.343  67.191  1.00  0.00    -0.111 A  
HETATM   31  N   UNL     1      -9.349   4.291  65.021  1.00  0.00    -0.157 NA 
HETATM   32  C   UNL     1      -9.258   5.383  65.814  1.00  0.00    -0.138 A  
HETATM   33  C   UNL     1      -9.471   3.110  65.650  1.00  0.00    -0.063 A  
HETATM   34  N   UNL     1      -9.446   2.946  66.969  1.00  0.00    -0.099 NA 
HETATM   35  N   UNL     1      -9.559   1.981  64.855  1.00  0.00    -0.324 NA 
HETATM   36  H1  UNL     1      -9.652   1.084  65.333  1.00  0.00     0.000 HD 
HETATM   37  C   UNL     1      -9.346   4.069  67.714  1.00  0.00    -0.176 A  
HETATM   38  H2  UNL     1      -8.760   1.948  64.222  1.00  0.00     0.000 HD 
ENDBRANCH  29  30
ENDBRANCH   9  26
ENDBRANCH   2   3
TORSDOF 8
ENDMDL
MODEL      131
REMARK 921   NORMALIZED FREE ENERGY PREDICTED BY IDOCK:   -3.32 KCAL/MOL
REMARK 922        TOTAL FREE ENERGY PREDICTED BY IDOCK:   -6.07 KCAL/MOL
REMARK 923 INTER-LIGAND FREE ENERGY PREDICTED BY IDOCK:   -5.75 KCAL/MOL
REMARK 924 INTRA-LIGAND FREE ENERGY PREDICTED BY IDOCK:   -0.32 KCAL/MOL
REMARK 927      BINDING AFFINITY PREDICTED BY RF-SCORE:    0.00 PKD
ROOT
HETATM    1  C   UNL     1      -6.172  10.440  68.530  1.00  0.00    -0.047 C  
HETATM    2  O   UNL     1      -7.020   9.318  68.299  1.00  0.00    -0.070 OA 
ENDROOT
BRANCH   2   3
HETATM    3  C   UNL     1      -7.547   9.217  67.030  1.00  0.00    -0.091 A  
HETATM    4  C   UNL     1      -7.014   8.174  66.221  1.00  0.00    -0.062 A  
HETATM    5  C   UNL     1      -7.500   7.968  64.920  1.00  0.00    -0.089 A  
HETATM    6  C   UNL     1     -10.905  12.463  63.739  1.00  0.00    -0.454 C  
HETATM    7  N   UNL     1     -10.847  11.252  65.637  1.00  0.00    -0.220 NA 
HETATM    8  C   UNL     1      -8.450   8.825  64.379  1.00  0.00    -0.146 A  
HETATM    9  C   UNL     1     -10.326  11.593  66.868  1.00  0.00    -0.220 A  
HETATM   10  C   UNL     1      -8.950   9.838  65.182  1.00  0.00    -0.237 A  
HETATM   11  C   UNL     1     -11.832  11.944  64.834  1.00  0.00    -0.167 C  
HETATM   12  C   UNL     1      -8.571  10.046  66.521  1.00  0.00    -0.125 A  
HETATM   13  N   UNL     1      -9.209  11.071  67.302  1.00  0.00    -0.148 NA 
HETATM   14  C   UNL     1      -9.939  10.784  64.702  1.00  0.00    -0.324 A  
HETATM   15  N   UNL     1      -9.937  11.338  63.510  1.00  0.00    -0.337 NA 
BRANCH   4  16
HETATM   16  O   UNL     1      -6.030   7.370  66.767  1.00  0.00    -0.036 OA 
BRANCH  16  17
HETATM   17  C   UNL     1      -6.499   6.140  67.345  1.00  0.00    -0.046 C  
BRANCH  17  18
HETATM   18  C   UNL     1      -7.403   5.414  66.350  1.00  0.00    -0.082 C  
BRANCH  18  19
HETATM   19  C   UNL     1      -7.149   3.897  66.318  1.00  0.00    -0.064 C  
BRANCH  19  20
HETATM   20  N   UNL     1      -8.335   3.090  65.984  1.00  0.00    -0.095 NA 
HETATM   21  O   UNL     1      -9.766   2.336  68.446  1.00  0.00    -0.144 OA 
HETATM   22  C   UNL     1      -8.307   1.732  66.576  1.00  0.00    -0.090 C  
HETATM   23  C   UNL     1      -9.590   3.742  66.431  1.00  0.00    -0.161 C  
HETATM   24  C   UNL     1      -9.830   3.680  67.951  1.00  0.00     0.081 C  
HETATM   25  C   UNL     1      -8.519   1.721  68.098  1.00  0.00    -0.063 C  
ENDBRANCH  19  20
ENDBRANCH  18  19
ENDBRANCH  17  18
ENDBRANCH  16  17
ENDBRANCH   4  16
BRANCH   9  26
HETATM   26  N   UNL     1     -10.806  12.575  67.717  1.00  0.00    -0.218 N  
HETATM   27  O   UNL     1     -10.518  14.605  66.648  1.00  0.00    -0.271 OA 
HETATM   28  H   UNL     1     -11.302  12.211  68.531  1.00  0.00     0.000 HD 
HETATM   29  C   UNL     1     -10.742  13.965  67.671  1.00  0.00    -0.249 C  
BRANCH  29  30
HETATM   30  C   UNL     1     -11.060  14.712  68.914  1.00  0.00    -0.268 A  
HETATM   31  N   UNL     1     -10.553  16.236  70.715  1.00  0.00     0.249 NA 
HETATM   32  C   UNL     1     -10.210  15.549  69.603  1.00  0.00    -0.286 A  
HETATM   33  C   UNL     1     -11.803  16.045  71.168  1.00  0.00    -0.420 A  
HETATM   34  N   UNL     1     -12.720  15.289  70.571  1.00  0.00    -0.395 NA 
HETATM   35  N   UNL     1     -12.175  16.746  72.301  1.00  0.00    -0.259 NA 
HETATM   36  H1  UNL     1     -13.125  16.601  72.646  1.00  0.00     0.000 HD 
HETATM   37  C   UNL     1     -12.326  14.629  69.459  1.00  0.00    -0.195 A  
HETATM   38  H2  UNL     1     -12.016  17.742  72.152  1.00  0.00     0.000 HD 
ENDBRANCH  29  30
ENDBRANCH   9  26
ENDBRANCH   2   3
TORSDOF 8
ENDMDL
MODEL      132
REMARK 921   NORMALIZED FREE ENERGY PREDICTED BY IDOCK:   -3.05 KCAL/MOL
REMARK 922        TOTAL FREE ENERGY PREDICTED BY IDOCK:   -5.68 KCAL/MOL
REMARK 923 INTER-LIGAND FREE ENERGY PREDICTED BY IDOCK:   -5.56 KCAL/MOL
REMARK 924 INTRA-LIGAND FREE ENERGY PREDICTED BY IDOCK:   -0.12 KCAL/MOL
REMARK 927      BINDING AFFINITY PREDICTED BY RF-SCORE:    0.00 PKD
ROOT
HETATM    1  C   UNL     1     -11.123   6.003  67.248  1.00  0.00    -0.146 C  
HETATM    2  O   UNL     1      -9.822   5.843  66.690  1.00  0.00    -0.150 OA 
ENDROOT
BRANCH   2   3
HETATM    3  C   UNL     1      -8.769   6.088  67.545  1.00  0.00    -0.107 A  
HETATM    4  C   UNL     1      -8.105   4.935  68.052  1.00  0.00    -0.093 A  
HETATM    5  C   UNL     1      -7.003   5.073  68.912  1.00  0.00    -0.052 A  
HETATM    6  C   UNL     1      -6.739  10.656  70.311  1.00  0.00    -0.094 C  
HETATM    7  N   UNL     1      -7.074   9.772  68.267  1.00  0.00    -0.076 NA 
HETATM    8  C   UNL     1      -6.596   6.331  69.338  1.00  0.00    -0.044 A  
HETATM    9  C   UNL     1      -8.238   9.709  67.530  1.00  0.00    -0.114 A  
HETATM   10  C   UNL     1      -7.261   7.439  68.837  1.00  0.00    -0.089 A  
HETATM   11  C   UNL     1      -6.416  10.924  68.844  1.00  0.00    -0.049 C  
HETATM   12  C   UNL     1      -8.316   7.375  67.907  1.00  0.00    -0.119 A  
HETATM   13  N   UNL     1      -8.887   8.583  67.378  1.00  0.00    -0.133 NA 
HETATM   14  C   UNL     1      -6.910   8.790  69.229  1.00  0.00    -0.050 A  
HETATM   15  N   UNL     1      -6.608   9.166  70.452  1.00  0.00    -0.047 NA 
BRANCH   4  16
HETATM   16  O   UNL     1      -8.566   3.694  67.653  1.00  0.00    -0.093 OA 
BRANCH  16  17
HETATM   17  C   UNL     1      -8.598   3.482  66.232  1.00  0.00    -0.117 C  
BRANCH  17  18
HETATM   18  C   UNL     1      -7.276   2.870  65.772  1.00  0.00    -0.066 C  
BRANCH  18  19
HETATM   19  C   UNL     1      -6.211   3.934  65.452  1.00  0.00    -0.027 C  
BRANCH  19  20
HETATM   20  N   UNL     1      -5.797   3.974  64.040  1.00  0.00    -0.014 NA 
HETATM   21  O   UNL     1      -7.630   5.689  62.501  1.00  0.00    -0.054 OA 
HETATM   22  C   UNL     1      -6.829   3.458  63.110  1.00  0.00    -0.032 C  
HETATM   23  C   UNL     1      -5.454   5.349  63.604  1.00  0.00    -0.013 C  
HETATM   24  C   UNL     1      -6.672   6.269  63.395  1.00  0.00    -0.040 C  
HETATM   25  C   UNL     1      -8.038   4.394  62.957  1.00  0.00    -0.084 C  
ENDBRANCH  19  20
ENDBRANCH  18  19
ENDBRANCH  17  18
ENDBRANCH  16  17
ENDBRANCH   4  16
BRANCH   9  26
HETATM   26  N   UNL     1      -8.923  10.782  66.986  1.00  0.00    -0.141 N  
HETATM   27  O   UNL     1     -10.768  11.166  68.325  1.00  0.00    -0.174 OA 
HETATM   28  H   UNL     1      -8.420  11.254  66.235  1.00  0.00     0.000 HD 
HETATM   29  C   UNL     1     -10.168  11.338  67.268  1.00  0.00    -0.194 C  
BRANCH  29  30
HETATM   30  C   UNL     1     -10.750  12.270  66.271  1.00  0.00    -0.293 A  
HETATM   31  N   UNL     1     -11.011  13.179  64.050  1.00  0.00    -0.385 NA 
HETATM   32  C   UNL     1     -10.431  12.334  64.932  1.00  0.00    -0.289 A  
HETATM   33  C   UNL     1     -11.933  14.018  64.552  1.00  0.00    -0.448 A  
HETATM   34  N   UNL     1     -12.344  14.027  65.816  1.00  0.00    -0.457 NA 
HETATM   35  N   UNL     1     -12.543  14.886  63.663  1.00  0.00    -0.899 NA 
HETATM   36  H1  UNL     1     -13.244  15.523  64.044  1.00  0.00     0.000 HD 
HETATM   37  C   UNL     1     -11.736  13.157  66.653  1.00  0.00    -0.375 A  
HETATM   38  H2  UNL     1     -12.950  14.354  62.893  1.00  0.00     0.000 HD 
ENDBRANCH  29  30
ENDBRANCH   9  26
ENDBRANCH   2   3
TORSDOF 8
ENDMDL
MODEL      133
REMARK 921   NORMALIZED FREE ENERGY PREDICTED BY IDOCK:   -2.62 KCAL/MOL
REMARK 922        TOTAL FREE ENERGY PREDICTED BY IDOCK:   -5.05 KCAL/MOL
REMARK 923 INTER-LIGAND FREE ENERGY PREDICTED BY IDOCK:   -3.99 KCAL/MOL
REMARK 924 INTRA-LIGAND FREE ENERGY PREDICTED BY IDOCK:   -1.06 KCAL/MOL
REMARK 927      BINDING AFFINITY PREDICTED BY RF-SCORE:    0.00 PKD
ROOT
HETATM    1  C   UNL     1      -8.753   6.394  70.405  1.00  0.00    -0.147 C  
HETATM    2  O   UNL     1      -7.334   6.493  70.336  1.00  0.00    -0.080 OA 
ENDROOT
BRANCH   2   3
HETATM    3  C   UNL     1      -6.791   6.457  69.069  1.00  0.00    -0.066 A  
HETATM    4  C   UNL     1      -6.114   5.253  68.722  1.00  0.00    -0.026 A  
HETATM    5  C   UNL     1      -5.547   5.103  67.446  1.00  0.00    -0.013 A  
HETATM    6  C   UNL     1      -5.841  10.278  64.930  1.00  0.00    -0.135 C  
HETATM    7  N   UNL     1      -7.457   9.231  66.097  1.00  0.00    -0.095 NA 
HETATM    8  C   UNL     1      -5.573   6.152  66.536  1.00  0.00    -0.013 A  
HETATM    9  C   UNL     1      -7.918   9.496  67.369  1.00  0.00    -0.106 A  
HETATM   10  C   UNL     1      -6.232   7.316  66.897  1.00  0.00    -0.043 A  
HETATM   11  C   UNL     1      -7.357  10.113  64.955  1.00  0.00    -0.139 C  
HETATM   12  C   UNL     1      -6.895   7.501  68.125  1.00  0.00    -0.063 A  
HETATM   13  N   UNL     1      -7.626   8.713  68.376  1.00  0.00    -0.095 NA 
HETATM   14  C   UNL     1      -6.306   8.466  66.016  1.00  0.00    -0.053 A  
HETATM   15  N   UNL     1      -5.315   8.914  65.278  1.00  0.00    -0.038 NA 
BRANCH   4  16
HETATM   16  O   UNL     1      -6.057   4.246  69.667  1.00  0.00    -0.021 OA 
BRANCH  16  17
HETATM   17  C   UNL     1      -6.483   2.953  69.207  1.00  0.00    -0.029 C  
BRANCH  17  18
HETATM   18  C   UNL     1      -8.009   2.896  69.168  1.00  0.00    -0.062 C  
BRANCH  18  19
HETATM   19  C   UNL     1      -8.569   3.017  67.740  1.00  0.00    -0.097 C  
BRANCH  19  20
HETATM   20  N   UNL     1      -8.246   1.880  66.862  1.00  0.00    -0.074 NA 
HETATM   21  O   UNL     1      -8.369   2.720  64.042  1.00  0.00    -0.085 OA 
HETATM   22  C   UNL     1      -9.347   1.520  65.938  1.00  0.00     0.109 C  
HETATM   23  C   UNL     1      -7.043   2.146  66.037  1.00  0.00    -0.055 C  
HETATM   24  C   UNL     1      -7.276   3.129  64.875  1.00  0.00    -0.069 C  
HETATM   25  C   UNL     1      -9.564   2.545  64.814  1.00  0.00    -0.052 C  
ENDBRANCH  19  20
ENDBRANCH  18  19
ENDBRANCH  17  18
ENDBRANCH  16  17
ENDBRANCH   4  16
BRANCH   9  26
HETATM   26  N   UNL     1      -8.605  10.628  67.773  1.00  0.00    -0.122 N  
HETATM   27  O   UNL     1     -10.763   9.975  68.283  1.00  0.00    -0.213 OA 
HETATM   28  H   UNL     1      -8.010  11.447  67.902  1.00  0.00     0.000 HD 
HETATM   29  C   UNL     1      -9.952  10.862  68.036  1.00  0.00    -0.171 C  
BRANCH  29  30
HETATM   30  C   UNL     1     -10.404  12.273  68.117  1.00  0.00    -0.221 A  
HETATM   31  N   UNL     1     -12.061  14.002  68.414  1.00  0.00    -0.336 NA 
HETATM   32  C   UNL     1     -11.698  12.704  68.313  1.00  0.00    -0.342 A  
HETATM   33  C   UNL     1     -11.076  14.906  68.279  1.00  0.00    -0.282 A  
HETATM   34  N   UNL     1      -9.790  14.609  68.117  1.00  0.00    -0.219 NA 
HETATM   35  N   UNL     1     -11.427  16.240  68.385  1.00  0.00    -0.318 NA 
HETATM   36  H1  UNL     1     -10.679  16.927  68.282  1.00  0.00     0.000 HD 
HETATM   37  C   UNL     1      -9.481  13.296  68.030  1.00  0.00    -0.219 A  
HETATM   38  H2  UNL     1     -11.911  16.394  69.270  1.00  0.00     0.000 HD 
ENDBRANCH  29  30
ENDBRANCH   9  26
ENDBRANCH   2   3
TORSDOF 8
ENDMDL
MODEL      134
REMARK 921   NORMALIZED FREE ENERGY PREDICTED BY IDOCK:   -2.41 KCAL/MOL
REMARK 922        TOTAL FREE ENERGY PREDICTED BY IDOCK:   -4.73 KCAL/MOL
REMARK 923 INTER-LIGAND FREE ENERGY PREDICTED BY IDOCK:   -5.27 KCAL/MOL
REMARK 924 INTRA-LIGAND FREE ENERGY PREDICTED BY IDOCK:    0.53 KCAL/MOL
REMARK 927      BINDING AFFINITY PREDICTED BY RF-SCORE:    0.00 PKD
ROOT
HETATM    1  C   UNL     1      -5.603  13.616  68.353  1.00  0.00    -0.096 C  
HETATM    2  O   UNL     1      -6.638  14.523  68.721  1.00  0.00    -0.081 OA 
ENDROOT
BRANCH   2   3
HETATM    3  C   UNL     1      -7.646  14.690  67.796  1.00  0.00    -0.160 A  
HETATM    4  C   UNL     1      -7.916  16.034  67.414  1.00  0.00    -0.159 A  
HETATM    5  C   UNL     1      -8.907  16.313  66.459  1.00  0.00    -0.318 A  
HETATM    6  C   UNL     1     -11.709  11.362  65.549  1.00  0.00     0.392 C  
HETATM    7  N   UNL     1      -9.482  11.668  65.682  1.00  0.00    -0.226 NA 
HETATM    8  C   UNL     1      -9.686  15.290  65.934  1.00  0.00    -0.390 A  
HETATM    9  C   UNL     1      -8.620  11.335  66.706  1.00  0.00    -0.159 A  
HETATM   10  C   UNL     1      -9.410  13.990  66.325  1.00  0.00    -0.199 A  
HETATM   11  C   UNL     1     -10.409  10.830  64.953  1.00  0.00    -0.299 C  
HETATM   12  C   UNL     1      -8.376  13.633  67.211  1.00  0.00    -0.171 A  
HETATM   13  N   UNL     1      -8.110  12.248  67.490  1.00  0.00    -0.159 NA 
HETATM   14  C   UNL     1     -10.174  12.858  65.834  1.00  0.00    -0.290 A  
HETATM   15  N   UNL     1     -11.479  12.840  65.680  1.00  0.00    -0.326 NA 
BRANCH   4  16
HETATM   16  O   UNL     1      -7.161  17.037  67.994  1.00  0.00    -0.160 OA 
BRANCH  16  17
HETATM   17  C   UNL     1      -5.803  17.122  67.533  1.00  0.00    -0.134 C  
BRANCH  17  18
HETATM   18  C   UNL     1      -5.192  18.452  67.971  1.00  0.00    -0.166 C  
BRANCH  18  19
HETATM   19  C   UNL     1      -5.671  18.892  69.365  1.00  0.00    -0.225 C  
BRANCH  19  20
HETATM   20  N   UNL     1      -6.299  20.224  69.399  1.00  0.00    -0.313 NA 
HETATM   21  O   UNL     1      -8.324  20.436  67.271  1.00  0.00    -0.338 OA 
HETATM   22  C   UNL     1      -6.109  20.995  68.148  1.00  0.00    -0.337 C  
HETATM   23  C   UNL     1      -7.758  20.139  69.650  1.00  0.00     0.471 C  
HETATM   24  C   UNL     1      -8.582  19.651  68.443  1.00  0.00    -0.315 C  
HETATM   25  C   UNL     1      -6.925  20.453  66.964  1.00  0.00    -0.276 C  
ENDBRANCH  19  20
ENDBRANCH  18  19
ENDBRANCH  17  18
ENDBRANCH  16  17
ENDBRANCH   4  16
BRANCH   9  26
HETATM   26  N   UNL     1      -8.291  10.054  67.115  1.00  0.00    -0.121 N  
HETATM   27  O   UNL     1      -6.107   9.667  66.462  1.00  0.00    -0.058 OA 
HETATM   28  H   UNL     1      -8.988   9.622  67.722  1.00  0.00     0.000 HD 
HETATM   29  C   UNL     1      -7.190   9.243  66.856  1.00  0.00    -0.086 C  
BRANCH  29  30
HETATM   30  C   UNL     1      -7.308   7.797  67.171  1.00  0.00    -0.091 A  
HETATM   31  N   UNL     1      -8.357   5.884  68.201  1.00  0.00    -0.115 NA 
HETATM   32  C   UNL     1      -8.268   7.212  67.967  1.00  0.00    -0.120 A  
HETATM   33  C   UNL     1      -7.414   5.116  67.628  1.00  0.00    -0.083 A  
HETATM   34  N   UNL     1      -6.460   5.563  66.818  1.00  0.00    -0.045 NA 
HETATM   35  N   UNL     1      -7.493   3.753  67.851  1.00  0.00    -0.066 NA 
HETATM   36  H1  UNL     1      -6.777   3.169  67.417  1.00  0.00     0.000 HD 
HETATM   37  C   UNL     1      -6.421   6.898  66.613  1.00  0.00    -0.047 A  
HETATM   38  H2  UNL     1      -8.417   3.417  67.578  1.00  0.00     0.000 HD 
ENDBRANCH  29  30
ENDBRANCH   9  26
ENDBRANCH   2   3
TORSDOF 8
ENDMDL
MODEL      135
REMARK 921   NORMALIZED FREE ENERGY PREDICTED BY IDOCK:   -2.37 KCAL/MOL
REMARK 922        TOTAL FREE ENERGY PREDICTED BY IDOCK:   -4.69 KCAL/MOL
REMARK 923 INTER-LIGAND FREE ENERGY PREDICTED BY IDOCK:   -5.42 KCAL/MOL
REMARK 924 INTRA-LIGAND FREE ENERGY PREDICTED BY IDOCK:    0.73 KCAL/MOL
REMARK 927      BINDING AFFINITY PREDICTED BY RF-SCORE:    0.00 PKD
ROOT
HETATM    1  C   UNL     1      -9.398   7.125  67.113  1.00  0.00    -0.140 C  
HETATM    2  O   UNL     1      -9.186   8.257  67.953  1.00  0.00    -0.132 OA 
ENDROOT
BRANCH   2   3
HETATM    3  C   UNL     1      -9.996   8.339  69.064  1.00  0.00    -0.189 A  
HETATM    4  C   UNL     1     -10.110   7.146  69.834  1.00  0.00    -0.191 A  
HETATM    5  C   UNL     1     -10.891   7.129  71.001  1.00  0.00    -0.262 A  
HETATM    6  C   UNL     1     -13.775  12.116  71.085  1.00  0.00     1.221 C  
HETATM    7  N   UNL     1     -11.595  11.805  70.613  1.00  0.00     0.086 NA 
HETATM    8  C   UNL     1     -11.622   8.249  71.376  1.00  0.00    -0.322 A  
HETATM    9  C   UNL     1     -10.957  11.855  69.392  1.00  0.00    -0.095 A  
HETATM   10  C   UNL     1     -11.502   9.397  70.608  1.00  0.00    -0.344 A  
HETATM   11  C   UNL     1     -12.423  12.801  71.258  1.00  0.00    -0.185 C  
HETATM   12  C   UNL     1     -10.670   9.509  69.478  1.00  0.00    -0.228 A  
HETATM   13  N   UNL     1     -10.544  10.767  68.795  1.00  0.00    -0.187 NA 
HETATM   14  C   UNL     1     -12.230  10.612  70.918  1.00  0.00    -0.395 A  
HETATM   15  N   UNL     1     -13.483  10.660  71.310  1.00  0.00    -0.117 NA 
BRANCH   4  16
HETATM   16  O   UNL     1      -9.414   6.031  69.407  1.00  0.00    -0.132 OA 
BRANCH  16  17
HETATM   17  C   UNL     1      -8.096   5.885  69.961  1.00  0.00    -0.109 C  
BRANCH  17  18
HETATM   18  C   UNL     1      -8.165   5.065  71.248  1.00  0.00    -0.116 C  
BRANCH  18  19
HETATM   19  C   UNL     1      -7.732   3.603  71.042  1.00  0.00    -0.047 C  
BRANCH  19  20
HETATM   20  N   UNL     1      -8.681   2.608  71.571  1.00  0.00    -0.067 NA 
HETATM   21  O   UNL     1      -8.380   2.385  74.492  1.00  0.00    -0.064 OA 
HETATM   22  C   UNL     1      -8.019   1.470  72.251  1.00  0.00    -0.045 C  
HETATM   23  C   UNL     1      -9.631   3.211  72.537  1.00  0.00    -0.128 C  
HETATM   24  C   UNL     1      -9.017   3.531  73.913  1.00  0.00    -0.087 C  
HETATM   25  C   UNL     1      -7.394   1.843  73.604  1.00  0.00    -0.032 C  
ENDBRANCH  19  20
ENDBRANCH  18  19
ENDBRANCH  17  18
ENDBRANCH  16  17
ENDBRANCH   4  16
BRANCH   9  26
HETATM   26  N   UNL     1     -10.786  12.979  68.603  1.00  0.00    -0.254 N  
HETATM   27  O   UNL     1      -8.585  12.991  67.896  1.00  0.00    -0.166 OA 
HETATM   28  H   UNL     1     -11.656  13.464  68.381  1.00  0.00     0.000 HD 
HETATM   29  C   UNL     1      -9.653  13.574  68.054  1.00  0.00    -0.221 C  
BRANCH  29  30
HETATM   30  C   UNL     1      -9.781  14.962  67.542  1.00  0.00    -0.212 A  
HETATM   31  N   UNL     1     -10.447  17.276  67.703  1.00  0.00    -0.356 NA 
HETATM   32  C   UNL     1     -10.382  16.018  68.193  1.00  0.00    -0.260 A  
HETATM   33  C   UNL     1      -9.908  17.467  66.486  1.00  0.00    -0.310 A  
HETATM   34  N   UNL     1      -9.278  16.534  65.780  1.00  0.00    -0.491 NA 
HETATM   35  N   UNL     1      -9.959  18.750  65.971  1.00  0.00    -0.523 NA 
HETATM   36  H1  UNL     1      -9.551  18.896  65.047  1.00  0.00     0.000 HD 
HETATM   37  C   UNL     1      -9.235  15.296  66.319  1.00  0.00    -0.315 A  
HETATM   38  H2  UNL     1      -9.539  19.400  66.635  1.00  0.00     0.000 HD 
ENDBRANCH  29  30
ENDBRANCH   9  26
ENDBRANCH   2   3
TORSDOF 8
ENDMDL
MODEL      136
REMARK 921   NORMALIZED FREE ENERGY PREDICTED BY IDOCK:   -2.37 KCAL/MOL
REMARK 922        TOTAL FREE ENERGY PREDICTED BY IDOCK:   -4.68 KCAL/MOL
REMARK 923 INTER-LIGAND FREE ENERGY PREDICTED BY IDOCK:   -4.57 KCAL/MOL
REMARK 924 INTRA-LIGAND FREE ENERGY PREDICTED BY IDOCK:   -0.10 KCAL/MOL
REMARK 927      BINDING AFFINITY PREDICTED BY RF-SCORE:    0.00 PKD
ROOT
HETATM    1  C   UNL     1      -7.268   9.191  67.167  1.00  0.00    -0.086 C  
HETATM    2  O   UNL     1      -6.899   8.547  68.382  1.00  0.00    -0.063 OA 
ENDROOT
BRANCH   2   3
HETATM    3  C   UNL     1      -7.940   8.050  69.138  1.00  0.00    -0.114 A  
HETATM    4  C   UNL     1      -7.792   6.706  69.582  1.00  0.00    -0.115 A  
HETATM    5  C   UNL     1      -8.784   6.111  70.380  1.00  0.00    -0.142 A  
HETATM    6  C   UNL     1     -13.246   9.756  70.389  1.00  0.00     0.255 C  
HETATM    7  N   UNL     1     -11.068  10.260  70.654  1.00  0.00    -0.319 NA 
HETATM    8  C   UNL     1      -9.952   6.799  70.680  1.00  0.00    -0.201 A  
HETATM    9  C   UNL     1     -10.202  10.858  69.764  1.00  0.00     0.129 A  
HETATM   10  C   UNL     1     -10.077   8.105  70.231  1.00  0.00    -0.192 A  
HETATM   11  C   UNL     1     -12.346  10.727  71.145  1.00  0.00    -0.393 C  
HETATM   12  C   UNL     1      -9.086   8.789  69.503  1.00  0.00    -0.146 A  
HETATM   13  N   UNL     1      -9.270  10.172  69.155  1.00  0.00    -0.186 NA 
HETATM   14  C   UNL     1     -11.263   8.899  70.491  1.00  0.00    -0.252 A  
HETATM   15  N   UNL     1     -12.498   8.454  70.424  1.00  0.00     0.430 NA 
BRANCH   4  16
HETATM   16  O   UNL     1      -6.643   6.026  69.223  1.00  0.00    -0.046 OA 
BRANCH  16  17
HETATM   17  C   UNL     1      -6.745   4.593  69.261  1.00  0.00    -0.045 C  
BRANCH  17  18
HETATM   18  C   UNL     1      -5.669   3.976  68.369  1.00  0.00    -0.025 C  
BRANCH  18  19
HETATM   19  C   UNL     1      -5.430   4.787  67.084  1.00  0.00    -0.013 C  
BRANCH  19  20
HETATM   20  N   UNL     1      -5.632   4.027  65.839  1.00  0.00    -0.017 NA 
HETATM   21  O   UNL     1      -8.327   2.839  65.813  1.00  0.00    -0.087 OA 
HETATM   22  C   UNL     1      -5.906   2.589  66.067  1.00  0.00    -0.022 C  
HETATM   23  C   UNL     1      -6.756   4.571  65.038  1.00  0.00    -0.048 C  
HETATM   24  C   UNL     1      -8.152   4.246  65.602  1.00  0.00    -0.105 C  
HETATM   25  C   UNL     1      -7.297   2.316  66.660  1.00  0.00    -0.061 C  
ENDBRANCH  19  20
ENDBRANCH  18  19
ENDBRANCH  17  18
ENDBRANCH  16  17
ENDBRANCH   4  16
BRANCH   9  26
HETATM   26  N   UNL     1     -10.267  12.164  69.308  1.00  0.00    -0.392 N  
HETATM   27  O   UNL     1     -11.962  12.256  67.738  1.00  0.00    -0.474 OA 
HETATM   28  H   UNL     1      -9.690  12.816  69.839  1.00  0.00     0.000 HD 
HETATM   29  C   UNL     1     -10.972  12.757  68.263  1.00  0.00    -0.252 C  
BRANCH  29  30
HETATM   30  C   UNL     1     -10.555  14.114  67.832  1.00  0.00    -0.244 A  
HETATM   31  N   UNL     1     -10.961  16.338  66.988  1.00  0.00    -0.166 NA 
HETATM   32  C   UNL     1     -11.380  15.101  67.339  1.00  0.00    -0.306 A  
HETATM   33  C   UNL     1      -9.645  16.576  67.113  1.00  0.00    -0.240 A  
HETATM   34  N   UNL     1      -8.760  15.714  67.604  1.00  0.00    -0.172 NA 
HETATM   35  N   UNL     1      -9.199  17.839  66.765  1.00  0.00    -0.265 NA 
HETATM   36  H1  UNL     1      -8.199  18.020  66.859  1.00  0.00     0.000 HD 
HETATM   37  C   UNL     1      -9.233  14.495  67.946  1.00  0.00    -0.196 A  
HETATM   38  H2  UNL     1      -9.722  18.541  67.289  1.00  0.00     0.000 HD 
ENDBRANCH  29  30
ENDBRANCH   9  26
ENDBRANCH   2   3
TORSDOF 8
ENDMDL
MODEL      137
REMARK 921   NORMALIZED FREE ENERGY PREDICTED BY IDOCK:   -2.31 KCAL/MOL
REMARK 922        TOTAL FREE ENERGY PREDICTED BY IDOCK:   -4.59 KCAL/MOL
REMARK 923 INTER-LIGAND FREE ENERGY PREDICTED BY IDOCK:   -4.55 KCAL/MOL
REMARK 924 INTRA-LIGAND FREE ENERGY PREDICTED BY IDOCK:   -0.04 KCAL/MOL
REMARK 927      BINDING AFFINITY PREDICTED BY RF-SCORE:    0.00 PKD
ROOT
HETATM    1  C   UNL     1      -5.656  16.378  66.531  1.00  0.00     0.591 C  
HETATM    2  O   UNL     1      -6.671  15.587  67.142  1.00  0.00    -0.259 OA 
ENDROOT
BRANCH   2   3
HETATM    3  C   UNL     1      -6.361  15.067  68.381  1.00  0.00    -0.107 A  
HETATM    4  C   UNL     1      -5.973  16.017  69.368  1.00  0.00    -0.141 A  
HETATM    5  C   UNL     1      -5.660  15.595  70.671  1.00  0.00    -0.081 A  
HETATM    6  C   UNL     1      -5.455   9.840  70.499  1.00  0.00    -0.048 C  
HETATM    7  N   UNL     1      -7.013  11.181  69.581  1.00  0.00    -0.119 NA 
HETATM    8  C   UNL     1      -5.652  14.244  70.991  1.00  0.00    -0.190 A  
HETATM    9  C   UNL     1      -7.203  11.508  68.254  1.00  0.00    -0.084 A  
HETATM   10  C   UNL     1      -6.027  13.337  70.012  1.00  0.00    -0.134 A  
HETATM   11  C   UNL     1      -6.951   9.876  70.204  1.00  0.00    -0.138 C  
HETATM   12  C   UNL     1      -6.435  13.697  68.714  1.00  0.00    -0.097 A  
HETATM   13  N   UNL     1      -6.890  12.691  67.794  1.00  0.00    -0.111 NA 
HETATM   14  C   UNL     1      -6.044  11.906  70.252  1.00  0.00    -0.103 A  
HETATM   15  N   UNL     1      -5.126  11.244  70.920  1.00  0.00    -0.105 NA 
BRANCH   4  16
HETATM   16  O   UNL     1      -5.937  17.350  69.007  1.00  0.00    -0.180 OA 
BRANCH  16  17
HETATM   17  C   UNL     1      -6.740  18.224  69.818  1.00  0.00     0.094 C  
BRANCH  17  18
HETATM   18  C   UNL     1      -6.373  19.678  69.529  1.00  0.00    -0.363 C  
BRANCH  18  19
HETATM   19  C   UNL     1      -5.628  19.846  68.193  1.00  0.00    -0.210 C  
BRANCH  19  20
HETATM   20  N   UNL     1      -6.151  20.924  67.337  1.00  0.00    -0.254 NA 
HETATM   21  O   UNL     1      -6.995  19.826  64.738  1.00  0.00    -0.324 OA 
HETATM   22  C   UNL     1      -5.389  21.096  66.078  1.00  0.00    -0.223 C  
HETATM   23  C   UNL     1      -7.570  20.697  66.969  1.00  0.00    -0.275 C  
HETATM   24  C   UNL     1      -7.782  19.596  65.914  1.00  0.00    -0.298 C  
HETATM   25  C   UNL     1      -5.607  19.959  65.069  1.00  0.00    -0.174 C  
ENDBRANCH  19  20
ENDBRANCH  18  19
ENDBRANCH  17  18
ENDBRANCH  16  17
ENDBRANCH   4  16
BRANCH   9  26
HETATM   26  N   UNL     1      -7.603  10.647  67.247  1.00  0.00    -0.098 N  
HETATM   27  O   UNL     1      -9.229   9.263  68.136  1.00  0.00    -0.131 OA 
HETATM   28  H   UNL     1      -7.231  10.885  66.328  1.00  0.00     0.000 HD 
HETATM   29  C   UNL     1      -8.418   9.517  67.250  1.00  0.00    -0.128 C  
BRANCH  29  30
HETATM   30  C   UNL     1      -8.368   8.627  66.064  1.00  0.00    -0.135 A  
HETATM   31  N   UNL     1      -8.133   8.173  63.706  1.00  0.00    -0.142 NA 
HETATM   32  C   UNL     1      -8.206   9.022  64.754  1.00  0.00    -0.160 A  
HETATM   33  C   UNL     1      -8.260   6.866  63.991  1.00  0.00     0.075 A  
HETATM   34  N   UNL     1      -8.389   6.365  65.216  1.00  0.00    -0.146 NA 
HETATM   35  N   UNL     1      -8.181   5.980  62.931  1.00  0.00    -0.223 NA 
HETATM   36  H1  UNL     1      -8.278   4.987  63.148  1.00  0.00     0.000 HD 
HETATM   37  C   UNL     1      -8.450   7.259  66.229  1.00  0.00    -0.134 A  
HETATM   38  H2  UNL     1      -7.310   6.134  62.424  1.00  0.00     0.000 HD 
ENDBRANCH  29  30
ENDBRANCH   9  26
ENDBRANCH   2   3
TORSDOF 8
ENDMDL
MODEL      138
REMARK 921   NORMALIZED FREE ENERGY PREDICTED BY IDOCK:   -2.27 KCAL/MOL
REMARK 922        TOTAL FREE ENERGY PREDICTED BY IDOCK:   -4.53 KCAL/MOL
REMARK 923 INTER-LIGAND FREE ENERGY PREDICTED BY IDOCK:   -5.13 KCAL/MOL
REMARK 924 INTRA-LIGAND FREE ENERGY PREDICTED BY IDOCK:    0.61 KCAL/MOL
REMARK 927      BINDING AFFINITY PREDICTED BY RF-SCORE:    0.00 PKD
ROOT
HETATM    1  C   UNL     1      -9.309   7.711  66.920  1.00  0.00    -0.161 C  
HETATM    2  O   UNL     1      -9.450   8.092  68.285  1.00  0.00    -0.141 OA 
ENDROOT
BRANCH   2   3
HETATM    3  C   UNL     1      -8.276   8.227  68.994  1.00  0.00    -0.119 A  
HETATM    4  C   UNL     1      -7.677   7.012  69.432  1.00  0.00    -0.108 A  
HETATM    5  C   UNL     1      -6.465   7.037  70.142  1.00  0.00    -0.039 A  
HETATM    6  C   UNL     1      -5.439  12.565  71.395  1.00  0.00     0.023 C  
HETATM    7  N   UNL     1      -6.126  11.714  69.427  1.00  0.00    -0.077 NA 
HETATM    8  C   UNL     1      -5.877   8.246  70.490  1.00  0.00    -0.028 A  
HETATM    9  C   UNL     1      -7.375  11.771  68.846  1.00  0.00    -0.093 A  
HETATM   10  C   UNL     1      -6.481   9.416  70.058  1.00  0.00    -0.057 A  
HETATM   11  C   UNL     1      -5.281  12.792  69.895  1.00  0.00    -0.087 C  
HETATM   12  C   UNL     1      -7.647   9.461  69.271  1.00  0.00    -0.081 A  
HETATM   13  N   UNL     1      -8.152  10.721  68.799  1.00  0.00    -0.134 NA 
HETATM   14  C   UNL     1      -5.943  10.725  70.378  1.00  0.00    -0.128 A  
HETATM   15  N   UNL     1      -5.448  11.071  71.545  1.00  0.00    -0.332 NA 
BRANCH   4  16
HETATM   16  O   UNL     1      -8.313   5.826  69.118  1.00  0.00    -0.103 OA 
BRANCH  16  17
HETATM   17  C   UNL     1      -7.450   4.778  68.645  1.00  0.00    -0.065 C  
BRANCH  17  18
HETATM   18  C   UNL     1      -7.195   4.956  67.149  1.00  0.00    -0.077 C  
BRANCH  18  19
HETATM   19  C   UNL     1      -6.525   3.725  66.513  1.00  0.00    -0.037 C  
BRANCH  19  20
HETATM   20  N   UNL     1      -7.229   3.191  65.335  1.00  0.00    -0.065 NA 
HETATM   21  O   UNL     1      -9.645   4.788  64.799  1.00  0.00    -0.098 OA 
HETATM   22  C   UNL     1      -8.607   2.734  65.632  1.00  0.00    -0.107 C  
HETATM   23  C   UNL     1      -7.320   4.194  64.246  1.00  0.00    -0.070 C  
HETATM   24  C   UNL     1      -8.346   5.314  64.499  1.00  0.00    -0.138 C  
HETATM   25  C   UNL     1      -9.588   3.884  65.909  1.00  0.00    -0.181 C  
ENDBRANCH  19  20
ENDBRANCH  18  19
ENDBRANCH  17  18
ENDBRANCH  16  17
ENDBRANCH   4  16
BRANCH   9  26
HETATM   26  N   UNL     1      -8.008  12.909  68.375  1.00  0.00    -0.172 N  
HETATM   27  O   UNL     1      -8.774  12.433  66.245  1.00  0.00    -0.061 OA 
HETATM   28  H   UNL     1      -8.135  13.633  69.081  1.00  0.00     0.000 HD 
HETATM   29  C   UNL     1      -8.505  13.252  67.120  1.00  0.00    -0.176 C  
BRANCH  29  30
HETATM   30  C   UNL     1      -8.817  14.680  66.868  1.00  0.00    -0.267 A  
HETATM   31  N   UNL     1      -8.511  17.053  67.187  1.00  0.00    -0.196 NA 
HETATM   32  C   UNL     1      -8.218  15.764  67.471  1.00  0.00    -0.162 A  
HETATM   33  C   UNL     1      -9.476  17.253  66.273  1.00  0.00    -0.234 A  
HETATM   34  N   UNL     1     -10.101  16.289  65.604  1.00  0.00    -0.489 NA 
HETATM   35  N   UNL     1      -9.786  18.566  65.964  1.00  0.00    -0.529 NA 
HETATM   36  H1  UNL     1     -10.519  18.719  65.270  1.00  0.00     0.000 HD 
HETATM   37  C   UNL     1      -9.764  15.020  65.922  1.00  0.00    -0.342 A  
HETATM   38  H2  UNL     1      -8.939  19.057  65.677  1.00  0.00     0.000 HD 
ENDBRANCH  29  30
ENDBRANCH   9  26
ENDBRANCH   2   3
TORSDOF 8
ENDMDL
MODEL      139
REMARK 921   NORMALIZED FREE ENERGY PREDICTED BY IDOCK:   -2.10 KCAL/MOL
REMARK 922        TOTAL FREE ENERGY PREDICTED BY IDOCK:   -4.29 KCAL/MOL
REMARK 923 INTER-LIGAND FREE ENERGY PREDICTED BY IDOCK:   -5.48 KCAL/MOL
REMARK 924 INTRA-LIGAND FREE ENERGY PREDICTED BY IDOCK:    1.19 KCAL/MOL
REMARK 927      BINDING AFFINITY PREDICTED BY RF-SCORE:    0.00 PKD
ROOT
HETATM    1  C   UNL     1      -9.438   8.616  72.559  1.00  0.00    -0.177 C  
HETATM    2  O   UNL     1     -10.314   7.747  71.847  1.00  0.00    -0.197 OA 
ENDROOT
BRANCH   2   3
HETATM    3  C   UNL     1     -10.408   7.970  70.490  1.00  0.00    -0.202 A  
HETATM    4  C   UNL     1     -10.179   6.836  69.661  1.00  0.00    -0.187 A  
HETATM    5  C   UNL     1     -10.275   6.949  68.264  1.00  0.00    -0.201 A  
HETATM    6  C   UNL     1     -10.748  12.577  67.130  1.00  0.00    -0.237 C  
HETATM    7  N   UNL     1     -11.831  11.407  68.720  1.00  0.00    -0.399 NA 
HETATM    8  C   UNL     1     -10.519   8.181  67.673  1.00  0.00    -0.300 A  
HETATM    9  C   UNL     1     -11.623  11.399  70.083  1.00  0.00    -0.280 A  
HETATM   10  C   UNL     1     -10.733   9.273  68.499  1.00  0.00    -0.185 A  
HETATM   11  C   UNL     1     -12.097  12.524  67.839  1.00  0.00    -0.058 C  
HETATM   12  C   UNL     1     -10.737   9.213  69.905  1.00  0.00    -0.231 A  
HETATM   13  N   UNL     1     -11.055  10.382  70.678  1.00  0.00    -0.285 NA 
HETATM   14  C   UNL     1     -10.990  10.600  67.972  1.00  0.00    -0.282 A  
HETATM   15  N   UNL     1     -10.370  11.136  66.944  1.00  0.00    -0.222 NA 
BRANCH   4  16
HETATM   16  O   UNL     1      -9.884   5.633  70.276  1.00  0.00    -0.175 OA 
BRANCH  16  17
HETATM   17  C   UNL     1      -8.594   5.085  69.956  1.00  0.00    -0.098 C  
BRANCH  17  18
HETATM   18  C   UNL     1      -8.765   3.734  69.263  1.00  0.00    -0.131 C  
BRANCH  18  19
HETATM   19  C   UNL     1      -7.526   2.834  69.409  1.00  0.00    -0.044 C  
BRANCH  19  20
HETATM   20  N   UNL     1      -6.453   3.116  68.440  1.00  0.00    -0.035 NA 
HETATM   21  O   UNL     1      -7.561   3.223  65.714  1.00  0.00    -0.075 OA 
HETATM   22  C   UNL     1      -6.276   2.045  67.432  1.00  0.00    -0.024 C  
HETATM   23  C   UNL     1      -6.692   4.382  67.706  1.00  0.00    -0.051 C  
HETATM   24  C   UNL     1      -7.797   4.295  66.636  1.00  0.00    -0.098 C  
HETATM   25  C   UNL     1      -7.416   1.975  66.404  1.00  0.00    -0.062 C  
ENDBRANCH  19  20
ENDBRANCH  18  19
ENDBRANCH  17  18
ENDBRANCH  16  17
ENDBRANCH   4  16
BRANCH   9  26
HETATM   26  N   UNL     1     -11.849  12.452  70.953  1.00  0.00    -0.275 N  
HETATM   27  O   UNL     1     -13.694  13.604  70.169  1.00  0.00     1.058 OA 
HETATM   28  H   UNL     1     -11.280  12.417  71.799  1.00  0.00     0.000 HD 
HETATM   29  C   UNL     1     -12.703  13.549  70.892  1.00  0.00    -0.291 C  
BRANCH  29  30
HETATM   30  C   UNL     1     -12.453  14.672  71.830  1.00  0.00    -0.412 A  
HETATM   31  N   UNL     1     -11.314  16.671  72.560  1.00  0.00     0.278 NA 
HETATM   32  C   UNL     1     -11.486  15.645  71.697  1.00  0.00    -0.429 A  
HETATM   33  C   UNL     1     -12.137  16.696  73.622  1.00  0.00    -0.284 A  
HETATM   34  N   UNL     1     -13.123  15.832  73.840  1.00  0.00    -0.481 NA 
HETATM   35  N   UNL     1     -11.980  17.742  74.514  1.00  0.00     0.089 NA 
HETATM   36  H1  UNL     1     -12.605  17.762  75.321  1.00  0.00     0.000 HD 
HETATM   37  C   UNL     1     -13.256  14.830  72.942  1.00  0.00    -0.500 A  
HETATM   38  H2  UNL     1     -12.045  18.629  74.013  1.00  0.00     0.000 HD 
ENDBRANCH  29  30
ENDBRANCH   9  26
ENDBRANCH   2   3
TORSDOF 8
ENDMDL
MODEL      140
REMARK 921   NORMALIZED FREE ENERGY PREDICTED BY IDOCK:   -1.94 KCAL/MOL
REMARK 922        TOTAL FREE ENERGY PREDICTED BY IDOCK:   -4.04 KCAL/MOL
REMARK 923 INTER-LIGAND FREE ENERGY PREDICTED BY IDOCK:   -3.90 KCAL/MOL
REMARK 924 INTRA-LIGAND FREE ENERGY PREDICTED BY IDOCK:   -0.14 KCAL/MOL
REMARK 927      BINDING AFFINITY PREDICTED BY RF-SCORE:    0.00 PKD
ROOT
HETATM    1  C   UNL     1      -5.818   7.564  68.516  1.00  0.00    -0.027 C  
HETATM    2  O   UNL     1      -6.277   6.260  68.169  1.00  0.00    -0.029 OA 
ENDROOT
BRANCH   2   3
HETATM    3  C   UNL     1      -6.968   6.166  66.980  1.00  0.00    -0.072 A  
HETATM    4  C   UNL     1      -7.203   4.843  66.507  1.00  0.00    -0.077 A  
HETATM    5  C   UNL     1      -7.921   4.634  65.318  1.00  0.00    -0.095 A  
HETATM    6  C   UNL     1      -8.560   9.818  62.886  1.00  0.00    -0.195 C  
HETATM    7  N   UNL     1      -8.858   9.277  65.052  1.00  0.00    -0.193 NA 
HETATM    8  C   UNL     1      -8.343   5.713  64.551  1.00  0.00    -0.108 A  
HETATM    9  C   UNL     1      -8.051   9.558  66.134  1.00  0.00    -0.111 A  
HETATM   10  C   UNL     1      -8.097   6.991  65.028  1.00  0.00    -0.119 A  
HETATM   11  C   UNL     1      -9.437  10.180  64.081  1.00  0.00    -0.293 C  
HETATM   12  C   UNL     1      -7.461   7.270  66.252  1.00  0.00    -0.083 A  
HETATM   13  N   UNL     1      -7.328   8.628  66.704  1.00  0.00    -0.081 NA 
HETATM   14  C   UNL     1      -8.495   8.177  64.293  1.00  0.00     0.057 A  
HETATM   15  N   UNL     1      -8.386   8.330  62.993  1.00  0.00    -0.122 NA 
BRANCH   4  16
HETATM   16  O   UNL     1      -6.724   3.790  67.263  1.00  0.00    -0.045 OA 
BRANCH  16  17
HETATM   17  C   UNL     1      -7.693   3.167  68.124  1.00  0.00    -0.059 C  
BRANCH  17  18
HETATM   18  C   UNL     1      -7.062   2.877  69.485  1.00  0.00    -0.041 C  
BRANCH  18  19
HETATM   19  C   UNL     1      -8.038   3.109  70.651  1.00  0.00    -0.049 C  
BRANCH  19  20
HETATM   20  N   UNL     1      -8.764   4.389  70.591  1.00  0.00    -0.088 NA 
HETATM   21  O   UNL     1      -9.033   5.521  73.296  1.00  0.00    -0.124 OA 
HETATM   22  C   UNL     1     -10.025   4.386  71.368  1.00  0.00    -0.178 C  
HETATM   23  C   UNL     1      -7.938   5.515  71.090  1.00  0.00    -0.111 C  
HETATM   24  C   UNL     1      -7.769   5.547  72.620  1.00  0.00    -0.099 C  
HETATM   25  C   UNL     1      -9.808   4.386  72.890  1.00  0.00    -0.142 C  
ENDBRANCH  19  20
ENDBRANCH  18  19
ENDBRANCH  17  18
ENDBRANCH  16  17
ENDBRANCH   4  16
BRANCH   9  26
HETATM   26  N   UNL     1      -7.797  10.811  66.664  1.00  0.00    -0.134 N  
HETATM   27  O   UNL     1      -9.829  11.703  67.314  1.00  0.00    -0.186 OA 
HETATM   28  H   UNL     1      -6.806  11.012  66.793  1.00  0.00     0.000 HD 
HETATM   29  C   UNL     1      -8.638  11.850  67.054  1.00  0.00    -0.176 C  
BRANCH  29  30
HETATM   30  C   UNL     1      -8.032  13.189  67.262  1.00  0.00    -0.140 A  
HETATM   31  N   UNL     1      -7.938  15.587  67.006  1.00  0.00    -0.220 NA 
HETATM   32  C   UNL     1      -8.505  14.384  66.765  1.00  0.00    -0.044 A  
HETATM   33  C   UNL     1      -6.824  15.577  67.759  1.00  0.00    -0.161 A  
HETATM   34  N   UNL     1      -6.294  14.493  68.316  1.00  0.00    -0.109 NA 
HETATM   35  N   UNL     1      -6.232  16.800  68.022  1.00  0.00    -0.132 NA 
HETATM   36  H1  UNL     1      -5.387  16.792  68.593  1.00  0.00     0.000 HD 
HETATM   37  C   UNL     1      -6.904  13.317  68.048  1.00  0.00    -0.122 A  
HETATM   38  H2  UNL     1      -6.920  17.427  68.441  1.00  0.00     0.000 HD 
ENDBRANCH  29  30
ENDBRANCH   9  26
ENDBRANCH   2   3
TORSDOF 8
ENDMDL
MODEL      141
REMARK 921   NORMALIZED FREE ENERGY PREDICTED BY IDOCK:   -0.76 KCAL/MOL
REMARK 922        TOTAL FREE ENERGY PREDICTED BY IDOCK:   -2.32 KCAL/MOL
REMARK 923 INTER-LIGAND FREE ENERGY PREDICTED BY IDOCK:   -3.58 KCAL/MOL
REMARK 924 INTRA-LIGAND FREE ENERGY PREDICTED BY IDOCK:    1.26 KCAL/MOL
REMARK 927      BINDING AFFINITY PREDICTED BY RF-SCORE:    0.00 PKD
ROOT
HETATM    1  C   UNL     1     -11.160   5.671  66.574  1.00  0.00     0.092 C  
HETATM    2  O   UNL     1      -9.831   5.331  66.191  1.00  0.00    -0.164 OA 
ENDROOT
BRANCH   2   3
HETATM    3  C   UNL     1      -8.907   5.280  67.212  1.00  0.00    -0.105 A  
HETATM    4  C   UNL     1      -8.420   3.983  67.540  1.00  0.00    -0.099 A  
HETATM    5  C   UNL     1      -7.456   3.822  68.549  1.00  0.00    -0.054 A  
HETATM    6  C   UNL     1      -6.982   8.938  71.156  1.00  0.00    -0.089 C  
HETATM    7  N   UNL     1      -7.064   8.534  68.942  1.00  0.00    -0.062 NA 
HETATM    8  C   UNL     1      -7.024   4.914  69.290  1.00  0.00    -0.051 A  
HETATM    9  C   UNL     1      -8.102   8.749  68.059  1.00  0.00    -0.107 A  
HETATM   10  C   UNL     1      -7.517   6.167  68.959  1.00  0.00    -0.087 A  
HETATM   11  C   UNL     1      -6.416   9.464  69.841  1.00  0.00    -0.046 C  
HETATM   12  C   UNL     1      -8.416   6.409  67.904  1.00  0.00    -0.118 A  
HETATM   13  N   UNL     1      -8.804   7.755  67.580  1.00  0.00    -0.124 NA 
HETATM   14  C   UNL     1      -7.127   7.364  69.680  1.00  0.00    -0.072 A  
HETATM   15  N   UNL     1      -6.989   7.446  70.984  1.00  0.00    -0.058 NA 
BRANCH   4  16
HETATM   16  O   UNL     1      -8.908   2.907  66.821  1.00  0.00    -0.124 OA 
BRANCH  16  17
HETATM   17  C   UNL     1      -9.092   3.145  65.416  1.00  0.00    -0.150 C  
BRANCH  17  18
HETATM   18  C   UNL     1      -7.974   2.466  64.627  1.00  0.00    -0.077 C  
BRANCH  18  19
HETATM   19  C   UNL     1      -7.082   1.577  65.512  1.00  0.00    -0.047 C  
BRANCH  19  20
HETATM   20  N   UNL     1      -5.637   1.790  65.325  1.00  0.00    -0.009 NA 
HETATM   21  O   UNL     1      -5.172   4.294  63.846  1.00  0.00    -0.011 OA 
HETATM   22  C   UNL     1      -5.231   1.848  63.902  1.00  0.00    -0.004 C  
HETATM   23  C   UNL     1      -5.178   3.045  65.969  1.00  0.00    -0.008 C  
HETATM   24  C   UNL     1      -5.584   4.327  65.219  1.00  0.00    -0.014 C  
HETATM   25  C   UNL     1      -5.684   3.130  63.186  1.00  0.00    -0.009 C  
ENDBRANCH  19  20
ENDBRANCH  18  19
ENDBRANCH  17  18
ENDBRANCH  16  17
ENDBRANCH   4  16
BRANCH   9  26
HETATM   26  N   UNL     1      -8.609   9.978  67.676  1.00  0.00    -0.118 N  
HETATM   27  O   UNL     1      -7.002  11.004  66.368  1.00  0.00    -0.134 OA 
HETATM   28  H   UNL     1      -9.594  10.109  67.908  1.00  0.00     0.000 HD 
HETATM   29  C   UNL     1      -8.032  11.070  67.033  1.00  0.00    -0.137 C  
BRANCH  29  30
HETATM   30  C   UNL     1      -8.761  12.362  67.077  1.00  0.00    -0.207 A  
HETATM   31  N   UNL     1      -8.965  14.718  67.557  1.00  0.00    -0.180 NA 
HETATM   32  C   UNL     1      -8.277  13.555  67.567  1.00  0.00    -0.183 A  
HETATM   33  C   UNL     1     -10.212  14.665  67.058  1.00  0.00    -0.261 A  
HETATM   34  N   UNL     1     -10.773  13.581  66.530  1.00  0.00    -0.285 NA 
HETATM   35  N   UNL     1     -10.930  15.847  67.033  1.00  0.00    -0.248 NA 
HETATM   36  H1  UNL     1     -11.877  15.807  66.655  1.00  0.00     0.000 HD 
HETATM   37  C   UNL     1     -10.038  12.447  66.559  1.00  0.00    -0.232 A  
HETATM   38  H2  UNL     1     -10.395  16.560  66.537  1.00  0.00     0.000 HD 
ENDBRANCH  29  30
ENDBRANCH   9  26
ENDBRANCH   2   3
TORSDOF 8
ENDMDL
MODEL      142
REMARK 921   NORMALIZED FREE ENERGY PREDICTED BY IDOCK:    0.07 KCAL/MOL
REMARK 922        TOTAL FREE ENERGY PREDICTED BY IDOCK:   -1.09 KCAL/MOL
REMARK 923 INTER-LIGAND FREE ENERGY PREDICTED BY IDOCK:   -1.83 KCAL/MOL
REMARK 924 INTRA-LIGAND FREE ENERGY PREDICTED BY IDOCK:    0.74 KCAL/MOL
REMARK 927      BINDING AFFINITY PREDICTED BY RF-SCORE:    0.00 PKD
ROOT
HETATM    1  C   UNL     1      -7.806  13.613  68.469  1.00  0.00    -0.131 C  
HETATM    2  O   UNL     1      -6.540  13.256  69.015  1.00  0.00    -0.096 OA 
ENDROOT
BRANCH   2   3
HETATM    3  C   UNL     1      -6.127  13.994  70.104  1.00  0.00    -0.154 A  
HETATM    4  C   UNL     1      -5.769  13.242  71.259  1.00  0.00    -0.055 A  
HETATM    5  C   UNL     1      -5.312  13.896  72.415  1.00  0.00    -0.201 A  
HETATM    6  C   UNL     1      -6.185  19.523  71.541  1.00  0.00     0.258 C  
HETATM    7  N   UNL     1      -5.315  18.033  70.094  1.00  0.00    -0.225 NA 
HETATM    8  C   UNL     1      -5.276  15.283  72.472  1.00  0.00     0.141 A  
HETATM    9  C   UNL     1      -5.895  17.469  68.977  1.00  0.00    -0.194 A  
HETATM   10  C   UNL     1      -5.635  15.995  71.339  1.00  0.00     0.370 A  
HETATM   11  C   UNL     1      -5.142  19.429  70.431  1.00  0.00    -0.205 C  
HETATM   12  C   UNL     1      -6.019  15.402  70.121  1.00  0.00    -0.141 A  
HETATM   13  N   UNL     1      -6.291  16.222  68.972  1.00  0.00    -0.143 NA 
HETATM   14  C   UNL     1      -5.633  17.445  71.306  1.00  0.00     0.388 A  
HETATM   15  N   UNL     1      -6.058  18.221  72.278  1.00  0.00     1.481 NA 
BRANCH   4  16
HETATM   16  O   UNL     1      -5.867  11.865  71.192  1.00  0.00    -0.379 OA 
BRANCH  16  17
HETATM   17  C   UNL     1      -5.335  11.274  69.994  1.00  0.00    -0.068 C  
BRANCH  17  18
HETATM   18  C   UNL     1      -6.200  10.087  69.577  1.00  0.00    -0.046 C  
BRANCH  18  19
HETATM   19  C   UNL     1      -7.557  10.060  70.302  1.00  0.00    -0.106 C  
BRANCH  19  20
HETATM   20  N   UNL     1      -8.335   8.828  70.090  1.00  0.00    -0.121 NA 
HETATM   21  O   UNL     1     -10.817   8.921  71.673  1.00  0.00    -0.296 OA 
HETATM   22  C   UNL     1      -8.555   8.051  71.333  1.00  0.00    -0.132 C  
HETATM   23  C   UNL     1      -9.667   9.111  69.503  1.00  0.00    -0.173 C  
HETATM   24  C   UNL     1     -10.679   9.721  70.491  1.00  0.00    -0.317 C  
HETATM   25  C   UNL     1      -9.547   8.713  72.302  1.00  0.00    -0.278 C  
ENDBRANCH  19  20
ENDBRANCH  18  19
ENDBRANCH  17  18
ENDBRANCH  16  17
ENDBRANCH   4  16
BRANCH   9  26
HETATM   26  N   UNL     1      -6.246  18.130  67.813  1.00  0.00    -0.174 N  
HETATM   27  O   UNL     1      -6.887  16.524  66.279  1.00  0.00    -0.133 OA 
HETATM   28  H   UNL     1      -6.293  19.144  67.913  1.00  0.00     0.000 HD 
HETATM   29  C   UNL     1      -6.546  17.675  66.532  1.00  0.00    -0.227 C  
BRANCH  29  30
HETATM   30  C   UNL     1      -6.546  18.669  65.429  1.00  0.00    -0.270 A  
HETATM   31  N   UNL     1      -7.395  20.596  64.251  1.00  0.00     0.327 NA 
HETATM   32  C   UNL     1      -7.452  19.692  65.254  1.00  0.00     0.182 A  
HETATM   33  C   UNL     1      -6.395  20.439  63.367  1.00  0.00     0.060 A  
HETATM   34  N   UNL     1      -5.448  19.510  63.449  1.00  0.00    -0.293 NA 
HETATM   35  N   UNL     1      -6.317  21.358  62.336  1.00  0.00    -0.303 NA 
HETATM   36  H1  UNL     1      -5.558  21.239  61.664  1.00  0.00     0.000 HD 
HETATM   37  C   UNL     1      -5.548  18.637  64.476  1.00  0.00    -0.178 A  
HETATM   38  H2  UNL     1      -6.283  22.302  62.724  1.00  0.00     0.000 HD 
ENDBRANCH  29  30
ENDBRANCH   9  26
ENDBRANCH   2   3
TORSDOF 8
ENDMDL
MODEL      143
REMARK 921   NORMALIZED FREE ENERGY PREDICTED BY IDOCK:    0.31 KCAL/MOL
REMARK 922        TOTAL FREE ENERGY PREDICTED BY IDOCK:   -0.75 KCAL/MOL
REMARK 923 INTER-LIGAND FREE ENERGY PREDICTED BY IDOCK:   -2.61 KCAL/MOL
REMARK 924 INTRA-LIGAND FREE ENERGY PREDICTED BY IDOCK:    1.86 KCAL/MOL
REMARK 927      BINDING AFFINITY PREDICTED BY RF-SCORE:    0.00 PKD
ROOT
HETATM    1  C   UNL     1     -11.625  11.744  65.886  1.00  0.00    -0.130 C  
HETATM    2  O   UNL     1     -10.511  11.121  66.518  1.00  0.00    -0.238 OA 
ENDROOT
BRANCH   2   3
HETATM    3  C   UNL     1     -10.615  10.949  67.882  1.00  0.00    -0.207 A  
HETATM    4  C   UNL     1     -11.274  11.995  68.587  1.00  0.00    -0.258 A  
HETATM    5  C   UNL     1     -11.455  11.907  69.977  1.00  0.00    -0.213 A  
HETATM    6  C   UNL     1      -8.360   7.372  71.723  1.00  0.00    -0.107 C  
HETATM    7  N   UNL     1      -9.724   7.491  69.935  1.00  0.00    -0.171 NA 
HETATM    8  C   UNL     1     -10.928  10.837  70.689  1.00  0.00     0.235 A  
HETATM    9  C   UNL     1      -9.395   7.573  68.598  1.00  0.00    -0.143 A  
HETATM   10  C   UNL     1     -10.285   9.833  69.983  1.00  0.00    -0.308 A  
HETATM   11  C   UNL     1      -9.325   6.507  70.919  1.00  0.00    -0.161 C  
HETATM   12  C   UNL     1     -10.145   9.817  68.582  1.00  0.00    -0.169 A  
HETATM   13  N   UNL     1      -9.538   8.688  67.930  1.00  0.00    -0.146 NA 
HETATM   14  C   UNL     1      -9.699   8.681  70.641  1.00  0.00    -0.184 A  
HETATM   15  N   UNL     1      -9.020   8.721  71.766  1.00  0.00    -0.302 NA 
BRANCH   4  16
HETATM   16  O   UNL     1     -11.740  13.074  67.859  1.00  0.00    -0.322 OA 
BRANCH  16  17
HETATM   17  C   UNL     1     -10.968  14.279  67.992  1.00  0.00    -0.249 C  
BRANCH  17  18
HETATM   18  C   UNL     1      -9.537  14.030  67.518  1.00  0.00    -0.228 C  
BRANCH  18  19
HETATM   19  C   UNL     1      -8.676  15.305  67.539  1.00  0.00    -0.178 C  
BRANCH  19  20
HETATM   20  N   UNL     1      -8.372  15.854  66.207  1.00  0.00    -0.281 NA 
HETATM   21  O   UNL     1     -10.827  15.979  64.585  1.00  0.00    -0.608 OA 
HETATM   22  C   UNL     1      -8.682  14.918  65.101  1.00  0.00     2.964 C  
HETATM   23  C   UNL     1      -9.115  17.111  65.946  1.00  0.00     0.008 C  
HETATM   24  C   UNL     1     -10.613  16.912  65.652  1.00  0.00    -0.221 C  
HETATM   25  C   UNL     1     -10.189  14.727  64.865  1.00  0.00    -0.275 C  
ENDBRANCH  19  20
ENDBRANCH  18  19
ENDBRANCH  17  18
ENDBRANCH  16  17
ENDBRANCH   4  16
BRANCH   9  26
HETATM   26  N   UNL     1      -8.780   6.590  67.843  1.00  0.00    -0.117 N  
HETATM   27  O   UNL     1     -10.011   4.651  68.111  1.00  0.00    -0.133 OA 
HETATM   28  H   UNL     1      -8.039   6.939  67.236  1.00  0.00     0.000 HD 
HETATM   29  C   UNL     1      -8.980   5.214  67.756  1.00  0.00    -0.110 C  
BRANCH  29  30
HETATM   30  C   UNL     1      -7.922   4.403  67.104  1.00  0.00    -0.101 A  
HETATM   31  N   UNL     1      -5.640   3.702  66.749  1.00  0.00    -0.021 NA 
HETATM   32  C   UNL     1      -6.568   4.485  67.344  1.00  0.00    -0.047 A  
HETATM   33  C   UNL     1      -6.100   2.817  65.848  1.00  0.00    -0.024 A  
HETATM   34  N   UNL     1      -7.384   2.627  65.558  1.00  0.00    -0.066 NA 
HETATM   35  N   UNL     1      -5.167   2.002  65.234  1.00  0.00    -0.005 NA 
HETATM   36  H1  UNL     1      -5.516   1.330  64.550  1.00  0.00     0.000 HD 
HETATM   37  C   UNL     1      -8.269   3.432  66.186  1.00  0.00    -0.097 A  
HETATM   38  H2  UNL     1      -4.623   1.512  65.945  1.00  0.00     0.000 HD 
ENDBRANCH  29  30
ENDBRANCH   9  26
ENDBRANCH   2   3
TORSDOF 8
ENDMDL
MODEL      144
REMARK 921   NORMALIZED FREE ENERGY PREDICTED BY IDOCK:    0.76 KCAL/MOL
REMARK 922        TOTAL FREE ENERGY PREDICTED BY IDOCK:   -0.08 KCAL/MOL
REMARK 923 INTER-LIGAND FREE ENERGY PREDICTED BY IDOCK:   -0.95 KCAL/MOL
REMARK 924 INTRA-LIGAND FREE ENERGY PREDICTED BY IDOCK:    0.87 KCAL/MOL
REMARK 927      BINDING AFFINITY PREDICTED BY RF-SCORE:    0.00 PKD
ROOT
HETATM    1  C   UNL     1      -7.809  13.612  68.469  1.00  0.00    -0.131 C  
HETATM    2  O   UNL     1      -6.544  13.245  69.014  1.00  0.00    -0.096 OA 
ENDROOT
BRANCH   2   3
HETATM    3  C   UNL     1      -6.127  13.975  70.106  1.00  0.00    -0.154 A  
HETATM    4  C   UNL     1      -5.765  13.216  71.254  1.00  0.00    -0.004 A  
HETATM    5  C   UNL     1      -5.302  13.861  72.413  1.00  0.00    -0.201 A  
HETATM    6  C   UNL     1      -6.175  19.495  71.579  1.00  0.00     0.258 C  
HETATM    7  N   UNL     1      -5.313  18.013  70.119  1.00  0.00    -0.225 NA 
HETATM    8  C   UNL     1      -5.265  15.248  72.479  1.00  0.00     0.141 A  
HETATM    9  C   UNL     1      -5.898  17.457  69.001  1.00  0.00    -0.191 A  
HETATM   10  C   UNL     1      -5.629  15.967  71.351  1.00  0.00     0.370 A  
HETATM   11  C   UNL     1      -5.138  19.408  70.464  1.00  0.00    -0.208 C  
HETATM   12  C   UNL     1      -6.018  15.383  70.132  1.00  0.00    -0.141 A  
HETATM   13  N   UNL     1      -6.294  16.210  68.989  1.00  0.00    -0.140 NA 
HETATM   14  C   UNL     1      -5.626  17.418  71.328  1.00  0.00     0.388 A  
HETATM   15  N   UNL     1      -6.047  18.188  72.307  1.00  0.00     1.632 NA 
BRANCH   4  16
HETATM   16  O   UNL     1      -5.864  11.839  71.178  1.00  0.00    -0.381 OA 
BRANCH  16  17
HETATM   17  C   UNL     1      -5.372  11.258  69.959  1.00  0.00    -0.068 C  
BRANCH  17  18
HETATM   18  C   UNL     1      -6.303  10.134  69.510  1.00  0.00    -0.051 C  
BRANCH  18  19
HETATM   19  C   UNL     1      -6.006   9.656  68.079  1.00  0.00    -0.043 C  
BRANCH  19  20
HETATM   20  N   UNL     1      -7.117   9.848  67.131  1.00  0.00    -0.085 NA 
HETATM   21  O   UNL     1      -8.477   7.281  66.643  1.00  0.00    -0.116 OA 
HETATM   22  C   UNL     1      -6.971   9.056  65.887  1.00  0.00    -0.088 C  
HETATM   23  C   UNL     1      -8.424   9.489  67.734  1.00  0.00    -0.119 C  
HETATM   24  C   UNL     1      -8.658   7.974  67.885  1.00  0.00    -0.129 C  
HETATM   25  C   UNL     1      -7.182   7.548  66.091  1.00  0.00    -0.074 C  
ENDBRANCH  19  20
ENDBRANCH  18  19
ENDBRANCH  17  18
ENDBRANCH  16  17
ENDBRANCH   4  16
BRANCH   9  26
HETATM   26  N   UNL     1      -6.253  18.126  67.842  1.00  0.00    -0.173 N  
HETATM   27  O   UNL     1      -6.903  16.530  66.301  1.00  0.00    -0.133 OA 
HETATM   28  H   UNL     1      -6.298  19.140  67.948  1.00  0.00     0.000 HD 
HETATM   29  C   UNL     1      -6.559  17.680  66.559  1.00  0.00    -0.227 C  
BRANCH  29  30
HETATM   30  C   UNL     1      -6.563  18.680  65.463  1.00  0.00    -0.307 A  
HETATM   31  N   UNL     1      -7.324  20.692  64.370  1.00  0.00     0.280 NA 
HETATM   32  C   UNL     1      -7.377  19.788  65.373  1.00  0.00    -0.119 A  
HETATM   33  C   UNL     1      -6.429  20.449  63.398  1.00  0.00     0.216 A  
HETATM   34  N   UNL     1      -5.572  19.432  63.393  1.00  0.00    -0.332 NA 
HETATM   35  N   UNL     1      -6.355  21.367  62.366  1.00  0.00    -0.303 NA 
HETATM   36  H1  UNL     1      -5.676  21.182  61.628  1.00  0.00     0.000 HD 
HETATM   37  C   UNL     1      -5.663  18.562  64.423  1.00  0.00     0.003 A  
HETATM   38  H2  UNL     1      -6.195  22.299  62.751  1.00  0.00     0.000 HD 
ENDBRANCH  29  30
ENDBRANCH   9  26
ENDBRANCH   2   3
TORSDOF 8
ENDMDL
MODEL      145
REMARK 921   NORMALIZED FREE ENERGY PREDICTED BY IDOCK:    0.86 KCAL/MOL
REMARK 922        TOTAL FREE ENERGY PREDICTED BY IDOCK:    0.06 KCAL/MOL
REMARK 923 INTER-LIGAND FREE ENERGY PREDICTED BY IDOCK:   -3.33 KCAL/MOL
REMARK 924 INTRA-LIGAND FREE ENERGY PREDICTED BY IDOCK:    3.39 KCAL/MOL
REMARK 927      BINDING AFFINITY PREDICTED BY RF-SCORE:    0.00 PKD
ROOT
HETATM    1  C   UNL     1      -9.461   7.364  65.584  1.00  0.00     0.451 C  
HETATM    2  O   UNL     1      -9.494   7.756  66.953  1.00  0.00    -0.164 OA 
ENDROOT
BRANCH   2   3
HETATM    3  C   UNL     1      -8.270   7.858  67.577  1.00  0.00    -0.124 A  
HETATM    4  C   UNL     1      -7.525   6.648  67.675  1.00  0.00    -0.097 A  
HETATM    5  C   UNL     1      -6.253   6.646  68.271  1.00  0.00    -0.030 A  
HETATM    6  C   UNL     1      -5.588  11.840  70.673  1.00  0.00    -0.146 C  
HETATM    7  N   UNL     1      -6.397  11.374  68.624  1.00  0.00    -0.051 NA 
HETATM    8  C   UNL     1      -5.740   7.804  68.839  1.00  0.00    -0.030 A  
HETATM    9  C   UNL     1      -7.700  11.423  68.174  1.00  0.00    -0.118 A  
HETATM   10  C   UNL     1      -6.485   8.969  68.738  1.00  0.00    -0.053 A  
HETATM   11  C   UNL     1      -5.606  12.407  69.258  1.00  0.00    -0.075 C  
HETATM   12  C   UNL     1      -7.725   9.060  68.079  1.00  0.00    -0.097 A  
HETATM   13  N   UNL     1      -8.383  10.331  67.950  1.00  0.00    -0.113 NA 
HETATM   14  C   UNL     1      -6.032  10.225  69.305  1.00  0.00    -0.037 A  
HETATM   15  N   UNL     1      -5.452  10.357  70.476  1.00  0.00    -0.063 NA 
BRANCH   4  16
HETATM   16  O   UNL     1      -8.085   5.498  67.149  1.00  0.00    -0.101 OA 
BRANCH  16  17
HETATM   17  C   UNL     1      -7.165   4.415  66.934  1.00  0.00    -0.072 C  
BRANCH  17  18
HETATM   18  C   UNL     1      -7.787   3.106  67.416  1.00  0.00    -0.077 C  
BRANCH  18  19
HETATM   19  C   UNL     1      -6.732   2.043  67.768  1.00  0.00    -0.035 C  
BRANCH  19  20
HETATM   20  N   UNL     1      -6.291   2.067  69.173  1.00  0.00    -0.028 NA 
HETATM   21  O   UNL     1      -7.892   4.013  70.697  1.00  0.00    -0.051 OA 
HETATM   22  C   UNL     1      -5.790   3.391  69.609  1.00  0.00    -0.022 C  
HETATM   23  C   UNL     1      -7.382   1.678  70.099  1.00  0.00    -0.036 C  
HETATM   24  C   UNL     1      -8.461   2.760  70.296  1.00  0.00    -0.049 C  
HETATM   25  C   UNL     1      -6.897   4.446  69.761  1.00  0.00    -0.041 C  
ENDBRANCH  19  20
ENDBRANCH  18  19
ENDBRANCH  17  18
ENDBRANCH  16  17
ENDBRANCH   4  16
BRANCH   9  26
HETATM   26  N   UNL     1      -8.474  12.561  68.029  1.00  0.00    -0.165 N  
HETATM   27  O   UNL     1      -8.827  12.865  65.764  1.00  0.00     0.369 OA 
HETATM   28  H   UNL     1      -8.839  12.927  68.908  1.00  0.00     0.000 HD 
HETATM   29  C   UNL     1      -8.850  13.302  66.911  1.00  0.00    -0.178 C  
BRANCH  29  30
HETATM   30  C   UNL     1      -9.401  14.661  67.136  1.00  0.00    -0.231 A  
HETATM   31  N   UNL     1     -10.903  16.245  68.165  1.00  0.00    -0.330 NA 
HETATM   32  C   UNL     1     -10.453  14.986  67.964  1.00  0.00    -0.242 A  
HETATM   33  C   UNL     1     -10.280  17.215  67.474  1.00  0.00    -0.323 A  
HETATM   34  N   UNL     1      -9.237  17.025  66.672  1.00  0.00    -0.245 NA 
HETATM   35  N   UNL     1     -10.722  18.511  67.671  1.00  0.00    -0.412 NA 
HETATM   36  H1  UNL     1     -10.249  19.247  67.146  1.00  0.00     0.000 HD 
HETATM   37  C   UNL     1      -8.824  15.748  66.512  1.00  0.00    -0.310 A  
HETATM   38  H2  UNL     1     -10.694  18.732  68.667  1.00  0.00     0.000 HD 
ENDBRANCH  29  30
ENDBRANCH   9  26
ENDBRANCH   2   3
TORSDOF 8
ENDMDL
MODEL      146
REMARK 921   NORMALIZED FREE ENERGY PREDICTED BY IDOCK:    1.12 KCAL/MOL
REMARK 922        TOTAL FREE ENERGY PREDICTED BY IDOCK:    0.45 KCAL/MOL
REMARK 923 INTER-LIGAND FREE ENERGY PREDICTED BY IDOCK:   -1.45 KCAL/MOL
REMARK 924 INTRA-LIGAND FREE ENERGY PREDICTED BY IDOCK:    1.90 KCAL/MOL
REMARK 927      BINDING AFFINITY PREDICTED BY RF-SCORE:    0.00 PKD
ROOT
HETATM    1  C   UNL     1      -7.123  10.810  67.732  1.00  0.00    -0.086 C  
HETATM    2  O   UNL     1      -7.022   9.526  67.123  1.00  0.00    -0.083 OA 
ENDROOT
BRANCH   2   3
HETATM    3  C   UNL     1      -7.864   9.302  66.054  1.00  0.00    -0.102 A  
HETATM    4  C   UNL     1      -7.654   8.084  65.348  1.00  0.00    -0.083 A  
HETATM    5  C   UNL     1      -8.474   7.746  64.259  1.00  0.00     0.159 A  
HETATM    6  C   UNL     1     -11.639  12.422  63.112  1.00  0.00    -0.212 C  
HETATM    7  N   UNL     1     -11.209  11.523  65.132  1.00  0.00    -0.201 NA 
HETATM    8  C   UNL     1      -9.447   8.629  63.810  1.00  0.00     1.668 A  
HETATM    9  C   UNL     1     -10.362  11.976  66.120  1.00  0.00    -0.224 A  
HETATM   10  C   UNL     1      -9.630   9.812  64.509  1.00  0.00    -0.201 A  
HETATM   11  C   UNL     1     -12.298  12.208  64.471  1.00  0.00    -0.307 C  
HETATM   12  C   UNL     1      -8.903  10.173  65.659  1.00  0.00    -0.165 A  
HETATM   13  N   UNL     1      -9.223  11.382  66.367  1.00  0.00    -0.192 NA 
HETATM   14  C   UNL     1     -10.618  10.797  64.111  1.00  0.00    -0.133 A  
HETATM   15  N   UNL     1     -10.869  11.155  62.872  1.00  0.00     0.167 NA 
BRANCH   4  16
HETATM   16  O   UNL     1      -6.642   7.249  65.784  1.00  0.00    -0.046 OA 
BRANCH  16  17
HETATM   17  C   UNL     1      -5.970   7.677  66.981  1.00  0.00    -0.047 C  
BRANCH  17  18
HETATM   18  C   UNL     1      -5.590   6.460  67.822  1.00  0.00    -0.005 C  
BRANCH  18  19
HETATM   19  C   UNL     1      -6.472   6.307  69.074  1.00  0.00    -0.043 C  
BRANCH  19  20
HETATM   20  N   UNL     1      -7.680   7.150  69.072  1.00  0.00    -0.107 NA 
HETATM   21  O   UNL     1      -9.931   5.682  70.276  1.00  0.00    -0.181 OA 
HETATM   22  C   UNL     1      -8.800   6.568  68.295  1.00  0.00    -0.119 C  
HETATM   23  C   UNL     1      -8.177   7.403  70.446  1.00  0.00    -0.121 C  
HETATM   24  C   UNL     1      -8.876   6.196  71.100  1.00  0.00    -0.139 C  
HETATM   25  C   UNL     1      -9.446   5.348  68.970  1.00  0.00    -0.133 C  
ENDBRANCH  19  20
ENDBRANCH  18  19
ENDBRANCH  17  18
ENDBRANCH  16  17
ENDBRANCH   4  16
BRANCH   9  26
HETATM   26  N   UNL     1     -10.516  13.134  66.864  1.00  0.00    -0.255 N  
HETATM   27  O   UNL     1      -9.065  14.708  65.989  1.00  0.00    -0.182 OA 
HETATM   28  H   UNL     1     -11.303  13.107  67.512  1.00  0.00     0.000 HD 
HETATM   29  C   UNL     1      -9.801  14.328  66.896  1.00  0.00    -0.263 C  
BRANCH  29  30
HETATM   30  C   UNL     1     -10.022  15.235  68.050  1.00  0.00    -0.224 A  
HETATM   31  N   UNL     1      -9.594  17.215  69.362  1.00  0.00    -0.001 NA 
HETATM   32  C   UNL     1      -9.337  16.401  68.314  1.00  0.00    -0.210 A  
HETATM   33  C   UNL     1     -10.568  16.816  70.198  1.00  0.00     0.075 A  
HETATM   34  N   UNL     1     -11.316  15.729  70.029  1.00  0.00    -0.320 NA 
HETATM   35  N   UNL     1     -10.851  17.639  71.273  1.00  0.00     1.109 NA 
HETATM   36  H1  UNL     1     -11.590  17.336  71.908  1.00  0.00     0.000 HD 
HETATM   37  C   UNL     1     -11.021  14.955  68.961  1.00  0.00    -0.245 A  
HETATM   38  H2  UNL     1     -11.056  18.580  70.935  1.00  0.00     0.000 HD 
ENDBRANCH  29  30
ENDBRANCH   9  26
ENDBRANCH   2   3
TORSDOF 8
ENDMDL
MODEL      147
REMARK 921   NORMALIZED FREE ENERGY PREDICTED BY IDOCK:    1.96 KCAL/MOL
REMARK 922        TOTAL FREE ENERGY PREDICTED BY IDOCK:    1.67 KCAL/MOL
REMARK 923 INTER-LIGAND FREE ENERGY PREDICTED BY IDOCK:   -2.17 KCAL/MOL
REMARK 924 INTRA-LIGAND FREE ENERGY PREDICTED BY IDOCK:    3.84 KCAL/MOL
REMARK 927      BINDING AFFINITY PREDICTED BY RF-SCORE:    0.00 PKD
ROOT
HETATM    1  C   UNL     1      -6.854  10.390  71.470  1.00  0.00     1.604 C  
HETATM    2  O   UNL     1      -6.236   9.111  71.360  1.00  0.00    -0.072 OA 
ENDROOT
BRANCH   2   3
HETATM    3  C   UNL     1      -6.494   8.419  70.196  1.00  0.00    -0.038 A  
HETATM    4  C   UNL     1      -6.607   7.006  70.330  1.00  0.00    -0.051 A  
HETATM    5  C   UNL     1      -6.893   6.209  69.210  1.00  0.00    -0.062 A  
HETATM    6  C   UNL     1      -6.487   9.669  64.622  1.00  0.00    -0.099 C  
HETATM    7  N   UNL     1      -7.511  10.107  66.579  1.00  0.00    -0.105 NA 
HETATM    8  C   UNL     1      -6.993   6.779  67.948  1.00  0.00    -0.083 A  
HETATM    9  C   UNL     1      -7.103  10.932  67.606  1.00  0.00    -0.087 A  
HETATM   10  C   UNL     1      -6.873   8.155  67.839  1.00  0.00    -0.073 A  
HETATM   11  C   UNL     1      -7.698  10.412  65.177  1.00  0.00    -0.110 C  
HETATM   12  C   UNL     1      -6.673   9.020  68.931  1.00  0.00    -0.053 A  
HETATM   13  N   UNL     1      -6.648  10.444  68.730  1.00  0.00    -0.051 NA 
HETATM   14  C   UNL     1      -6.958   8.838  66.562  1.00  0.00    -0.079 A  
HETATM   15  N   UNL     1      -6.415   8.414  65.443  1.00  0.00    -0.055 NA 
BRANCH   4  16
HETATM   16  O   UNL     1      -6.448   6.460  71.591  1.00  0.00    -0.048 OA 
BRANCH  16  17
HETATM   17  C   UNL     1      -7.385   5.424  71.929  1.00  0.00    -0.091 C  
BRANCH  17  18
HETATM   18  C   UNL     1      -8.809   5.975  71.867  1.00  0.00    -0.138 C  
BRANCH  18  19
HETATM   19  C   UNL     1      -9.847   4.894  71.520  1.00  0.00    -0.183 C  
BRANCH  19  20
HETATM   20  N   UNL     1      -9.325   3.517  71.552  1.00  0.00    -0.127 NA 
HETATM   21  O   UNL     1      -8.801   2.705  74.334  1.00  0.00    -0.073 OA 
HETATM   22  C   UNL     1      -7.971   3.417  72.144  1.00  0.00    -0.059 C  
HETATM   23  C   UNL     1     -10.213   2.609  72.317  1.00  0.00    -0.124 C  
HETATM   24  C   UNL     1     -10.146   2.795  73.845  1.00  0.00    -0.115 C  
HETATM   25  C   UNL     1      -7.948   3.641  73.664  1.00  0.00    -0.079 C  
ENDBRANCH  19  20
ENDBRANCH  18  19
ENDBRANCH  17  18
ENDBRANCH  16  17
ENDBRANCH   4  16
BRANCH   9  26
HETATM   26  N   UNL     1      -6.994  12.311  67.555  1.00  0.00    -0.128 N  
HETATM   27  O   UNL     1      -8.735  13.181  68.804  1.00  0.00    -0.010 OA 
HETATM   28  H   UNL     1      -6.128  12.642  67.129  1.00  0.00     0.000 HD 
HETATM   29  C   UNL     1      -7.841  13.333  67.976  1.00  0.00    -0.148 C  
BRANCH  29  30
HETATM   30  C   UNL     1      -7.579  14.701  67.465  1.00  0.00    -0.215 A  
HETATM   31  N   UNL     1      -6.149  16.533  66.814  1.00  0.00    -0.316 NA 
HETATM   32  C   UNL     1      -6.344  15.293  67.316  1.00  0.00     0.139 A  
HETATM   33  C   UNL     1      -7.256  17.217  66.477  1.00  0.00    -0.270 A  
HETATM   34  N   UNL     1      -8.495  16.740  66.548  1.00  0.00    -0.256 NA 
HETATM   35  N   UNL     1      -7.077  18.486  65.956  1.00  0.00    -0.278 NA 
HETATM   36  H1  UNL     1      -7.917  19.006  65.700  1.00  0.00     0.000 HD 
HETATM   37  C   UNL     1      -8.632  15.492  67.050  1.00  0.00    -0.233 A  
HETATM   38  H2  UNL     1      -6.449  18.438  65.153  1.00  0.00     0.000 HD 
ENDBRANCH  29  30
ENDBRANCH   9  26
ENDBRANCH   2   3
TORSDOF 8
ENDMDL
MODEL      148
REMARK 921   NORMALIZED FREE ENERGY PREDICTED BY IDOCK:    5.11 KCAL/MOL
REMARK 922        TOTAL FREE ENERGY PREDICTED BY IDOCK:    6.29 KCAL/MOL
REMARK 923 INTER-LIGAND FREE ENERGY PREDICTED BY IDOCK:    1.86 KCAL/MOL
REMARK 924 INTRA-LIGAND FREE ENERGY PREDICTED BY IDOCK:    4.43 KCAL/MOL
REMARK 927      BINDING AFFINITY PREDICTED BY RF-SCORE:    0.00 PKD
ROOT
HETATM    1  C   UNL     1      -9.475  20.161  68.219  1.00  0.00    -0.161 C  
HETATM    2  O   UNL     1      -8.130  20.096  67.752  1.00  0.00    -0.298 OA 
ENDROOT
BRANCH   2   3
HETATM    3  C   UNL     1      -7.859  19.094  66.845  1.00  0.00    -0.252 A  
HETATM    4  C   UNL     1      -6.955  19.438  65.800  1.00  0.00    -0.284 A  
HETATM    5  C   UNL     1      -6.591  18.482  64.837  1.00  0.00     0.279 A  
HETATM    6  C   UNL     1     -10.052  13.952  65.670  1.00  0.00    -0.313 C  
HETATM    7  N   UNL     1      -8.958  15.144  67.236  1.00  0.00    -0.189 NA 
HETATM    8  C   UNL     1      -7.165  17.218  64.847  1.00  0.00     3.768 A  
HETATM    9  C   UNL     1      -9.459  16.065  68.132  1.00  0.00    -0.208 A  
HETATM   10  C   UNL     1      -8.047  16.908  65.870  1.00  0.00     0.043 A  
HETATM   11  C   UNL     1      -9.355  13.770  67.014  1.00  0.00    -0.248 C  
HETATM   12  C   UNL     1      -8.388  17.788  66.915  1.00  0.00    -0.238 A  
HETATM   13  N   UNL     1      -9.246  17.346  67.980  1.00  0.00    -0.259 NA 
HETATM   14  C   UNL     1      -8.700  15.616  65.960  1.00  0.00    -0.069 A  
HETATM   15  N   UNL     1      -9.197  14.950  64.942  1.00  0.00     1.124 NA 
BRANCH   4  16
HETATM   16  O   UNL     1      -6.440  20.721  65.783  1.00  0.00    -0.236 OA 
BRANCH  16  17
HETATM   17  C   UNL     1      -6.376  21.369  67.065  1.00  0.00    -0.300 C  
BRANCH  17  18
HETATM   18  C   UNL     1      -5.128  20.907  67.815  1.00  0.00    -0.266 C  
BRANCH  18  19
HETATM   19  C   UNL     1      -5.192  19.421  68.209  1.00  0.00    -0.182 C  
BRANCH  19  20
HETATM   20  N   UNL     1      -5.153  19.176  69.661  1.00  0.00    -0.178 NA 
HETATM   21  O   UNL     1      -7.691  17.972  70.546  1.00  0.00     2.557 OA 
HETATM   22  C   UNL     1      -6.202  19.909  70.409  1.00  0.00    -0.295 C  
HETATM   23  C   UNL     1      -5.305  17.735  69.981  1.00  0.00    -0.224 C  
HETATM   24  C   UNL     1      -6.738  17.196  69.809  1.00  0.00     0.089 C  
HETATM   25  C   UNL     1      -7.617  19.356  70.182  1.00  0.00     0.743 C  
ENDBRANCH  19  20
ENDBRANCH  18  19
ENDBRANCH  17  18
ENDBRANCH  16  17
ENDBRANCH   4  16
BRANCH   9  26
HETATM   26  N   UNL     1     -10.318  15.801  69.185  1.00  0.00    -0.224 N  
HETATM   27  O   UNL     1     -12.228  14.856  68.288  1.00  0.00    -0.170 OA 
HETATM   28  H   UNL     1      -9.895  15.928  70.104  1.00  0.00     0.000 HD 
HETATM   29  C   UNL     1     -11.649  15.394  69.227  1.00  0.00    -0.339 C  
BRANCH  29  30
HETATM   30  C   UNL     1     -12.372  15.532  70.516  1.00  0.00    -0.461 A  
HETATM   31  N   UNL     1     -14.308  15.343  71.943  1.00  0.00    -0.545 NA 
HETATM   32  C   UNL     1     -13.698  15.233  70.743  1.00  0.00    -0.189 A  
HETATM   33  C   UNL     1     -13.552  15.807  72.953  1.00  0.00    -0.577 A  
HETATM   34  N   UNL     1     -12.259  16.098  72.861  1.00  0.00    -0.508 NA 
HETATM   35  N   UNL     1     -14.159  15.920  74.192  1.00  0.00     0.957 NA 
HETATM   36  H1  UNL     1     -13.585  16.272  74.959  1.00  0.00     0.000 HD 
HETATM   37  C   UNL     1     -11.696  15.963  71.640  1.00  0.00    -0.485 A  
HETATM   38  H2  UNL     1     -14.564  15.022  74.455  1.00  0.00     0.000 HD 
ENDBRANCH  29  30
ENDBRANCH   9  26
ENDBRANCH   2   3
TORSDOF 8
ENDMDL
MODEL      149
REMARK 921   NORMALIZED FREE ENERGY PREDICTED BY IDOCK:    5.13 KCAL/MOL
REMARK 922        TOTAL FREE ENERGY PREDICTED BY IDOCK:    6.33 KCAL/MOL
REMARK 923 INTER-LIGAND FREE ENERGY PREDICTED BY IDOCK:   -6.10 KCAL/MOL
REMARK 924 INTRA-LIGAND FREE ENERGY PREDICTED BY IDOCK:   12.43 KCAL/MOL
REMARK 927      BINDING AFFINITY PREDICTED BY RF-SCORE:    0.00 PKD
ROOT
HETATM    1  C   UNL     1      -8.629  18.288  68.630  1.00  0.00    -0.283 C  
HETATM    2  O   UNL     1      -9.475  17.142  68.606  1.00  0.00    -0.261 OA 
ENDROOT
BRANCH   2   3
HETATM    3  C   UNL     1      -9.766  16.639  67.356  1.00  0.00    -0.251 A  
HETATM    4  C   UNL     1     -10.121  17.603  66.370  1.00  0.00    -0.356 A  
HETATM    5  C   UNL     1     -10.412  17.199  65.057  1.00  0.00     0.297 A  
HETATM    6  C   UNL     1     -10.699  11.446  65.166  1.00  0.00    -0.269 C  
HETATM    7  N   UNL     1      -9.142  12.756  66.130  1.00  0.00    -0.028 NA 
HETATM    8  C   UNL     1     -10.432  15.851  64.723  1.00  0.00    -0.008 A  
HETATM    9  C   UNL     1      -8.975  13.068  67.463  1.00  0.00    -0.193 A  
HETATM   10  C   UNL     1     -10.089  14.930  65.700  1.00  0.00    -0.387 A  
HETATM   11  C   UNL     1      -9.209  11.459  65.492  1.00  0.00    -0.177 C  
HETATM   12  C   UNL     1      -9.704  15.272  67.010  1.00  0.00    -0.226 A  
HETATM   13  N   UNL     1      -9.282  14.250  67.929  1.00  0.00    -0.187 NA 
HETATM   14  C   UNL     1     -10.087  13.502  65.446  1.00  0.00    -0.262 A  
HETATM   15  N   UNL     1     -11.000  12.858  64.753  1.00  0.00    -0.304 NA 
BRANCH   4  16
HETATM   16  O   UNL     1     -10.146  18.934  66.745  1.00  0.00    -0.328 OA 
BRANCH  16  17
HETATM   17  C   UNL     1      -9.656  19.205  68.069  1.00  0.00    -0.332 C  
BRANCH  17  18
HETATM   18  C   UNL     1      -8.202  19.667  67.996  1.00  0.00    -0.347 C  
BRANCH  18  19
HETATM   19  C   UNL     1      -8.032  20.958  67.177  1.00  0.00    -0.111 C  
BRANCH  19  20
HETATM   20  N   UNL     1      -6.994  20.886  66.135  1.00  0.00    -0.107 NA 
HETATM   21  O   UNL     1      -5.266  18.546  66.600  1.00  0.00    -0.136 OA 
HETATM   22  C   UNL     1      -5.616  20.967  66.674  1.00  0.00    -0.223 C  
HETATM   23  C   UNL     1      -7.089  19.632  65.349  1.00  0.00    -0.194 C  
HETATM   24  C   UNL     1      -6.597  18.377  66.094  1.00  0.00    -0.237 C  
HETATM   25  C   UNL     1      -5.180  19.707  67.436  1.00  0.00    -0.161 C  
ENDBRANCH  19  20
ENDBRANCH  18  19
ENDBRANCH  17  18
ENDBRANCH  16  17
ENDBRANCH   4  16
BRANCH   9  26
HETATM   26  N   UNL     1      -8.607  12.191  68.469  1.00  0.00    -0.309 N  
HETATM   27  O   UNL     1      -6.508  12.829  69.199  1.00  0.00    -0.098 OA 
HETATM   28  H   UNL     1      -9.359  11.571  68.772  1.00  0.00     0.000 HD 
HETATM   29  C   UNL     1      -7.407  11.994  69.147  1.00  0.00     0.048 C  
BRANCH  29  30
HETATM   30  C   UNL     1      -7.253  10.743  69.930  1.00  0.00    -0.059 A  
HETATM   31  N   UNL     1      -6.055   9.226  71.375  1.00  0.00    -0.075 NA 
HETATM   32  C   UNL     1      -6.140  10.362  70.647  1.00  0.00    -0.096 A  
HETATM   33  C   UNL     1      -7.134   8.424  71.350  1.00  0.00    -0.074 A  
HETATM   34  N   UNL     1      -8.271   8.701  70.721  1.00  0.00    -0.126 NA 
HETATM   35  N   UNL     1      -7.068   7.260  72.095  1.00  0.00    -0.066 NA 
HETATM   36  H1  UNL     1      -7.886   6.650  72.076  1.00  0.00     0.000 HD 
HETATM   37  C   UNL     1      -8.305   9.852  70.015  1.00  0.00    -0.168 A  
HETATM   38  H2  UNL     1      -6.835   7.487  73.062  1.00  0.00     0.000 HD 
ENDBRANCH  29  30
ENDBRANCH   9  26
ENDBRANCH   2   3
TORSDOF 8
ENDMDL
MODEL      150
REMARK 921   NORMALIZED FREE ENERGY PREDICTED BY IDOCK:    5.73 KCAL/MOL
REMARK 922        TOTAL FREE ENERGY PREDICTED BY IDOCK:    7.21 KCAL/MOL
REMARK 923 INTER-LIGAND FREE ENERGY PREDICTED BY IDOCK:    6.15 KCAL/MOL
REMARK 924 INTRA-LIGAND FREE ENERGY PREDICTED BY IDOCK:    1.05 KCAL/MOL
REMARK 927      BINDING AFFINITY PREDICTED BY RF-SCORE:    0.00 PKD
ROOT
HETATM    1  C   UNL     1      -7.426  12.486  69.065  1.00  0.00     0.088 C  
HETATM    2  O   UNL     1      -6.217  12.075  69.698  1.00  0.00    -0.109 OA 
ENDROOT
BRANCH   2   3
HETATM    3  C   UNL     1      -5.882  12.756  70.848  1.00  0.00     0.026 A  
HETATM    4  C   UNL     1      -5.545  11.945  71.969  1.00  0.00     0.816 A  
HETATM    5  C   UNL     1      -5.163  12.539  73.183  1.00  0.00     0.492 A  
HETATM    6  C   UNL     1      -6.220  18.175  72.625  1.00  0.00     3.447 C  
HETATM    7  N   UNL     1      -5.231  16.814  71.128  1.00  0.00    -0.200 NA 
HETATM    8  C   UNL     1      -5.185  13.920  73.329  1.00  0.00    -0.249 A  
HETATM    9  C   UNL     1      -5.739  16.302  69.953  1.00  0.00    -0.181 A  
HETATM   10  C   UNL     1      -5.523  14.689  72.227  1.00  0.00    -0.009 A  
HETATM   11  C   UNL     1      -5.128  18.191  71.560  1.00  0.00    -0.070 C  
HETATM   12  C   UNL     1      -5.830  14.162  70.958  1.00  0.00    -0.217 A  
HETATM   13  N   UNL     1      -6.084  15.044  69.852  1.00  0.00    -0.134 NA 
HETATM   14  C   UNL     1      -5.577  16.138  72.285  1.00  0.00     1.056 A  
HETATM   15  N   UNL     1      -6.074  16.833  73.284  1.00  0.00     3.278 NA 
BRANCH   4  16
HETATM   16  O   UNL     1      -5.585  10.572  71.811  1.00  0.00    -0.308 OA 
BRANCH  16  17
HETATM   17  C   UNL     1      -6.766  10.066  71.167  1.00  0.00     0.285 C  
BRANCH  17  18
HETATM   18  C   UNL     1      -6.856   8.555  71.369  1.00  0.00    -0.076 C  
BRANCH  18  19
HETATM   19  C   UNL     1      -8.298   8.076  71.615  1.00  0.00    -0.124 C  
BRANCH  19  20
HETATM   20  N   UNL     1      -8.447   7.159  72.758  1.00  0.00    -0.106 NA 
HETATM   21  O   UNL     1     -10.456   5.097  72.137  1.00  0.00    -0.211 OA 
HETATM   22  C   UNL     1      -9.817   7.141  73.321  1.00  0.00    -0.234 C  
HETATM   23  C   UNL     1      -8.098   5.764  72.394  1.00  0.00    -0.107 C  
HETATM   24  C   UNL     1      -9.157   5.051  71.531  1.00  0.00    -0.140 C  
HETATM   25  C   UNL     1     -10.845   6.448  72.413  1.00  0.00    -0.236 C  
ENDBRANCH  19  20
ENDBRANCH  18  19
ENDBRANCH  17  18
ENDBRANCH  16  17
ENDBRANCH   4  16
BRANCH   9  26
HETATM   26  N   UNL     1      -6.065  17.024  68.818  1.00  0.00    -0.147 N  
HETATM   27  O   UNL     1      -7.744  15.866  67.729  1.00  0.00    -0.130 OA 
HETATM   28  H   UNL     1      -5.630  17.945  68.775  1.00  0.00     0.000 HD 
HETATM   29  C   UNL     1      -6.874  16.731  67.723  1.00  0.00    -0.139 C  
BRANCH  29  30
HETATM   30  C   UNL     1      -6.738  17.585  66.516  1.00  0.00    -0.276 A  
HETATM   31  N   UNL     1      -7.521  19.211  64.914  1.00  0.00     0.404 NA 
HETATM   32  C   UNL     1      -7.700  18.425  65.999  1.00  0.00    -0.165 A  
HETATM   33  C   UNL     1      -6.325  19.120  64.307  1.00  0.00     0.307 A  
HETATM   34  N   UNL     1      -5.313  18.371  64.731  1.00  0.00    -0.137 NA 
HETATM   35  N   UNL     1      -6.121  19.923  63.198  1.00  0.00    -0.260 NA 
HETATM   36  H1  UNL     1      -5.213  19.854  62.737  1.00  0.00     0.000 HD 
HETATM   37  C   UNL     1      -5.543  17.610  65.824  1.00  0.00    -0.082 A  
HETATM   38  H2  UNL     1      -6.304  20.896  63.444  1.00  0.00     0.000 HD 
ENDBRANCH  29  30
ENDBRANCH   9  26
ENDBRANCH   2   3
TORSDOF 8
ENDMDL
MODEL      151
REMARK 921   NORMALIZED FREE ENERGY PREDICTED BY IDOCK:    5.89 KCAL/MOL
REMARK 922        TOTAL FREE ENERGY PREDICTED BY IDOCK:    7.45 KCAL/MOL
REMARK 923 INTER-LIGAND FREE ENERGY PREDICTED BY IDOCK:    6.67 KCAL/MOL
REMARK 924 INTRA-LIGAND FREE ENERGY PREDICTED BY IDOCK:    0.78 KCAL/MOL
REMARK 927      BINDING AFFINITY PREDICTED BY RF-SCORE:    0.00 PKD
ROOT
HETATM    1  C   UNL     1      -5.194   7.045  68.840  1.00  0.00    -0.014 C  
HETATM    2  O   UNL     1      -5.335   5.758  68.245  1.00  0.00    -0.003 OA 
ENDROOT
BRANCH   2   3
HETATM    3  C   UNL     1      -5.758   5.747  66.934  1.00  0.00    -0.017 A  
HETATM    4  C   UNL     1      -5.677   4.489  66.270  1.00  0.00    -0.022 A  
HETATM    5  C   UNL     1      -6.106   4.362  64.939  1.00  0.00    -0.026 A  
HETATM    6  C   UNL     1      -7.098   9.713  63.047  1.00  0.00    -0.108 C  
HETATM    7  N   UNL     1      -7.718   8.823  65.021  1.00  0.00    -0.100 NA 
HETATM    8  C   UNL     1      -6.541   5.475  64.231  1.00  0.00    -0.041 A  
HETATM    9  C   UNL     1      -7.194   9.048  66.276  1.00  0.00    -0.090 A  
HETATM   10  C   UNL     1      -6.605   6.690  64.894  1.00  0.00    -0.042 A  
HETATM   11  C   UNL     1      -8.237   9.773  64.060  1.00  0.00    -0.158 C  
HETATM   12  C   UNL     1      -6.273   6.869  66.250  1.00  0.00    -0.045 A  
HETATM   13  N   UNL     1      -6.454   8.151  66.875  1.00  0.00    -0.056 NA 
HETATM   14  C   UNL     1      -7.041   7.906  64.235  1.00  0.00    -0.074 A  
HETATM   15  N   UNL     1      -6.707   8.263  63.015  1.00  0.00    -0.086 NA 
BRANCH   4  16
HETATM   16  O   UNL     1      -5.189   3.410  66.984  1.00  0.00    -0.010 OA 
BRANCH  16  17
HETATM   17  C   UNL     1      -6.192   2.562  67.568  1.00  0.00    -0.028 C  
BRANCH  17  18
HETATM   18  C   UNL     1      -5.780   2.181  68.989  1.00  0.00    -0.022 C  
BRANCH  18  19
HETATM   19  C   UNL     1      -6.950   2.262  69.985  1.00  0.00    -0.033 C  
BRANCH  19  20
HETATM   20  N   UNL     1      -7.858   3.401  69.766  1.00  0.00    -0.050 NA 
HETATM   21  O   UNL     1      -8.237   4.884  72.282  1.00  0.00    -0.115 OA 
HETATM   22  C   UNL     1      -9.089   3.337  70.588  1.00  0.00    -0.120 C  
HETATM   23  C   UNL     1      -7.197   4.696  70.057  1.00  0.00    -0.053 C  
HETATM   24  C   UNL     1      -7.004   4.986  71.557  1.00  0.00    -0.053 C  
HETATM   25  C   UNL     1      -8.844   3.601  72.081  1.00  0.00    -0.092 C  
ENDBRANCH  19  20
ENDBRANCH  18  19
ENDBRANCH  17  18
ENDBRANCH  16  17
ENDBRANCH   4  16
BRANCH   9  26
HETATM   26  N   UNL     1      -7.256  10.232  66.990  1.00  0.00    -0.090 N  
HETATM   27  O   UNL     1      -5.231  10.483  68.078  1.00  0.00    -0.038 OA 
HETATM   28  H   UNL     1      -8.079  10.798  66.782  1.00  0.00     0.000 HD 
HETATM   29  C   UNL     1      -6.409  10.799  67.940  1.00  0.00    -0.061 C  
BRANCH  29  30
HETATM   30  C   UNL     1      -6.941  11.915  68.760  1.00  0.00    -0.104 A  
HETATM   31  N   UNL     1      -8.099  12.844  70.662  1.00  0.00     4.688 NA 
HETATM   32  C   UNL     1      -7.662  11.797  69.928  1.00  0.00     1.314 A  
HETATM   33  C   UNL     1      -7.822  14.066  70.177  1.00  0.00     1.354 A  
HETATM   34  N   UNL     1      -7.109  14.304  69.080  1.00  0.00    -0.120 NA 
HETATM   35  N   UNL     1      -8.255  15.151  70.918  1.00  0.00     1.280 NA 
HETATM   36  H1  UNL     1      -8.045  16.079  70.550  1.00  0.00     0.000 HD 
HETATM   37  C   UNL     1      -6.690  13.221  68.388  1.00  0.00    -0.096 A  
HETATM   38  H2  UNL     1      -7.900  15.075  71.872  1.00  0.00     0.000 HD 
ENDBRANCH  29  30
ENDBRANCH   9  26
ENDBRANCH   2   3
TORSDOF 8
ENDMDL
MODEL      152
REMARK 921   NORMALIZED FREE ENERGY PREDICTED BY IDOCK:   12.81 KCAL/MOL
REMARK 922        TOTAL FREE ENERGY PREDICTED BY IDOCK:   17.60 KCAL/MOL
REMARK 923 INTER-LIGAND FREE ENERGY PREDICTED BY IDOCK:   17.90 KCAL/MOL
REMARK 924 INTRA-LIGAND FREE ENERGY PREDICTED BY IDOCK:   -0.30 KCAL/MOL
REMARK 927      BINDING AFFINITY PREDICTED BY RF-SCORE:    0.00 PKD
ROOT
HETATM    1  C   UNL     1      -9.359   9.905  67.365  1.00  0.00    -0.137 C  
HETATM    2  O   UNL     1      -9.271   8.490  67.226  1.00  0.00    -0.137 OA 
ENDROOT
BRANCH   2   3
HETATM    3  C   UNL     1      -8.639   7.825  68.254  1.00  0.00    -0.124 A  
HETATM    4  C   UNL     1      -7.921   6.653  67.882  1.00  0.00    -0.113 A  
HETATM    5  C   UNL     1      -7.221   5.915  68.850  1.00  0.00    -0.082 A  
HETATM    6  C   UNL     1      -8.750   8.093  73.960  1.00  0.00    -0.132 C  
HETATM    7  N   UNL     1      -8.190   9.232  72.100  1.00  0.00     0.042 NA 
HETATM    8  C   UNL     1      -7.283   6.274  70.190  1.00  0.00    -0.080 A  
HETATM    9  C   UNL     1      -9.004   9.925  71.229  1.00  0.00     1.443 A  
HETATM   10  C   UNL     1      -7.993   7.414  70.531  1.00  0.00    -0.099 A  
HETATM   11  C   UNL     1      -8.045   9.376  73.532  1.00  0.00     2.309 C  
HETATM   12  C   UNL     1      -8.644   8.247  69.602  1.00  0.00    -0.129 A  
HETATM   13  N   UNL     1      -9.284   9.457  70.041  1.00  0.00    -0.202 NA 
HETATM   14  C   UNL     1      -8.118   7.863  71.904  1.00  0.00    -0.115 A  
HETATM   15  N   UNL     1      -8.323   7.078  72.938  1.00  0.00    -0.107 NA 
BRANCH   4  16
HETATM   16  O   UNL     1      -7.922   6.289  66.548  1.00  0.00    -0.105 OA 
BRANCH  16  17
HETATM   17  C   UNL     1      -6.624   6.035  65.985  1.00  0.00    -0.048 C  
BRANCH  17  18
HETATM   18  C   UNL     1      -5.710   7.234  66.232  1.00  0.00    -0.031 C  
BRANCH  18  19
HETATM   19  C   UNL     1      -6.211   8.512  65.538  1.00  0.00    -0.049 C  
BRANCH  19  20
HETATM   20  N   UNL     1      -6.821   8.287  64.216  1.00  0.00    -0.066 NA 
HETATM   21  O   UNL     1      -6.455  10.667  62.521  1.00  0.00    -0.144 OA 
HETATM   22  C   UNL     1      -7.900   9.250  63.896  1.00  0.00    -0.130 C  
HETATM   23  C   UNL     1      -5.818   8.366  63.126  1.00  0.00    -0.077 C  
HETATM   24  C   UNL     1      -5.350   9.796  62.798  1.00  0.00    -0.088 C  
HETATM   25  C   UNL     1      -7.390  10.670  63.607  1.00  0.00     0.197 C  
ENDBRANCH  19  20
ENDBRANCH  18  19
ENDBRANCH  17  18
ENDBRANCH  16  17
ENDBRANCH   4  16
BRANCH   9  26
HETATM   26  N   UNL     1      -9.710  11.082  71.513  1.00  0.00     5.927 N  
HETATM   27  O   UNL     1     -11.849  10.447  72.118  1.00  0.00     0.464 OA 
HETATM   28  H   UNL     1      -9.132  11.921  71.544  1.00  0.00     0.000 HD 
HETATM   29  C   UNL     1     -11.059  11.317  71.764  1.00  0.00     4.260 C  
BRANCH  29  30
HETATM   30  C   UNL     1     -11.540  12.719  71.694  1.00  0.00     2.534 A  
HETATM   31  N   UNL     1     -11.751  14.980  72.512  1.00  0.00    -0.345 NA 
HETATM   32  C   UNL     1     -11.321  13.704  72.632  1.00  0.00     3.892 A  
HETATM   33  C   UNL     1     -12.462  15.265  71.407  1.00  0.00    -0.361 A  
HETATM   34  N   UNL     1     -12.709  14.407  70.422  1.00  0.00    -0.342 NA 
HETATM   35  N   UNL     1     -12.905  16.567  71.263  1.00  0.00     0.390 NA 
HETATM   36  H1  UNL     1     -13.444  16.784  70.425  1.00  0.00     0.000 HD 
HETATM   37  C   UNL     1     -12.250  13.147  70.590  1.00  0.00    -0.321 A  
HETATM   38  H2  UNL     1     -12.112  17.206  71.332  1.00  0.00     0.000 HD 
ENDBRANCH  29  30
ENDBRANCH   9  26
ENDBRANCH   2   3
TORSDOF 8
ENDMDL
MODEL      153
REMARK 921   NORMALIZED FREE ENERGY PREDICTED BY IDOCK:   13.64 KCAL/MOL
REMARK 922        TOTAL FREE ENERGY PREDICTED BY IDOCK:   18.82 KCAL/MOL
REMARK 923 INTER-LIGAND FREE ENERGY PREDICTED BY IDOCK:   16.78 KCAL/MOL
REMARK 924 INTRA-LIGAND FREE ENERGY PREDICTED BY IDOCK:    2.03 KCAL/MOL
REMARK 927      BINDING AFFINITY PREDICTED BY RF-SCORE:    0.00 PKD
ROOT
HETATM    1  C   UNL     1     -10.146  17.475  67.331  1.00  0.00    -0.325 C  
HETATM    2  O   UNL     1      -9.087  16.712  66.761  1.00  0.00    -0.214 OA 
ENDROOT
BRANCH   2   3
HETATM    3  C   UNL     1      -7.963  16.566  67.546  1.00  0.00    -0.158 A  
HETATM    4  C   UNL     1      -7.020  17.630  67.477  1.00  0.00    -0.168 A  
HETATM    5  C   UNL     1      -5.852  17.593  68.256  1.00  0.00    -0.160 A  
HETATM    6  C   UNL     1      -5.617  12.316  70.556  1.00  0.00    -0.168 C  
HETATM    7  N   UNL     1      -7.410  13.671  70.424  1.00  0.00     1.219 NA 
HETATM    8  C   UNL     1      -5.566  16.485  69.043  1.00  0.00    -0.130 A  
HETATM    9  C   UNL     1      -8.506  13.580  69.592  1.00  0.00     1.474 A  
HETATM   10  C   UNL     1      -6.495  15.457  69.090  1.00  0.00    -0.128 A  
HETATM   11  C   UNL     1      -6.870  12.690  71.340  1.00  0.00     4.158 C  
HETATM   12  C   UNL     1      -7.724  15.470  68.403  1.00  0.00    -0.124 A  
HETATM   13  N   UNL     1      -8.663  14.396  68.582  1.00  0.00    -0.178 NA 
HETATM   14  C   UNL     1      -6.281  14.260  69.879  1.00  0.00    -0.148 A  
HETATM   15  N   UNL     1      -5.139  13.617  69.979  1.00  0.00    -0.089 NA 
BRANCH   4  16
HETATM   16  O   UNL     1      -7.305  18.696  66.643  1.00  0.00    -0.214 OA 
BRANCH  16  17
HETATM   17  C   UNL     1      -7.348  19.980  67.288  1.00  0.00    -0.257 C  
BRANCH  17  18
HETATM   18  C   UNL     1      -8.718  20.621  67.069  1.00  0.00    -0.278 C  
BRANCH  18  19
HETATM   19  C   UNL     1      -9.806  20.014  67.972  1.00  0.00    -0.394 C  
BRANCH  19  20
HETATM   20  N   UNL     1      -9.290  19.346  69.179  1.00  0.00    -0.296 NA 
HETATM   21  O   UNL     1      -9.889  20.970  71.561  1.00  0.00     2.076 OA 
HETATM   22  C   UNL     1      -8.281  20.148  69.909  1.00  0.00     0.999 C  
HETATM   23  C   UNL     1     -10.376  19.021  70.135  1.00  0.00     1.300 C  
HETATM   24  C   UNL     1     -10.930  20.237  70.902  1.00  0.00     3.994 C  
HETATM   25  C   UNL     1      -8.874  21.368  70.632  1.00  0.00     5.259 C  
ENDBRANCH  19  20
ENDBRANCH  18  19
ENDBRANCH  17  18
ENDBRANCH  16  17
ENDBRANCH   4  16
BRANCH   9  26
HETATM   26  N   UNL     1      -9.475  12.592  69.617  1.00  0.00     0.973 N  
HETATM   27  O   UNL     1     -11.496  13.601  69.125  1.00  0.00    -0.261 OA 
HETATM   28  H   UNL     1      -9.098  11.647  69.693  1.00  0.00     0.000 HD 
HETATM   29  C   UNL     1     -10.865  12.642  69.559  1.00  0.00     0.212 C  
BRANCH  29  30
HETATM   30  C   UNL     1     -11.617  11.425  69.955  1.00  0.00    -0.382 A  
HETATM   31  N   UNL     1     -12.015   9.046  70.002  1.00  0.00     0.285 NA 
HETATM   32  C   UNL     1     -11.321  10.130  69.591  1.00  0.00    -0.235 A  
HETATM   33  C   UNL     1     -13.076   9.285  70.792  1.00  0.00     0.137 A  
HETATM   34  N   UNL     1     -13.438  10.486  71.233  1.00  0.00    -0.180 NA 
HETATM   35  N   UNL     1     -13.795   8.187  71.229  1.00  0.00    -0.585 NA 
HETATM   36  H1  UNL     1     -14.601   8.369  71.829  1.00  0.00     0.000 HD 
HETATM   37  C   UNL     1     -12.706  11.534  70.797  1.00  0.00    -0.227 A  
HETATM   38  H2  UNL     1     -13.166   7.531  71.693  1.00  0.00     0.000 HD 
ENDBRANCH  29  30
ENDBRANCH   9  26
ENDBRANCH   2   3
TORSDOF 8
ENDMDL
MODEL      154
REMARK 921   NORMALIZED FREE ENERGY PREDICTED BY IDOCK:   21.06 KCAL/MOL
REMARK 922        TOTAL FREE ENERGY PREDICTED BY IDOCK:   29.71 KCAL/MOL
REMARK 923 INTER-LIGAND FREE ENERGY PREDICTED BY IDOCK:   29.21 KCAL/MOL
REMARK 924 INTRA-LIGAND FREE ENERGY PREDICTED BY IDOCK:    0.50 KCAL/MOL
REMARK 927      BINDING AFFINITY PREDICTED BY RF-SCORE:    0.00 PKD
ROOT
HETATM    1  C   UNL     1      -7.209   6.715  67.277  1.00  0.00    -0.085 C  
HETATM    2  O   UNL     1      -6.954   5.393  66.810  1.00  0.00    -0.062 OA 
ENDROOT
BRANCH   2   3
HETATM    3  C   UNL     1      -8.066   4.598  66.626  1.00  0.00    -0.103 A  
HETATM    4  C   UNL     1      -7.899   3.221  66.946  1.00  0.00    -0.080 A  
HETATM    5  C   UNL     1      -8.976   2.329  66.818  1.00  0.00    -0.136 A  
HETATM    6  C   UNL     1     -13.154   5.225  64.106  1.00  0.00     8.429 C  
HETATM    7  N   UNL     1     -11.870   5.950  65.808  1.00  0.00     2.363 NA 
HETATM    8  C   UNL     1     -10.192   2.763  66.306  1.00  0.00     1.542 A  
HETATM    9  C   UNL     1     -10.825   6.850  65.784  1.00  0.00     2.607 A  
HETATM   10  C   UNL     1     -10.330   4.106  65.994  1.00  0.00     0.005 A  
HETATM   11  C   UNL     1     -13.231   6.112  65.345  1.00  0.00     9.361 C  
HETATM   12  C   UNL     1      -9.320   5.069  66.180  1.00  0.00    -0.153 A  
HETATM   13  N   UNL     1      -9.584   6.456  65.909  1.00  0.00     0.084 NA 
HETATM   14  C   UNL     1     -11.560   4.649  65.449  1.00  0.00     1.229 A  
HETATM   15  N   UNL     1     -12.300   4.066  64.534  1.00  0.00     3.311 NA 
BRANCH   4  16
HETATM   16  O   UNL     1      -6.662   2.807  67.402  1.00  0.00    -0.039 OA 
BRANCH  16  17
HETATM   17  C   UNL     1      -6.676   2.114  68.662  1.00  0.00    -0.029 C  
BRANCH  17  18
HETATM   18  C   UNL     1      -5.743   2.816  69.647  1.00  0.00    -0.018 C  
BRANCH  18  19
HETATM   19  C   UNL     1      -6.147   2.583  71.113  1.00  0.00    -0.018 C  
BRANCH  19  20
HETATM   20  N   UNL     1      -7.535   2.124  71.296  1.00  0.00    -0.033 NA 
HETATM   21  O   UNL     1      -8.988   3.990  73.051  1.00  0.00    -0.100 OA 
HETATM   22  C   UNL     1      -7.877   1.836  72.708  1.00  0.00    -0.048 C  
HETATM   23  C   UNL     1      -8.514   3.120  70.796  1.00  0.00    -0.064 C  
HETATM   24  C   UNL     1      -8.679   4.356  71.700  1.00  0.00    -0.118 C  
HETATM   25  C   UNL     1      -8.000   3.097  73.579  1.00  0.00    -0.069 C  
ENDBRANCH  19  20
ENDBRANCH  18  19
ENDBRANCH  17  18
ENDBRANCH  16  17
ENDBRANCH   4  16
BRANCH   9  26
HETATM   26  N   UNL     1     -10.915   8.203  65.507  1.00  0.00     3.484 N  
HETATM   27  O   UNL     1      -8.764   8.976  65.160  1.00  0.00    -0.175 OA 
HETATM   28  H   UNL     1     -11.870   8.534  65.369  1.00  0.00     0.000 HD 
HETATM   29  C   UNL     1      -9.951   9.200  65.381  1.00  0.00     0.294 C  
BRANCH  29  30
HETATM   30  C   UNL     1     -10.407  10.611  65.418  1.00  0.00    -0.303 A  
HETATM   31  N   UNL     1     -11.337  12.558  66.498  1.00  0.00    -0.314 NA 
HETATM   32  C   UNL     1     -10.965  11.259  66.499  1.00  0.00    -0.245 A  
HETATM   33  C   UNL     1     -11.166  13.224  65.344  1.00  0.00    -0.287 A  
HETATM   34  N   UNL     1     -10.611  12.715  64.248  1.00  0.00    -0.359 NA 
HETATM   35  N   UNL     1     -11.535  14.558  65.326  1.00  0.00    -0.344 NA 
HETATM   36  H1  UNL     1     -11.405  15.063  64.449  1.00  0.00     0.000 HD 
HETATM   37  C   UNL     1     -10.251  11.413  64.305  1.00  0.00    -0.315 A  
HETATM   38  H2  UNL     1     -11.056  15.053  66.078  1.00  0.00     0.000 HD 
ENDBRANCH  29  30
ENDBRANCH   9  26
ENDBRANCH   2   3
TORSDOF 8
ENDMDL
MODEL      155
REMARK 921   NORMALIZED FREE ENERGY PREDICTED BY IDOCK:   26.74 KCAL/MOL
REMARK 922        TOTAL FREE ENERGY PREDICTED BY IDOCK:   38.04 KCAL/MOL
REMARK 923 INTER-LIGAND FREE ENERGY PREDICTED BY IDOCK:   36.90 KCAL/MOL
REMARK 924 INTRA-LIGAND FREE ENERGY PREDICTED BY IDOCK:    1.14 KCAL/MOL
REMARK 927      BINDING AFFINITY PREDICTED BY RF-SCORE:    0.00 PKD
ROOT
HETATM    1  C   UNL     1     -12.196  14.612  69.699  1.00  0.00    -0.283 C  
HETATM    2  O   UNL     1     -11.642  13.907  70.806  1.00  0.00    -0.150 OA 
ENDROOT
BRANCH   2   3
HETATM    3  C   UNL     1     -10.441  13.272  70.573  1.00  0.00     2.915 A  
HETATM    4  C   UNL     1     -10.263  12.025  71.236  1.00  0.00     8.110 A  
HETATM    5  C   UNL     1      -9.085  11.283  71.046  1.00  0.00     6.776 A  
HETATM    6  C   UNL     1      -5.472  14.711  68.150  1.00  0.00    -0.122 C  
HETATM    7  N   UNL     1      -7.660  14.373  67.740  1.00  0.00    -0.147 NA 
HETATM    8  C   UNL     1      -8.051  11.792  70.272  1.00  0.00     3.248 A  
HETATM    9  C   UNL     1      -8.727  15.211  67.984  1.00  0.00    -0.165 A  
HETATM   10  C   UNL     1      -8.243  13.011  69.641  1.00  0.00     1.600 A  
HETATM   11  C   UNL     1      -6.451  14.623  66.985  1.00  0.00     0.909 C  
HETATM   12  C   UNL     1      -9.430  13.763  69.718  1.00  0.00     1.497 A  
HETATM   13  N   UNL     1      -9.569  14.975  68.958  1.00  0.00    -0.222 NA 
HETATM   14  C   UNL     1      -7.218  13.623  68.817  1.00  0.00    -0.100 A  
HETATM   15  N   UNL     1      -5.936  13.649  69.105  1.00  0.00    -0.083 NA 
BRANCH   4  16
HETATM   16  O   UNL     1     -11.288  11.569  72.044  1.00  0.00     3.237 OA 
BRANCH  16  17
HETATM   17  C   UNL     1     -11.155  10.208  72.490  1.00  0.00     3.631 C  
BRANCH  17  18
HETATM   18  C   UNL     1     -11.330   9.259  71.306  1.00  0.00    -0.423 C  
BRANCH  18  19
HETATM   19  C   UNL     1     -10.053   8.460  70.994  1.00  0.00    -0.196 C  
BRANCH  19  20
HETATM   20  N   UNL     1     -10.294   7.147  70.372  1.00  0.00    -0.201 NA 
HETATM   21  O   UNL     1      -9.224   5.009  72.092  1.00  0.00    -0.134 OA 
HETATM   22  C   UNL     1      -9.050   6.397  70.084  1.00  0.00    -0.154 C  
HETATM   23  C   UNL     1     -11.146   6.282  71.225  1.00  0.00    -0.289 C  
HETATM   24  C   UNL     1     -10.426   5.699  72.456  1.00  0.00    -0.213 C  
HETATM   25  C   UNL     1      -8.349   5.862  71.343  1.00  0.00    -0.128 C  
ENDBRANCH  19  20
ENDBRANCH  18  19
ENDBRANCH  17  18
ENDBRANCH  16  17
ENDBRANCH   4  16
BRANCH   9  26
HETATM   26  N   UNL     1      -8.978  16.421  67.361  1.00  0.00    -0.190 N  
HETATM   27  O   UNL     1     -11.238  16.854  67.590  1.00  0.00    -0.150 OA 
HETATM   28  H   UNL     1      -8.136  16.922  67.078  1.00  0.00     0.000 HD 
HETATM   29  C   UNL     1     -10.161  17.086  67.049  1.00  0.00    -0.295 C  
BRANCH  29  30
HETATM   30  C   UNL     1     -10.088  18.204  66.075  1.00  0.00    -0.272 A  
HETATM   31  N   UNL     1     -11.026  19.740  64.468  1.00  0.00     0.753 NA 
HETATM   32  C   UNL     1     -11.130  18.696  65.320  1.00  0.00     0.931 A  
HETATM   33  C   UNL     1      -9.806  20.291  64.351  1.00  0.00     3.672 A  
HETATM   34  N   UNL     1      -8.736  19.922  65.048  1.00  0.00     0.692 NA 
HETATM   35  N   UNL     1      -9.681  21.365  63.488  1.00  0.00     2.673 NA 
HETATM   36  H1  UNL     1      -8.754  21.783  63.398  1.00  0.00     0.000 HD 
HETATM   37  C   UNL     1      -8.897  18.878  65.891  1.00  0.00     0.173 A  
HETATM   38  H2  UNL     1     -10.356  22.086  63.743  1.00  0.00     0.000 HD 
ENDBRANCH  29  30
ENDBRANCH   9  26
ENDBRANCH   2   3
TORSDOF 8
ENDMDL
MODEL      156
REMARK 921   NORMALIZED FREE ENERGY PREDICTED BY IDOCK:   29.63 KCAL/MOL
REMARK 922        TOTAL FREE ENERGY PREDICTED BY IDOCK:   42.29 KCAL/MOL
REMARK 923 INTER-LIGAND FREE ENERGY PREDICTED BY IDOCK:   32.82 KCAL/MOL
REMARK 924 INTRA-LIGAND FREE ENERGY PREDICTED BY IDOCK:    9.47 KCAL/MOL
REMARK 927      BINDING AFFINITY PREDICTED BY RF-SCORE:    0.00 PKD
ROOT
HETATM    1  C   UNL     1      -9.709   6.746  66.784  1.00  0.00    -0.171 C  
HETATM    2  O   UNL     1      -9.670   7.984  67.488  1.00  0.00    -0.147 OA 
ENDROOT
BRANCH   2   3
HETATM    3  C   UNL     1     -10.886   8.460  67.930  1.00  0.00     0.032 A  
HETATM    4  C   UNL     1     -11.946   7.510  67.962  1.00  0.00     2.621 A  
HETATM    5  C   UNL     1     -13.219   7.886  68.420  1.00  0.00    12.309 A  
HETATM    6  C   UNL     1     -13.099  13.616  69.006  1.00  0.00     2.006 C  
HETATM    7  N   UNL     1     -11.530  12.141  69.665  1.00  0.00    -0.267 NA 
HETATM    8  C   UNL     1     -13.480   9.203  68.775  1.00  0.00     8.982 A  
HETATM    9  C   UNL     1     -10.298  11.876  69.105  1.00  0.00     0.061 A  
HETATM   10  C   UNL     1     -12.435  10.112  68.730  1.00  0.00     1.600 A  
HETATM   11  C   UNL     1     -12.080  13.399  70.121  1.00  0.00    -0.344 C  
HETATM   12  C   UNL     1     -11.116   9.784  68.364  1.00  0.00    -0.088 A  
HETATM   13  N   UNL     1     -10.079  10.777  68.431  1.00  0.00    -0.163 NA 
HETATM   14  C   UNL     1     -12.613  11.509  69.076  1.00  0.00     0.567 A  
HETATM   15  N   UNL     1     -13.647  12.245  68.734  1.00  0.00     4.630 NA 
BRANCH   4  16
HETATM   16  O   UNL     1     -11.671   6.219  67.552  1.00  0.00     0.388 OA 
BRANCH  16  17
HETATM   17  C   UNL     1     -10.285   5.843  67.607  1.00  0.00    -0.187 C  
BRANCH  17  18
HETATM   18  C   UNL     1     -10.029   4.999  68.855  1.00  0.00    -0.236 C  
BRANCH  18  19
HETATM   19  C   UNL     1      -8.865   5.538  69.705  1.00  0.00    -0.119 C  
BRANCH  19  20
HETATM   20  N   UNL     1      -7.580   4.857  69.477  1.00  0.00    -0.056 NA 
HETATM   21  O   UNL     1      -7.973   1.938  69.490  1.00  0.00    -0.042 OA 
HETATM   22  C   UNL     1      -7.178   3.972  70.595  1.00  0.00    -0.038 C  
HETATM   23  C   UNL     1      -7.605   4.031  68.245  1.00  0.00    -0.066 C  
HETATM   24  C   UNL     1      -8.410   2.724  68.374  1.00  0.00    -0.065 C  
HETATM   25  C   UNL     1      -8.029   2.696  70.704  1.00  0.00    -0.042 C  
ENDBRANCH  19  20
ENDBRANCH  18  19
ENDBRANCH  17  18
ENDBRANCH  16  17
ENDBRANCH   4  16
BRANCH   9  26
HETATM   26  N   UNL     1      -9.217  12.739  69.060  1.00  0.00    -0.224 N  
HETATM   27  O   UNL     1      -7.496  11.740  70.238  1.00  0.00     0.930 OA 
HETATM   28  H   UNL     1      -9.342  13.526  68.424  1.00  0.00     0.000 HD 
HETATM   29  C   UNL     1      -7.990  12.737  69.719  1.00  0.00     1.760 C  
BRANCH  29  30
HETATM   30  C   UNL     1      -7.195  13.990  69.703  1.00  0.00     0.169 A  
HETATM   31  N   UNL     1      -5.225  15.311  70.147  1.00  0.00    -0.113 NA 
HETATM   32  C   UNL     1      -5.927  14.158  70.213  1.00  0.00    -0.158 A  
HETATM   33  C   UNL     1      -5.848  16.352  69.567  1.00  0.00    -0.170 A  
HETATM   34  N   UNL     1      -7.056  16.301  69.014  1.00  0.00    -0.184 NA 
HETATM   35  N   UNL     1      -5.144  17.540  69.484  1.00  0.00    -0.163 NA 
HETATM   36  H1  UNL     1      -5.616  18.330  69.044  1.00  0.00     0.000 HD 
HETATM   37  C   UNL     1      -7.710  15.122  69.101  1.00  0.00    -0.195 A  
HETATM   38  H2  UNL     1      -4.252  17.374  69.018  1.00  0.00     0.000 HD 
ENDBRANCH  29  30
ENDBRANCH   9  26
ENDBRANCH   2   3
TORSDOF 8
ENDMDL
MODEL      157
REMARK 921   NORMALIZED FREE ENERGY PREDICTED BY IDOCK:   29.83 KCAL/MOL
REMARK 922        TOTAL FREE ENERGY PREDICTED BY IDOCK:   42.58 KCAL/MOL
REMARK 923 INTER-LIGAND FREE ENERGY PREDICTED BY IDOCK:   36.34 KCAL/MOL
REMARK 924 INTRA-LIGAND FREE ENERGY PREDICTED BY IDOCK:    6.24 KCAL/MOL
REMARK 927      BINDING AFFINITY PREDICTED BY RF-SCORE:    0.00 PKD
ROOT
HETATM    1  C   UNL     1      -9.709  19.178  67.532  1.00  0.00    -0.316 C  
HETATM    2  O   UNL     1      -8.824  18.818  66.475  1.00  0.00    -0.299 OA 
ENDROOT
BRANCH   2   3
HETATM    3  C   UNL     1      -9.314  17.904  65.568  1.00  0.00     0.899 A  
HETATM    4  C   UNL     1      -8.898  18.090  64.219  1.00  0.00     9.216 A  
HETATM    5  C   UNL     1      -9.320  17.199  63.219  1.00  0.00    17.571 A  
HETATM    6  C   UNL     1     -13.333  13.845  65.634  1.00  0.00     0.394 C  
HETATM    7  N   UNL     1     -11.347  14.447  66.509  1.00  0.00    -0.341 NA 
HETATM    8  C   UNL     1     -10.207  16.173  63.518  1.00  0.00     6.832 A  
HETATM    9  C   UNL     1     -11.081  15.355  67.511  1.00  0.00    -0.315 A  
HETATM   10  C   UNL     1     -10.605  16.015  64.837  1.00  0.00    -0.242 A  
HETATM   11  C   UNL     1     -12.222  13.294  66.523  1.00  0.00    -0.327 C  
HETATM   12  C   UNL     1     -10.152  16.818  65.901  1.00  0.00    -0.304 A  
HETATM   13  N   UNL     1     -10.553  16.523  67.249  1.00  0.00    -0.310 NA 
HETATM   14  C   UNL     1     -11.532  14.977  65.243  1.00  0.00    -0.308 A  
HETATM   15  N   UNL     1     -12.608  14.624  64.575  1.00  0.00    -0.613 NA 
BRANCH   4  16
HETATM   16  O   UNL     1      -8.057  19.152  63.941  1.00  0.00     5.533 OA 
BRANCH  16  17
HETATM   17  C   UNL     1      -7.443  19.760  65.089  1.00  0.00     0.292 C  
BRANCH  17  18
HETATM   18  C   UNL     1      -6.688  18.702  65.891  1.00  0.00    -0.302 C  
BRANCH  18  19
HETATM   19  C   UNL     1      -6.548  19.076  67.378  1.00  0.00    -0.197 C  
BRANCH  19  20
HETATM   20  N   UNL     1      -5.319  18.576  68.017  1.00  0.00    -0.169 NA 
HETATM   21  O   UNL     1      -5.998  17.002  70.411  1.00  0.00    -0.131 OA 
HETATM   22  C   UNL     1      -5.140  19.061  69.405  1.00  0.00    -0.182 C  
HETATM   23  C   UNL     1      -5.281  17.094  68.056  1.00  0.00    -0.117 C  
HETATM   24  C   UNL     1      -6.222  16.464  69.101  1.00  0.00    -0.169 C  
HETATM   25  C   UNL     1      -6.120  18.430  70.406  1.00  0.00     0.097 C  
ENDBRANCH  19  20
ENDBRANCH  18  19
ENDBRANCH  17  18
ENDBRANCH  16  17
ENDBRANCH   4  16
BRANCH   9  26
HETATM   26  N   UNL     1     -11.431  15.229  68.845  1.00  0.00    -0.312 N  
HETATM   27  O   UNL     1     -11.845  12.988  69.236  1.00  0.00    -0.302 OA 
HETATM   28  H   UNL     1     -11.294  16.081  69.389  1.00  0.00     0.000 HD 
HETATM   29  C   UNL     1     -11.934  14.162  69.584  1.00  0.00    -0.336 C  
BRANCH  29  30
HETATM   30  C   UNL     1     -12.522  14.460  70.914  1.00  0.00    -0.424 A  
HETATM   31  N   UNL     1     -13.351  13.858  73.099  1.00  0.00    -0.489 NA 
HETATM   32  C   UNL     1     -12.846  13.539  71.886  1.00  0.00    -0.272 A  
HETATM   33  C   UNL     1     -13.568  15.165  73.326  1.00  0.00    -0.099 A  
HETATM   34  N   UNL     1     -13.267  16.144  72.478  1.00  0.00    -0.301 NA 
HETATM   35  N   UNL     1     -14.078  15.512  74.564  1.00  0.00     3.121 NA 
HETATM   36  H1  UNL     1     -14.242  16.504  74.737  1.00  0.00     0.000 HD 
HETATM   37  C   UNL     1     -12.758  15.769  71.283  1.00  0.00    -0.438 A  
HETATM   38  H2  UNL     1     -13.477  15.134  75.297  1.00  0.00     0.000 HD 
ENDBRANCH  29  30
ENDBRANCH   9  26
ENDBRANCH   2   3
TORSDOF 8
ENDMDL
MODEL      158
REMARK 921   NORMALIZED FREE ENERGY PREDICTED BY IDOCK:   44.65 KCAL/MOL
REMARK 922        TOTAL FREE ENERGY PREDICTED BY IDOCK:   64.33 KCAL/MOL
REMARK 923 INTER-LIGAND FREE ENERGY PREDICTED BY IDOCK:   28.02 KCAL/MOL
REMARK 924 INTRA-LIGAND FREE ENERGY PREDICTED BY IDOCK:   36.31 KCAL/MOL
REMARK 927      BINDING AFFINITY PREDICTED BY RF-SCORE:    0.00 PKD
ROOT
HETATM    1  C   UNL     1      -9.702   9.938  67.911  1.00  0.00    -0.140 C  
HETATM    2  O   UNL     1      -9.580   8.525  67.780  1.00  0.00    -0.149 OA 
ENDROOT
BRANCH   2   3
HETATM    3  C   UNL     1      -8.904   7.885  68.796  1.00  0.00    -0.138 A  
HETATM    4  C   UNL     1      -8.165   6.729  68.414  1.00  0.00    -0.119 A  
HETATM    5  C   UNL     1      -7.420   6.017  69.368  1.00  0.00    -0.088 A  
HETATM    6  C   UNL     1      -8.872   8.197  74.500  1.00  0.00     0.508 C  
HETATM    7  N   UNL     1      -8.391   9.335  72.618  1.00  0.00     0.472 NA 
HETATM    8  C   UNL     1      -7.456   6.386  70.707  1.00  0.00    -0.087 A  
HETATM    9  C   UNL     1      -9.246   9.999  71.764  1.00  0.00     3.312 A  
HETATM   10  C   UNL     1      -8.187   7.510  71.058  1.00  0.00    -0.108 A  
HETATM   11  C   UNL     1      -8.212   9.494  74.045  1.00  0.00     2.959 C  
HETATM   12  C   UNL     1      -8.885   8.318  70.140  1.00  0.00    -0.141 A  
HETATM   13  N   UNL     1      -9.544   9.514  70.587  1.00  0.00    -0.258 NA 
HETATM   14  C   UNL     1      -8.287   7.967  72.431  1.00  0.00    -0.138 A  
HETATM   15  N   UNL     1      -8.445   7.185  73.476  1.00  0.00    -0.121 NA 
BRANCH   4  16
HETATM   16  O   UNL     1      -8.191   6.354  67.084  1.00  0.00    -0.111 OA 
BRANCH  16  17
HETATM   17  C   UNL     1      -6.903   6.129  66.488  1.00  0.00    -0.062 C  
BRANCH  17  18
HETATM   18  C   UNL     1      -5.813   6.732  67.373  1.00  0.00    -0.013 C  
BRANCH  18  19
HETATM   19  C   UNL     1      -5.938   8.259  67.508  1.00  0.00    -0.047 C  
BRANCH  19  20
HETATM   20  N   UNL     1      -6.417   8.716  68.823  1.00  0.00    -0.052 NA 
HETATM   21  O   UNL     1      -7.864  11.265  68.537  1.00  0.00    -0.123 OA 
HETATM   22  C   UNL     1      -5.865  10.031  69.225  1.00  0.00    -0.037 C  
HETATM   23  C   UNL     1      -7.896   8.824  68.864  1.00  0.00    -0.104 C  
HETATM   24  C   UNL     1      -8.464  10.038  68.104  1.00  0.00    -0.114 C  
HETATM   25  C   UNL     1      -6.437  11.208  68.419  1.00  0.00    -0.057 C  
ENDBRANCH  19  20
ENDBRANCH  18  19
ENDBRANCH  17  18
ENDBRANCH  16  17
ENDBRANCH   4  16
BRANCH   9  26
HETATM   26  N   UNL     1      -9.975  11.139  72.058  1.00  0.00     8.839 N  
HETATM   27  O   UNL     1     -11.993  10.450  72.950  1.00  0.00     2.258 OA 
HETATM   28  H   UNL     1      -9.442  12.004  71.967  1.00  0.00     0.000 HD 
HETATM   29  C   UNL     1     -11.297  11.329  72.452  1.00  0.00     6.136 C  
BRANCH  29  30
HETATM   30  C   UNL     1     -11.856  12.700  72.353  1.00  0.00     3.436 A  
HETATM   31  N   UNL     1     -11.722  15.107  72.466  1.00  0.00    -0.402 NA 
HETATM   32  C   UNL     1     -11.181  13.876  72.600  1.00  0.00     3.438 A  
HETATM   33  C   UNL     1     -13.013  15.150  72.095  1.00  0.00    -0.353 A  
HETATM   34  N   UNL     1     -13.755  14.087  71.800  1.00  0.00    -0.388 NA 
HETATM   35  N   UNL     1     -13.583  16.402  71.945  1.00  0.00     0.437 NA 
HETATM   36  H1  UNL     1     -14.563  16.436  71.664  1.00  0.00     0.000 HD 
HETATM   37  C   UNL     1     -13.162  12.881  71.945  1.00  0.00    -0.423 A  
HETATM   38  H2  UNL     1     -13.023  16.955  71.295  1.00  0.00     0.000 HD 
ENDBRANCH  29  30
ENDBRANCH   9  26
ENDBRANCH   2   3
TORSDOF 8
ENDMDL
MODEL      159
REMARK 921   NORMALIZED FREE ENERGY PREDICTED BY IDOCK:   59.29 KCAL/MOL
REMARK 922        TOTAL FREE ENERGY PREDICTED BY IDOCK:   85.81 KCAL/MOL
REMARK 923 INTER-LIGAND FREE ENERGY PREDICTED BY IDOCK:   71.17 KCAL/MOL
REMARK 924 INTRA-LIGAND FREE ENERGY PREDICTED BY IDOCK:   14.64 KCAL/MOL
REMARK 927      BINDING AFFINITY PREDICTED BY RF-SCORE:    0.00 PKD
ROOT
HETATM    1  C   UNL     1      -9.845   6.913  66.155  1.00  0.00     0.173 C  
HETATM    2  O   UNL     1      -9.889   8.140  66.878  1.00  0.00    -0.200 OA 
ENDROOT
BRANCH   2   3
HETATM    3  C   UNL     1     -11.143   8.562  67.265  1.00  0.00     0.458 A  
HETATM    4  C   UNL     1     -12.208   7.655  67.003  1.00  0.00     5.852 A  
HETATM    5  C   UNL     1     -13.522   7.977  67.380  1.00  0.00    19.825 A  
HETATM    6  C   UNL     1     -13.417  13.494  69.036  1.00  0.00     3.902 C  
HETATM    7  N   UNL     1     -11.947  11.876  69.576  1.00  0.00    -0.306 NA 
HETATM    8  C   UNL     1     -13.809   9.213  67.944  1.00  0.00    18.415 A  
HETATM    9  C   UNL     1     -10.662  11.684  69.115  1.00  0.00    -0.145 A  
HETATM   10  C   UNL     1     -12.758  10.084  68.185  1.00  0.00     4.988 A  
HETATM   11  C   UNL     1     -12.534  13.045  70.195  1.00  0.00    -0.096 C  
HETATM   12  C   UNL     1     -11.409   9.789  67.911  1.00  0.00     0.226 A  
HETATM   13  N   UNL     1     -10.377  10.722  68.275  1.00  0.00    -0.165 NA 
HETATM   14  C   UNL     1     -12.962  11.397  68.764  1.00  0.00     2.228 A  
HETATM   15  N   UNL     1     -13.944  12.214  68.454  1.00  0.00     8.512 NA 
BRANCH   4  16
HETATM   16  O   UNL     1     -11.900   6.454  66.391  1.00  0.00     1.058 OA 
BRANCH  16  17
HETATM   17  C   UNL     1     -10.555   6.349  65.894  1.00  0.00     1.056 C  
BRANCH  17  18
HETATM   18  C   UNL     1     -10.264   4.903  65.495  1.00  0.00    -0.092 C  
BRANCH  18  19
HETATM   19  C   UNL     1      -9.117   4.284  66.313  1.00  0.00    -0.129 C  
BRANCH  19  20
HETATM   20  N   UNL     1      -7.835   4.200  65.594  1.00  0.00    -0.090 NA 
HETATM   21  O   UNL     1      -6.023   6.330  66.517  1.00  0.00    -0.026 OA 
HETATM   22  C   UNL     1      -7.520   5.417  64.810  1.00  0.00    -0.070 C  
HETATM   23  C   UNL     1      -6.700   3.961  66.519  1.00  0.00    -0.046 C  
HETATM   24  C   UNL     1      -6.289   5.193  67.348  1.00  0.00    -0.040 C  
HETATM   25  C   UNL     1      -7.147   6.627  65.680  1.00  0.00    -0.061 C  
ENDBRANCH  19  20
ENDBRANCH  18  19
ENDBRANCH  17  18
ENDBRANCH  16  17
ENDBRANCH   4  16
BRANCH   9  26
HETATM   26  N   UNL     1      -9.574  12.507  69.351  1.00  0.00     0.263 N  
HETATM   27  O   UNL     1      -7.673  11.208  69.140  1.00  0.00    -0.129 OA 
HETATM   28  H   UNL     1      -9.812  13.497  69.415  1.00  0.00     0.000 HD 
HETATM   29  C   UNL     1      -8.218  12.241  69.517  1.00  0.00     1.228 C  
BRANCH  29  30
HETATM   30  C   UNL     1      -7.370  13.314  70.095  1.00  0.00     1.411 A  
HETATM   31  N   UNL     1      -5.264  14.292  70.750  1.00  0.00    -0.112 NA 
HETATM   32  C   UNL     1      -6.001  13.277  70.248  1.00  0.00    -0.134 A  
HETATM   33  C   UNL     1      -5.945  15.382  71.144  1.00  0.00     0.370 A  
HETATM   34  N   UNL     1      -7.259  15.543  71.018  1.00  0.00     1.546 NA 
HETATM   35  N   UNL     1      -5.207  16.435  71.655  1.00  0.00    -0.130 NA 
HETATM   36  H1  UNL     1      -5.724  17.262  71.954  1.00  0.00     0.000 HD 
HETATM   37  C   UNL     1      -7.947  14.500  70.503  1.00  0.00     1.629 A  
HETATM   38  H2  UNL     1      -4.491  16.706  70.981  1.00  0.00     0.000 HD 
ENDBRANCH  29  30
ENDBRANCH   9  26
ENDBRANCH   2   3
TORSDOF 8
ENDMDL
MODEL      160
REMARK 921   NORMALIZED FREE ENERGY PREDICTED BY IDOCK:   59.33 KCAL/MOL
REMARK 922        TOTAL FREE ENERGY PREDICTED BY IDOCK:   85.88 KCAL/MOL
REMARK 923 INTER-LIGAND FREE ENERGY PREDICTED BY IDOCK:   81.33 KCAL/MOL
REMARK 924 INTRA-LIGAND FREE ENERGY PREDICTED BY IDOCK:    4.55 KCAL/MOL
REMARK 927      BINDING AFFINITY PREDICTED BY RF-SCORE:    0.00 PKD
ROOT
HETATM    1  C   UNL     1      -6.789   6.468  66.467  1.00  0.00    -0.065 C  
HETATM    2  O   UNL     1      -7.487   7.709  66.403  1.00  0.00    -0.081 OA 
ENDROOT
BRANCH   2   3
HETATM    3  C   UNL     1      -8.862   7.625  66.427  1.00  0.00    -0.156 A  
HETATM    4  C   UNL     1      -9.397   6.351  66.772  1.00  0.00    -0.147 A  
HETATM    5  C   UNL     1     -10.786   6.164  66.850  1.00  0.00    -0.411 A  
HETATM    6  C   UNL     1     -13.181  10.949  64.715  1.00  0.00     5.851 C  
HETATM    7  N   UNL     1     -11.462  10.809  66.164  1.00  0.00     0.199 NA 
HETATM    8  C   UNL     1     -11.655   7.195  66.518  1.00  0.00     2.221 A  
HETATM    9  C   UNL     1     -10.119  11.027  65.940  1.00  0.00    -0.249 A  
HETATM   10  C   UNL     1     -11.113   8.425  66.179  1.00  0.00     2.448 A  
HETATM   11  C   UNL     1     -12.588  11.683  65.914  1.00  0.00     2.438 C  
HETATM   12  C   UNL     1      -9.734   8.705  66.166  1.00  0.00    -0.222 A  
HETATM   13  N   UNL     1      -9.269  10.035  65.885  1.00  0.00    -0.157 NA 
HETATM   14  C   UNL     1     -11.941   9.558  65.813  1.00  0.00     7.097 A  
HETATM   15  N   UNL     1     -13.009   9.495  65.049  1.00  0.00    14.573 NA 
BRANCH   4  16
HETATM   16  O   UNL     1      -8.508   5.327  67.044  1.00  0.00    -0.108 OA 
BRANCH  16  17
HETATM   17  C   UNL     1      -8.286   5.067  68.441  1.00  0.00    -0.088 C  
BRANCH  17  18
HETATM   18  C   UNL     1      -6.802   5.227  68.766  1.00  0.00    -0.055 C  
BRANCH  18  19
HETATM   19  C   UNL     1      -6.388   4.458  70.032  1.00  0.00    -0.027 C  
BRANCH  19  20
HETATM   20  N   UNL     1      -7.511   4.076  70.906  1.00  0.00    -0.043 NA 
HETATM   21  O   UNL     1      -7.763   6.001  73.120  1.00  0.00    -0.097 OA 
HETATM   22  C   UNL     1      -7.100   3.792  72.300  1.00  0.00    -0.047 C  
HETATM   23  C   UNL     1      -8.554   5.129  70.956  1.00  0.00    -0.124 C  
HETATM   24  C   UNL     1      -8.168   6.363  71.793  1.00  0.00    -0.113 C  
HETATM   25  C   UNL     1      -6.694   5.048  73.087  1.00  0.00    -0.068 C  
ENDBRANCH  19  20
ENDBRANCH  18  19
ENDBRANCH  17  18
ENDBRANCH  16  17
ENDBRANCH   4  16
BRANCH   9  26
HETATM   26  N   UNL     1      -9.527  12.239  65.627  1.00  0.00    -0.420 N  
HETATM   27  O   UNL     1      -7.527  11.769  64.567  1.00  0.00     2.046 OA 
HETATM   28  H   UNL     1     -10.131  13.046  65.782  1.00  0.00     0.000 HD 
HETATM   29  C   UNL     1      -8.264  12.565  65.142  1.00  0.00     2.685 C  
BRANCH  29  30
HETATM   30  C   UNL     1      -7.832  13.982  65.239  1.00  0.00     6.988 A  
HETATM   31  N   UNL     1      -7.329  16.015  66.439  1.00  0.00    -0.037 NA 
HETATM   32  C   UNL     1      -7.761  14.735  66.391  1.00  0.00     1.270 A  
HETATM   33  C   UNL     1      -6.983  16.568  65.264  1.00  0.00     4.100 A  
HETATM   34  N   UNL     1      -6.980  15.932  64.097  1.00  0.00    13.585 NA 
HETATM   35  N   UNL     1      -6.532  17.876  65.294  1.00  0.00    -0.205 NA 
HETATM   36  H1  UNL     1      -6.269  18.296  64.402  1.00  0.00     0.000 HD 
HETATM   37  C   UNL     1      -7.414  14.652  64.107  1.00  0.00    18.746 A  
HETATM   38  H2  UNL     1      -5.753  17.952  65.949  1.00  0.00     0.000 HD 
ENDBRANCH  29  30
ENDBRANCH   9  26
ENDBRANCH   2   3
TORSDOF 8
ENDMDL
