MODEL        1
REMARK 921   NORMALIZED FREE ENERGY PREDICTED BY IDOCK:   -7.10 KCAL/MOL
REMARK 922        TOTAL FREE ENERGY PREDICTED BY IDOCK:  -12.50 KCAL/MOL
REMARK 923 INTER-LIGAND FREE ENERGY PREDICTED BY IDOCK:  -10.43 KCAL/MOL
REMARK 924 INTRA-LIGAND FREE ENERGY PREDICTED BY IDOCK:   -2.08 KCAL/MOL
REMARK 927      BINDING AFFINITY PREDICTED BY RF-SCORE:    0.00 PKD
ROOT
HETATM    1 CU   UNL     1      -9.891  13.124  69.062  1.00  0.00    -0.246 Cu 
HETATM    2  O   UNL     2      -8.735  17.976  65.721  1.00  0.00    -0.482 OA 
HETATM    3  C   UNL     2      -9.258  18.275  67.023  1.00  0.00    -0.274 C  
HETATM    4  H   UNL     2      -8.784  18.776  65.210  1.00  0.00     0.000 HD 
HETATM    5  O   UNL     3     -14.182   8.983  73.283  1.00  0.00    -1.192 OA 
HETATM    6  H   UNL     3     -14.947   9.527  73.139  1.00  0.00     0.000 HD 
HETATM    7  C   UNL     3     -13.201   9.295  72.273  1.00  0.00    -0.460 C  
ENDROOT
BRANCH   3   8
HETATM    8  C   UNL     2      -9.179  16.990  67.844  1.00  0.00    -0.239 C  
HETATM    9  O   UNL     2     -10.287  16.934  68.764  1.00  0.00    -0.282 OA 
HETATM   10  H   UNL     2     -10.237  16.135  69.276  1.00  0.00     0.000 HD 
BRANCH   8  11
HETATM   11  C   UNL     2      -9.131  15.731  66.955  1.00  0.00    -0.220 C  
HETATM   12  O   UNL     2      -8.515  14.696  67.726  1.00  0.00    -0.157 OA 
HETATM   13  H   UNL     2      -8.485  13.920  67.179  1.00  0.00     0.000 HD 
BRANCH  11  14
HETATM   14  C   UNL     2     -10.571  15.351  66.558  1.00  0.00    -0.306 C  
HETATM   15  H   UNL     2     -12.011  14.241  67.341  1.00  0.00     0.000 HD 
HETATM   16  O   UNL     2     -11.123  14.476  67.585  1.00  0.00    -0.285 OA 
BRANCH  14  17
HETATM   17  C   UNL     2     -10.777  14.763  65.161  1.00  0.00    -0.415 C  
HETATM   18  C   UNL     2     -11.690  15.704  64.334  1.00  0.00    -0.218 C  
HETATM   19  H   UNL     2     -11.372  13.048  64.401  1.00  0.00     0.000 HD 
HETATM   20  O   UNL     2     -11.244  13.413  65.269  1.00  0.00    -0.287 OA 
HETATM   21  O   UNL     2     -11.292  16.911  64.407  1.00  0.00    -1.133 OA 
HETATM   22  O   UNL     2     -12.620  15.156  63.710  1.00  0.00    -0.752 OA 
ENDBRANCH  14  17
ENDBRANCH  11  14
ENDBRANCH   8  11
ENDBRANCH   3   8
BRANCH   7  23
HETATM   23  C   UNL     3     -11.965   8.416  72.506  1.00  0.00    -0.350 C  
HETATM   24  O   UNL     3     -12.384   7.036  72.490  1.00  0.00    -0.498 OA 
HETATM   25  H   UNL     3     -11.618   6.492  72.635  1.00  0.00     0.000 HD 
BRANCH  23  26
HETATM   26  C   UNL     3     -10.844   8.502  71.451  1.00  0.00    -0.260 C  
HETATM   27  O   UNL     3     -10.072   7.299  71.407  1.00  0.00    -0.188 OA 
HETATM   28  H   UNL     3      -9.381   7.352  70.757  1.00  0.00     0.000 HD 
BRANCH  26  29
HETATM   29  C   UNL     3     -11.218   8.904  70.008  1.00  0.00    -0.110 C  
HETATM   30  O   UNL     3     -10.790   7.934  69.038  1.00  0.00    -0.393 OA 
HETATM   31  H   UNL     3     -11.021   8.181  68.150  1.00  0.00     0.000 HD 
BRANCH  29  32
HETATM   32  C   UNL     3     -10.757  10.276  69.530  1.00  0.00    -0.249 C  
HETATM   33  C   UNL     3     -11.902  11.257  69.223  1.00  0.00    -0.354 C  
HETATM   34  O   UNL     3      -9.976  10.110  68.269  1.00  0.00    -0.143 OA 
HETATM   35  O   UNL     3     -12.237  11.236  67.967  1.00  0.00    -0.621 OA 
HETATM   36  O   UNL     3     -12.099  12.175  70.043  1.00  0.00    -0.313 OA 
HETATM   37  H   UNL     3      -9.688  10.965  67.970  1.00  0.00     0.000 HD 
ENDBRANCH  29  32
ENDBRANCH  26  29
ENDBRANCH  23  26
ENDBRANCH   7  23
TORSDOF 8
ENDMDL
MODEL        2
REMARK 921   NORMALIZED FREE ENERGY PREDICTED BY IDOCK:   -7.03 KCAL/MOL
REMARK 922        TOTAL FREE ENERGY PREDICTED BY IDOCK:  -12.39 KCAL/MOL
REMARK 923 INTER-LIGAND FREE ENERGY PREDICTED BY IDOCK:  -10.49 KCAL/MOL
REMARK 924 INTRA-LIGAND FREE ENERGY PREDICTED BY IDOCK:   -1.90 KCAL/MOL
REMARK 927      BINDING AFFINITY PREDICTED BY RF-SCORE:    0.00 PKD
ROOT
HETATM    1 CU   UNL     1      -9.847  10.321  68.941  1.00  0.00    -0.148 Cu 
HETATM    2  O   UNL     2     -10.655   5.105  71.800  1.00  0.00    -0.214 OA 
HETATM    3  C   UNL     2     -11.658   6.090  72.088  1.00  0.00    -0.293 C  
HETATM    4  H   UNL     2     -10.751   4.412  72.443  1.00  0.00     0.000 HD 
HETATM    5  O   UNL     3      -9.257  17.600  68.693  1.00  0.00    -0.282 OA 
HETATM    6  H   UNL     3      -9.270  17.691  69.639  1.00  0.00     0.000 HD 
HETATM    7  C   UNL     3      -8.970  16.224  68.370  1.00  0.00    -0.203 C  
ENDROOT
BRANCH   3   8
HETATM    8  C   UNL     2     -11.504   7.202  71.054  1.00  0.00    -0.297 C  
HETATM    9  O   UNL     2     -11.662   6.658  69.729  1.00  0.00    -0.603 OA 
HETATM   10  H   UNL     2     -11.566   7.350  69.086  1.00  0.00     0.000 HD 
BRANCH   8  11
HETATM   11  C   UNL     2     -12.487   8.366  71.297  1.00  0.00    -0.244 C  
HETATM   12  O   UNL     2     -12.544   8.580  72.710  1.00  0.00    -0.580 OA 
HETATM   13  H   UNL     2     -13.149   9.296  72.860  1.00  0.00     0.000 HD 
BRANCH  11  14
HETATM   14  C   UNL     2     -11.964   9.617  70.563  1.00  0.00    -0.172 C  
HETATM   15  H   UNL     2     -10.300  10.688  70.599  1.00  0.00     0.000 HD 
HETATM   16  O   UNL     2     -10.623   9.918  71.051  1.00  0.00    -0.290 OA 
BRANCH  14  17
HETATM   17  C   UNL     2     -12.852  10.861  70.584  1.00  0.00    -0.255 C  
HETATM   18  C   UNL     2     -12.274  11.925  69.616  1.00  0.00    -0.153 C  
HETATM   19  H   UNL     2     -13.581  12.080  71.947  1.00  0.00     0.000 HD 
HETATM   20  O   UNL     2     -13.029  11.307  71.934  1.00  0.00    -0.456 OA 
HETATM   21  O   UNL     2     -12.006  11.417  68.480  1.00  0.00    -0.498 OA 
HETATM   22  O   UNL     2     -12.196  13.087  70.063  1.00  0.00    -0.299 OA 
ENDBRANCH  14  17
ENDBRANCH  11  14
ENDBRANCH   8  11
ENDBRANCH   3   8
BRANCH   7  23
HETATM   23  C   UNL     3      -8.950  16.076  66.843  1.00  0.00    -0.227 C  
HETATM   24  O   UNL     3      -8.546  14.727  66.527  1.00  0.00    -0.424 OA 
HETATM   25  H   UNL     3      -8.533  14.636  65.581  1.00  0.00     0.000 HD 
BRANCH  23  26
HETATM   26  C   UNL     3     -10.290  16.271  66.108  1.00  0.00    -0.341 C  
HETATM   27  O   UNL     3     -10.526  17.648  65.802  1.00  0.00    -0.550 OA 
HETATM   28  H   UNL     3     -11.352  17.768  65.349  1.00  0.00     0.000 HD 
BRANCH  26  29
HETATM   29  C   UNL     3     -10.569  15.428  64.845  1.00  0.00    -0.352 C  
HETATM   30  O   UNL     3     -11.411  16.110  63.902  1.00  0.00    -1.351 OA 
HETATM   31  H   UNL     3     -11.582  15.591  63.124  1.00  0.00     0.000 HD 
BRANCH  29  32
HETATM   32  C   UNL     3     -11.143  14.031  65.057  1.00  0.00    -0.363 C  
HETATM   33  C   UNL     3     -12.577  13.850  64.531  1.00  0.00    -0.205 C  
HETATM   34  O   UNL     3     -11.177  13.742  66.522  1.00  0.00    -0.303 OA 
HETATM   35  O   UNL     3     -13.466  14.059  65.457  1.00  0.00    -0.677 OA 
HETATM   36  O   UNL     3     -12.718  13.192  63.481  1.00  0.00    -0.711 OA 
HETATM   37  H   UNL     3     -11.535  12.873  66.655  1.00  0.00     0.000 HD 
ENDBRANCH  29  32
ENDBRANCH  26  29
ENDBRANCH  23  26
ENDBRANCH   7  23
TORSDOF 8
ENDMDL
MODEL        3
REMARK 921   NORMALIZED FREE ENERGY PREDICTED BY IDOCK:   -7.02 KCAL/MOL
REMARK 922        TOTAL FREE ENERGY PREDICTED BY IDOCK:  -12.38 KCAL/MOL
REMARK 923 INTER-LIGAND FREE ENERGY PREDICTED BY IDOCK:  -10.20 KCAL/MOL
REMARK 924 INTRA-LIGAND FREE ENERGY PREDICTED BY IDOCK:   -2.18 KCAL/MOL
REMARK 927      BINDING AFFINITY PREDICTED BY RF-SCORE:    0.00 PKD
ROOT
HETATM    1 CU   UNL     1      -9.270  15.924  68.216  1.00  0.00    -0.173 Cu 
HETATM    2  O   UNL     2      -6.986  20.953  65.864  1.00  0.00    -0.486 OA 
HETATM    3  C   UNL     2      -7.004  20.935  67.299  1.00  0.00    -0.376 C  
HETATM    4  H   UNL     2      -6.809  21.848  65.599  1.00  0.00     0.000 HD 
HETATM    5  O   UNL     3     -13.774  12.257  72.649  1.00  0.00    -0.527 OA 
HETATM    6  H   UNL     3     -14.243  13.040  72.915  1.00  0.00     0.000 HD 
HETATM    7  C   UNL     3     -13.026  12.556  71.452  1.00  0.00    -0.251 C  
ENDROOT
BRANCH   3   8
HETATM    8  C   UNL     2      -7.287  19.498  67.726  1.00  0.00    -0.262 C  
HETATM    9  O   UNL     2      -6.684  19.246  69.010  1.00  0.00    -0.288 OA 
HETATM   10  H   UNL     2      -6.860  18.350  69.276  1.00  0.00     0.000 HD 
BRANCH   8  11
HETATM   11  C   UNL     2      -8.797  19.182  67.750  1.00  0.00    -0.301 C  
HETATM   12  O   UNL     2      -9.487  20.407  67.486  1.00  0.00    -0.388 OA 
HETATM   13  H   UNL     2     -10.416  20.213  67.501  1.00  0.00     0.000 HD 
BRANCH  11  14
HETATM   14  C   UNL     2      -9.099  18.125  66.669  1.00  0.00    -0.282 C  
HETATM   15  H   UNL     2      -8.249  17.546  64.979  1.00  0.00     0.000 HD 
HETATM   16  O   UNL     2      -8.063  18.197  65.645  1.00  0.00    -0.488 OA 
BRANCH  14  17
HETATM   17  C   UNL     2     -10.495  18.143  66.047  1.00  0.00    -0.335 C  
HETATM   18  C   UNL     2     -10.727  16.826  65.261  1.00  0.00    -0.169 C  
HETATM   19  H   UNL     2     -11.535  19.351  64.893  1.00  0.00     0.000 HD 
HETATM   20  O   UNL     2     -10.668  19.340  65.280  1.00  0.00    -0.455 OA 
HETATM   21  O   UNL     2     -10.413  15.811  65.962  1.00  0.00    -0.308 OA 
HETATM   22  O   UNL     2     -11.208  16.948  64.117  1.00  0.00    -1.176 OA 
ENDBRANCH  14  17
ENDBRANCH  11  14
ENDBRANCH   8  11
ENDBRANCH   3   8
BRANCH   7  23
HETATM   23  C   UNL     3     -12.268  11.293  71.023  1.00  0.00    -0.311 C  
HETATM   24  O   UNL     3     -13.229  10.337  70.530  1.00  0.00    -0.542 OA 
HETATM   25  H   UNL     3     -12.760   9.554  70.264  1.00  0.00     0.000 HD 
BRANCH  23  26
HETATM   26  C   UNL     3     -11.246  11.451  69.881  1.00  0.00    -0.143 C  
HETATM   27  O   UNL     3     -10.176  10.510  70.000  1.00  0.00    -0.430 OA 
HETATM   28  H   UNL     3      -9.545  10.608  69.296  1.00  0.00     0.000 HD 
BRANCH  26  29
HETATM   29  C   UNL     3     -11.758  11.437  68.425  1.00  0.00    -0.303 C  
HETATM   30  O   UNL     3     -11.724  10.125  67.841  1.00  0.00    -0.646 OA 
HETATM   31  H   UNL     3     -12.039  10.117  66.945  1.00  0.00     0.000 HD 
BRANCH  29  32
HETATM   32  C   UNL     3     -11.092  12.400  67.447  1.00  0.00    -0.272 C  
HETATM   33  C   UNL     3     -11.616  12.301  66.004  1.00  0.00    -0.393 C  
HETATM   34  O   UNL     3      -9.629  12.103  67.400  1.00  0.00    -0.174 OA 
HETATM   35  O   UNL     3     -10.896  11.497  65.278  1.00  0.00    -0.287 OA 
HETATM   36  O   UNL     3     -12.360  13.219  65.606  1.00  0.00    -0.436 OA 
HETATM   37  H   UNL     3      -9.213  12.702  66.792  1.00  0.00     0.000 HD 
ENDBRANCH  29  32
ENDBRANCH  26  29
ENDBRANCH  23  26
ENDBRANCH   7  23
TORSDOF 8
ENDMDL
MODEL        4
REMARK 921   NORMALIZED FREE ENERGY PREDICTED BY IDOCK:   -6.99 KCAL/MOL
REMARK 922        TOTAL FREE ENERGY PREDICTED BY IDOCK:  -12.34 KCAL/MOL
REMARK 923 INTER-LIGAND FREE ENERGY PREDICTED BY IDOCK:  -10.24 KCAL/MOL
REMARK 924 INTRA-LIGAND FREE ENERGY PREDICTED BY IDOCK:   -2.10 KCAL/MOL
REMARK 927      BINDING AFFINITY PREDICTED BY RF-SCORE:    0.00 PKD
ROOT
HETATM    1 CU   UNL     1     -10.552  11.041  70.497  1.00  0.00    -0.413 Cu 
HETATM    2  O   UNL     2     -10.087  16.686  68.508  1.00  0.00    -0.240 OA 
HETATM    3  C   UNL     2     -10.632  15.771  67.546  1.00  0.00    -0.309 C  
HETATM    4  H   UNL     2      -9.864  17.483  68.040  1.00  0.00     0.000 HD 
HETATM    5  O   UNL     3      -9.471   3.834  69.978  1.00  0.00    -0.165 OA 
HETATM    6  H   UNL     3      -8.925   3.913  69.203  1.00  0.00     0.000 HD 
HETATM    7  C   UNL     3      -9.567   5.129  70.604  1.00  0.00    -0.180 C  
ENDROOT
BRANCH   3   8
HETATM    8  C   UNL     2     -10.991  14.492  68.297  1.00  0.00    -0.247 C  
HETATM    9  O   UNL     2     -12.424  14.358  68.369  1.00  0.00    -0.583 OA 
HETATM   10  H   UNL     2     -12.647  13.562  68.837  1.00  0.00     0.000 HD 
BRANCH   8  11
HETATM   11  C   UNL     2     -10.348  13.242  67.662  1.00  0.00    -0.230 C  
HETATM   12  O   UNL     2      -9.827  12.448  68.731  1.00  0.00    -0.396 OA 
HETATM   13  H   UNL     2      -9.431  11.678  68.341  1.00  0.00     0.000 HD 
BRANCH  11  14
HETATM   14  C   UNL     2     -11.428  12.477  66.872  1.00  0.00    -0.353 C  
HETATM   15  H   UNL     2     -12.160  10.639  66.888  1.00  0.00     0.000 HD 
HETATM   16  O   UNL     2     -11.494  11.110  67.375  1.00  0.00    -0.466 OA 
BRANCH  14  17
HETATM   17  C   UNL     2     -11.325  12.500  65.346  1.00  0.00    -0.325 C  
HETATM   18  C   UNL     2     -12.710  12.840  64.739  1.00  0.00    -0.393 C  
HETATM   19  H   UNL     2     -10.683  11.289  63.934  1.00  0.00     0.000 HD 
HETATM   20  O   UNL     2     -10.747  11.274  64.882  1.00  0.00    -0.303 OA 
HETATM   21  O   UNL     2     -13.224  13.857  65.306  1.00  0.00    -0.774 OA 
HETATM   22  O   UNL     2     -13.086  12.118  63.794  1.00  0.00    -0.774 OA 
ENDBRANCH  14  17
ENDBRANCH  11  14
ENDBRANCH   8  11
ENDBRANCH   3   8
BRANCH   7  23
HETATM   23  C   UNL     3     -10.449   5.002  71.854  1.00  0.00    -0.187 C  
HETATM   24  O   UNL     3      -9.675   5.426  72.995  1.00  0.00    -0.149 OA 
HETATM   25  H   UNL     3     -10.220   5.347  73.769  1.00  0.00     0.000 HD 
BRANCH  23  26
HETATM   26  C   UNL     3     -11.723   5.868  71.896  1.00  0.00    -0.144 C  
HETATM   27  O   UNL     3     -12.649   5.391  72.874  1.00  0.00    -0.446 OA 
HETATM   28  H   UNL     3     -13.435   5.926  72.900  1.00  0.00     0.000 HD 
BRANCH  26  29
HETATM   29  C   UNL     3     -11.571   7.396  72.059  1.00  0.00    -0.284 C  
HETATM   30  O   UNL     3     -11.560   7.804  73.437  1.00  0.00    -0.623 OA 
HETATM   31  H   UNL     3     -11.467   8.744  73.537  1.00  0.00     0.000 HD 
BRANCH  29  32
HETATM   32  C   UNL     3     -12.576   8.274  71.321  1.00  0.00    -0.221 C  
HETATM   33  C   UNL     3     -13.108   9.459  72.147  1.00  0.00    -0.442 C  
HETATM   34  O   UNL     3     -13.757   7.442  70.943  1.00  0.00    -0.622 OA 
HETATM   35  O   UNL     3     -14.221   9.168  72.754  1.00  0.00    -0.552 OA 
HETATM   36  O   UNL     3     -12.678  10.592  71.856  1.00  0.00    -0.419 OA 
HETATM   37  H   UNL     3     -14.383   7.988  70.483  1.00  0.00     0.000 HD 
ENDBRANCH  29  32
ENDBRANCH  26  29
ENDBRANCH  23  26
ENDBRANCH   7  23
TORSDOF 8
ENDMDL
MODEL        5
REMARK 921   NORMALIZED FREE ENERGY PREDICTED BY IDOCK:   -6.91 KCAL/MOL
REMARK 922        TOTAL FREE ENERGY PREDICTED BY IDOCK:  -12.21 KCAL/MOL
REMARK 923 INTER-LIGAND FREE ENERGY PREDICTED BY IDOCK:  -10.01 KCAL/MOL
REMARK 924 INTRA-LIGAND FREE ENERGY PREDICTED BY IDOCK:   -2.20 KCAL/MOL
REMARK 927      BINDING AFFINITY PREDICTED BY RF-SCORE:    0.00 PKD
ROOT
HETATM    1 CU   UNL     1     -11.499  12.331  67.931  1.00  0.00    -0.209 Cu 
HETATM    2  O   UNL     2     -10.948  17.147  64.390  1.00  0.00    -0.917 OA 
HETATM    3  C   UNL     2     -10.769  17.426  65.786  1.00  0.00    -0.120 C  
HETATM    4  H   UNL     2     -11.048  17.983  63.949  1.00  0.00     0.000 HD 
HETATM    5  O   UNL     3     -14.252   8.730  73.661  1.00  0.00    -1.000 OA 
HETATM    6  H   UNL     3     -14.871   9.420  73.872  1.00  0.00     0.000 HD 
HETATM    7  C   UNL     3     -13.776   8.937  72.316  1.00  0.00    -0.471 C  
ENDROOT
BRANCH   3   8
HETATM    8  C   UNL     2     -10.606  16.083  66.494  1.00  0.00    -0.284 C  
HETATM    9  O   UNL     2     -11.902  15.495  66.722  1.00  0.00     0.105 OA 
HETATM   10  H   UNL     2     -11.801  14.660  67.163  1.00  0.00     0.000 HD 
BRANCH   8  11
HETATM   11  C   UNL     2      -9.688  15.119  65.715  1.00  0.00    -0.344 C  
HETATM   12  O   UNL     2      -8.474  14.999  66.461  1.00  0.00    -0.404 OA 
HETATM   13  H   UNL     2      -7.909  14.406  65.981  1.00  0.00     0.000 HD 
BRANCH  11  14
HETATM   14  C   UNL     2     -10.400  13.758  65.582  1.00  0.00    -0.311 C  
HETATM   15  H   UNL     2     -10.150  11.948  66.343  1.00  0.00     0.000 HD 
HETATM   16  O   UNL     2      -9.711  12.787  66.425  1.00  0.00    -0.251 OA 
BRANCH  14  17
HETATM   17  C   UNL     2     -10.607  13.214  64.168  1.00  0.00    -0.361 C  
HETATM   18  C   UNL     2     -12.104  13.334  63.782  1.00  0.00    -0.482 C  
HETATM   19  H   UNL     2     -10.194  11.553  63.196  1.00  0.00     0.000 HD 
HETATM   20  O   UNL     2     -10.065  11.891  64.074  1.00  0.00    -0.299 OA 
HETATM   21  O   UNL     2     -12.551  14.500  64.031  1.00  0.00    -0.797 OA 
HETATM   22  O   UNL     2     -12.620  12.323  63.267  1.00  0.00    -0.656 OA 
ENDBRANCH  14  17
ENDBRANCH  11  14
ENDBRANCH   8  11
ENDBRANCH   3   8
BRANCH   7  23
HETATM   23  C   UNL     3     -12.777   7.822  71.976  1.00  0.00    -0.258 C  
HETATM   24  O   UNL     3     -13.158   7.247  70.709  1.00  0.00    -0.603 OA 
HETATM   25  H   UNL     3     -12.540   6.557  70.499  1.00  0.00     0.000 HD 
BRANCH  23  26
HETATM   26  C   UNL     3     -11.305   8.241  71.794  1.00  0.00    -0.288 C  
HETATM   27  O   UNL     3     -10.436   7.106  71.762  1.00  0.00    -0.199 OA 
HETATM   28  H   UNL     3      -9.529   7.365  71.649  1.00  0.00     0.000 HD 
BRANCH  26  29
HETATM   29  C   UNL     3     -10.944   9.175  70.617  1.00  0.00    -0.263 C  
HETATM   30  O   UNL     3     -12.087   9.874  70.098  1.00  0.00    -0.449 OA 
HETATM   31  H   UNL     3     -11.864  10.448  69.375  1.00  0.00     0.000 HD 
BRANCH  29  32
HETATM   32  C   UNL     3     -10.205   8.549  69.439  1.00  0.00    -0.211 C  
HETATM   33  C   UNL     3      -9.961   9.510  68.263  1.00  0.00    -0.161 C  
HETATM   34  O   UNL     3     -11.015   7.411  68.912  1.00  0.00    -0.400 OA 
HETATM   35  O   UNL     3     -10.899   9.429  67.365  1.00  0.00    -0.263 OA 
HETATM   36  O   UNL     3      -8.799   9.934  68.107  1.00  0.00    -0.118 OA 
HETATM   37  H   UNL     3     -10.555   7.022  68.178  1.00  0.00     0.000 HD 
ENDBRANCH  29  32
ENDBRANCH  26  29
ENDBRANCH  23  26
ENDBRANCH   7  23
TORSDOF 8
ENDMDL
MODEL        6
REMARK 921   NORMALIZED FREE ENERGY PREDICTED BY IDOCK:   -6.90 KCAL/MOL
REMARK 922        TOTAL FREE ENERGY PREDICTED BY IDOCK:  -12.20 KCAL/MOL
REMARK 923 INTER-LIGAND FREE ENERGY PREDICTED BY IDOCK:   -9.86 KCAL/MOL
REMARK 924 INTRA-LIGAND FREE ENERGY PREDICTED BY IDOCK:   -2.34 KCAL/MOL
REMARK 927      BINDING AFFINITY PREDICTED BY RF-SCORE:    0.00 PKD
ROOT
HETATM    1 CU   UNL     1     -10.635  10.706  68.635  1.00  0.00    -0.158 Cu 
HETATM    2  O   UNL     2     -11.165   5.947  72.255  1.00  0.00    -0.264 OA 
HETATM    3  C   UNL     2     -12.292   6.835  72.289  1.00  0.00    -0.101 C  
HETATM    4  H   UNL     2     -11.252   5.358  72.996  1.00  0.00     0.000 HD 
HETATM    5  O   UNL     3     -10.806  17.871  67.214  1.00  0.00    -0.312 OA 
HETATM    6  H   UNL     3     -10.925  18.108  68.126  1.00  0.00     0.000 HD 
HETATM    7  C   UNL     3     -10.343  16.506  67.152  1.00  0.00    -0.298 C  
ENDROOT
BRANCH   3   8
HETATM    8  C   UNL     2     -12.154   7.780  71.099  1.00  0.00    -0.286 C  
HETATM    9  O   UNL     2     -13.361   8.554  70.953  1.00  0.00    -0.505 OA 
HETATM   10  H   UNL     2     -13.275   9.142  70.211  1.00  0.00     0.000 HD 
BRANCH   8  11
HETATM   11  C   UNL     2     -10.919   8.695  71.220  1.00  0.00    -0.267 C  
HETATM   12  O   UNL     2     -10.426   8.562  72.555  1.00  0.00    -0.317 OA 
HETATM   13  H   UNL     2      -9.665   9.125  72.630  1.00  0.00     0.000 HD 
BRANCH  11  14
HETATM   14  C   UNL     2      -9.866   8.244  70.187  1.00  0.00    -0.184 C  
HETATM   15  H   UNL     2      -8.420   9.125  69.162  1.00  0.00     0.000 HD 
HETATM   16  O   UNL     2      -9.068   9.402  69.799  1.00  0.00    -0.163 OA 
BRANCH  14  17
HETATM   17  C   UNL     2     -10.373   7.485  68.961  1.00  0.00    -0.212 C  
HETATM   18  C   UNL     2      -9.622   6.134  68.842  1.00  0.00    -0.129 C  
HETATM   19  H   UNL     2     -10.603   7.853  67.041  1.00  0.00     0.000 HD 
HETATM   20  O   UNL     2     -10.288   8.325  67.803  1.00  0.00    -0.216 OA 
HETATM   21  O   UNL     2      -9.616   5.513  69.953  1.00  0.00    -0.149 OA 
HETATM   22  O   UNL     2      -9.186   5.847  67.710  1.00  0.00    -0.110 OA 
ENDBRANCH  14  17
ENDBRANCH  11  14
ENDBRANCH   8  11
ENDBRANCH   3   8
BRANCH   7  23
HETATM   23  C   UNL     3     -10.151  16.123  65.678  1.00  0.00    -0.337 C  
HETATM   24  O   UNL     3      -9.258  14.992  65.620  1.00  0.00    -0.462 OA 
HETATM   25  H   UNL     3      -9.139  14.755  64.708  1.00  0.00     0.000 HD 
BRANCH  23  26
HETATM   26  C   UNL     3     -11.409  15.675  64.909  1.00  0.00    -0.315 C  
HETATM   27  O   UNL     3     -11.594  16.440  63.715  1.00  0.00    -1.605 OA 
HETATM   28  H   UNL     3     -12.370  16.163  63.241  1.00  0.00     0.000 HD 
BRANCH  26  29
HETATM   29  C   UNL     3     -11.570  14.177  64.567  1.00  0.00    -0.389 C  
HETATM   30  O   UNL     3     -12.069  13.966  63.236  1.00  0.00    -0.938 OA 
HETATM   31  H   UNL     3     -12.167  13.045  63.027  1.00  0.00     0.000 HD 
BRANCH  29  32
HETATM   32  C   UNL     3     -12.413  13.337  65.520  1.00  0.00    -0.474 C  
HETATM   33  C   UNL     3     -11.600  12.583  66.587  1.00  0.00    -0.380 C  
HETATM   34  O   UNL     3     -13.154  12.309  64.730  1.00  0.00    -0.724 OA 
HETATM   35  O   UNL     3     -11.311  11.371  66.212  1.00  0.00    -0.265 OA 
HETATM   36  O   UNL     3     -11.645  13.024  67.752  1.00  0.00    -0.298 OA 
HETATM   37  H   UNL     3     -13.679  11.786  65.323  1.00  0.00     0.000 HD 
ENDBRANCH  29  32
ENDBRANCH  26  29
ENDBRANCH  23  26
ENDBRANCH   7  23
TORSDOF 8
ENDMDL
MODEL        7
REMARK 921   NORMALIZED FREE ENERGY PREDICTED BY IDOCK:   -6.81 KCAL/MOL
REMARK 922        TOTAL FREE ENERGY PREDICTED BY IDOCK:  -12.08 KCAL/MOL
REMARK 923 INTER-LIGAND FREE ENERGY PREDICTED BY IDOCK:   -9.96 KCAL/MOL
REMARK 924 INTRA-LIGAND FREE ENERGY PREDICTED BY IDOCK:   -2.11 KCAL/MOL
REMARK 927      BINDING AFFINITY PREDICTED BY RF-SCORE:    0.00 PKD
ROOT
HETATM    1 CU   UNL     1     -11.705  10.808  67.587  1.00  0.00    -0.282 Cu 
HETATM    2  O   UNL     2     -12.172  15.528  63.906  1.00  0.00    -0.969 OA 
HETATM    3  C   UNL     2     -10.956  15.499  64.667  1.00  0.00    -0.322 C  
HETATM    4  H   UNL     2     -12.242  16.395  63.525  1.00  0.00     0.000 HD 
HETATM    5  O   UNL     3     -10.499   7.704  74.090  1.00  0.00    -0.295 OA 
HETATM    6  H   UNL     3     -10.455   8.537  74.545  1.00  0.00     0.000 HD 
HETATM    7  C   UNL     3     -11.116   7.916  72.804  1.00  0.00    -0.400 C  
ENDROOT
BRANCH   3   8
HETATM    8  C   UNL     2     -10.842  14.105  65.279  1.00  0.00    -0.349 C  
HETATM    9  O   UNL     2      -9.484  13.869  65.697  1.00  0.00    -0.513 OA 
HETATM   10  H   UNL     2      -9.413  13.001  66.078  1.00  0.00     0.000 HD 
BRANCH   8  11
HETATM   11  C   UNL     2     -11.827  13.898  66.448  1.00  0.00    -0.411 C  
HETATM   12  O   UNL     2     -12.328  12.563  66.345  1.00  0.00    -0.537 OA 
HETATM   13  H   UNL     2     -12.934  12.435  67.064  1.00  0.00     0.000 HD 
BRANCH  11  14
HETATM   14  C   UNL     2     -11.071  14.111  67.775  1.00  0.00    -0.276 C  
HETATM   15  H   UNL     2      -9.917  13.005  68.941  1.00  0.00     0.000 HD 
HETATM   16  O   UNL     2     -10.383  12.874  68.124  1.00  0.00    -0.226 OA 
BRANCH  14  17
HETATM   17  C   UNL     2     -11.877  14.649  68.958  1.00  0.00    -0.310 C  
HETATM   18  C   UNL     2     -11.274  15.999  69.423  1.00  0.00    -0.349 C  
HETATM   19  H   UNL     2     -12.467  13.981  70.713  1.00  0.00     0.000 HD 
HETATM   20  O   UNL     2     -11.966  13.646  69.978  1.00  0.00    -0.312 OA 
HETATM   21  O   UNL     2     -11.089  16.784  68.438  1.00  0.00    -0.357 OA 
HETATM   22  O   UNL     2     -11.103  16.129  70.651  1.00  0.00    -0.349 OA 
ENDBRANCH  14  17
ENDBRANCH  11  14
ENDBRANCH   8  11
ENDBRANCH   3   8
BRANCH   7  23
HETATM   23  C   UNL     3     -11.186   6.570  72.069  1.00  0.00    -0.273 C  
HETATM   24  O   UNL     3     -12.312   5.833  72.588  1.00  0.00    -0.519 OA 
HETATM   25  H   UNL     3     -12.355   4.999  72.133  1.00  0.00     0.000 HD 
BRANCH  23  26
HETATM   26  C   UNL     3     -11.414   6.622  70.546  1.00  0.00    -0.376 C  
HETATM   27  O   UNL     3     -12.778   6.909  70.229  1.00  0.00    -0.539 OA 
HETATM   28  H   UNL     3     -12.918   6.941  69.290  1.00  0.00     0.000 HD 
BRANCH  26  29
HETATM   29  C   UNL     3     -10.505   7.536  69.695  1.00  0.00    -0.234 C  
HETATM   30  O   UNL     3     -11.001   8.881  69.609  1.00  0.00    -0.345 OA 
HETATM   31  H   UNL     3     -10.442   9.442  69.085  1.00  0.00     0.000 HD 
BRANCH  29  32
HETATM   32  C   UNL     3     -10.182   7.066  68.281  1.00  0.00    -0.182 C  
HETATM   33  C   UNL     3      -9.519   8.135  67.395  1.00  0.00    -0.155 C  
HETATM   34  O   UNL     3     -11.451   6.666  67.604  1.00  0.00    -0.687 OA 
HETATM   35  O   UNL     3     -10.391   8.788  66.685  1.00  0.00    -0.279 OA 
HETATM   36  O   UNL     3      -8.300   8.007  67.166  1.00  0.00    -0.118 OA 
HETATM   37  H   UNL     3     -11.251   6.373  66.723  1.00  0.00     0.000 HD 
ENDBRANCH  29  32
ENDBRANCH  26  29
ENDBRANCH  23  26
ENDBRANCH   7  23
TORSDOF 8
ENDMDL
MODEL        8
REMARK 921   NORMALIZED FREE ENERGY PREDICTED BY IDOCK:   -6.76 KCAL/MOL
REMARK 922        TOTAL FREE ENERGY PREDICTED BY IDOCK:  -11.99 KCAL/MOL
REMARK 923 INTER-LIGAND FREE ENERGY PREDICTED BY IDOCK:  -10.30 KCAL/MOL
REMARK 924 INTRA-LIGAND FREE ENERGY PREDICTED BY IDOCK:   -1.69 KCAL/MOL
REMARK 927      BINDING AFFINITY PREDICTED BY RF-SCORE:    0.00 PKD
ROOT
HETATM    1 CU   UNL     1      -8.743  10.952  69.195  1.00  0.00    -0.128 Cu 
HETATM    2  O   UNL     2      -7.565   6.965  73.525  1.00  0.00    -0.081 OA 
HETATM    3  C   UNL     2      -8.778   7.705  73.727  1.00  0.00    -0.239 C  
HETATM    4  H   UNL     2      -7.367   6.526  74.345  1.00  0.00     0.000 HD 
HETATM    5  O   UNL     3     -10.436  17.631  66.764  1.00  0.00    -0.334 OA 
HETATM    6  H   UNL     3     -10.361  18.027  67.625  1.00  0.00     0.000 HD 
HETATM    7  C   UNL     3      -9.786  16.345  66.793  1.00  0.00    -0.251 C  
ENDROOT
BRANCH   3   8
HETATM    8  C   UNL     2      -9.098   8.409  72.411  1.00  0.00    -0.256 C  
HETATM    9  O   UNL     2      -7.902   9.012  71.881  1.00  0.00    -0.345 OA 
HETATM   10  H   UNL     2      -8.102   9.451  71.062  1.00  0.00     0.000 HD 
BRANCH   8  11
HETATM   11  C   UNL     2      -9.744   7.459  71.382  1.00  0.00    -0.167 C  
HETATM   12  O   UNL     2     -10.464   6.467  72.119  1.00  0.00    -0.201 OA 
HETATM   13  H   UNL     2     -10.862   5.882  71.486  1.00  0.00     0.000 HD 
BRANCH  11  14
HETATM   14  C   UNL     2     -10.687   8.277  70.477  1.00  0.00    -0.225 C  
HETATM   15  H   UNL     2     -10.524   9.214  68.742  1.00  0.00     0.000 HD 
HETATM   16  O   UNL     2      -9.943   8.709  69.299  1.00  0.00    -0.184 OA 
BRANCH  14  17
HETATM   17  C   UNL     2     -11.431   9.447  71.122  1.00  0.00    -0.352 C  
HETATM   18  C   UNL     2     -12.938   9.101  71.237  1.00  0.00    -0.251 C  
HETATM   19  H   UNL     2     -11.606  11.382  70.808  1.00  0.00     0.000 HD 
HETATM   20  O   UNL     2     -11.144  10.655  70.408  1.00  0.00    -0.285 OA 
HETATM   21  O   UNL     2     -13.107   7.948  71.748  1.00  0.00    -0.323 OA 
HETATM   22  O   UNL     2     -13.734   9.985  70.863  1.00  0.00    -0.217 OA 
ENDBRANCH  14  17
ENDBRANCH  11  14
ENDBRANCH   8  11
ENDBRANCH   3   8
BRANCH   7  23
HETATM   23  C   UNL     3      -9.907  15.705  65.404  1.00  0.00    -0.218 C  
HETATM   24  O   UNL     3      -9.343  14.379  65.468  1.00  0.00    -0.511 OA 
HETATM   25  H   UNL     3      -9.418  13.983  64.607  1.00  0.00     0.000 HD 
BRANCH  23  26
HETATM   26  C   UNL     3     -11.333  15.504  64.854  1.00  0.00    -0.335 C  
HETATM   27  O   UNL     3     -11.630  16.436  63.812  1.00  0.00    -1.605 OA 
HETATM   28  H   UNL     3     -12.509  16.312  63.473  1.00  0.00     0.000 HD 
BRANCH  26  29
HETATM   29  C   UNL     3     -11.752  14.092  64.391  1.00  0.00    -0.392 C  
HETATM   30  O   UNL     3     -12.369  14.099  63.094  1.00  0.00    -1.125 OA 
HETATM   31  H   UNL     3     -12.627  13.230  62.809  1.00  0.00     0.000 HD 
BRANCH  29  32
HETATM   32  C   UNL     3     -12.650  13.294  65.330  1.00  0.00    -0.468 C  
HETATM   33  C   UNL     3     -11.904  12.603  66.484  1.00  0.00    -0.396 C  
HETATM   34  O   UNL     3     -13.333  12.221  64.548  1.00  0.00    -0.769 OA 
HETATM   35  O   UNL     3     -11.584  11.376  66.192  1.00  0.00    -0.286 OA 
HETATM   36  O   UNL     3     -12.025  13.103  67.620  1.00  0.00    -0.357 OA 
HETATM   37  H   UNL     3     -13.893  11.724  65.133  1.00  0.00     0.000 HD 
ENDBRANCH  29  32
ENDBRANCH  26  29
ENDBRANCH  23  26
ENDBRANCH   7  23
TORSDOF 8
ENDMDL
MODEL        9
REMARK 921   NORMALIZED FREE ENERGY PREDICTED BY IDOCK:   -6.70 KCAL/MOL
REMARK 922        TOTAL FREE ENERGY PREDICTED BY IDOCK:  -11.91 KCAL/MOL
REMARK 923 INTER-LIGAND FREE ENERGY PREDICTED BY IDOCK:   -9.51 KCAL/MOL
REMARK 924 INTRA-LIGAND FREE ENERGY PREDICTED BY IDOCK:   -2.40 KCAL/MOL
REMARK 927      BINDING AFFINITY PREDICTED BY RF-SCORE:    0.00 PKD
ROOT
HETATM    1 CU   UNL     1      -9.994  11.460  68.578  1.00  0.00    -0.154 Cu 
HETATM    2  O   UNL     2      -9.909   6.443  71.874  1.00  0.00    -0.160 OA 
HETATM    3  C   UNL     2     -11.109   7.216  72.018  1.00  0.00    -0.245 C  
HETATM    4  H   UNL     2      -9.905   5.801  72.575  1.00  0.00     0.000 HD 
HETATM    5  O   UNL     3     -10.889  18.654  67.672  1.00  0.00    -0.418 OA 
HETATM    6  H   UNL     3     -10.985  18.818  68.604  1.00  0.00     0.000 HD 
HETATM    7  C   UNL     3     -10.306  17.347  67.495  1.00  0.00    -0.351 C  
ENDROOT
BRANCH   3   8
HETATM    8  C   UNL     2     -11.116   8.247  70.892  1.00  0.00    -0.261 C  
HETATM    9  O   UNL     2     -12.376   8.947  70.884  1.00  0.00    -0.458 OA 
HETATM   10  H   UNL     2     -12.381   9.588  70.183  1.00  0.00     0.000 HD 
BRANCH   8  11
HETATM   11  C   UNL     2      -9.934   9.232  70.995  1.00  0.00    -0.293 C  
HETATM   12  O   UNL     2      -9.337   9.041  72.280  1.00  0.00    -0.333 OA 
HETATM   13  H   UNL     2      -8.609   9.647  72.344  1.00  0.00     0.000 HD 
BRANCH  11  14
HETATM   14  C   UNL     2      -8.935   8.925  69.862  1.00  0.00    -0.156 C  
HETATM   15  H   UNL     2      -7.547   9.942  68.883  1.00  0.00     0.000 HD 
HETATM   16  O   UNL     2      -8.163  10.131  69.582  1.00  0.00    -0.162 OA 
BRANCH  14  17
HETATM   17  C   UNL     2      -9.501   8.320  68.577  1.00  0.00    -0.146 C  
HETATM   18  C   UNL     2      -8.705   7.040  68.214  1.00  0.00    -0.127 C  
HETATM   19  H   UNL     2      -9.892   8.940  66.750  1.00  0.00     0.000 HD 
HETATM   20  O   UNL     2      -9.540   9.317  67.549  1.00  0.00    -0.142 OA 
HETATM   21  O   UNL     2      -8.588   6.270  69.221  1.00  0.00    -0.123 OA 
HETATM   22  O   UNL     2      -8.344   6.938  67.025  1.00  0.00    -0.118 OA 
ENDBRANCH  14  17
ENDBRANCH  11  14
ENDBRANCH   8  11
ENDBRANCH   3   8
BRANCH   7  23
HETATM   23  C   UNL     3     -10.152  17.082  65.992  1.00  0.00    -0.302 C  
HETATM   24  O   UNL     3      -8.846  16.512  65.767  1.00  0.00    -0.474 OA 
HETATM   25  H   UNL     3      -8.751  16.348  64.836  1.00  0.00     0.000 HD 
BRANCH  23  26
HETATM   26  C   UNL     3     -11.137  16.079  65.360  1.00  0.00    -0.155 C  
HETATM   27  O   UNL     3     -11.499  16.465  64.031  1.00  0.00    -1.465 OA 
HETATM   28  H   UNL     3     -12.106  15.846  63.642  1.00  0.00     0.000 HD 
BRANCH  26  29
HETATM   29  C   UNL     3     -10.763  14.580  65.356  1.00  0.00    -0.361 C  
HETATM   30  O   UNL     3      -9.806  14.254  64.335  1.00  0.00    -0.581 OA 
HETATM   31  H   UNL     3      -9.576  13.332  64.333  1.00  0.00     0.000 HD 
BRANCH  29  32
HETATM   32  C   UNL     3     -11.910  13.581  65.256  1.00  0.00    -0.352 C  
HETATM   33  C   UNL     3     -11.983  12.833  63.914  1.00  0.00    -0.480 C  
HETATM   34  O   UNL     3     -13.202  14.313  65.418  1.00  0.00    -0.688 OA 
HETATM   35  O   UNL     3     -12.784  13.419  63.073  1.00  0.00    -0.631 OA 
HETATM   36  O   UNL     3     -11.621  11.640  63.908  1.00  0.00    -0.380 OA 
HETATM   37  H   UNL     3     -13.917  13.691  65.356  1.00  0.00     0.000 HD 
ENDBRANCH  29  32
ENDBRANCH  26  29
ENDBRANCH  23  26
ENDBRANCH   7  23
TORSDOF 8
ENDMDL
MODEL       10
REMARK 921   NORMALIZED FREE ENERGY PREDICTED BY IDOCK:   -6.69 KCAL/MOL
REMARK 922        TOTAL FREE ENERGY PREDICTED BY IDOCK:  -11.89 KCAL/MOL
REMARK 923 INTER-LIGAND FREE ENERGY PREDICTED BY IDOCK:  -10.16 KCAL/MOL
REMARK 924 INTRA-LIGAND FREE ENERGY PREDICTED BY IDOCK:   -1.73 KCAL/MOL
REMARK 927      BINDING AFFINITY PREDICTED BY RF-SCORE:    0.00 PKD
ROOT
HETATM    1 CU   UNL     1     -11.877   8.809  68.664  1.00  0.00    -0.269 Cu 
HETATM    2  O   UNL     2     -12.218   4.917  73.222  1.00  0.00    -0.375 OA 
HETATM    3  C   UNL     2     -10.930   5.532  73.074  1.00  0.00    -0.290 C  
HETATM    4  H   UNL     2     -12.111   4.185  73.818  1.00  0.00     0.000 HD 
HETATM    5  O   UNL     3      -8.809  11.506  62.606  1.00  0.00    -0.554 OA 
HETATM    6  H   UNL     3      -8.186  10.792  62.535  1.00  0.00     0.000 HD 
HETATM    7  C   UNL     3      -9.862  11.105  63.507  1.00  0.00    -0.353 C  
ENDROOT
BRANCH   3   8
HETATM    8  C   UNL     2     -11.101   6.708  72.117  1.00  0.00    -0.254 C  
HETATM    9  O   UNL     2     -12.442   6.712  71.589  1.00  0.00    -0.352 OA 
HETATM   10  H   UNL     2     -12.548   7.444  70.993  1.00  0.00     0.000 HD 
BRANCH   8  11
HETATM   11  C   UNL     2     -10.763   8.058  72.784  1.00  0.00    -0.362 C  
HETATM   12  O   UNL     2      -9.824   7.787  73.828  1.00  0.00    -0.332 OA 
HETATM   13  H   UNL     2      -9.615   8.618  74.238  1.00  0.00     0.000 HD 
BRANCH  11  14
HETATM   14  C   UNL     2     -10.163   8.998  71.720  1.00  0.00    -0.319 C  
HETATM   15  H   UNL     2     -10.884  10.218  70.339  1.00  0.00     0.000 HD 
HETATM   16  O   UNL     2     -11.254   9.638  70.994  1.00  0.00    -0.316 OA 
BRANCH  14  17
HETATM   17  C   UNL     2      -9.136   8.399  70.758  1.00  0.00    -0.156 C  
HETATM   18  C   UNL     2      -7.744   9.022  71.035  1.00  0.00    -0.125 C  
HETATM   19  H   UNL     2      -8.961   8.162  68.812  1.00  0.00     0.000 HD 
HETATM   20  O   UNL     2      -9.599   8.534  69.410  1.00  0.00    -0.167 OA 
HETATM   21  O   UNL     2      -7.466   8.996  72.277  1.00  0.00    -0.340 OA 
HETATM   22  O   UNL     2      -7.107   9.406  70.034  1.00  0.00    -0.062 OA 
ENDBRANCH  14  17
ENDBRANCH  11  14
ENDBRANCH   8  11
ENDBRANCH   3   8
BRANCH   7  23
HETATM   23  C   UNL     3     -10.869  12.257  63.623  1.00  0.00    -0.469 C  
HETATM   24  O   UNL     3     -12.144  11.791  63.134  1.00  0.00    -0.855 OA 
HETATM   25  H   UNL     3     -12.768  12.505  63.206  1.00  0.00     0.000 HD 
BRANCH  23  26
HETATM   26  C   UNL     3     -11.158  12.787  65.041  1.00  0.00    -0.285 C  
HETATM   27  O   UNL     3     -10.022  12.639  65.897  1.00  0.00    -0.262 OA 
HETATM   28  H   UNL     3     -10.200  12.966  66.772  1.00  0.00     0.000 HD 
BRANCH  26  29
HETATM   29  C   UNL     3     -11.712  14.220  65.195  1.00  0.00    -0.368 C  
HETATM   30  O   UNL     3     -13.001  14.380  64.582  1.00  0.00    -0.592 OA 
HETATM   31  H   UNL     3     -13.342  15.262  64.677  1.00  0.00     0.000 HD 
BRANCH  29  32
HETATM   32  C   UNL     3     -10.822  15.361  64.715  1.00  0.00    -0.364 C  
HETATM   33  C   UNL     3     -10.192  16.191  65.847  1.00  0.00    -0.360 C  
HETATM   34  O   UNL     3     -11.642  16.299  63.892  1.00  0.00    -1.489 OA 
HETATM   35  O   UNL     3     -10.907  17.237  66.140  1.00  0.00    -0.153 OA 
HETATM   36  O   UNL     3      -8.977  16.018  66.069  1.00  0.00    -0.337 OA 
HETATM   37  H   UNL     3     -11.088  17.010  63.593  1.00  0.00     0.000 HD 
ENDBRANCH  29  32
ENDBRANCH  26  29
ENDBRANCH  23  26
ENDBRANCH   7  23
TORSDOF 8
ENDMDL
MODEL       11
REMARK 921   NORMALIZED FREE ENERGY PREDICTED BY IDOCK:   -6.68 KCAL/MOL
REMARK 922        TOTAL FREE ENERGY PREDICTED BY IDOCK:  -11.88 KCAL/MOL
REMARK 923 INTER-LIGAND FREE ENERGY PREDICTED BY IDOCK:  -10.82 KCAL/MOL
REMARK 924 INTRA-LIGAND FREE ENERGY PREDICTED BY IDOCK:   -1.06 KCAL/MOL
REMARK 927      BINDING AFFINITY PREDICTED BY RF-SCORE:    0.00 PKD
ROOT
HETATM    1 CU   UNL     1     -10.535  10.064  68.584  1.00  0.00    -0.160 Cu 
HETATM    2  O   UNL     2      -9.896   4.465  70.653  1.00  0.00    -0.197 OA 
HETATM    3  C   UNL     2     -10.754   5.289  71.454  1.00  0.00    -0.133 C  
HETATM    4  H   UNL     2      -9.697   3.688  71.164  1.00  0.00     0.000 HD 
HETATM    5  O   UNL     3     -10.457  17.333  69.310  1.00  0.00    -0.338 OA 
HETATM    6  H   UNL     3     -10.104  17.300  70.191  1.00  0.00     0.000 HD 
HETATM    7  C   UNL     3     -10.251  16.050  68.684  1.00  0.00    -0.231 C  
ENDROOT
BRANCH   3   8
HETATM    8  C   UNL     2     -11.074   6.535  70.634  1.00  0.00    -0.309 C  
HETATM    9  O   UNL     2     -11.161   6.188  69.238  1.00  0.00    -0.352 OA 
HETATM   10  H   UNL     2     -11.359   6.964  68.727  1.00  0.00     0.000 HD 
BRANCH   8  11
HETATM   11  C   UNL     2     -12.361   7.236  71.113  1.00  0.00    -0.345 C  
HETATM   12  O   UNL     2     -12.719   6.648  72.366  1.00  0.00    -0.532 OA 
HETATM   13  H   UNL     2     -13.512   7.079  72.662  1.00  0.00     0.000 HD 
BRANCH  11  14
HETATM   14  C   UNL     2     -12.077   8.744  71.264  1.00  0.00    -0.296 C  
HETATM   15  H   UNL     2     -10.914   9.858  72.414  1.00  0.00     0.000 HD 
HETATM   16  O   UNL     2     -11.090   8.929  72.321  1.00  0.00    -0.339 OA 
BRANCH  14  17
HETATM   17  C   UNL     2     -13.281   9.665  71.464  1.00  0.00    -0.399 C  
HETATM   18  C   UNL     2     -12.823  11.143  71.363  1.00  0.00    -0.439 C  
HETATM   19  H   UNL     2     -14.702   9.897  72.806  1.00  0.00     0.000 HD 
HETATM   20  O   UNL     2     -13.953   9.324  72.682  1.00  0.00    -0.438 OA 
HETATM   21  O   UNL     2     -12.107  11.334  70.328  1.00  0.00    -0.320 OA 
HETATM   22  O   UNL     2     -13.241  11.908  72.255  1.00  0.00    -0.451 OA 
ENDBRANCH  14  17
ENDBRANCH  11  14
ENDBRANCH   8  11
ENDBRANCH   3   8
BRANCH   7  23
HETATM   23  C   UNL     3     -10.822  16.104  67.261  1.00  0.00    -0.235 C  
HETATM   24  O   UNL     3     -10.660  17.448  66.762  1.00  0.00    -0.289 OA 
HETATM   25  H   UNL     3     -11.014  17.481  65.880  1.00  0.00     0.000 HD 
BRANCH  23  26
HETATM   26  C   UNL     3     -10.146  15.206  66.207  1.00  0.00    -0.283 C  
HETATM   27  O   UNL     3      -9.899  13.893  66.718  1.00  0.00    -0.258 OA 
HETATM   28  H   UNL     3      -9.482  13.339  66.068  1.00  0.00     0.000 HD 
BRANCH  26  29
HETATM   29  C   UNL     3     -10.801  15.081  64.815  1.00  0.00    -0.355 C  
HETATM   30  O   UNL     3     -11.045  16.358  64.204  1.00  0.00    -1.226 OA 
HETATM   31  H   UNL     3     -11.448  16.281  63.347  1.00  0.00     0.000 HD 
BRANCH  29  32
HETATM   32  C   UNL     3     -12.088  14.268  64.726  1.00  0.00    -0.446 C  
HETATM   33  C   UNL     3     -11.916  12.774  65.054  1.00  0.00    -0.412 C  
HETATM   34  O   UNL     3     -12.614  14.349  63.331  1.00  0.00    -1.054 OA 
HETATM   35  O   UNL     3     -11.715  12.061  63.986  1.00  0.00    -0.379 OA 
HETATM   36  O   UNL     3     -12.348  12.382  66.156  1.00  0.00    -0.606 OA 
HETATM   37  H   UNL     3     -13.416  13.843  63.275  1.00  0.00     0.000 HD 
ENDBRANCH  29  32
ENDBRANCH  26  29
ENDBRANCH  23  26
ENDBRANCH   7  23
TORSDOF 8
ENDMDL
MODEL       12
REMARK 921   NORMALIZED FREE ENERGY PREDICTED BY IDOCK:   -6.67 KCAL/MOL
REMARK 922        TOTAL FREE ENERGY PREDICTED BY IDOCK:  -11.86 KCAL/MOL
REMARK 923 INTER-LIGAND FREE ENERGY PREDICTED BY IDOCK:  -10.16 KCAL/MOL
REMARK 924 INTRA-LIGAND FREE ENERGY PREDICTED BY IDOCK:   -1.70 KCAL/MOL
REMARK 927      BINDING AFFINITY PREDICTED BY RF-SCORE:    0.00 PKD
ROOT
HETATM    1 CU   UNL     1     -11.720   8.922  68.568  1.00  0.00    -0.423 Cu 
HETATM    2  O   UNL     2     -12.066   5.066  73.157  1.00  0.00    -0.473 OA 
HETATM    3  C   UNL     2     -10.778   5.679  73.005  1.00  0.00    -0.255 C  
HETATM    4  H   UNL     2     -11.960   4.339  73.759  1.00  0.00     0.000 HD 
HETATM    5  O   UNL     3      -8.645  11.569  62.492  1.00  0.00    -0.595 OA 
HETATM    6  H   UNL     3      -8.022  10.855  62.427  1.00  0.00     0.000 HD 
HETATM    7  C   UNL     3      -9.699  11.176  63.395  1.00  0.00    -0.352 C  
ENDROOT
BRANCH   3   8
HETATM    8  C   UNL     2     -10.948   6.849  72.039  1.00  0.00    -0.235 C  
HETATM    9  O   UNL     2      -9.828   7.746  72.163  1.00  0.00    -0.170 OA 
HETATM   10  H   UNL     2      -9.934   8.475  71.561  1.00  0.00     0.000 HD 
BRANCH   8  11
HETATM   11  C   UNL     2     -11.126   6.380  70.580  1.00  0.00    -0.317 C  
HETATM   12  O   UNL     2     -12.282   7.044  70.063  1.00  0.00    -0.610 OA 
HETATM   13  H   UNL     2     -12.391   6.756  69.165  1.00  0.00     0.000 HD 
BRANCH  11  14
HETATM   14  C   UNL     2      -9.861   6.755  69.783  1.00  0.00    -0.166 C  
HETATM   15  H   UNL     2      -9.112   8.419  69.016  1.00  0.00     0.000 HD 
HETATM   16  O   UNL     2      -9.891   8.187  69.508  1.00  0.00    -0.176 OA 
BRANCH  14  17
HETATM   17  C   UNL     2      -9.573   5.954  68.513  1.00  0.00    -0.123 C  
HETATM   18  C   UNL     2      -8.232   6.428  67.895  1.00  0.00    -0.115 C  
HETATM   19  H   UNL     2     -10.521   5.526  66.842  1.00  0.00     0.000 HD 
HETATM   20  O   UNL     2     -10.700   6.024  67.631  1.00  0.00    -0.248 OA 
HETATM   21  O   UNL     2      -7.314   6.479  68.774  1.00  0.00    -0.082 OA 
HETATM   22  O   UNL     2      -8.240   6.643  66.667  1.00  0.00    -0.108 OA 
ENDBRANCH  14  17
ENDBRANCH  11  14
ENDBRANCH   8  11
ENDBRANCH   3   8
BRANCH   7  23
HETATM   23  C   UNL     3     -10.706  12.330  63.501  1.00  0.00    -0.451 C  
HETATM   24  O   UNL     3     -12.011  11.821  63.156  1.00  0.00    -0.813 OA 
HETATM   25  H   UNL     3     -12.634  12.535  63.222  1.00  0.00     0.000 HD 
BRANCH  23  26
HETATM   26  C   UNL     3     -10.884  12.970  64.891  1.00  0.00    -0.323 C  
HETATM   27  O   UNL     3      -9.658  12.978  65.626  1.00  0.00    -0.455 OA 
HETATM   28  H   UNL     3      -9.768  13.373  66.484  1.00  0.00     0.000 HD 
BRANCH  26  29
HETATM   29  C   UNL     3     -11.526  14.371  64.981  1.00  0.00    -0.372 C  
HETATM   30  O   UNL     3     -12.658  14.515  64.109  1.00  0.00    -0.730 OA 
HETATM   31  H   UNL     3     -13.053  15.378  64.165  1.00  0.00     0.000 HD 
BRANCH  29  32
HETATM   32  C   UNL     3     -10.608  15.568  64.756  1.00  0.00    -0.217 C  
HETATM   33  C   UNL     3     -10.034  16.177  66.047  1.00  0.00    -0.348 C  
HETATM   34  O   UNL     3     -11.382  16.647  64.073  1.00  0.00    -1.486 OA 
HETATM   35  O   UNL     3     -10.760  17.164  66.485  1.00  0.00    -0.215 OA 
HETATM   36  O   UNL     3      -8.833  15.952  66.296  1.00  0.00    -0.305 OA 
HETATM   37  H   UNL     3     -10.811  17.393  63.932  1.00  0.00     0.000 HD 
ENDBRANCH  29  32
ENDBRANCH  26  29
ENDBRANCH  23  26
ENDBRANCH   7  23
TORSDOF 8
ENDMDL
MODEL       13
REMARK 921   NORMALIZED FREE ENERGY PREDICTED BY IDOCK:   -6.67 KCAL/MOL
REMARK 922        TOTAL FREE ENERGY PREDICTED BY IDOCK:  -11.86 KCAL/MOL
REMARK 923 INTER-LIGAND FREE ENERGY PREDICTED BY IDOCK:  -10.17 KCAL/MOL
REMARK 924 INTRA-LIGAND FREE ENERGY PREDICTED BY IDOCK:   -1.70 KCAL/MOL
REMARK 927      BINDING AFFINITY PREDICTED BY RF-SCORE:    0.00 PKD
ROOT
HETATM    1 CU   UNL     1      -9.541  11.893  69.452  1.00  0.00    -0.373 Cu 
HETATM    2  O   UNL     2      -9.069   8.080  74.065  1.00  0.00    -0.365 OA 
HETATM    3  C   UNL     2      -9.043   7.446  72.778  1.00  0.00    -0.143 C  
HETATM    4  H   UNL     2      -9.198   7.396  74.711  1.00  0.00     0.000 HD 
HETATM    5  O   UNL     3     -12.500  14.218  63.190  1.00  0.00    -1.102 OA 
HETATM    6  H   UNL     3     -13.191  13.565  63.206  1.00  0.00     0.000 HD 
HETATM    7  C   UNL     3     -11.921  14.305  64.507  1.00  0.00    -0.462 C  
ENDROOT
BRANCH   3   8
HETATM    8  C   UNL     2      -8.835   8.545  71.740  1.00  0.00    -0.211 C  
HETATM    9  O   UNL     2      -7.457   8.967  71.751  1.00  0.00    -0.313 OA 
HETATM   10  H   UNL     2      -7.328   9.652  71.105  1.00  0.00     0.000 HD 
BRANCH   8  11
HETATM   11  C   UNL     2      -9.270   8.105  70.328  1.00  0.00    -0.151 C  
HETATM   12  O   UNL     2      -9.298   6.675  70.323  1.00  0.00    -0.158 OA 
HETATM   13  H   UNL     2      -9.566   6.404  69.453  1.00  0.00     0.000 HD 
BRANCH  11  14
HETATM   14  C   UNL     2     -10.665   8.693  70.034  1.00  0.00    -0.228 C  
HETATM   15  H   UNL     2     -11.473   9.760  68.576  1.00  0.00     0.000 HD 
HETATM   16  O   UNL     2     -10.614   9.397  68.757  1.00  0.00    -0.220 OA 
BRANCH  14  17
HETATM   17  C   UNL     2     -11.298   9.563  71.120  1.00  0.00    -0.370 C  
HETATM   18  C   UNL     2     -12.604   8.896  71.621  1.00  0.00    -0.346 C  
HETATM   19  H   UNL     2     -11.846  11.444  71.313  1.00  0.00     0.000 HD 
HETATM   20  O   UNL     2     -11.452  10.903  70.638  1.00  0.00    -0.302 OA 
HETATM   21  O   UNL     2     -12.418   7.666  71.891  1.00  0.00    -0.304 OA 
HETATM   22  O   UNL     2     -13.598   9.642  71.719  1.00  0.00    -0.379 OA 
ENDBRANCH  14  17
ENDBRANCH  11  14
ENDBRANCH   8  11
ENDBRANCH   3   8
BRANCH   7  23
HETATM   23  C   UNL     3     -10.806  15.359  64.481  1.00  0.00    -0.116 C  
HETATM   24  O   UNL     3     -11.316  16.538  63.825  1.00  0.00    -1.553 OA 
HETATM   25  H   UNL     3     -10.626  17.191  63.809  1.00  0.00     0.000 HD 
BRANCH  23  26
HETATM   26  C   UNL     3     -10.289  15.857  65.845  1.00  0.00    -0.365 C  
HETATM   27  O   UNL     3      -8.878  15.668  65.973  1.00  0.00    -0.345 OA 
HETATM   28  H   UNL     3      -8.560  15.975  66.814  1.00  0.00     0.000 HD 
BRANCH  26  29
HETATM   29  C   UNL     3     -10.639  17.295  66.286  1.00  0.00    -0.184 C  
HETATM   30  O   UNL     3      -9.853  18.286  65.604  1.00  0.00    -0.462 OA 
HETATM   31  H   UNL     3     -10.069  19.171  65.875  1.00  0.00     0.000 HD 
BRANCH  29  32
HETATM   32  C   UNL     3     -10.574  17.596  67.780  1.00  0.00    -0.378 C  
HETATM   33  C   UNL     3      -9.806  18.881  68.134  1.00  0.00    -0.368 C  
HETATM   34  O   UNL     3      -9.878  16.469  68.468  1.00  0.00    -0.226 OA 
HETATM   35  O   UNL     3      -8.557  18.642  68.406  1.00  0.00    -0.319 OA 
HETATM   36  O   UNL     3     -10.482  19.868  68.484  1.00  0.00    -0.423 OA 
HETATM   37  H   UNL     3      -9.837  16.656  69.399  1.00  0.00     0.000 HD 
ENDBRANCH  29  32
ENDBRANCH  26  29
ENDBRANCH  23  26
ENDBRANCH   7  23
TORSDOF 8
ENDMDL
MODEL       14
REMARK 921   NORMALIZED FREE ENERGY PREDICTED BY IDOCK:   -6.64 KCAL/MOL
REMARK 922        TOTAL FREE ENERGY PREDICTED BY IDOCK:  -11.82 KCAL/MOL
REMARK 923 INTER-LIGAND FREE ENERGY PREDICTED BY IDOCK:   -9.46 KCAL/MOL
REMARK 924 INTRA-LIGAND FREE ENERGY PREDICTED BY IDOCK:   -2.36 KCAL/MOL
REMARK 927      BINDING AFFINITY PREDICTED BY RF-SCORE:    0.00 PKD
ROOT
HETATM    1 CU   UNL     1     -11.769   8.882  68.399  1.00  0.00    -0.425 Cu 
HETATM    2  O   UNL     2     -12.156   5.173  73.103  1.00  0.00    -0.514 OA 
HETATM    3  C   UNL     2     -10.894   5.846  72.993  1.00  0.00    -0.267 C  
HETATM    4  H   UNL     2     -12.044   4.473  73.736  1.00  0.00     0.000 HD 
HETATM    5  O   UNL     3      -8.524  11.476  62.388  1.00  0.00    -0.600 OA 
HETATM    6  H   UNL     3      -7.863  10.793  62.380  1.00  0.00     0.000 HD 
HETATM    7  C   UNL     3      -9.602  11.060  63.252  1.00  0.00    -0.345 C  
ENDROOT
BRANCH   3   8
HETATM    8  C   UNL     2     -11.072   6.972  71.977  1.00  0.00    -0.243 C  
HETATM    9  O   UNL     2     -12.446   7.020  71.544  1.00  0.00    -0.349 OA 
HETATM   10  H   UNL     2     -12.557   7.720  70.911  1.00  0.00     0.000 HD 
BRANCH   8  11
HETATM   11  C   UNL     2     -10.617   8.337  72.531  1.00  0.00    -0.337 C  
HETATM   12  O   UNL     2      -9.573   8.081  73.474  1.00  0.00    -0.270 OA 
HETATM   13  H   UNL     2      -9.292   8.921  73.816  1.00  0.00     0.000 HD 
BRANCH  11  14
HETATM   14  C   UNL     2     -10.113   9.203  71.360  1.00  0.00    -0.322 C  
HETATM   15  H   UNL     2     -10.956  10.243  69.903  1.00  0.00     0.000 HD 
HETATM   16  O   UNL     2     -11.266   9.710  70.625  1.00  0.00    -0.269 OA 
BRANCH  14  17
HETATM   17  C   UNL     2      -9.089   8.572  70.415  1.00  0.00    -0.152 C  
HETATM   18  C   UNL     2      -7.713   9.258  70.611  1.00  0.00    -0.151 C  
HETATM   19  H   UNL     2      -8.953   8.204  68.486  1.00  0.00     0.000 HD 
HETATM   20  O   UNL     2      -9.589   8.597  69.073  1.00  0.00    -0.159 OA 
HETATM   21  O   UNL     2      -7.405   9.328  71.844  1.00  0.00    -0.327 OA 
HETATM   22  O   UNL     2      -7.114   9.592  69.570  1.00  0.00    -0.062 OA 
ENDBRANCH  14  17
ENDBRANCH  11  14
ENDBRANCH   8  11
ENDBRANCH   3   8
BRANCH   7  23
HETATM   23  C   UNL     3     -10.669  12.163  63.266  1.00  0.00    -0.318 C  
HETATM   24  O   UNL     3     -11.958  11.544  63.075  1.00  0.00    -0.917 OA 
HETATM   25  H   UNL     3     -12.619  12.227  63.084  1.00  0.00     0.000 HD 
BRANCH  23  26
HETATM   26  C   UNL     3     -10.808  12.977  64.567  1.00  0.00    -0.372 C  
HETATM   27  O   UNL     3     -11.022  14.365  64.297  1.00  0.00    -0.611 OA 
HETATM   28  H   UNL     3     -11.108  14.867  65.099  1.00  0.00     0.000 HD 
BRANCH  26  29
HETATM   29  C   UNL     3     -11.837  12.513  65.621  1.00  0.00    -0.438 C  
HETATM   30  O   UNL     3     -13.093  13.202  65.505  1.00  0.00    -0.522 OA 
HETATM   31  H   UNL     3     -13.725  12.916  66.154  1.00  0.00     0.000 HD 
BRANCH  29  32
HETATM   32  C   UNL     3     -11.405  12.572  67.082  1.00  0.00    -0.324 C  
HETATM   33  C   UNL     3      -9.882  12.634  67.289  1.00  0.00    -0.206 C  
HETATM   34  O   UNL     3     -11.891  11.344  67.778  1.00  0.00    -0.595 OA 
HETATM   35  O   UNL     3      -9.367  11.453  67.470  1.00  0.00    -0.161 OA 
HETATM   36  O   UNL     3      -9.399  13.730  67.634  1.00  0.00    -0.199 OA 
HETATM   37  H   UNL     3     -11.621  11.381  68.689  1.00  0.00     0.000 HD 
ENDBRANCH  29  32
ENDBRANCH  26  29
ENDBRANCH  23  26
ENDBRANCH   7  23
TORSDOF 8
ENDMDL
MODEL       15
REMARK 921   NORMALIZED FREE ENERGY PREDICTED BY IDOCK:   -6.62 KCAL/MOL
REMARK 922        TOTAL FREE ENERGY PREDICTED BY IDOCK:  -11.80 KCAL/MOL
REMARK 923 INTER-LIGAND FREE ENERGY PREDICTED BY IDOCK:  -10.62 KCAL/MOL
REMARK 924 INTRA-LIGAND FREE ENERGY PREDICTED BY IDOCK:   -1.18 KCAL/MOL
REMARK 927      BINDING AFFINITY PREDICTED BY RF-SCORE:    0.00 PKD
ROOT
HETATM    1 CU   UNL     1      -9.753  11.616  69.371  1.00  0.00    -0.327 Cu 
HETATM    2  O   UNL     2      -9.213   6.876  73.015  1.00  0.00    -0.130 OA 
HETATM    3  C   UNL     2     -10.380   7.673  73.263  1.00  0.00    -0.345 C  
HETATM    4  H   UNL     2      -9.111   6.292  73.757  1.00  0.00     0.000 HD 
HETATM    5  O   UNL     3     -10.756  18.727  68.024  1.00  0.00    -0.336 OA 
HETATM    6  H   UNL     3     -10.719  18.966  68.944  1.00  0.00     0.000 HD 
HETATM    7  C   UNL     3     -10.206  17.403  67.873  1.00  0.00    -0.348 C  
ENDROOT
BRANCH   3   8
HETATM    8  C   UNL     2     -10.544   8.612  72.070  1.00  0.00    -0.351 C  
HETATM    9  O   UNL     2      -9.250   8.929  71.521  1.00  0.00    -0.243 OA 
HETATM   10  H   UNL     2      -9.352   9.514  70.779  1.00  0.00     0.000 HD 
BRANCH   8  11
HETATM   11  C   UNL     2     -11.477   8.027  70.991  1.00  0.00    -0.279 C  
HETATM   12  O   UNL     2     -12.299   9.098  70.520  1.00  0.00    -0.485 OA 
HETATM   13  H   UNL     2     -12.874   8.738  69.855  1.00  0.00     0.000 HD 
BRANCH  11  14
HETATM   14  C   UNL     2     -10.614   7.443  69.854  1.00  0.00    -0.236 C  
HETATM   15  H   UNL     2      -9.885   8.115  68.142  1.00  0.00     0.000 HD 
HETATM   16  O   UNL     2     -10.417   8.474  68.842  1.00  0.00    -0.215 OA 
BRANCH  14  17
HETATM   17  C   UNL     2     -11.084   6.132  69.224  1.00  0.00    -0.393 C  
HETATM   18  C   UNL     2     -10.185   4.969  69.718  1.00  0.00    -0.266 C  
HETATM   19  H   UNL     2     -11.446   5.462  67.409  1.00  0.00     0.000 HD 
HETATM   20  O   UNL     2     -11.154   6.277  67.801  1.00  0.00    -0.334 OA 
HETATM   21  O   UNL     2     -10.053   4.995  70.983  1.00  0.00    -0.207 OA 
HETATM   22  O   UNL     2      -9.771   4.186  68.840  1.00  0.00    -0.166 OA 
ENDBRANCH  14  17
ENDBRANCH  11  14
ENDBRANCH   8  11
ENDBRANCH   3   8
BRANCH   7  23
HETATM   23  C   UNL     3     -10.266  17.017  66.389  1.00  0.00    -0.326 C  
HETATM   24  O   UNL     3      -8.949  17.188  65.826  1.00  0.00    -0.523 OA 
HETATM   25  H   UNL     3      -8.986  16.949  64.907  1.00  0.00     0.000 HD 
BRANCH  23  26
HETATM   26  C   UNL     3     -10.649  15.560  66.065  1.00  0.00    -0.325 C  
HETATM   27  O   UNL     3     -11.649  15.069  66.961  1.00  0.00    -0.331 OA 
HETATM   28  H   UNL     3     -11.885  14.170  66.761  1.00  0.00     0.000 HD 
BRANCH  26  29
HETATM   29  C   UNL     3     -11.063  15.209  64.619  1.00  0.00    -0.324 C  
HETATM   30  O   UNL     3     -11.623  16.332  63.919  1.00  0.00    -1.489 OA 
HETATM   31  H   UNL     3     -11.877  16.116  63.030  1.00  0.00     0.000 HD 
BRANCH  29  32
HETATM   32  C   UNL     3     -12.011  14.028  64.438  1.00  0.00    -0.454 C  
HETATM   33  C   UNL     3     -11.358  12.653  64.665  1.00  0.00    -0.318 C  
HETATM   34  O   UNL     3     -12.531  14.038  63.039  1.00  0.00    -1.101 OA 
HETATM   35  O   UNL     3     -10.930  12.128  63.555  1.00  0.00    -0.411 OA 
HETATM   36  O   UNL     3     -11.639  12.059  65.724  1.00  0.00    -0.352 OA 
HETATM   37  H   UNL     3     -13.121  13.302  62.925  1.00  0.00     0.000 HD 
ENDBRANCH  29  32
ENDBRANCH  26  29
ENDBRANCH  23  26
ENDBRANCH   7  23
TORSDOF 8
ENDMDL
MODEL       16
REMARK 921   NORMALIZED FREE ENERGY PREDICTED BY IDOCK:   -6.61 KCAL/MOL
REMARK 922        TOTAL FREE ENERGY PREDICTED BY IDOCK:  -11.78 KCAL/MOL
REMARK 923 INTER-LIGAND FREE ENERGY PREDICTED BY IDOCK:  -10.31 KCAL/MOL
REMARK 924 INTRA-LIGAND FREE ENERGY PREDICTED BY IDOCK:   -1.47 KCAL/MOL
REMARK 927      BINDING AFFINITY PREDICTED BY RF-SCORE:    0.00 PKD
ROOT
HETATM    1 CU   UNL     1     -10.016  10.721  68.896  1.00  0.00    -0.148 Cu 
HETATM    2  O   UNL     2     -10.000   6.152  72.790  1.00  0.00    -0.170 OA 
HETATM    3  C   UNL     2     -10.122   5.749  71.419  1.00  0.00    -0.198 C  
HETATM    4  H   UNL     2     -10.214   5.395  73.323  1.00  0.00     0.000 HD 
HETATM    5  O   UNL     3     -12.783  14.502  63.290  1.00  0.00    -0.793 OA 
HETATM    6  H   UNL     3     -13.568  13.969  63.243  1.00  0.00     0.000 HD 
HETATM    7  C   UNL     3     -12.150  14.274  64.566  1.00  0.00    -0.480 C  
ENDROOT
BRANCH   3   8
HETATM    8  C   UNL     2      -9.777   6.965  70.562  1.00  0.00    -0.172 C  
HETATM    9  O   UNL     2      -8.929   6.562  69.469  1.00  0.00    -0.136 OA 
HETATM   10  H   UNL     2      -8.714   7.319  68.936  1.00  0.00     0.000 HD 
BRANCH   8  11
HETATM   11  C   UNL     2     -11.035   7.694  70.049  1.00  0.00    -0.228 C  
HETATM   12  O   UNL     2     -12.152   6.841  70.311  1.00  0.00    -0.600 OA 
HETATM   13  H   UNL     2     -12.927   7.290  69.995  1.00  0.00     0.000 HD 
BRANCH  11  14
HETATM   14  C   UNL     2     -11.168   9.036  70.797  1.00  0.00    -0.275 C  
HETATM   15  H   UNL     2     -10.322   9.863  72.384  1.00  0.00     0.000 HD 
HETATM   16  O   UNL     2     -10.241   9.036  71.923  1.00  0.00    -0.343 OA 
BRANCH  14  17
HETATM   17  C   UNL     2     -12.572   9.454  71.237  1.00  0.00    -0.325 C  
HETATM   18  C   UNL     2     -12.717  10.992  71.109  1.00  0.00    -0.419 C  
HETATM   19  H   UNL     2     -13.718   9.189  72.814  1.00  0.00     0.000 HD 
HETATM   20  O   UNL     2     -12.846   8.929  72.541  1.00  0.00    -0.407 OA 
HETATM   21  O   UNL     2     -12.315  11.399  69.972  1.00  0.00    -0.282 OA 
HETATM   22  O   UNL     2     -13.223  11.577  72.087  1.00  0.00    -0.505 OA 
ENDBRANCH  14  17
ENDBRANCH  11  14
ENDBRANCH   8  11
ENDBRANCH   3   8
BRANCH   7  23
HETATM   23  C   UNL     3     -10.882  15.134  64.642  1.00  0.00    -0.263 C  
HETATM   24  O   UNL     3     -11.169  16.413  64.040  1.00  0.00    -1.333 OA 
HETATM   25  H   UNL     3     -10.383  16.946  64.087  1.00  0.00     0.000 HD 
BRANCH  23  26
HETATM   26  C   UNL     3     -10.355  15.469  66.051  1.00  0.00    -0.326 C  
HETATM   27  O   UNL     3     -10.383  14.325  66.908  1.00  0.00    -0.265 OA 
HETATM   28  H   UNL     3     -10.058  14.532  67.777  1.00  0.00     0.000 HD 
BRANCH  26  29
HETATM   29  C   UNL     3      -8.975  16.150  66.179  1.00  0.00    -0.337 C  
HETATM   30  O   UNL     3      -8.069  15.408  67.012  1.00  0.00    -0.198 OA 
HETATM   31  H   UNL     3      -7.220  15.827  67.091  1.00  0.00     0.000 HD 
BRANCH  29  32
HETATM   32  C   UNL     3      -8.960  17.600  66.652  1.00  0.00    -0.265 C  
HETATM   33  C   UNL     3     -10.348  18.264  66.700  1.00  0.00    -0.381 C  
HETATM   34  O   UNL     3      -8.125  18.405  65.711  1.00  0.00    -0.502 OA 
HETATM   35  O   UNL     3     -10.616  18.910  65.604  1.00  0.00    -0.575 OA 
HETATM   36  O   UNL     3     -10.855  18.438  67.825  1.00  0.00    -0.384 OA 
HETATM   37  H   UNL     3      -8.116  19.308  66.005  1.00  0.00     0.000 HD 
ENDBRANCH  29  32
ENDBRANCH  26  29
ENDBRANCH  23  26
ENDBRANCH   7  23
TORSDOF 8
ENDMDL
MODEL       17
REMARK 921   NORMALIZED FREE ENERGY PREDICTED BY IDOCK:   -6.59 KCAL/MOL
REMARK 922        TOTAL FREE ENERGY PREDICTED BY IDOCK:  -11.75 KCAL/MOL
REMARK 923 INTER-LIGAND FREE ENERGY PREDICTED BY IDOCK:   -9.74 KCAL/MOL
REMARK 924 INTRA-LIGAND FREE ENERGY PREDICTED BY IDOCK:   -2.01 KCAL/MOL
REMARK 927      BINDING AFFINITY PREDICTED BY RF-SCORE:    0.00 PKD
ROOT
HETATM    1 CU   UNL     1      -9.341  12.022  68.636  1.00  0.00    -0.170 Cu 
HETATM    2  O   UNL     2      -8.707   7.156  72.095  1.00  0.00    -0.121 OA 
HETATM    3  C   UNL     2      -9.966   7.826  72.255  1.00  0.00    -0.203 C  
HETATM    4  H   UNL     2      -8.624   6.543  72.816  1.00  0.00     0.000 HD 
HETATM    5  O   UNL     3     -10.897  19.073  67.520  1.00  0.00    -0.463 OA 
HETATM    6  H   UNL     3     -10.976  19.262  68.448  1.00  0.00     0.000 HD 
HETATM    7  C   UNL     3     -10.207  17.816  67.367  1.00  0.00    -0.353 C  
ENDROOT
BRANCH   3   8
HETATM    8  C   UNL     2     -10.101   8.811  71.096  1.00  0.00    -0.247 C  
HETATM    9  O   UNL     2      -9.018   9.761  71.139  1.00  0.00    -0.306 OA 
HETATM   10  H   UNL     2      -9.102  10.374  70.418  1.00  0.00     0.000 HD 
BRANCH   8  11
HETATM   11  C   UNL     2     -10.162   8.099  69.729  1.00  0.00    -0.203 C  
HETATM   12  O   UNL     2     -11.468   7.530  69.610  1.00  0.00    -0.463 OA 
HETATM   13  H   UNL     2     -11.506   7.091  68.768  1.00  0.00     0.000 HD 
BRANCH  11  14
HETATM   14  C   UNL     2      -9.900   9.137  68.619  1.00  0.00    -0.164 C  
HETATM   15  H   UNL     2     -10.778  10.798  67.998  1.00  0.00     0.000 HD 
HETATM   16  O   UNL     2     -10.939  10.159  68.682  1.00  0.00    -0.229 OA 
BRANCH  14  17
HETATM   17  C   UNL     2      -9.730   8.608  67.195  1.00  0.00    -0.190 C  
HETATM   18  C   UNL     2      -9.366   9.780  66.248  1.00  0.00    -0.180 C  
HETATM   19  H   UNL     2     -10.787   7.535  65.928  1.00  0.00     0.000 HD 
HETATM   20  O   UNL     2     -10.892   7.863  66.813  1.00  0.00    -0.234 OA 
HETATM   21  O   UNL     2      -8.419  10.482  66.728  1.00  0.00    -0.124 OA 
HETATM   22  O   UNL     2     -10.003   9.838  65.178  1.00  0.00    -0.309 OA 
ENDBRANCH  14  17
ENDBRANCH  11  14
ENDBRANCH   8  11
ENDBRANCH   3   8
BRANCH   7  23
HETATM   23  C   UNL     3     -10.079  17.509  65.868  1.00  0.00    -0.185 C  
HETATM   24  O   UNL     3      -8.716  17.121  65.603  1.00  0.00    -0.473 OA 
HETATM   25  H   UNL     3      -8.637  16.931  64.675  1.00  0.00     0.000 HD 
BRANCH  23  26
HETATM   26  C   UNL     3     -10.936  16.351  65.321  1.00  0.00    -0.195 C  
HETATM   27  O   UNL     3     -11.170  16.489  63.918  1.00  0.00    -1.440 OA 
HETATM   28  H   UNL     3     -11.698  15.774  63.581  1.00  0.00     0.000 HD 
BRANCH  26  29
HETATM   29  C   UNL     3     -10.486  14.902  65.608  1.00  0.00    -0.349 C  
HETATM   30  O   UNL     3     -10.071  14.208  64.420  1.00  0.00    -0.682 OA 
HETATM   31  H   UNL     3      -9.794  13.317  64.597  1.00  0.00     0.000 HD 
BRANCH  29  32
HETATM   32  C   UNL     3     -11.471  14.006  66.352  1.00  0.00    -0.352 C  
HETATM   33  C   UNL     3     -12.542  13.362  65.454  1.00  0.00    -0.475 C  
HETATM   34  O   UNL     3     -12.191  14.824  67.372  1.00  0.00    -0.528 OA 
HETATM   35  O   UNL     3     -13.634  14.067  65.417  1.00  0.00    -0.593 OA 
HETATM   36  O   UNL     3     -12.416  12.148  65.202  1.00  0.00    -0.508 OA 
HETATM   37  H   UNL     3     -12.805  14.267  67.835  1.00  0.00     0.000 HD 
ENDBRANCH  29  32
ENDBRANCH  26  29
ENDBRANCH  23  26
ENDBRANCH   7  23
TORSDOF 8
ENDMDL
MODEL       18
REMARK 921   NORMALIZED FREE ENERGY PREDICTED BY IDOCK:   -6.58 KCAL/MOL
REMARK 922        TOTAL FREE ENERGY PREDICTED BY IDOCK:  -11.73 KCAL/MOL
REMARK 923 INTER-LIGAND FREE ENERGY PREDICTED BY IDOCK:   -9.63 KCAL/MOL
REMARK 924 INTRA-LIGAND FREE ENERGY PREDICTED BY IDOCK:   -2.10 KCAL/MOL
REMARK 927      BINDING AFFINITY PREDICTED BY RF-SCORE:    0.00 PKD
ROOT
HETATM    1 CU   UNL     1     -10.894  13.240  67.757  1.00  0.00    -0.224 Cu 
HETATM    2  O   UNL     2     -10.604  19.017  66.152  1.00  0.00    -0.439 OA 
HETATM    3  C   UNL     2      -9.340  18.339  66.122  1.00  0.00    -0.133 C  
HETATM    4  H   UNL     2     -10.423  19.948  66.089  1.00  0.00     0.000 HD 
HETATM    5  O   UNL     3      -8.766   7.440  71.659  1.00  0.00    -0.116 OA 
HETATM    6  H   UNL     3      -8.182   7.951  72.208  1.00  0.00     0.000 HD 
HETATM    7  C   UNL     3      -9.671   8.342  70.991  1.00  0.00    -0.174 C  
ENDROOT
BRANCH   3   8
HETATM    8  C   UNL     2      -9.631  16.844  66.222  1.00  0.00    -0.276 C  
HETATM    9  O   UNL     2      -9.518  16.419  67.595  1.00  0.00    -0.222 OA 
HETATM   10  H   UNL     2      -9.698  15.488  67.657  1.00  0.00     0.000 HD 
BRANCH   8  11
HETATM   11  C   UNL     2     -11.011  16.476  65.639  1.00  0.00    -0.051 C  
HETATM   12  O   UNL     2     -11.066  17.017  64.317  1.00  0.00    -1.185 OA 
HETATM   13  H   UNL     2     -11.916  16.791  63.958  1.00  0.00     0.000 HD 
BRANCH  11  14
HETATM   14  C   UNL     2     -11.147  14.940  65.622  1.00  0.00    -0.348 C  
HETATM   15  H   UNL     2     -10.026  13.426  65.018  1.00  0.00     0.000 HD 
HETATM   16  O   UNL     2      -9.942  14.372  65.029  1.00  0.00    -0.336 OA 
BRANCH  14  17
HETATM   17  C   UNL     2     -12.407  14.359  64.979  1.00  0.00    -0.396 C  
HETATM   18  C   UNL     2     -12.288  12.815  64.913  1.00  0.00    -0.490 C  
HETATM   19  H   UNL     2     -13.430  14.637  63.321  1.00  0.00     0.000 HD 
HETATM   20  O   UNL     2     -12.647  14.999  63.720  1.00  0.00    -0.776 OA 
HETATM   21  O   UNL     2     -11.928  12.333  66.035  1.00  0.00    -0.570 OA 
HETATM   22  O   UNL     2     -12.589  12.288  63.824  1.00  0.00    -0.622 OA 
ENDBRANCH  14  17
ENDBRANCH  11  14
ENDBRANCH   8  11
ENDBRANCH   3   8
BRANCH   7  23
HETATM   23  C   UNL     3     -10.615   7.518  70.104  1.00  0.00    -0.235 C  
HETATM   24  O   UNL     3     -11.942   8.068  70.226  1.00  0.00    -0.470 OA 
HETATM   25  H   UNL     3     -12.527   7.558  69.677  1.00  0.00     0.000 HD 
BRANCH  23  26
HETATM   26  C   UNL     3     -10.323   7.520  68.591  1.00  0.00    -0.200 C  
HETATM   27  O   UNL     3     -11.364   6.873  67.855  1.00  0.00    -0.548 OA 
HETATM   28  H   UNL     3     -11.184   6.874  66.922  1.00  0.00     0.000 HD 
BRANCH  26  29
HETATM   29  C   UNL     3      -9.991   8.863  67.905  1.00  0.00    -0.179 C  
HETATM   30  O   UNL     3     -11.169   9.612  67.563  1.00  0.00    -0.431 OA 
HETATM   31  H   UNL     3     -10.964  10.439  67.141  1.00  0.00     0.000 HD 
BRANCH  29  32
HETATM   32  C   UNL     3      -9.099   8.807  66.669  1.00  0.00    -0.158 C  
HETATM   33  C   UNL     3      -9.099  10.097  65.830  1.00  0.00    -0.156 C  
HETATM   34  O   UNL     3      -9.578   7.708  65.779  1.00  0.00    -0.413 OA 
HETATM   35  O   UNL     3      -9.971  10.051  64.866  1.00  0.00    -0.325 OA 
HETATM   36  O   UNL     3      -8.086  10.820  65.900  1.00  0.00    -0.158 OA 
HETATM   37  H   UNL     3      -9.023   7.673  65.009  1.00  0.00     0.000 HD 
ENDBRANCH  29  32
ENDBRANCH  26  29
ENDBRANCH  23  26
ENDBRANCH   7  23
TORSDOF 8
ENDMDL
MODEL       19
REMARK 921   NORMALIZED FREE ENERGY PREDICTED BY IDOCK:   -6.52 KCAL/MOL
REMARK 922        TOTAL FREE ENERGY PREDICTED BY IDOCK:  -11.65 KCAL/MOL
REMARK 923 INTER-LIGAND FREE ENERGY PREDICTED BY IDOCK:   -9.26 KCAL/MOL
REMARK 924 INTRA-LIGAND FREE ENERGY PREDICTED BY IDOCK:   -2.39 KCAL/MOL
REMARK 927      BINDING AFFINITY PREDICTED BY RF-SCORE:    0.00 PKD
ROOT
HETATM    1 CU   UNL     1     -12.460   9.980  69.198  1.00  0.00    -0.497 Cu 
HETATM    2  O   UNL     2     -12.492   5.287  72.941  1.00  0.00    -0.427 OA 
HETATM    3  C   UNL     2     -11.329   5.357  72.102  1.00  0.00    -0.080 C  
HETATM    4  H   UNL     2     -12.501   4.421  73.333  1.00  0.00     0.000 HD 
HETATM    5  O   UNL     3     -11.805  13.061  62.605  1.00  0.00    -0.568 OA 
HETATM    6  H   UNL     3     -11.756  12.225  62.155  1.00  0.00     0.000 HD 
HETATM    7  C   UNL     3     -12.329  12.838  63.930  1.00  0.00    -0.426 C  
ENDROOT
BRANCH   3   8
HETATM    8  C   UNL     2     -11.314   6.747  71.473  1.00  0.00    -0.275 C  
HETATM    9  O   UNL     2     -12.492   6.926  70.663  1.00  0.00    -0.570 OA 
HETATM   10  H   UNL     2     -12.482   7.791  70.270  1.00  0.00     0.000 HD 
BRANCH   8  11
HETATM   11  C   UNL     2     -11.191   7.865  72.528  1.00  0.00    -0.376 C  
HETATM   12  O   UNL     2     -10.348   7.368  73.571  1.00  0.00    -0.342 OA 
HETATM   13  H   UNL     2     -10.273   8.056  74.221  1.00  0.00     0.000 HD 
BRANCH  11  14
HETATM   14  C   UNL     2     -10.578   9.112  71.859  1.00  0.00    -0.233 C  
HETATM   15  H   UNL     2     -11.283  10.759  71.019  1.00  0.00     0.000 HD 
HETATM   16  O   UNL     2     -11.660   9.991  71.431  1.00  0.00    -0.368 OA 
BRANCH  14  17
HETATM   17  C   UNL     2      -9.577   8.875  70.728  1.00  0.00    -0.229 C  
HETATM   18  C   UNL     2      -8.157   9.279  71.201  1.00  0.00     0.010 C  
HETATM   19  H   UNL     2      -9.404   9.389  68.835  1.00  0.00     0.000 HD 
HETATM   20  O   UNL     2     -10.026   9.536  69.538  1.00  0.00    -0.174 OA 
HETATM   21  O   UNL     2      -7.888   8.770  72.335  1.00  0.00    -0.351 OA 
HETATM   22  O   UNL     2      -7.497   9.985  70.413  1.00  0.00    -0.212 OA 
ENDBRANCH  14  17
ENDBRANCH  11  14
ENDBRANCH   8  11
ENDBRANCH   3   8
BRANCH   7  23
HETATM   23  C   UNL     3     -12.409  14.187  64.657  1.00  0.00    -0.410 C  
HETATM   24  O   UNL     3     -13.544  14.153  65.545  1.00  0.00    -0.685 OA 
HETATM   25  H   UNL     3     -13.594  14.989  65.996  1.00  0.00     0.000 HD 
BRANCH  23  26
HETATM   26  C   UNL     3     -11.214  14.563  65.555  1.00  0.00    -0.335 C  
HETATM   27  O   UNL     3     -10.522  15.710  65.054  1.00  0.00    -0.402 OA 
HETATM   28  H   UNL     3      -9.785  15.941  65.608  1.00  0.00     0.000 HD 
BRANCH  26  29
HETATM   29  C   UNL     3     -11.459  14.753  67.067  1.00  0.00    -0.353 C  
HETATM   30  O   UNL     3     -10.877  15.967  67.571  1.00  0.00    -0.315 OA 
HETATM   31  H   UNL     3     -11.028  16.084  68.502  1.00  0.00     0.000 HD 
BRANCH  29  32
HETATM   32  C   UNL     3     -11.030  13.614  67.986  1.00  0.00    -0.250 C  
HETATM   33  C   UNL     3     -11.030  12.228  67.318  1.00  0.00    -0.256 C  
HETATM   34  O   UNL     3     -11.976  13.543  69.139  1.00  0.00    -0.322 OA 
HETATM   35  O   UNL     3     -12.151  11.596  67.510  1.00  0.00    -0.611 OA 
HETATM   36  O   UNL     3      -9.922  11.735  67.034  1.00  0.00    -0.202 OA 
HETATM   37  H   UNL     3     -11.710  12.833  69.711  1.00  0.00     0.000 HD 
ENDBRANCH  29  32
ENDBRANCH  26  29
ENDBRANCH  23  26
ENDBRANCH   7  23
TORSDOF 8
ENDMDL
MODEL       20
REMARK 921   NORMALIZED FREE ENERGY PREDICTED BY IDOCK:   -6.51 KCAL/MOL
REMARK 922        TOTAL FREE ENERGY PREDICTED BY IDOCK:  -11.63 KCAL/MOL
REMARK 923 INTER-LIGAND FREE ENERGY PREDICTED BY IDOCK:   -9.46 KCAL/MOL
REMARK 924 INTRA-LIGAND FREE ENERGY PREDICTED BY IDOCK:   -2.17 KCAL/MOL
REMARK 927      BINDING AFFINITY PREDICTED BY RF-SCORE:    0.00 PKD
ROOT
HETATM    1 CU   UNL     1      -9.715  12.913  69.095  1.00  0.00    -0.336 Cu 
HETATM    2  O   UNL     2      -8.202  17.755  65.886  1.00  0.00    -0.525 OA 
HETATM    3  C   UNL     2      -8.675  18.055  67.207  1.00  0.00    -0.243 C  
HETATM    4  H   UNL     2      -8.190  18.573  65.402  1.00  0.00     0.000 HD 
HETATM    5  O   UNL     3     -14.277   9.018  73.267  1.00  0.00    -1.192 OA 
HETATM    6  H   UNL     3     -14.995   9.630  73.155  1.00  0.00     0.000 HD 
HETATM    7  C   UNL     3     -13.290   9.278  72.248  1.00  0.00    -0.477 C  
ENDROOT
BRANCH   3   8
HETATM    8  C   UNL     2      -8.693  16.742  67.986  1.00  0.00    -0.212 C  
HETATM    9  O   UNL     2      -7.646  16.751  68.975  1.00  0.00    -0.232 OA 
HETATM   10  H   UNL     2      -7.657  15.934  69.460  1.00  0.00     0.000 HD 
BRANCH   8  11
HETATM   11  C   UNL     2     -10.066  16.465  68.633  1.00  0.00    -0.244 C  
HETATM   12  O   UNL     2     -10.638  17.733  68.965  1.00  0.00    -0.391 OA 
HETATM   13  H   UNL     2     -11.483  17.563  69.363  1.00  0.00     0.000 HD 
BRANCH  11  14
HETATM   14  C   UNL     2     -10.945  15.703  67.621  1.00  0.00    -0.315 C  
HETATM   15  H   UNL     2     -12.488  14.469  67.733  1.00  0.00     0.000 HD 
HETATM   16  O   UNL     2     -11.946  14.939  68.356  1.00  0.00    -0.299 OA 
BRANCH  14  17
HETATM   17  C   UNL     2     -10.226  14.828  66.593  1.00  0.00    -0.269 C  
HETATM   18  C   UNL     2     -10.799  15.113  65.181  1.00  0.00    -0.422 C  
HETATM   19  H   UNL     2      -9.838  12.912  66.362  1.00  0.00     0.000 HD 
HETATM   20  O   UNL     2     -10.284  13.456  67.001  1.00  0.00    -0.244 OA 
HETATM   21  O   UNL     2     -10.852  16.363  64.950  1.00  0.00    -0.655 OA 
HETATM   22  O   UNL     2     -11.077  14.113  64.490  1.00  0.00    -0.376 OA 
ENDBRANCH  14  17
ENDBRANCH  11  14
ENDBRANCH   8  11
ENDBRANCH   3   8
BRANCH   7  23
HETATM   23  C   UNL     3     -12.130   8.290  72.429  1.00  0.00    -0.369 C  
HETATM   24  O   UNL     3     -12.675   6.954  72.444  1.00  0.00    -0.510 OA 
HETATM   25  H   UNL     3     -11.957   6.342  72.556  1.00  0.00     0.000 HD 
BRANCH  23  26
HETATM   26  C   UNL     3     -11.057   8.268  71.323  1.00  0.00    -0.251 C  
HETATM   27  O   UNL     3     -11.615   7.907  70.058  1.00  0.00    -0.475 OA 
HETATM   28  H   UNL     3     -10.953   7.894  69.376  1.00  0.00     0.000 HD 
BRANCH  26  29
HETATM   29  C   UNL     3     -10.167   9.516  71.135  1.00  0.00    -0.230 C  
HETATM   30  O   UNL     3     -10.897  10.640  70.618  1.00  0.00    -0.394 OA 
HETATM   31  H   UNL     3     -10.350  11.408  70.502  1.00  0.00     0.000 HD 
BRANCH  29  32
HETATM   32  C   UNL     3      -8.910   9.348  70.288  1.00  0.00    -0.236 C  
HETATM   33  C   UNL     3      -8.999   9.984  68.890  1.00  0.00    -0.152 C  
HETATM   34  O   UNL     3      -8.656   7.890  70.088  1.00  0.00    -0.131 OA 
HETATM   35  O   UNL     3      -9.389   9.130  67.990  1.00  0.00    -0.137 OA 
HETATM   36  O   UNL     3      -8.363  11.041  68.706  1.00  0.00    -0.143 OA 
HETATM   37  H   UNL     3      -7.873   7.785  69.560  1.00  0.00     0.000 HD 
ENDBRANCH  29  32
ENDBRANCH  26  29
ENDBRANCH  23  26
ENDBRANCH   7  23
TORSDOF 8
ENDMDL
MODEL       21
REMARK 921   NORMALIZED FREE ENERGY PREDICTED BY IDOCK:   -6.48 KCAL/MOL
REMARK 922        TOTAL FREE ENERGY PREDICTED BY IDOCK:  -11.58 KCAL/MOL
REMARK 923 INTER-LIGAND FREE ENERGY PREDICTED BY IDOCK:  -10.42 KCAL/MOL
REMARK 924 INTRA-LIGAND FREE ENERGY PREDICTED BY IDOCK:   -1.17 KCAL/MOL
REMARK 927      BINDING AFFINITY PREDICTED BY RF-SCORE:    0.00 PKD
ROOT
HETATM    1 CU   UNL     1     -11.785   8.964  68.667  1.00  0.00    -0.422 Cu 
HETATM    2  O   UNL     2     -11.842   5.303  73.424  1.00  0.00    -0.463 OA 
HETATM    3  C   UNL     2     -10.649   6.091  73.308  1.00  0.00    -0.256 C  
HETATM    4  H   UNL     2     -11.668   4.626  74.067  1.00  0.00     0.000 HD 
HETATM    5  O   UNL     3      -8.772  11.767  62.630  1.00  0.00    -0.624 OA 
HETATM    6  H   UNL     3      -8.049  11.149  62.634  1.00  0.00     0.000 HD 
HETATM    7  C   UNL     3      -9.809  11.263  63.496  1.00  0.00    -0.359 C  
ENDROOT
BRANCH   3   8
HETATM    8  C   UNL     2     -10.928   7.180  72.275  1.00  0.00    -0.243 C  
HETATM    9  O   UNL     2     -10.965   8.466  72.924  1.00  0.00    -0.248 OA 
HETATM   10  H   UNL     2     -11.140   9.143  72.281  1.00  0.00     0.000 HD 
BRANCH   8  11
HETATM   11  C   UNL     2      -9.904   7.169  71.122  1.00  0.00    -0.179 C  
HETATM   12  O   UNL     2      -9.005   6.084  71.369  1.00  0.00    -0.142 OA 
HETATM   13  H   UNL     2      -8.374   6.077  70.660  1.00  0.00     0.000 HD 
BRANCH  11  14
HETATM   14  C   UNL     2     -10.659   6.978  69.791  1.00  0.00    -0.233 C  
HETATM   15  H   UNL     2     -12.462   6.357  69.263  1.00  0.00     0.000 HD 
HETATM   16  O   UNL     2     -11.996   6.475  70.082  1.00  0.00    -0.383 OA 
BRANCH  14  17
HETATM   17  C   UNL     2      -9.973   6.137  68.715  1.00  0.00    -0.145 C  
HETATM   18  C   UNL     2     -10.532   6.525  67.322  1.00  0.00    -0.272 C  
HETATM   19  H   UNL     2      -9.659   4.224  68.373  1.00  0.00     0.000 HD 
HETATM   20  O   UNL     2     -10.085   4.747  69.042  1.00  0.00    -0.175 OA 
HETATM   21  O   UNL     2     -10.535   7.788  67.163  1.00  0.00    -0.291 OA 
HETATM   22  O   UNL     2     -10.848   5.578  66.574  1.00  0.00    -0.288 OA 
ENDBRANCH  14  17
ENDBRANCH  11  14
ENDBRANCH   8  11
ENDBRANCH   3   8
BRANCH   7  23
HETATM   23  C   UNL     3     -10.976  12.260  63.489  1.00  0.00    -0.459 C  
HETATM   24  O   UNL     3     -12.153  11.572  63.020  1.00  0.00    -0.939 OA 
HETATM   25  H   UNL     3     -12.876  12.189  63.017  1.00  0.00     0.000 HD 
BRANCH  23  26
HETATM   26  C   UNL     3     -11.383  12.861  64.849  1.00  0.00    -0.307 C  
HETATM   27  O   UNL     3     -10.372  12.652  65.839  1.00  0.00    -0.265 OA 
HETATM   28  H   UNL     3     -10.623  13.023  66.677  1.00  0.00     0.000 HD 
BRANCH  26  29
HETATM   29  C   UNL     3     -11.828  14.338  64.900  1.00  0.00    -0.410 C  
HETATM   30  O   UNL     3     -12.870  14.632  63.955  1.00  0.00    -0.690 OA 
HETATM   31  H   UNL     3     -13.144  15.541  63.986  1.00  0.00     0.000 HD 
BRANCH  29  32
HETATM   32  C   UNL     3     -10.740  15.395  64.737  1.00  0.00    -0.314 C  
HETATM   33  C   UNL     3     -10.128  15.881  66.062  1.00  0.00    -0.337 C  
HETATM   34  O   UNL     3     -11.327  16.591  64.063  1.00  0.00    -1.475 OA 
HETATM   35  O   UNL     3     -10.718  16.952  66.507  1.00  0.00    -0.222 OA 
HETATM   36  O   UNL     3      -8.981  15.479  66.339  1.00  0.00    -0.278 OA 
HETATM   37  H   UNL     3     -10.650  17.249  63.962  1.00  0.00     0.000 HD 
ENDBRANCH  29  32
ENDBRANCH  26  29
ENDBRANCH  23  26
ENDBRANCH   7  23
TORSDOF 8
ENDMDL
MODEL       22
REMARK 921   NORMALIZED FREE ENERGY PREDICTED BY IDOCK:   -6.46 KCAL/MOL
REMARK 922        TOTAL FREE ENERGY PREDICTED BY IDOCK:  -11.55 KCAL/MOL
REMARK 923 INTER-LIGAND FREE ENERGY PREDICTED BY IDOCK:   -9.79 KCAL/MOL
REMARK 924 INTRA-LIGAND FREE ENERGY PREDICTED BY IDOCK:   -1.77 KCAL/MOL
REMARK 927      BINDING AFFINITY PREDICTED BY RF-SCORE:    0.00 PKD
ROOT
HETATM    1 CU   UNL     1     -12.239   9.706  69.524  1.00  0.00    -0.450 Cu 
HETATM    2  O   UNL     2     -11.859   5.157  73.423  1.00  0.00    -0.477 OA 
HETATM    3  C   UNL     2     -10.681   5.341  72.624  1.00  0.00    -0.239 C  
HETATM    4  H   UNL     2     -11.780   4.309  73.844  1.00  0.00     0.000 HD 
HETATM    5  O   UNL     3     -11.699  12.643  62.856  1.00  0.00    -0.718 OA 
HETATM    6  H   UNL     3     -11.534  11.806  62.438  1.00  0.00     0.000 HD 
HETATM    7  C   UNL     3     -12.244  12.399  64.169  1.00  0.00    -0.468 C  
ENDROOT
BRANCH   3   8
HETATM    8  C   UNL     2     -10.806   6.704  71.948  1.00  0.00    -0.236 C  
HETATM    9  O   UNL     2      -9.494   7.249  71.711  1.00  0.00    -0.150 OA 
HETATM   10  H   UNL     2      -9.572   8.098  71.290  1.00  0.00     0.000 HD 
BRANCH   8  11
HETATM   11  C   UNL     2     -11.624   6.635  70.641  1.00  0.00    -0.382 C  
HETATM   12  O   UNL     2     -12.595   7.682  70.697  1.00  0.00    -0.529 OA 
HETATM   13  H   UNL     2     -13.099   7.641  69.893  1.00  0.00     0.000 HD 
BRANCH  11  14
HETATM   14  C   UNL     2     -10.665   6.824  69.448  1.00  0.00    -0.255 C  
HETATM   15  H   UNL     2     -10.013   8.360  68.385  1.00  0.00     0.000 HD 
HETATM   16  O   UNL     2     -10.603   8.243  69.120  1.00  0.00    -0.219 OA 
BRANCH  14  17
HETATM   17  C   UNL     2     -10.929   5.979  68.201  1.00  0.00    -0.246 C  
HETATM   18  C   UNL     2      -9.806   4.921  68.047  1.00  0.00    -0.139 C  
HETATM   19  H   UNL     2     -11.274   6.309  66.292  1.00  0.00     0.000 HD 
HETATM   20  O   UNL     2     -11.111   6.834  67.067  1.00  0.00    -0.403 OA 
HETATM   21  O   UNL     2      -9.603   4.302  69.140  1.00  0.00    -0.166 OA 
HETATM   22  O   UNL     2      -9.312   4.809  66.908  1.00  0.00    -0.120 OA 
ENDBRANCH  14  17
ENDBRANCH  11  14
ENDBRANCH   8  11
ENDBRANCH   3   8
BRANCH   7  23
HETATM   23  C   UNL     3     -12.511  13.750  64.846  1.00  0.00    -0.386 C  
HETATM   24  O   UNL     3     -13.440  13.536  65.928  1.00  0.00    -0.196 OA 
HETATM   25  H   UNL     3     -13.605  14.373  66.347  1.00  0.00     0.000 HD 
BRANCH  23  26
HETATM   26  C   UNL     3     -11.302  14.453  65.494  1.00  0.00    -0.334 C  
HETATM   27  O   UNL     3     -10.066  13.905  65.029  1.00  0.00    -0.514 OA 
HETATM   28  H   UNL     3      -9.320  14.339  65.429  1.00  0.00     0.000 HD 
BRANCH  26  29
HETATM   29  C   UNL     3     -11.219  15.993  65.425  1.00  0.00    -0.047 C  
HETATM   30  O   UNL     3     -10.961  16.471  64.095  1.00  0.00    -1.169 OA 
HETATM   31  H   UNL     3     -10.910  17.419  64.052  1.00  0.00     0.000 HD 
BRANCH  29  32
HETATM   32  C   UNL     3     -10.233  16.676  66.366  1.00  0.00    -0.315 C  
HETATM   33  C   UNL     3     -10.510  18.172  66.596  1.00  0.00    -0.339 C  
HETATM   34  O   UNL     3      -8.861  16.571  65.784  1.00  0.00    -0.474 OA 
HETATM   35  O   UNL     3      -9.831  18.924  65.780  1.00  0.00    -0.458 OA 
HETATM   36  O   UNL     3     -10.997  18.496  67.697  1.00  0.00    -0.355 OA 
HETATM   37  H   UNL     3      -8.246  16.997  66.370  1.00  0.00     0.000 HD 
ENDBRANCH  29  32
ENDBRANCH  26  29
ENDBRANCH  23  26
ENDBRANCH   7  23
TORSDOF 8
ENDMDL
MODEL       23
REMARK 921   NORMALIZED FREE ENERGY PREDICTED BY IDOCK:   -6.45 KCAL/MOL
REMARK 922        TOTAL FREE ENERGY PREDICTED BY IDOCK:  -11.54 KCAL/MOL
REMARK 923 INTER-LIGAND FREE ENERGY PREDICTED BY IDOCK:  -10.71 KCAL/MOL
REMARK 924 INTRA-LIGAND FREE ENERGY PREDICTED BY IDOCK:   -0.83 KCAL/MOL
REMARK 927      BINDING AFFINITY PREDICTED BY RF-SCORE:    0.00 PKD
ROOT
HETATM    1 CU   UNL     1     -11.463   8.276  68.385  1.00  0.00    -0.430 Cu 
HETATM    2  O   UNL     2     -10.939   4.218  72.777  1.00  0.00    -0.148 OA 
HETATM    3  C   UNL     2      -9.840   5.137  72.697  1.00  0.00    -0.161 C  
HETATM    4  H   UNL     2     -10.668   3.508  73.348  1.00  0.00     0.000 HD 
HETATM    5  O   UNL     3      -9.014  11.917  62.543  1.00  0.00    -0.420 OA 
HETATM    6  H   UNL     3      -8.231  11.383  62.466  1.00  0.00     0.000 HD 
HETATM    7  C   UNL     3      -9.956  11.230  63.391  1.00  0.00    -0.395 C  
ENDROOT
BRANCH   3   8
HETATM    8  C   UNL     2     -10.274   6.277  71.781  1.00  0.00    -0.196 C  
HETATM    9  O   UNL     2     -10.498   5.771  70.450  1.00  0.00    -0.232 OA 
HETATM   10  H   UNL     2     -10.768   6.481  69.880  1.00  0.00     0.000 HD 
BRANCH   8  11
HETATM   11  C   UNL     2     -11.522   7.012  72.313  1.00  0.00    -0.270 C  
HETATM   12  O   UNL     2     -11.299   7.267  73.702  1.00  0.00    -0.542 OA 
HETATM   13  H   UNL     2     -12.067   7.719  74.030  1.00  0.00     0.000 HD 
BRANCH  11  14
HETATM   14  C   UNL     2     -11.697   8.325  71.524  1.00  0.00    -0.292 C  
HETATM   15  H   UNL     2     -10.673  10.008  71.330  1.00  0.00     0.000 HD 
HETATM   16  O   UNL     2     -10.566   9.199  71.816  1.00  0.00    -0.352 OA 
BRANCH  14  17
HETATM   17  C   UNL     2     -13.024   9.065  71.687  1.00  0.00    -0.361 C  
HETATM   18  C   UNL     2     -12.868  10.524  71.185  1.00  0.00    -0.416 C  
HETATM   19  H   UNL     2     -14.311   9.400  73.139  1.00  0.00     0.000 HD 
HETATM   20  O   UNL     2     -13.486   8.940  73.037  1.00  0.00    -0.299 OA 
HETATM   21  O   UNL     2     -12.316  10.559  70.038  1.00  0.00    -0.284 OA 
HETATM   22  O   UNL     2     -13.323  11.412  71.931  1.00  0.00    -0.435 OA 
ENDBRANCH  14  17
ENDBRANCH  11  14
ENDBRANCH   8  11
ENDBRANCH   3   8
BRANCH   7  23
HETATM   23  C   UNL     3     -11.219  12.092  63.516  1.00  0.00    -0.445 C  
HETATM   24  O   UNL     3     -12.314  11.377  62.907  1.00  0.00    -0.954 OA 
HETATM   25  H   UNL     3     -13.096  11.911  62.984  1.00  0.00     0.000 HD 
BRANCH  23  26
HETATM   26  C   UNL     3     -11.701  12.413  64.944  1.00  0.00    -0.365 C  
HETATM   27  O   UNL     3     -10.861  11.808  65.930  1.00  0.00    -0.274 OA 
HETATM   28  H   UNL     3     -11.159  12.007  66.811  1.00  0.00     0.000 HD 
BRANCH  26  29
HETATM   29  C   UNL     3     -11.933  13.891  65.329  1.00  0.00    -0.375 C  
HETATM   30  O   UNL     3     -13.281  14.320  65.080  1.00  0.00    -0.638 OA 
HETATM   31  H   UNL     3     -13.424  15.229  65.317  1.00  0.00     0.000 HD 
BRANCH  29  32
HETATM   32  C   UNL     3     -10.994  14.922  64.713  1.00  0.00    -0.375 C  
HETATM   33  C   UNL     3     -10.161  15.711  65.738  1.00  0.00    -0.367 C  
HETATM   34  O   UNL     3     -11.804  15.917  63.951  1.00  0.00    -1.153 OA 
HETATM   35  O   UNL     3     -10.732  16.832  66.069  1.00  0.00    -0.257 OA 
HETATM   36  O   UNL     3      -8.953  15.420  65.833  1.00  0.00    -0.278 OA 
HETATM   37  H   UNL     3     -11.219  16.560  63.567  1.00  0.00     0.000 HD 
ENDBRANCH  29  32
ENDBRANCH  26  29
ENDBRANCH  23  26
ENDBRANCH   7  23
TORSDOF 8
ENDMDL
MODEL       24
REMARK 921   NORMALIZED FREE ENERGY PREDICTED BY IDOCK:   -6.44 KCAL/MOL
REMARK 922        TOTAL FREE ENERGY PREDICTED BY IDOCK:  -11.53 KCAL/MOL
REMARK 923 INTER-LIGAND FREE ENERGY PREDICTED BY IDOCK:   -9.64 KCAL/MOL
REMARK 924 INTRA-LIGAND FREE ENERGY PREDICTED BY IDOCK:   -1.90 KCAL/MOL
REMARK 927      BINDING AFFINITY PREDICTED BY RF-SCORE:    0.00 PKD
ROOT
HETATM    1 CU   UNL     1     -10.626  11.393  69.600  1.00  0.00    -0.208 Cu 
HETATM    2  O   UNL     2     -10.922   7.370  74.047  1.00  0.00    -0.520 OA 
HETATM    3  C   UNL     2     -10.633   6.800  72.762  1.00  0.00    -0.235 C  
HETATM    4  H   UNL     2     -11.150   6.652  74.626  1.00  0.00     0.000 HD 
HETATM    5  O   UNL     3     -12.413  13.959  62.997  1.00  0.00    -1.099 OA 
HETATM    6  H   UNL     3     -13.074  13.291  62.853  1.00  0.00     0.000 HD 
HETATM    7  C   UNL     3     -12.096  13.993  64.404  1.00  0.00    -0.458 C  
ENDROOT
BRANCH   3   8
HETATM    8  C   UNL     2     -10.266   7.953  71.832  1.00  0.00    -0.202 C  
HETATM    9  O   UNL     2      -8.858   7.902  71.529  1.00  0.00    -0.124 OA 
HETATM   10  H   UNL     2      -8.629   8.620  70.951  1.00  0.00     0.000 HD 
BRANCH   8  11
HETATM   11  C   UNL     2     -11.111   7.956  70.542  1.00  0.00    -0.256 C  
HETATM   12  O   UNL     2     -11.739   9.237  70.453  1.00  0.00    -0.405 OA 
HETATM   13  H   UNL     2     -12.260   9.239  69.659  1.00  0.00     0.000 HD 
BRANCH  11  14
HETATM   14  C   UNL     2     -10.179   7.705  69.339  1.00  0.00    -0.206 C  
HETATM   15  H   UNL     2      -9.081   8.832  68.140  1.00  0.00     0.000 HD 
HETATM   16  O   UNL     2      -9.655   8.986  68.880  1.00  0.00    -0.153 OA 
BRANCH  14  17
HETATM   17  C   UNL     2     -10.746   6.890  68.176  1.00  0.00    -0.205 C  
HETATM   18  C   UNL     2     -10.105   5.478  68.173  1.00  0.00    -0.172 C  
HETATM   19  H   UNL     2     -10.946   7.116  66.231  1.00  0.00     0.000 HD 
HETATM   20  O   UNL     2     -10.595   7.622  66.954  1.00  0.00    -0.341 OA 
HETATM   21  O   UNL     2     -10.148   4.951  69.331  1.00  0.00    -0.218 OA 
HETATM   22  O   UNL     2      -9.693   5.065  67.071  1.00  0.00    -0.141 OA 
ENDBRANCH  14  17
ENDBRANCH  11  14
ENDBRANCH   8  11
ENDBRANCH   3   8
BRANCH   7  23
HETATM   23  C   UNL     3     -11.029  15.070  64.637  1.00  0.00    -0.303 C  
HETATM   24  O   UNL     3     -11.416  16.252  63.906  1.00  0.00    -1.484 OA 
HETATM   25  H   UNL     3     -10.754  16.920  64.051  1.00  0.00     0.000 HD 
BRANCH  23  26
HETATM   26  C   UNL     3     -10.832  15.549  66.089  1.00  0.00    -0.295 C  
HETATM   27  O   UNL     3      -9.915  14.710  66.797  1.00  0.00    -0.250 OA 
HETATM   28  H   UNL     3      -9.794  15.006  67.693  1.00  0.00     0.000 HD 
BRANCH  26  29
HETATM   29  C   UNL     3     -10.445  17.023  66.333  1.00  0.00    -0.252 C  
HETATM   30  O   UNL     3      -9.180  17.366  65.745  1.00  0.00    -0.517 OA 
HETATM   31  H   UNL     3      -8.942  18.274  65.896  1.00  0.00     0.000 HD 
BRANCH  29  32
HETATM   32  C   UNL     3     -10.432  17.504  67.781  1.00  0.00    -0.381 C  
HETATM   33  C   UNL     3      -9.026  17.621  68.396  1.00  0.00    -0.280 C  
HETATM   34  O   UNL     3     -11.195  16.532  68.618  1.00  0.00    -0.353 OA 
HETATM   35  O   UNL     3      -8.685  16.543  69.039  1.00  0.00    -0.251 OA 
HETATM   36  O   UNL     3      -8.566  18.770  68.547  1.00  0.00    -0.329 OA 
HETATM   37  H   UNL     3     -11.187  16.831  69.520  1.00  0.00     0.000 HD 
ENDBRANCH  29  32
ENDBRANCH  26  29
ENDBRANCH  23  26
ENDBRANCH   7  23
TORSDOF 8
ENDMDL
MODEL       25
REMARK 921   NORMALIZED FREE ENERGY PREDICTED BY IDOCK:   -6.44 KCAL/MOL
REMARK 922        TOTAL FREE ENERGY PREDICTED BY IDOCK:  -11.53 KCAL/MOL
REMARK 923 INTER-LIGAND FREE ENERGY PREDICTED BY IDOCK:   -9.56 KCAL/MOL
REMARK 924 INTRA-LIGAND FREE ENERGY PREDICTED BY IDOCK:   -1.97 KCAL/MOL
REMARK 927      BINDING AFFINITY PREDICTED BY RF-SCORE:    0.00 PKD
ROOT
HETATM    1 CU   UNL     1      -9.566  12.200  69.034  1.00  0.00    -0.243 Cu 
HETATM    2  O   UNL     2      -9.095   7.546  72.797  1.00  0.00    -0.134 OA 
HETATM    3  C   UNL     2     -10.346   8.242  72.884  1.00  0.00    -0.171 C  
HETATM    4  H   UNL     2      -9.039   6.977  73.556  1.00  0.00     0.000 HD 
HETATM    5  O   UNL     3     -10.982  19.191  67.453  1.00  0.00    -0.475 OA 
HETATM    6  H   UNL     3     -11.081  19.438  68.366  1.00  0.00     0.000 HD 
HETATM    7  C   UNL     3     -10.308  17.917  67.394  1.00  0.00    -0.378 C  
ENDROOT
BRANCH   3   8
HETATM    8  C   UNL     2     -10.437   9.156  71.664  1.00  0.00    -0.332 C  
HETATM    9  O   UNL     2      -9.112   9.448  71.178  1.00  0.00    -0.250 OA 
HETATM   10  H   UNL     2      -9.168  10.017  70.419  1.00  0.00     0.000 HD 
BRANCH   8  11
HETATM   11  C   UNL     2     -11.318   8.557  70.549  1.00  0.00    -0.217 C  
HETATM   12  O   UNL     2     -11.808   9.649  69.767  1.00  0.00    -0.455 OA 
HETATM   13  H   UNL     2     -12.350   9.281  69.081  1.00  0.00     0.000 HD 
BRANCH  11  14
HETATM   14  C   UNL     2     -10.457   7.601  69.699  1.00  0.00    -0.235 C  
HETATM   15  H   UNL     2      -9.474   7.726  67.985  1.00  0.00     0.000 HD 
HETATM   16  O   UNL     2     -10.005   8.315  68.510  1.00  0.00    -0.179 OA 
BRANCH  14  17
HETATM   17  C   UNL     2     -11.070   6.249  69.332  1.00  0.00    -0.410 C  
HETATM   18  C   UNL     2     -10.197   5.110  69.919  1.00  0.00    -0.291 C  
HETATM   19  H   UNL     2     -11.660   5.340  67.689  1.00  0.00     0.000 HD 
HETATM   20  O   UNL     2     -11.279   6.180  67.917  1.00  0.00    -0.304 OA 
HETATM   21  O   UNL     2      -9.933   5.318  71.146  1.00  0.00    -0.182 OA 
HETATM   22  O   UNL     2      -9.926   4.173  69.143  1.00  0.00    -0.118 OA 
ENDBRANCH  14  17
ENDBRANCH  11  14
ENDBRANCH   8  11
ENDBRANCH   3   8
BRANCH   7  23
HETATM   23  C   UNL     3     -10.147  17.518  65.921  1.00  0.00    -0.185 C  
HETATM   24  O   UNL     3      -8.791  17.069  65.722  1.00  0.00    -0.523 OA 
HETATM   25  H   UNL     3      -8.692  16.822  64.809  1.00  0.00     0.000 HD 
BRANCH  23  26
HETATM   26  C   UNL     3     -11.028  16.359  65.416  1.00  0.00    -0.160 C  
HETATM   27  O   UNL     3     -10.951  16.222  63.995  1.00  0.00    -1.106 OA 
HETATM   28  H   UNL     3     -11.494  15.507  63.684  1.00  0.00     0.000 HD 
BRANCH  26  29
HETATM   29  C   UNL     3     -10.852  14.965  66.058  1.00  0.00    -0.328 C  
HETATM   30  O   UNL     3      -9.976  14.116  65.299  1.00  0.00    -0.489 OA 
HETATM   31  H   UNL     3      -9.868  13.259  65.695  1.00  0.00     0.000 HD 
BRANCH  29  32
HETATM   32  C   UNL     3     -12.122  14.177  66.358  1.00  0.00    -0.451 C  
HETATM   33  C   UNL     3     -11.888  12.681  66.634  1.00  0.00    -0.380 C  
HETATM   34  O   UNL     3     -13.034  14.265  65.180  1.00  0.00    -0.692 OA 
HETATM   35  O   UNL     3     -12.023  11.961  65.558  1.00  0.00    -0.399 OA 
HETATM   36  O   UNL     3     -11.983  12.300  67.816  1.00  0.00    -0.474 OA 
HETATM   37  H   UNL     3     -13.826  13.774  65.366  1.00  0.00     0.000 HD 
ENDBRANCH  29  32
ENDBRANCH  26  29
ENDBRANCH  23  26
ENDBRANCH   7  23
TORSDOF 8
ENDMDL
MODEL       26
REMARK 921   NORMALIZED FREE ENERGY PREDICTED BY IDOCK:   -6.44 KCAL/MOL
REMARK 922        TOTAL FREE ENERGY PREDICTED BY IDOCK:  -11.52 KCAL/MOL
REMARK 923 INTER-LIGAND FREE ENERGY PREDICTED BY IDOCK:   -9.31 KCAL/MOL
REMARK 924 INTRA-LIGAND FREE ENERGY PREDICTED BY IDOCK:   -2.21 KCAL/MOL
REMARK 927      BINDING AFFINITY PREDICTED BY RF-SCORE:    0.00 PKD
ROOT
HETATM    1 CU   UNL     1     -12.345  10.251  67.898  1.00  0.00    -0.384 Cu 
HETATM    2  O   UNL     2     -12.518  14.747  63.924  1.00  0.00    -0.997 OA 
HETATM    3  C   UNL     2     -11.889  13.556  63.430  1.00  0.00    -0.169 C  
HETATM    4  H   UNL     2     -12.312  15.445  63.313  1.00  0.00     0.000 HD 
HETATM    5  O   UNL     3      -8.923   5.027  71.690  1.00  0.00    -0.130 OA 
HETATM    6  H   UNL     3      -8.061   5.291  71.389  1.00  0.00     0.000 HD 
HETATM    7  C   UNL     3      -9.849   6.102  71.432  1.00  0.00    -0.175 C  
ENDROOT
BRANCH   3   8
HETATM    8  C   UNL     2     -12.221  12.434  64.411  1.00  0.00    -0.437 C  
HETATM    9  O   UNL     2     -12.857  11.349  63.709  1.00  0.00    -0.241 OA 
HETATM   10  H   UNL     2     -13.064  10.651  64.320  1.00  0.00     0.000 HD 
BRANCH   8  11
HETATM   11  C   UNL     2     -10.977  11.944  65.181  1.00  0.00    -0.312 C  
HETATM   12  O   UNL     2      -9.831  12.352  64.431  1.00  0.00    -0.491 OA 
HETATM   13  H   UNL     2      -9.065  12.050  64.904  1.00  0.00     0.000 HD 
BRANCH  11  14
HETATM   14  C   UNL     2     -10.983  12.581  66.585  1.00  0.00    -0.266 C  
HETATM   15  H   UNL     2     -12.362  13.033  67.930  1.00  0.00     0.000 HD 
HETATM   16  O   UNL     2     -12.359  12.640  67.065  1.00  0.00    -0.399 OA 
BRANCH  14  17
HETATM   17  C   UNL     2     -10.284  13.933  66.741  1.00  0.00    -0.268 C  
HETATM   18  C   UNL     2      -9.429  13.926  68.034  1.00  0.00    -0.208 C  
HETATM   19  H   UNL     2     -10.816  15.828  66.760  1.00  0.00     0.000 HD 
HETATM   20  O   UNL     2     -11.250  14.988  66.663  1.00  0.00    -0.335 OA 
HETATM   21  O   UNL     2      -8.704  12.882  68.101  1.00  0.00    -0.180 OA 
HETATM   22  O   UNL     2      -9.543  14.925  68.771  1.00  0.00    -0.204 OA 
ENDBRANCH  14  17
ENDBRANCH  11  14
ENDBRANCH   8  11
ENDBRANCH   3   8
BRANCH   7  23
HETATM   23  C   UNL     3     -11.240   5.675  71.918  1.00  0.00    -0.181 C  
HETATM   24  O   UNL     3     -11.205   5.586  73.357  1.00  0.00    -0.427 OA 
HETATM   25  H   UNL     3     -12.067   5.321  73.659  1.00  0.00     0.000 HD 
BRANCH  23  26
HETATM   26  C   UNL     3     -12.407   6.632  71.608  1.00  0.00    -0.332 C  
HETATM   27  O   UNL     3     -13.605   6.234  72.280  1.00  0.00    -0.420 OA 
HETATM   28  H   UNL     3     -14.325   6.825  72.089  1.00  0.00     0.000 HD 
BRANCH  26  29
HETATM   29  C   UNL     3     -12.197   8.147  71.825  1.00  0.00    -0.319 C  
HETATM   30  O   UNL     3     -11.709   8.452  73.142  1.00  0.00    -0.302 OA 
HETATM   31  H   UNL     3     -11.580   9.384  73.275  1.00  0.00     0.000 HD 
BRANCH  29  32
HETATM   32  C   UNL     3     -13.388   9.057  71.547  1.00  0.00    -0.339 C  
HETATM   33  C   UNL     3     -13.007  10.499  71.169  1.00  0.00    -0.411 C  
HETATM   34  O   UNL     3     -14.232   9.137  72.776  1.00  0.00    -0.903 OA 
HETATM   35  O   UNL     3     -12.997  11.287  72.204  1.00  0.00    -0.393 OA 
HETATM   36  O   UNL     3     -13.131  10.824  69.972  1.00  0.00    -0.093 OA 
HETATM   37  H   UNL     3     -14.974   9.705  72.603  1.00  0.00     0.000 HD 
ENDBRANCH  29  32
ENDBRANCH  26  29
ENDBRANCH  23  26
ENDBRANCH   7  23
TORSDOF 8
ENDMDL
MODEL       27
REMARK 921   NORMALIZED FREE ENERGY PREDICTED BY IDOCK:   -6.40 KCAL/MOL
REMARK 922        TOTAL FREE ENERGY PREDICTED BY IDOCK:  -11.47 KCAL/MOL
REMARK 923 INTER-LIGAND FREE ENERGY PREDICTED BY IDOCK:   -9.72 KCAL/MOL
REMARK 924 INTRA-LIGAND FREE ENERGY PREDICTED BY IDOCK:   -1.76 KCAL/MOL
REMARK 927      BINDING AFFINITY PREDICTED BY RF-SCORE:    0.00 PKD
ROOT
HETATM    1 CU   UNL     1     -11.650   9.341  68.950  1.00  0.00    -0.424 Cu 
HETATM    2  O   UNL     2     -11.111   6.169  74.018  1.00  0.00    -0.306 OA 
HETATM    3  C   UNL     2     -10.022   7.072  73.776  1.00  0.00    -0.330 C  
HETATM    4  H   UNL     2     -10.836   5.580  74.712  1.00  0.00     0.000 HD 
HETATM    5  O   UNL     3      -9.200  11.876  62.551  1.00  0.00    -0.407 OA 
HETATM    6  H   UNL     3      -8.410  11.347  62.577  1.00  0.00     0.000 HD 
HETATM    7  C   UNL     3     -10.140  11.344  63.506  1.00  0.00    -0.395 C  
ENDROOT
BRANCH   3   8
HETATM    8  C   UNL     2     -10.463   8.018  72.662  1.00  0.00    -0.339 C  
HETATM    9  O   UNL     2      -9.313   8.691  72.115  1.00  0.00    -0.261 OA 
HETATM   10  H   UNL     2      -9.588   9.281  71.422  1.00  0.00     0.000 HD 
BRANCH   8  11
HETATM   11  C   UNL     2     -11.259   7.291  71.559  1.00  0.00    -0.245 C  
HETATM   12  O   UNL     2     -12.136   8.254  70.969  1.00  0.00    -0.377 OA 
HETATM   13  H   UNL     2     -12.626   7.807  70.290  1.00  0.00     0.000 HD 
BRANCH  11  14
HETATM   14  C   UNL     2     -10.266   6.729  70.522  1.00  0.00    -0.192 C  
HETATM   15  H   UNL     2      -9.332   7.437  68.928  1.00  0.00     0.000 HD 
HETATM   16  O   UNL     2      -9.944   7.783  69.567  1.00  0.00    -0.180 OA 
BRANCH  14  17
HETATM   17  C   UNL     2     -10.661   5.436  69.807  1.00  0.00    -0.277 C  
HETATM   18  C   UNL     2      -9.838   4.255  70.383  1.00  0.00    -0.198 C  
HETATM   19  H   UNL     2     -10.795   4.810  67.946  1.00  0.00     0.000 HD 
HETATM   20  O   UNL     2     -10.549   5.614  68.390  1.00  0.00    -0.208 OA 
HETATM   21  O   UNL     2      -9.867   4.252  71.656  1.00  0.00    -0.171 OA 
HETATM   22  O   UNL     2      -9.322   3.488  69.547  1.00  0.00    -0.148 OA 
ENDBRANCH  14  17
ENDBRANCH  11  14
ENDBRANCH   8  11
ENDBRANCH   3   8
BRANCH   7  23
HETATM   23  C   UNL     3     -11.414  12.197  63.463  1.00  0.00    -0.458 C  
HETATM   24  O   UNL     3     -12.454  11.422  62.831  1.00  0.00    -0.949 OA 
HETATM   25  H   UNL     3     -13.243  11.951  62.804  1.00  0.00     0.000 HD 
BRANCH  23  26
HETATM   26  C   UNL     3     -12.009  12.626  64.819  1.00  0.00    -0.402 C  
HETATM   27  O   UNL     3     -11.481  11.844  65.893  1.00  0.00    -0.340 OA 
HETATM   28  H   UNL     3     -11.848  12.109  66.730  1.00  0.00     0.000 HD 
BRANCH  26  29
HETATM   29  C   UNL     3     -11.945  14.117  65.214  1.00  0.00    -0.381 C  
HETATM   30  O   UNL     3     -12.012  14.992  64.075  1.00  0.00    -0.820 OA 
HETATM   31  H   UNL     3     -11.973  15.909  64.319  1.00  0.00     0.000 HD 
BRANCH  29  32
HETATM   32  C   UNL     3     -10.763  14.557  66.071  1.00  0.00    -0.305 C  
HETATM   33  C   UNL     3     -10.701  16.071  66.335  1.00  0.00    -0.232 C  
HETATM   34  O   UNL     3      -9.497  14.184  65.372  1.00  0.00    -0.533 OA 
HETATM   35  O   UNL     3      -9.950  16.686  65.469  1.00  0.00    -0.552 OA 
HETATM   36  O   UNL     3     -11.016  16.462  67.476  1.00  0.00    -0.285 OA 
HETATM   37  H   UNL     3      -8.760  14.458  65.905  1.00  0.00     0.000 HD 
ENDBRANCH  29  32
ENDBRANCH  26  29
ENDBRANCH  23  26
ENDBRANCH   7  23
TORSDOF 8
ENDMDL
MODEL       28
REMARK 921   NORMALIZED FREE ENERGY PREDICTED BY IDOCK:   -6.39 KCAL/MOL
REMARK 922        TOTAL FREE ENERGY PREDICTED BY IDOCK:  -11.45 KCAL/MOL
REMARK 923 INTER-LIGAND FREE ENERGY PREDICTED BY IDOCK:   -9.52 KCAL/MOL
REMARK 924 INTRA-LIGAND FREE ENERGY PREDICTED BY IDOCK:   -1.93 KCAL/MOL
REMARK 927      BINDING AFFINITY PREDICTED BY RF-SCORE:    0.00 PKD
ROOT
HETATM    1 CU   UNL     1      -9.523  15.562  68.011  1.00  0.00    -0.182 Cu 
HETATM    2  O   UNL     2      -7.309  20.915  66.438  1.00  0.00    -0.508 OA 
HETATM    3  C   UNL     2      -7.064  20.561  67.807  1.00  0.00    -0.298 C  
HETATM    4  H   UNL     2      -7.111  21.840  66.349  1.00  0.00     0.000 HD 
HETATM    5  O   UNL     3     -13.421  11.124  72.312  1.00  0.00    -0.608 OA 
HETATM    6  H   UNL     3     -13.769  11.839  72.833  1.00  0.00     0.000 HD 
HETATM    7  C   UNL     3     -12.884  11.668  71.089  1.00  0.00    -0.294 C  
ENDROOT
BRANCH   3   8
HETATM    8  C   UNL     2      -7.381  19.075  67.950  1.00  0.00    -0.245 C  
HETATM    9  O   UNL     2      -6.813  18.574  69.176  1.00  0.00    -0.273 OA 
HETATM   10  H   UNL     2      -7.010  17.649  69.264  1.00  0.00     0.000 HD 
BRANCH   8  11
HETATM   11  C   UNL     2      -8.895  18.791  67.882  1.00  0.00    -0.296 C  
HETATM   12  O   UNL     2      -9.555  20.054  67.767  1.00  0.00    -0.356 OA 
HETATM   13  H   UNL     2     -10.488  19.880  67.725  1.00  0.00     0.000 HD 
BRANCH  11  14
HETATM   14  C   UNL     2      -9.177  17.898  66.657  1.00  0.00    -0.278 C  
HETATM   15  H   UNL     2      -8.320  17.595  64.899  1.00  0.00     0.000 HD 
HETATM   16  O   UNL     2      -8.146  18.145  65.654  1.00  0.00    -0.488 OA 
BRANCH  14  17
HETATM   17  C   UNL     2     -10.575  17.976  66.043  1.00  0.00    -0.251 C  
HETATM   18  C   UNL     2     -10.866  16.674  65.254  1.00  0.00    -0.183 C  
HETATM   19  H   UNL     2     -11.572  19.231  64.901  1.00  0.00     0.000 HD 
HETATM   20  O   UNL     2     -10.703  19.183  65.282  1.00  0.00    -0.476 OA 
HETATM   21  O   UNL     2     -10.589  15.644  65.947  1.00  0.00    -0.314 OA 
HETATM   22  O   UNL     2     -11.349  16.821  64.113  1.00  0.00    -1.194 OA 
ENDBRANCH  14  17
ENDBRANCH  11  14
ENDBRANCH   8  11
ENDBRANCH   3   8
BRANCH   7  23
HETATM   23  C   UNL     3     -12.322  10.514  70.248  1.00  0.00    -0.298 C  
HETATM   24  O   UNL     3     -11.595  11.078  69.137  1.00  0.00    -0.266 OA 
HETATM   25  H   UNL     3     -11.247  10.364  68.616  1.00  0.00     0.000 HD 
BRANCH  23  26
HETATM   26  C   UNL     3     -11.318   9.573  70.942  1.00  0.00    -0.341 C  
HETATM   27  O   UNL     3     -11.888   8.960  72.101  1.00  0.00    -0.361 OA 
HETATM   28  H   UNL     3     -11.268   8.380  72.529  1.00  0.00     0.000 HD 
BRANCH  26  29
HETATM   29  C   UNL     3     -10.621   8.484  70.098  1.00  0.00    -0.232 C  
HETATM   30  O   UNL     3     -10.935   8.587  68.699  1.00  0.00    -0.439 OA 
HETATM   31  H   UNL     3     -10.506   7.917  68.180  1.00  0.00     0.000 HD 
BRANCH  29  32
HETATM   32  C   UNL     3     -10.841   7.036  70.520  1.00  0.00    -0.251 C  
HETATM   33  C   UNL     3     -10.010   6.012  69.725  1.00  0.00    -0.175 C  
HETATM   34  O   UNL     3     -12.277   6.686  70.312  1.00  0.00    -0.570 OA 
HETATM   35  O   UNL     3     -10.670   5.530  68.713  1.00  0.00    -0.212 OA 
HETATM   36  O   UNL     3      -9.035   5.498  70.307  1.00  0.00    -0.133 OA 
HETATM   37  H   UNL     3     -12.414   5.783  70.575  1.00  0.00     0.000 HD 
ENDBRANCH  29  32
ENDBRANCH  26  29
ENDBRANCH  23  26
ENDBRANCH   7  23
TORSDOF 8
ENDMDL
MODEL       29
REMARK 921   NORMALIZED FREE ENERGY PREDICTED BY IDOCK:   -6.37 KCAL/MOL
REMARK 922        TOTAL FREE ENERGY PREDICTED BY IDOCK:  -11.43 KCAL/MOL
REMARK 923 INTER-LIGAND FREE ENERGY PREDICTED BY IDOCK:   -9.21 KCAL/MOL
REMARK 924 INTRA-LIGAND FREE ENERGY PREDICTED BY IDOCK:   -2.22 KCAL/MOL
REMARK 927      BINDING AFFINITY PREDICTED BY RF-SCORE:    0.00 PKD
ROOT
HETATM    1 CU   UNL     1     -10.946  11.332  67.991  1.00  0.00    -0.176 Cu 
HETATM    2  O   UNL     2     -10.746  16.485  64.918  1.00  0.00    -0.702 OA 
HETATM    3  C   UNL     2      -9.634  16.289  65.803  1.00  0.00    -0.231 C  
HETATM    4  H   UNL     2     -10.729  17.395  64.645  1.00  0.00     0.000 HD 
HETATM    5  O   UNL     3     -10.681   7.388  74.135  1.00  0.00    -0.540 OA 
HETATM    6  H   UNL     3     -10.654   8.155  74.696  1.00  0.00     0.000 HD 
HETATM    7  C   UNL     3     -11.127   7.793  72.825  1.00  0.00    -0.398 C  
ENDROOT
BRANCH   3   8
HETATM    8  C   UNL     2      -9.659  14.827  66.240  1.00  0.00    -0.312 C  
HETATM    9  O   UNL     2      -8.386  14.471  66.814  1.00  0.00    -0.387 OA 
HETATM   10  H   UNL     2      -8.402  13.560  67.085  1.00  0.00     0.000 HD 
BRANCH   8  11
HETATM   11  C   UNL     2     -10.813  14.530  67.219  1.00  0.00    -0.297 C  
HETATM   12  O   UNL     2     -11.363  15.788  67.615  1.00  0.00    -0.297 OA 
HETATM   13  H   UNL     2     -12.074  15.606  68.218  1.00  0.00     0.000 HD 
BRANCH  11  14
HETATM   14  C   UNL     2     -11.863  13.662  66.496  1.00  0.00    -0.404 C  
HETATM   15  H   UNL     2     -13.153  12.260  67.032  1.00  0.00     0.000 HD 
HETATM   16  O   UNL     2     -12.506  12.795  67.477  1.00  0.00    -0.142 OA 
BRANCH  14  17
HETATM   17  C   UNL     2     -11.393  12.866  65.278  1.00  0.00    -0.300 C  
HETATM   18  C   UNL     2     -12.329  13.157  64.078  1.00  0.00    -0.352 C  
HETATM   19  H   UNL     2     -10.975  10.987  64.867  1.00  0.00     0.000 HD 
HETATM   20  O   UNL     2     -11.268  11.482  65.624  1.00  0.00    -0.253 OA 
HETATM   21  O   UNL     2     -12.508  14.408  63.925  1.00  0.00    -0.798 OA 
HETATM   22  O   UNL     2     -12.724  12.162  63.437  1.00  0.00    -0.722 OA 
ENDBRANCH  14  17
ENDBRANCH  11  14
ENDBRANCH   8  11
ENDBRANCH   3   8
BRANCH   7  23
HETATM   23  C   UNL     3     -11.169   6.554  71.921  1.00  0.00    -0.272 C  
HETATM   24  O   UNL     3     -12.351   5.796  72.251  1.00  0.00    -0.283 OA 
HETATM   25  H   UNL     3     -12.377   5.028  71.691  1.00  0.00     0.000 HD 
BRANCH  23  26
HETATM   26  C   UNL     3     -11.272   6.805  70.404  1.00  0.00    -0.328 C  
HETATM   27  O   UNL     3     -11.689   8.143  70.121  1.00  0.00    -0.473 OA 
HETATM   28  H   UNL     3     -11.752   8.298  69.185  1.00  0.00     0.000 HD 
BRANCH  26  29
HETATM   29  C   UNL     3     -10.054   6.468  69.516  1.00  0.00    -0.176 C  
HETATM   30  O   UNL     3      -9.090   7.532  69.475  1.00  0.00    -0.143 OA 
HETATM   31  H   UNL     3      -8.341   7.324  68.929  1.00  0.00     0.000 HD 
BRANCH  29  32
HETATM   32  C   UNL     3     -10.341   6.044  68.079  1.00  0.00    -0.202 C  
HETATM   33  C   UNL     3      -9.388   6.654  67.037  1.00  0.00    -0.141 C  
HETATM   34  O   UNL     3     -11.722   6.480  67.715  1.00  0.00    -0.552 OA 
HETATM   35  O   UNL     3      -9.867   7.747  66.521  1.00  0.00    -0.221 OA 
HETATM   36  O   UNL     3      -8.525   5.900  66.546  1.00  0.00    -0.110 OA 
HETATM   37  H   UNL     3     -11.901   6.216  66.821  1.00  0.00     0.000 HD 
ENDBRANCH  29  32
ENDBRANCH  26  29
ENDBRANCH  23  26
ENDBRANCH   7  23
TORSDOF 8
ENDMDL
MODEL       30
REMARK 921   NORMALIZED FREE ENERGY PREDICTED BY IDOCK:   -6.35 KCAL/MOL
REMARK 922        TOTAL FREE ENERGY PREDICTED BY IDOCK:  -11.39 KCAL/MOL
REMARK 923 INTER-LIGAND FREE ENERGY PREDICTED BY IDOCK:   -9.28 KCAL/MOL
REMARK 924 INTRA-LIGAND FREE ENERGY PREDICTED BY IDOCK:   -2.12 KCAL/MOL
REMARK 927      BINDING AFFINITY PREDICTED BY RF-SCORE:    0.00 PKD
ROOT
HETATM    1 CU   UNL     1     -10.669  13.055  69.121  1.00  0.00    -0.216 Cu 
HETATM    2  O   UNL     2      -9.620  18.389  66.575  1.00  0.00    -0.307 OA 
HETATM    3  C   UNL     2      -8.724  17.353  66.150  1.00  0.00    -0.147 C  
HETATM    4  H   UNL     2      -9.250  19.215  66.286  1.00  0.00     0.000 HD 
HETATM    5  O   UNL     3      -8.637   7.047  72.749  1.00  0.00    -0.115 OA 
HETATM    6  H   UNL     3      -7.761   7.375  72.917  1.00  0.00     0.000 HD 
HETATM    7  C   UNL     3      -9.474   8.156  72.363  1.00  0.00    -0.251 C  
ENDROOT
BRANCH   3   8
HETATM    8  C   UNL     2      -9.319  16.026  66.614  1.00  0.00    -0.243 C  
HETATM    9  O   UNL     2      -9.386  16.002  68.053  1.00  0.00    -0.200 OA 
HETATM   10  H   UNL     2      -9.756  15.175  68.341  1.00  0.00     0.000 HD 
BRANCH   8  11
HETATM   11  C   UNL     2     -10.703  15.756  65.989  1.00  0.00    -0.306 C  
HETATM   12  O   UNL     2     -10.686  16.314  64.672  1.00  0.00    -0.782 OA 
HETATM   13  H   UNL     2     -11.538  16.148  64.287  1.00  0.00     0.000 HD 
BRANCH  11  14
HETATM   14  C   UNL     2     -10.939  14.233  65.949  1.00  0.00    -0.304 C  
HETATM   15  H   UNL     2     -10.350  12.680  67.024  1.00  0.00     0.000 HD 
HETATM   16  O   UNL     2     -10.205  13.618  67.049  1.00  0.00    -0.246 OA 
BRANCH  14  17
HETATM   17  C   UNL     2     -10.657  13.518  64.627  1.00  0.00    -0.427 C  
HETATM   18  C   UNL     2     -11.989  13.286  63.870  1.00  0.00    -0.483 C  
HETATM   19  H   UNL     2      -9.714  11.889  64.051  1.00  0.00     0.000 HD 
HETATM   20  O   UNL     2      -9.889  12.333  64.873  1.00  0.00    -0.219 OA 
HETATM   21  O   UNL     2     -12.682  14.353  63.820  1.00  0.00    -0.785 OA 
HETATM   22  O   UNL     2     -12.163  12.143  63.403  1.00  0.00    -0.528 OA 
ENDBRANCH  14  17
ENDBRANCH  11  14
ENDBRANCH   8  11
ENDBRANCH   3   8
BRANCH   7  23
HETATM   23  C   UNL     3     -10.889   7.628  72.092  1.00  0.00    -0.247 C  
HETATM   24  O   UNL     3     -11.749   8.077  73.159  1.00  0.00    -0.592 OA 
HETATM   25  H   UNL     3     -12.625   7.750  72.991  1.00  0.00     0.000 HD 
BRANCH  23  26
HETATM   26  C   UNL     3     -11.575   8.112  70.800  1.00  0.00    -0.238 C  
HETATM   27  O   UNL     3     -12.323   7.065  70.179  1.00  0.00    -0.618 OA 
HETATM   28  H   UNL     3     -12.746   7.364  69.382  1.00  0.00     0.000 HD 
BRANCH  26  29
HETATM   29  C   UNL     3     -12.454   9.380  70.862  1.00  0.00    -0.166 C  
HETATM   30  O   UNL     3     -13.858   9.080  70.810  1.00  0.00    -0.520 OA 
HETATM   31  H   UNL     3     -14.399   9.860  70.848  1.00  0.00     0.000 HD 
BRANCH  29  32
HETATM   32  C   UNL     3     -12.172  10.469  69.832  1.00  0.00    -0.218 C  
HETATM   33  C   UNL     3     -10.976  10.173  68.910  1.00  0.00    -0.223 C  
HETATM   34  O   UNL     3     -11.865  11.742  70.549  1.00  0.00    -0.461 OA 
HETATM   35  O   UNL     3      -9.873  10.695  69.360  1.00  0.00    -0.210 OA 
HETATM   36  O   UNL     3     -11.233   9.842  67.736  1.00  0.00    -0.225 OA 
HETATM   37  H   UNL     3     -11.689  12.421  69.907  1.00  0.00     0.000 HD 
ENDBRANCH  29  32
ENDBRANCH  26  29
ENDBRANCH  23  26
ENDBRANCH   7  23
TORSDOF 8
ENDMDL
MODEL       31
REMARK 921   NORMALIZED FREE ENERGY PREDICTED BY IDOCK:   -6.32 KCAL/MOL
REMARK 922        TOTAL FREE ENERGY PREDICTED BY IDOCK:  -11.35 KCAL/MOL
REMARK 923 INTER-LIGAND FREE ENERGY PREDICTED BY IDOCK:   -9.82 KCAL/MOL
REMARK 924 INTRA-LIGAND FREE ENERGY PREDICTED BY IDOCK:   -1.53 KCAL/MOL
REMARK 927      BINDING AFFINITY PREDICTED BY RF-SCORE:    0.00 PKD
ROOT
HETATM    1 CU   UNL     1     -10.226   9.122  68.638  1.00  0.00    -0.163 Cu 
HETATM    2  O   UNL     2      -9.511   5.409  73.301  1.00  0.00    -0.141 OA 
HETATM    3  C   UNL     2     -10.869   5.532  72.856  1.00  0.00    -0.269 C  
HETATM    4  H   UNL     2      -9.533   4.979  74.148  1.00  0.00     0.000 HD 
HETATM    5  O   UNL     3     -13.379  14.748  65.205  1.00  0.00    -0.160 OA 
HETATM    6  H   UNL     3     -13.882  15.008  65.969  1.00  0.00     0.000 HD 
HETATM    7  C   UNL     3     -12.321  13.866  65.631  1.00  0.00    -0.482 C  
ENDROOT
BRANCH   3   8
HETATM    8  C   UNL     2     -10.835   6.222  71.494  1.00  0.00    -0.254 C  
HETATM    9  O   UNL     2     -10.514   5.259  70.471  1.00  0.00    -0.264 OA 
HETATM   10  H   UNL     2     -10.492   5.688  69.624  1.00  0.00     0.000 HD 
BRANCH   8  11
HETATM   11  C   UNL     2     -12.155   6.953  71.175  1.00  0.00    -0.381 C  
HETATM   12  O   UNL     2     -13.116   6.526  72.144  1.00  0.00    -0.530 OA 
HETATM   13  H   UNL     2     -13.930   6.975  71.948  1.00  0.00     0.000 HD 
BRANCH  11  14
HETATM   14  C   UNL     2     -11.912   8.473  71.260  1.00  0.00    -0.294 C  
HETATM   15  H   UNL     2     -10.732   9.661  72.314  1.00  0.00     0.000 HD 
HETATM   16  O   UNL     2     -10.882   8.725  72.261  1.00  0.00    -0.352 OA 
BRANCH  14  17
HETATM   17  C   UNL     2     -13.134   9.363  71.488  1.00  0.00    -0.377 C  
HETATM   18  C   UNL     2     -12.764  10.837  71.180  1.00  0.00    -0.431 C  
HETATM   19  H   UNL     2     -14.420   9.690  72.942  1.00  0.00     0.000 HD 
HETATM   20  O   UNL     2     -13.660   9.136  72.801  1.00  0.00    -0.430 OA 
HETATM   21  O   UNL     2     -12.168  10.937  70.060  1.00  0.00    -0.315 OA 
HETATM   22  O   UNL     2     -13.126  11.681  72.024  1.00  0.00    -0.478 OA 
ENDBRANCH  14  17
ENDBRANCH  11  14
ENDBRANCH   8  11
ENDBRANCH   3   8
BRANCH   7  23
HETATM   23  C   UNL     3     -11.509  13.447  64.399  1.00  0.00    -0.384 C  
HETATM   24  O   UNL     3     -10.130  13.802  64.627  1.00  0.00    -0.603 OA 
HETATM   25  H   UNL     3      -9.627  13.543  63.864  1.00  0.00     0.000 HD 
BRANCH  23  26
HETATM   26  C   UNL     3     -11.481  11.943  64.064  1.00  0.00    -0.398 C  
HETATM   27  O   UNL     3     -12.441  11.611  63.058  1.00  0.00    -0.972 OA 
HETATM   28  H   UNL     3     -12.424  10.683  62.852  1.00  0.00     0.000 HD 
BRANCH  26  29
HETATM   29  C   UNL     3     -10.130  11.295  63.692  1.00  0.00    -0.382 C  
HETATM   30  O   UNL     3     -10.262  10.294  62.670  1.00  0.00    -0.613 OA 
HETATM   31  H   UNL     3      -9.430   9.896  62.441  1.00  0.00     0.000 HD 
BRANCH  29  32
HETATM   32  C   UNL     3      -9.315  10.692  64.832  1.00  0.00    -0.228 C  
HETATM   33  C   UNL     3     -10.162  10.109  65.976  1.00  0.00    -0.218 C  
HETATM   34  O   UNL     3      -8.455  11.758  65.426  1.00  0.00    -0.288 OA 
HETATM   35  O   UNL     3     -10.349  10.972  66.932  1.00  0.00    -0.216 OA 
HETATM   36  O   UNL     3     -10.235   8.867  66.053  1.00  0.00    -0.199 OA 
HETATM   37  H   UNL     3      -7.947  11.383  66.136  1.00  0.00     0.000 HD 
ENDBRANCH  29  32
ENDBRANCH  26  29
ENDBRANCH  23  26
ENDBRANCH   7  23
TORSDOF 8
ENDMDL
MODEL       32
REMARK 921   NORMALIZED FREE ENERGY PREDICTED BY IDOCK:   -6.30 KCAL/MOL
REMARK 922        TOTAL FREE ENERGY PREDICTED BY IDOCK:  -11.33 KCAL/MOL
REMARK 923 INTER-LIGAND FREE ENERGY PREDICTED BY IDOCK:  -10.02 KCAL/MOL
REMARK 924 INTRA-LIGAND FREE ENERGY PREDICTED BY IDOCK:   -1.31 KCAL/MOL
REMARK 927      BINDING AFFINITY PREDICTED BY RF-SCORE:    0.00 PKD
ROOT
HETATM    1 CU   UNL     1     -11.669   8.731  68.393  1.00  0.00    -0.379 Cu 
HETATM    2  O   UNL     2     -12.156   5.178  73.207  1.00  0.00    -0.476 OA 
HETATM    3  C   UNL     2     -10.975   5.992  73.200  1.00  0.00    -0.239 C  
HETATM    4  H   UNL     2     -12.037   4.520  73.882  1.00  0.00     0.000 HD 
HETATM    5  O   UNL     3      -8.087  11.470  62.644  1.00  0.00    -0.538 OA 
HETATM    6  H   UNL     3      -7.355  10.871  62.741  1.00  0.00     0.000 HD 
HETATM    7  C   UNL     3      -9.200  10.961  63.407  1.00  0.00    -0.265 C  
ENDROOT
BRANCH   3   8
HETATM    8  C   UNL     2     -11.166   7.050  72.116  1.00  0.00    -0.256 C  
HETATM    9  O   UNL     2     -12.566   7.364  71.986  1.00  0.00    -0.404 OA 
HETATM   10  H   UNL     2     -12.685   8.022  71.311  1.00  0.00     0.000 HD 
BRANCH   8  11
HETATM   11  C   UNL     2     -10.334   8.321  72.387  1.00  0.00    -0.332 C  
HETATM   12  O   UNL     2      -9.379   7.991  73.398  1.00  0.00    -0.274 OA 
HETATM   13  H   UNL     2      -8.867   8.773  73.564  1.00  0.00     0.000 HD 
BRANCH  11  14
HETATM   14  C   UNL     2      -9.640   8.746  71.077  1.00  0.00    -0.229 C  
HETATM   15  H   UNL     2      -9.670   8.134  69.195  1.00  0.00     0.000 HD 
HETATM   16  O   UNL     2     -10.098   7.872  70.002  1.00  0.00    -0.193 OA 
BRANCH  14  17
HETATM   17  C   UNL     2      -8.114   8.845  71.097  1.00  0.00    -0.160 C  
HETATM   18  C   UNL     2      -7.630   9.611  69.839  1.00  0.00    -0.138 C  
HETATM   19  H   UNL     2      -6.598   7.603  71.276  1.00  0.00     0.000 HD 
HETATM   20  O   UNL     2      -7.546   7.541  71.264  1.00  0.00    -0.079 OA 
HETATM   21  O   UNL     2      -8.284  10.691  69.677  1.00  0.00    -0.092 OA 
HETATM   22  O   UNL     2      -6.680   9.097  69.216  1.00  0.00    -0.048 OA 
ENDBRANCH  14  17
ENDBRANCH  11  14
ENDBRANCH   8  11
ENDBRANCH   3   8
BRANCH   7  23
HETATM   23  C   UNL     3     -10.381  11.928  63.251  1.00  0.00    -0.391 C  
HETATM   24  O   UNL     3     -11.559  11.154  62.945  1.00  0.00    -0.784 OA 
HETATM   25  H   UNL     3     -12.290  11.753  62.848  1.00  0.00     0.000 HD 
BRANCH  23  26
HETATM   26  C   UNL     3     -10.764  12.760  64.489  1.00  0.00    -0.358 C  
HETATM   27  O   UNL     3      -9.657  13.527  64.970  1.00  0.00    -0.541 OA 
HETATM   28  H   UNL     3      -9.894  14.041  65.734  1.00  0.00     0.000 HD 
BRANCH  26  29
HETATM   29  C   UNL     3     -12.004  13.677  64.407  1.00  0.00    -0.437 C  
HETATM   30  O   UNL     3     -12.310  14.070  63.059  1.00  0.00    -1.101 OA 
HETATM   31  H   UNL     3     -13.073  14.634  63.009  1.00  0.00     0.000 HD 
BRANCH  29  32
HETATM   32  C   UNL     3     -11.992  14.936  65.268  1.00  0.00    -0.168 C  
HETATM   33  C   UNL     3     -11.074  16.053  64.743  1.00  0.00    -0.365 C  
HETATM   34  O   UNL     3     -11.508  14.580  66.635  1.00  0.00    -0.347 OA 
HETATM   35  O   UNL     3      -9.891  16.004  65.281  1.00  0.00    -0.435 OA 
HETATM   36  O   UNL     3     -11.624  17.038  64.213  1.00  0.00    -0.996 OA 
HETATM   37  H   UNL     3     -11.500  15.364  67.172  1.00  0.00     0.000 HD 
ENDBRANCH  29  32
ENDBRANCH  26  29
ENDBRANCH  23  26
ENDBRANCH   7  23
TORSDOF 8
ENDMDL
MODEL       33
REMARK 921   NORMALIZED FREE ENERGY PREDICTED BY IDOCK:   -6.30 KCAL/MOL
REMARK 922        TOTAL FREE ENERGY PREDICTED BY IDOCK:  -11.32 KCAL/MOL
REMARK 923 INTER-LIGAND FREE ENERGY PREDICTED BY IDOCK:   -9.61 KCAL/MOL
REMARK 924 INTRA-LIGAND FREE ENERGY PREDICTED BY IDOCK:   -1.71 KCAL/MOL
REMARK 927      BINDING AFFINITY PREDICTED BY RF-SCORE:    0.00 PKD
ROOT
HETATM    1 CU   UNL     1      -9.533  10.411  66.407  1.00  0.00    -0.148 Cu 
HETATM    2  O   UNL     2      -8.722   4.534  67.328  1.00  0.00    -0.104 OA 
HETATM    3  C   UNL     2      -9.858   5.082  68.014  1.00  0.00    -0.149 C  
HETATM    4  H   UNL     2      -8.562   3.673  67.697  1.00  0.00     0.000 HD 
HETATM    5  O   UNL     3     -10.591  17.280  68.659  1.00  0.00    -0.347 OA 
HETATM    6  H   UNL     3     -10.475  17.059  69.576  1.00  0.00     0.000 HD 
HETATM    7  C   UNL     3     -10.066  16.202  67.857  1.00  0.00    -0.244 C  
ENDROOT
BRANCH   3   8
HETATM    8  C   UNL     2     -10.115   6.465  67.422  1.00  0.00    -0.158 C  
HETATM    9  O   UNL     2     -11.417   6.493  66.805  1.00  0.00    -0.774 OA 
HETATM   10  H   UNL     2     -11.577   7.354  66.436  1.00  0.00     0.000 HD 
BRANCH   8  11
HETATM   11  C   UNL     2      -9.974   7.585  68.473  1.00  0.00    -0.168 C  
HETATM   12  O   UNL     2     -10.838   8.651  68.070  1.00  0.00    -0.458 OA 
HETATM   13  H   UNL     2     -10.752   9.341  68.717  1.00  0.00     0.000 HD 
BRANCH  11  14
HETATM   14  C   UNL     2     -10.382   7.025  69.851  1.00  0.00    -0.210 C  
HETATM   15  H   UNL     2     -12.076   6.461  70.705  1.00  0.00     0.000 HD 
HETATM   16  O   UNL     2     -11.824   6.806  69.857  1.00  0.00    -0.283 OA 
BRANCH  14  17
HETATM   17  C   UNL     2      -9.937   7.813  71.083  1.00  0.00    -0.176 C  
HETATM   18  C   UNL     2     -10.405   7.074  72.364  1.00  0.00    -0.203 C  
HETATM   19  H   UNL     2     -10.104   9.660  71.742  1.00  0.00     0.000 HD 
HETATM   20  O   UNL     2     -10.380   9.171  70.976  1.00  0.00    -0.242 OA 
HETATM   21  O   UNL     2     -10.102   5.839  72.319  1.00  0.00    -0.179 OA 
HETATM   22  O   UNL     2     -10.952   7.780  73.235  1.00  0.00    -0.382 OA 
ENDBRANCH  14  17
ENDBRANCH  11  14
ENDBRANCH   8  11
ENDBRANCH   3   8
BRANCH   7  23
HETATM   23  C   UNL     3     -10.254  16.559  66.377  1.00  0.00    -0.316 C  
HETATM   24  O   UNL     3      -8.958  16.548  65.743  1.00  0.00    -0.481 OA 
HETATM   25  H   UNL     3      -9.075  16.769  64.826  1.00  0.00     0.000 HD 
BRANCH  23  26
HETATM   26  C   UNL     3     -11.115  15.597  65.535  1.00  0.00    -0.226 C  
HETATM   27  O   UNL     3     -11.145  15.986  64.160  1.00  0.00    -1.021 OA 
HETATM   28  H   UNL     3     -11.676  15.392  63.641  1.00  0.00     0.000 HD 
BRANCH  26  29
HETATM   29  C   UNL     3     -10.822  14.083  65.616  1.00  0.00    -0.295 C  
HETATM   30  O   UNL     3      -9.695  13.696  64.813  1.00  0.00    -0.586 OA 
HETATM   31  H   UNL     3      -9.515  12.765  64.863  1.00  0.00     0.000 HD 
BRANCH  29  32
HETATM   32  C   UNL     3     -11.973  13.137  65.289  1.00  0.00    -0.398 C  
HETATM   33  C   UNL     3     -11.848  12.435  63.925  1.00  0.00    -0.466 C  
HETATM   34  O   UNL     3     -13.245  13.918  65.262  1.00  0.00    -0.774 OA 
HETATM   35  O   UNL     3     -12.474  13.082  62.986  1.00  0.00    -0.565 OA 
HETATM   36  O   UNL     3     -11.534  11.229  63.934  1.00  0.00    -0.260 OA 
HETATM   37  H   UNL     3     -13.962  13.329  65.058  1.00  0.00     0.000 HD 
ENDBRANCH  29  32
ENDBRANCH  26  29
ENDBRANCH  23  26
ENDBRANCH   7  23
TORSDOF 8
ENDMDL
MODEL       34
REMARK 921   NORMALIZED FREE ENERGY PREDICTED BY IDOCK:   -6.28 KCAL/MOL
REMARK 922        TOTAL FREE ENERGY PREDICTED BY IDOCK:  -11.30 KCAL/MOL
REMARK 923 INTER-LIGAND FREE ENERGY PREDICTED BY IDOCK:   -9.43 KCAL/MOL
REMARK 924 INTRA-LIGAND FREE ENERGY PREDICTED BY IDOCK:   -1.87 KCAL/MOL
REMARK 927      BINDING AFFINITY PREDICTED BY RF-SCORE:    0.00 PKD
ROOT
HETATM    1 CU   UNL     1     -11.226  10.548  67.342  1.00  0.00    -0.226 Cu 
HETATM    2  O   UNL     2     -12.157  15.243  63.718  1.00  0.00    -0.952 OA 
HETATM    3  C   UNL     2     -11.207  15.492  64.764  1.00  0.00    -0.390 C  
HETATM    4  H   UNL     2     -12.385  16.085  63.342  1.00  0.00     0.000 HD 
HETATM    5  O   UNL     3     -10.763   7.363  73.901  1.00  0.00    -0.493 OA 
HETATM    6  H   UNL     3     -11.076   8.133  74.361  1.00  0.00     0.000 HD 
HETATM    7  C   UNL     3     -11.087   7.502  72.502  1.00  0.00    -0.321 C  
ENDROOT
BRANCH   3   8
HETATM    8  C   UNL     2     -10.840  14.139  65.368  1.00  0.00    -0.337 C  
HETATM    9  O   UNL     2      -9.492  14.185  65.876  1.00  0.00    -0.484 OA 
HETATM   10  H   UNL     2      -9.264  13.343  66.252  1.00  0.00     0.000 HD 
BRANCH   8  11
HETATM   11  C   UNL     2     -11.832  13.701  66.465  1.00  0.00    -0.404 C  
HETATM   12  O   UNL     2     -12.277  12.385  66.128  1.00  0.00    -0.635 OA 
HETATM   13  H   UNL     2     -12.888  12.114  66.803  1.00  0.00     0.000 HD 
BRANCH  11  14
HETATM   14  C   UNL     2     -11.104  13.715  67.824  1.00  0.00    -0.272 C  
HETATM   15  H   UNL     2      -9.823  12.530  68.757  1.00  0.00     0.000 HD 
HETATM   16  O   UNL     2     -10.272  12.522  67.920  1.00  0.00    -0.207 OA 
BRANCH  14  17
HETATM   17  C   UNL     2     -11.966  13.890  69.075  1.00  0.00    -0.364 C  
HETATM   18  C   UNL     2     -11.506  15.154  69.847  1.00  0.00    -0.288 C  
HETATM   19  H   UNL     2     -12.493  12.789  70.619  1.00  0.00     0.000 HD 
HETATM   20  O   UNL     2     -11.957  12.680  69.842  1.00  0.00    -0.321 OA 
HETATM   21  O   UNL     2     -11.397  16.154  69.068  1.00  0.00    -0.334 OA 
HETATM   22  O   UNL     2     -11.355  15.020  71.077  1.00  0.00    -0.304 OA 
ENDBRANCH  14  17
ENDBRANCH  11  14
ENDBRANCH   8  11
ENDBRANCH   3   8
BRANCH   7  23
HETATM   23  C   UNL     3     -10.581   6.259  71.759  1.00  0.00    -0.225 C  
HETATM   24  O   UNL     3     -10.799   5.110  72.603  1.00  0.00    -0.227 OA 
HETATM   25  H   UNL     3     -10.485   4.340  72.142  1.00  0.00     0.000 HD 
BRANCH  23  26
HETATM   26  C   UNL     3     -11.279   5.913  70.429  1.00  0.00    -0.237 C  
HETATM   27  O   UNL     3     -12.374   6.795  70.167  1.00  0.00    -0.614 OA 
HETATM   28  H   UNL     3     -12.805   6.581  69.347  1.00  0.00     0.000 HD 
BRANCH  26  29
HETATM   29  C   UNL     3     -10.419   5.798  69.152  1.00  0.00    -0.276 C  
HETATM   30  O   UNL     3      -9.127   6.408  69.301  1.00  0.00    -0.135 OA 
HETATM   31  H   UNL     3      -8.598   6.337  68.515  1.00  0.00     0.000 HD 
BRANCH  29  32
HETATM   32  C   UNL     3     -11.033   6.317  67.856  1.00  0.00    -0.327 C  
HETATM   33  C   UNL     3     -10.347   5.798  66.580  1.00  0.00    -0.209 C  
HETATM   34  O   UNL     3     -10.925   7.806  67.834  1.00  0.00    -0.476 OA 
HETATM   35  O   UNL     3      -9.431   6.616  66.152  1.00  0.00    -0.121 OA 
HETATM   36  O   UNL     3     -10.955   4.931  65.921  1.00  0.00    -0.248 OA 
HETATM   37  H   UNL     3     -11.306   8.129  67.026  1.00  0.00     0.000 HD 
ENDBRANCH  29  32
ENDBRANCH  26  29
ENDBRANCH  23  26
ENDBRANCH   7  23
TORSDOF 8
ENDMDL
MODEL       35
REMARK 921   NORMALIZED FREE ENERGY PREDICTED BY IDOCK:   -6.28 KCAL/MOL
REMARK 922        TOTAL FREE ENERGY PREDICTED BY IDOCK:  -11.29 KCAL/MOL
REMARK 923 INTER-LIGAND FREE ENERGY PREDICTED BY IDOCK:   -9.53 KCAL/MOL
REMARK 924 INTRA-LIGAND FREE ENERGY PREDICTED BY IDOCK:   -1.75 KCAL/MOL
REMARK 927      BINDING AFFINITY PREDICTED BY RF-SCORE:    0.00 PKD
ROOT
HETATM    1 CU   UNL     1     -10.701  14.401  69.456  1.00  0.00    -0.212 Cu 
HETATM    2  O   UNL     2      -8.653  19.714  67.553  1.00  0.00    -0.294 OA 
HETATM    3  C   UNL     2      -8.125  18.592  66.831  1.00  0.00    -0.248 C  
HETATM    4  H   UNL     2      -8.123  20.468  67.323  1.00  0.00     0.000 HD 
HETATM    5  O   UNL     3      -9.833   7.525  71.767  1.00  0.00    -0.163 OA 
HETATM    6  H   UNL     3      -8.887   7.601  71.821  1.00  0.00     0.000 HD 
HETATM    7  C   UNL     3     -10.396   8.851  71.698  1.00  0.00    -0.345 C  
ENDROOT
BRANCH   3   8
HETATM    8  C   UNL     2      -8.977  17.380  67.199  1.00  0.00    -0.240 C  
HETATM    9  O   UNL     2     -10.364  17.766  67.270  1.00  0.00    -0.340 OA 
HETATM   10  H   UNL     2     -10.894  17.012  67.499  1.00  0.00     0.000 HD 
BRANCH   8  11
HETATM   11  C   UNL     2      -8.777  16.206  66.219  1.00  0.00    -0.337 C  
HETATM   12  O   UNL     2      -7.619  15.488  66.654  1.00  0.00    -0.229 OA 
HETATM   13  H   UNL     2      -7.496  14.765  66.051  1.00  0.00     0.000 HD 
BRANCH  11  14
HETATM   14  C   UNL     2     -10.034  15.314  66.253  1.00  0.00    -0.284 C  
HETATM   15  H   UNL     2     -10.592  13.690  67.235  1.00  0.00     0.000 HD 
HETATM   16  O   UNL     2      -9.818  14.239  67.214  1.00  0.00    -0.237 OA 
BRANCH  14  17
HETATM   17  C   UNL     2     -10.537  14.767  64.916  1.00  0.00    -0.406 C  
HETATM   18  C   UNL     2     -11.605  15.729  64.334  1.00  0.00    -0.240 C  
HETATM   19  H   UNL     2     -11.285  13.073  64.250  1.00  0.00     0.000 HD 
HETATM   20  O   UNL     2     -10.973  13.412  65.081  1.00  0.00    -0.287 OA 
HETATM   21  O   UNL     2     -11.199  16.935  64.356  1.00  0.00    -1.159 OA 
HETATM   22  O   UNL     2     -12.649  15.196  63.908  1.00  0.00    -0.794 OA 
ENDBRANCH  14  17
ENDBRANCH  11  14
ENDBRANCH   8  11
ENDBRANCH   3   8
BRANCH   7  23
HETATM   23  C   UNL     3     -11.923   8.728  71.611  1.00  0.00    -0.332 C  
HETATM   24  O   UNL     3     -12.433   8.504  72.941  1.00  0.00    -0.585 OA 
HETATM   25  H   UNL     3     -13.379   8.428  72.887  1.00  0.00     0.000 HD 
BRANCH  23  26
HETATM   26  C   UNL     3     -12.690   9.961  71.095  1.00  0.00    -0.366 C  
HETATM   27  O   UNL     3     -13.456  10.575  72.134  1.00  0.00    -0.531 OA 
HETATM   28  H   UNL     3     -13.928  11.336  71.815  1.00  0.00     0.000 HD 
BRANCH  26  29
HETATM   29  C   UNL     3     -11.903  11.058  70.344  1.00  0.00    -0.367 C  
HETATM   30  O   UNL     3     -12.268  12.382  70.764  1.00  0.00    -0.391 OA 
HETATM   31  H   UNL     3     -11.784  13.057  70.302  1.00  0.00     0.000 HD 
BRANCH  29  32
HETATM   32  C   UNL     3     -11.950  11.023  68.820  1.00  0.00    -0.225 C  
HETATM   33  C   UNL     3     -10.764  10.291  68.167  1.00  0.00    -0.246 C  
HETATM   34  O   UNL     3     -11.934  12.424  68.305  1.00  0.00    -0.334 OA 
HETATM   35  O   UNL     3      -9.805  11.108  67.846  1.00  0.00    -0.168 OA 
HETATM   36  O   UNL     3     -10.988   9.161  67.691  1.00  0.00    -0.173 OA 
HETATM   37  H   UNL     3     -11.963  12.402  67.356  1.00  0.00     0.000 HD 
ENDBRANCH  29  32
ENDBRANCH  26  29
ENDBRANCH  23  26
ENDBRANCH   7  23
TORSDOF 8
ENDMDL
MODEL       36
REMARK 921   NORMALIZED FREE ENERGY PREDICTED BY IDOCK:   -6.27 KCAL/MOL
REMARK 922        TOTAL FREE ENERGY PREDICTED BY IDOCK:  -11.27 KCAL/MOL
REMARK 923 INTER-LIGAND FREE ENERGY PREDICTED BY IDOCK:   -8.92 KCAL/MOL
REMARK 924 INTRA-LIGAND FREE ENERGY PREDICTED BY IDOCK:   -2.36 KCAL/MOL
REMARK 927      BINDING AFFINITY PREDICTED BY RF-SCORE:    0.00 PKD
ROOT
HETATM    1 CU   UNL     1     -11.462  10.918  67.281  1.00  0.00    -0.258 Cu 
HETATM    2  O   UNL     2     -12.399  15.708  63.786  1.00  0.00    -1.005 OA 
HETATM    3  C   UNL     2     -11.136  15.720  64.467  1.00  0.00    -0.277 C  
HETATM    4  H   UNL     2     -12.536  16.581  63.437  1.00  0.00     0.000 HD 
HETATM    5  O   UNL     3      -9.684   7.698  73.594  1.00  0.00    -0.287 OA 
HETATM    6  H   UNL     3      -9.651   8.519  74.071  1.00  0.00     0.000 HD 
HETATM    7  C   UNL     3     -10.393   7.914  72.357  1.00  0.00    -0.270 C  
ENDROOT
BRANCH   3   8
HETATM    8  C   UNL     2     -10.914  14.317  65.026  1.00  0.00    -0.387 C  
HETATM    9  O   UNL     2     -10.149  13.536  64.088  1.00  0.00    -0.760 OA 
HETATM   10  H   UNL     2     -10.012  12.663  64.436  1.00  0.00     0.000 HD 
BRANCH   8  11
HETATM   11  C   UNL     2     -10.237  14.341  66.412  1.00  0.00    -0.291 C  
HETATM   12  O   UNL     2     -10.132  15.711  66.805  1.00  0.00    -0.259 OA 
HETATM   13  H   UNL     2      -9.716  15.727  67.658  1.00  0.00     0.000 HD 
BRANCH  11  14
HETATM   14  C   UNL     2     -11.107  13.539  67.401  1.00  0.00    -0.281 C  
HETATM   15  H   UNL     2     -12.988  12.927  67.459  1.00  0.00     0.000 HD 
HETATM   16  O   UNL     2     -12.452  13.420  66.849  1.00  0.00    -0.254 OA 
BRANCH  14  17
HETATM   17  C   UNL     2     -11.144  14.026  68.850  1.00  0.00    -0.268 C  
HETATM   18  C   UNL     2     -11.783  12.934  69.746  1.00  0.00    -0.281 C  
HETATM   19  H   UNL     2     -11.806  15.609  69.814  1.00  0.00     0.000 HD 
HETATM   20  O   UNL     2     -11.783  15.307  68.914  1.00  0.00    -0.322 OA 
HETATM   21  O   UNL     2     -11.261  11.794  69.525  1.00  0.00    -0.245 OA 
HETATM   22  O   UNL     2     -12.654  13.324  70.548  1.00  0.00    -0.274 OA 
ENDBRANCH  14  17
ENDBRANCH  11  14
ENDBRANCH   8  11
ENDBRANCH   3   8
BRANCH   7  23
HETATM   23  C   UNL     3     -10.446   6.588  71.587  1.00  0.00    -0.213 C  
HETATM   24  O   UNL     3     -11.425   5.738  72.220  1.00  0.00    -0.288 OA 
HETATM   25  H   UNL     3     -11.457   4.917  71.743  1.00  0.00     0.000 HD 
BRANCH  23  26
HETATM   26  C   UNL     3     -10.880   6.660  70.110  1.00  0.00    -0.279 C  
HETATM   27  O   UNL     3     -12.303   6.650  69.980  1.00  0.00    -0.549 OA 
HETATM   28  H   UNL     3     -12.571   6.695  69.069  1.00  0.00     0.000 HD 
BRANCH  26  29
HETATM   29  C   UNL     3     -10.309   7.791  69.227  1.00  0.00    -0.219 C  
HETATM   30  O   UNL     3     -11.148   8.957  69.215  1.00  0.00    -0.428 OA 
HETATM   31  H   UNL     3     -10.797   9.653  68.672  1.00  0.00     0.000 HD 
BRANCH  29  32
HETATM   32  C   UNL     3      -9.977   7.440  67.781  1.00  0.00    -0.167 C  
HETATM   33  C   UNL     3      -9.503   8.633  66.933  1.00  0.00    -0.180 C  
HETATM   34  O   UNL     3     -11.203   6.898  67.123  1.00  0.00    -0.583 OA 
HETATM   35  O   UNL     3     -10.484   9.191  66.285  1.00  0.00    -0.185 OA 
HETATM   36  O   UNL     3      -8.288   8.689  66.661  1.00  0.00    -0.105 OA 
HETATM   37  H   UNL     3     -10.997   6.680  66.222  1.00  0.00     0.000 HD 
ENDBRANCH  29  32
ENDBRANCH  26  29
ENDBRANCH  23  26
ENDBRANCH   7  23
TORSDOF 8
ENDMDL
MODEL       37
REMARK 921   NORMALIZED FREE ENERGY PREDICTED BY IDOCK:   -6.23 KCAL/MOL
REMARK 922        TOTAL FREE ENERGY PREDICTED BY IDOCK:  -11.22 KCAL/MOL
REMARK 923 INTER-LIGAND FREE ENERGY PREDICTED BY IDOCK:   -8.57 KCAL/MOL
REMARK 924 INTRA-LIGAND FREE ENERGY PREDICTED BY IDOCK:   -2.65 KCAL/MOL
REMARK 927      BINDING AFFINITY PREDICTED BY RF-SCORE:    0.00 PKD
ROOT
HETATM    1 CU   UNL     1     -11.282  10.998  68.445  1.00  0.00    -0.172 Cu 
HETATM    2  O   UNL     2     -11.396  15.806  64.852  1.00  0.00    -0.350 OA 
HETATM    3  C   UNL     2     -11.968  14.627  64.268  1.00  0.00    -0.386 C  
HETATM    4  H   UNL     2     -11.274  16.434  64.150  1.00  0.00     0.000 HD 
HETATM    5  O   UNL     3      -9.773   4.007  69.939  1.00  0.00    -0.203 OA 
HETATM    6  H   UNL     3      -9.312   3.871  69.119  1.00  0.00     0.000 HD 
HETATM    7  C   UNL     3      -9.895   5.426  70.166  1.00  0.00    -0.207 C  
ENDROOT
BRANCH   3   8
HETATM    8  C   UNL     2     -12.165  13.618  65.396  1.00  0.00    -0.444 C  
HETATM    9  O   UNL     2     -13.010  12.543  64.942  1.00  0.00    -0.821 OA 
HETATM   10  H   UNL     2     -13.133  11.915  65.645  1.00  0.00     0.000 HD 
BRANCH   8  11
HETATM   11  C   UNL     2     -10.826  13.081  65.940  1.00  0.00    -0.272 C  
HETATM   12  O   UNL     2      -9.812  13.454  65.004  1.00  0.00    -0.548 OA 
HETATM   13  H   UNL     2      -8.987  13.124  65.338  1.00  0.00     0.000 HD 
BRANCH  11  14
HETATM   14  C   UNL     2     -10.568  13.707  67.325  1.00  0.00    -0.267 C  
HETATM   15  H   UNL     2      -9.602  13.167  68.966  1.00  0.00     0.000 HD 
HETATM   16  O   UNL     2      -9.761  12.781  68.112  1.00  0.00    -0.214 OA 
BRANCH  14  17
HETATM   17  C   UNL     2     -11.787  14.185  68.113  1.00  0.00    -0.352 C  
HETATM   18  C   UNL     2     -11.532  15.621  68.640  1.00  0.00    -0.375 C  
HETATM   19  H   UNL     2     -12.878  13.521  69.611  1.00  0.00     0.000 HD 
HETATM   20  O   UNL     2     -12.120  13.224  69.121  1.00  0.00    -0.306 OA 
HETATM   21  O   UNL     2     -11.099  16.380  67.715  1.00  0.00    -0.297 OA 
HETATM   22  O   UNL     2     -11.815  15.823  69.838  1.00  0.00    -0.342 OA 
ENDBRANCH  14  17
ENDBRANCH  11  14
ENDBRANCH   8  11
ENDBRANCH   3   8
BRANCH   7  23
HETATM   23  C   UNL     3     -10.640   5.646  71.489  1.00  0.00    -0.244 C  
HETATM   24  O   UNL     3      -9.980   4.871  72.511  1.00  0.00    -0.162 OA 
HETATM   25  H   UNL     3     -10.441   5.007  73.331  1.00  0.00     0.000 HD 
BRANCH  23  26
HETATM   26  C   UNL     3     -10.666   7.086  72.040  1.00  0.00    -0.215 C  
HETATM   27  O   UNL     3      -9.550   7.847  71.572  1.00  0.00    -0.146 OA 
HETATM   28  H   UNL     3      -9.567   8.735  71.911  1.00  0.00     0.000 HD 
BRANCH  26  29
HETATM   29  C   UNL     3     -11.950   7.923  71.853  1.00  0.00    -0.305 C  
HETATM   30  O   UNL     3     -12.966   7.218  71.122  1.00  0.00    -0.502 OA 
HETATM   31  H   UNL     3     -13.756   7.734  71.008  1.00  0.00     0.000 HD 
BRANCH  29  32
HETATM   32  C   UNL     3     -11.791   9.301  71.220  1.00  0.00    -0.343 C  
HETATM   33  C   UNL     3     -13.054  10.179  71.289  1.00  0.00    -0.396 C  
HETATM   34  O   UNL     3     -11.457   9.132  69.775  1.00  0.00    -0.436 OA 
HETATM   35  O   UNL     3     -13.781  10.071  70.216  1.00  0.00     0.198 OA 
HETATM   36  O   UNL     3     -13.048  11.118  72.109  1.00  0.00    -0.463 OA 
HETATM   37  H   UNL     3     -11.359   9.990  69.380  1.00  0.00     0.000 HD 
ENDBRANCH  29  32
ENDBRANCH  26  29
ENDBRANCH  23  26
ENDBRANCH   7  23
TORSDOF 8
ENDMDL
MODEL       38
REMARK 921   NORMALIZED FREE ENERGY PREDICTED BY IDOCK:   -6.22 KCAL/MOL
REMARK 922        TOTAL FREE ENERGY PREDICTED BY IDOCK:  -11.20 KCAL/MOL
REMARK 923 INTER-LIGAND FREE ENERGY PREDICTED BY IDOCK:   -8.95 KCAL/MOL
REMARK 924 INTRA-LIGAND FREE ENERGY PREDICTED BY IDOCK:   -2.25 KCAL/MOL
REMARK 927      BINDING AFFINITY PREDICTED BY RF-SCORE:    0.00 PKD
ROOT
HETATM    1 CU   UNL     1     -10.782  12.431  68.866  1.00  0.00    -0.193 Cu 
HETATM    2  O   UNL     2     -10.885  17.499  65.649  1.00  0.00    -0.356 OA 
HETATM    3  C   UNL     2     -10.700  16.312  64.864  1.00  0.00    -0.234 C  
HETATM    4  H   UNL     2     -10.681  18.239  65.089  1.00  0.00     0.000 HD 
HETATM    5  O   UNL     3      -7.847   6.058  70.903  1.00  0.00    -0.102 OA 
HETATM    6  H   UNL     3      -7.051   6.198  70.402  1.00  0.00     0.000 HD 
HETATM    7  C   UNL     3      -8.527   7.322  71.043  1.00  0.00    -0.127 C  
ENDROOT
BRANCH   3   8
HETATM    8  C   UNL     2     -11.029  15.123  65.763  1.00  0.00    -0.349 C  
HETATM    9  O   UNL     2     -11.348  15.591  67.088  1.00  0.00    -0.262 OA 
HETATM   10  H   UNL     2     -11.552  14.851  67.647  1.00  0.00     0.000 HD 
BRANCH   8  11
HETATM   11  C   UNL     2     -12.168  14.256  65.190  1.00  0.00    -0.421 C  
HETATM   12  O   UNL     2     -12.167  14.441  63.772  1.00  0.00    -0.929 OA 
HETATM   13  H   UNL     2     -12.868  13.908  63.420  1.00  0.00     0.000 HD 
BRANCH  11  14
HETATM   14  C   UNL     2     -11.904  12.783  65.562  1.00  0.00    -0.422 C  
HETATM   15  H   UNL     2     -12.175  11.657  67.167  1.00  0.00     0.000 HD 
HETATM   16  O   UNL     2     -12.338  12.565  66.938  1.00  0.00    -0.431 OA 
BRANCH  14  17
HETATM   17  C   UNL     2     -10.488  12.250  65.338  1.00  0.00    -0.269 C  
HETATM   18  C   UNL     2     -10.528  11.100  64.300  1.00  0.00    -0.362 C  
HETATM   19  H   UNL     2      -9.016  11.575  66.456  1.00  0.00     0.000 HD 
HETATM   20  O   UNL     2      -9.896  11.906  66.596  1.00  0.00    -0.196 OA 
HETATM   21  O   UNL     2     -11.197  11.433  63.269  1.00  0.00    -0.294 OA 
HETATM   22  O   UNL     2      -9.889  10.071  64.597  1.00  0.00    -0.318 OA 
ENDBRANCH  14  17
ENDBRANCH  11  14
ENDBRANCH   8  11
ENDBRANCH   3   8
BRANCH   7  23
HETATM   23  C   UNL     3      -9.812   7.096  71.852  1.00  0.00    -0.159 C  
HETATM   24  O   UNL     3      -9.695   7.822  73.093  1.00  0.00    -0.236 OA 
HETATM   25  H   UNL     3     -10.490   7.683  73.594  1.00  0.00     0.000 HD 
BRANCH  23  26
HETATM   26  C   UNL     3     -11.126   7.597  71.222  1.00  0.00    -0.246 C  
HETATM   27  O   UNL     3     -12.070   6.535  71.064  1.00  0.00    -0.352 OA 
HETATM   28  H   UNL     3     -12.881   6.844  70.676  1.00  0.00     0.000 HD 
BRANCH  26  29
HETATM   29  C   UNL     3     -11.841   8.804  71.867  1.00  0.00    -0.367 C  
HETATM   30  O   UNL     3     -12.618   8.433  73.017  1.00  0.00    -0.676 OA 
HETATM   31  H   UNL     3     -13.058   9.176  73.414  1.00  0.00     0.000 HD 
BRANCH  29  32
HETATM   32  C   UNL     3     -12.726   9.650  70.959  1.00  0.00    -0.271 C  
HETATM   33  C   UNL     3     -12.794  11.137  71.349  1.00  0.00    -0.439 C  
HETATM   34  O   UNL     3     -14.121   9.121  71.016  1.00  0.00    -0.533 OA 
HETATM   35  O   UNL     3     -13.811  11.393  72.119  1.00  0.00    -0.037 OA 
HETATM   36  O   UNL     3     -12.167  11.942  70.632  1.00  0.00    -0.371 OA 
HETATM   37  H   UNL     3     -14.673   9.648  70.450  1.00  0.00     0.000 HD 
ENDBRANCH  29  32
ENDBRANCH  26  29
ENDBRANCH  23  26
ENDBRANCH   7  23
TORSDOF 8
ENDMDL
MODEL       39
REMARK 921   NORMALIZED FREE ENERGY PREDICTED BY IDOCK:   -6.21 KCAL/MOL
REMARK 922        TOTAL FREE ENERGY PREDICTED BY IDOCK:  -11.20 KCAL/MOL
REMARK 923 INTER-LIGAND FREE ENERGY PREDICTED BY IDOCK:   -9.38 KCAL/MOL
REMARK 924 INTRA-LIGAND FREE ENERGY PREDICTED BY IDOCK:   -1.82 KCAL/MOL
REMARK 927      BINDING AFFINITY PREDICTED BY RF-SCORE:    0.00 PKD
ROOT
HETATM    1 CU   UNL     1     -11.714  10.380  68.484  1.00  0.00    -0.241 Cu 
HETATM    2  O   UNL     2     -10.832   5.896  72.378  1.00  0.00    -0.219 OA 
HETATM    3  C   UNL     2     -10.899   7.194  72.987  1.00  0.00    -0.328 C  
HETATM    4  H   UNL     2     -10.489   5.298  73.032  1.00  0.00     0.000 HD 
HETATM    5  O   UNL     3     -10.100  16.864  65.530  1.00  0.00    -0.575 OA 
HETATM    6  H   UNL     3      -9.299  16.959  66.033  1.00  0.00     0.000 HD 
HETATM    7  C   UNL     3     -10.510  15.483  65.578  1.00  0.00    -0.386 C  
ENDROOT
BRANCH   3   8
HETATM    8  C   UNL     2     -11.450   8.154  71.936  1.00  0.00    -0.299 C  
HETATM    9  O   UNL     2     -12.390   9.057  72.551  1.00  0.00    -0.320 OA 
HETATM   10  H   UNL     2     -12.734   9.655  71.897  1.00  0.00     0.000 HD 
BRANCH   8  11
HETATM   11  C   UNL     2     -10.332   8.928  71.208  1.00  0.00    -0.285 C  
HETATM   12  O   UNL     2      -9.210   8.976  72.092  1.00  0.00    -0.365 OA 
HETATM   13  H   UNL     2      -8.521   9.452  71.644  1.00  0.00     0.000 HD 
BRANCH  11  14
HETATM   14  C   UNL     2      -9.985   8.183  69.903  1.00  0.00    -0.190 C  
HETATM   15  H   UNL     2     -10.820   6.748  68.827  1.00  0.00     0.000 HD 
HETATM   16  O   UNL     2     -11.034   7.207  69.631  1.00  0.00    -0.243 OA 
BRANCH  14  17
HETATM   17  C   UNL     2      -8.599   7.546  69.811  1.00  0.00    -0.140 C  
HETATM   18  C   UNL     2      -8.247   7.284  68.324  1.00  0.00    -0.125 C  
HETATM   19  H   UNL     2      -7.678   5.994  70.598  1.00  0.00     0.000 HD 
HETATM   20  O   UNL     2      -8.540   6.390  70.656  1.00  0.00    -0.136 OA 
HETATM   21  O   UNL     2      -8.464   8.317  67.612  1.00  0.00    -0.128 OA 
HETATM   22  O   UNL     2      -7.784   6.157  68.060  1.00  0.00    -0.099 OA 
ENDBRANCH  14  17
ENDBRANCH  11  14
ENDBRANCH   8  11
ENDBRANCH   3   8
BRANCH   7  23
HETATM   23  C   UNL     3     -11.804  15.329  64.767  1.00  0.00    -0.232 C  
HETATM   24  O   UNL     3     -11.733  16.220  63.635  1.00  0.00    -1.447 OA 
HETATM   25  H   UNL     3     -12.534  16.125  63.132  1.00  0.00     0.000 HD 
BRANCH  23  26
HETATM   26  C   UNL     3     -12.083  13.940  64.162  1.00  0.00    -0.425 C  
HETATM   27  O   UNL     3     -12.610  14.041  62.837  1.00  0.00    -0.958 OA 
HETATM   28  H   UNL     3     -12.782  13.184  62.464  1.00  0.00     0.000 HD 
BRANCH  26  29
HETATM   29  C   UNL     3     -10.948  12.892  64.165  1.00  0.00    -0.408 C  
HETATM   30  O   UNL     3     -10.805  12.231  62.897  1.00  0.00    -0.566 OA 
HETATM   31  H   UNL     3     -10.106  11.587  62.900  1.00  0.00     0.000 HD 
BRANCH  29  32
HETATM   32  C   UNL     3     -11.000  11.819  65.247  1.00  0.00    -0.295 C  
HETATM   33  C   UNL     3     -10.249  12.187  66.539  1.00  0.00    -0.206 C  
HETATM   34  O   UNL     3     -10.373  10.572  64.719  1.00  0.00    -0.339 OA 
HETATM   35  O   UNL     3      -9.028  11.738  66.537  1.00  0.00    -0.191 OA 
HETATM   36  O   UNL     3     -10.940  12.495  67.529  1.00  0.00    -0.235 OA 
HETATM   37  H   UNL     3     -10.405   9.903  65.393  1.00  0.00     0.000 HD 
ENDBRANCH  29  32
ENDBRANCH  26  29
ENDBRANCH  23  26
ENDBRANCH   7  23
TORSDOF 8
ENDMDL
MODEL       40
REMARK 921   NORMALIZED FREE ENERGY PREDICTED BY IDOCK:   -6.20 KCAL/MOL
REMARK 922        TOTAL FREE ENERGY PREDICTED BY IDOCK:  -11.18 KCAL/MOL
REMARK 923 INTER-LIGAND FREE ENERGY PREDICTED BY IDOCK:   -9.47 KCAL/MOL
REMARK 924 INTRA-LIGAND FREE ENERGY PREDICTED BY IDOCK:   -1.70 KCAL/MOL
REMARK 927      BINDING AFFINITY PREDICTED BY RF-SCORE:    0.00 PKD
ROOT
HETATM    1 CU   UNL     1     -10.996  10.202  66.327  1.00  0.00    -0.214 Cu 
HETATM    2  O   UNL     2     -10.637   4.212  66.517  1.00  0.00    -0.196 OA 
HETATM    3  C   UNL     2      -9.794   4.878  67.469  1.00  0.00    -0.167 C  
HETATM    4  H   UNL     2     -10.357   3.305  66.484  1.00  0.00     0.000 HD 
HETATM    5  O   UNL     3      -8.106  16.899  65.915  1.00  0.00    -0.453 OA 
HETATM    6  H   UNL     3      -7.227  16.573  65.759  1.00  0.00     0.000 HD 
HETATM    7  C   UNL     3      -9.041  15.830  65.668  1.00  0.00     0.027 C  
ENDROOT
BRANCH   3   8
HETATM    8  C   UNL     2     -10.243   6.336  67.523  1.00  0.00    -0.173 C  
HETATM    9  O   UNL     2     -11.233   6.576  66.504  1.00  0.00    -0.649 OA 
HETATM   10  H   UNL     2     -11.513   7.484  66.538  1.00  0.00     0.000 HD 
BRANCH   8  11
HETATM   11  C   UNL     2     -10.771   6.734  68.916  1.00  0.00    -0.240 C  
HETATM   12  O   UNL     2     -10.396   5.692  69.821  1.00  0.00    -0.229 OA 
HETATM   13  H   UNL     2     -10.721   5.936  70.679  1.00  0.00     0.000 HD 
BRANCH  11  14
HETATM   14  C   UNL     2     -10.138   8.081  69.320  1.00  0.00    -0.198 C  
HETATM   15  H   UNL     2      -9.924   9.855  68.470  1.00  0.00     0.000 HD 
HETATM   16  O   UNL     2     -10.314   9.025  68.222  1.00  0.00    -0.198 OA 
BRANCH  14  17
HETATM   17  C   UNL     2      -8.687   8.054  69.799  1.00  0.00    -0.136 C  
HETATM   18  C   UNL     2      -8.636   8.391  71.311  1.00  0.00    -0.161 C  
HETATM   19  H   UNL     2      -6.984   8.883  69.264  1.00  0.00     0.000 HD 
HETATM   20  O   UNL     2      -7.886   8.900  68.966  1.00  0.00    -0.089 OA 
HETATM   21  O   UNL     2      -9.480   7.699  71.966  1.00  0.00    -0.147 OA 
HETATM   22  O   UNL     2      -7.780   9.229  71.657  1.00  0.00    -0.336 OA 
ENDBRANCH  14  17
ENDBRANCH  11  14
ENDBRANCH   8  11
ENDBRANCH   3   8
BRANCH   7  23
HETATM   23  C   UNL     3     -10.461  16.356  65.921  1.00  0.00    -0.337 C  
HETATM   24  O   UNL     3     -10.444  17.789  65.761  1.00  0.00    -0.556 OA 
HETATM   25  H   UNL     3     -11.323  18.115  65.917  1.00  0.00     0.000 HD 
BRANCH  23  26
HETATM   26  C   UNL     3     -11.564  15.863  64.964  1.00  0.00     0.039 C  
HETATM   27  O   UNL     3     -11.518  16.550  63.712  1.00  0.00    -1.615 OA 
HETATM   28  H   UNL     3     -12.199  16.246  63.122  1.00  0.00     0.000 HD 
BRANCH  26  29
HETATM   29  C   UNL     3     -11.682  14.347  64.693  1.00  0.00    -0.430 C  
HETATM   30  O   UNL     3     -12.350  14.059  63.454  1.00  0.00    -1.099 OA 
HETATM   31  H   UNL     3     -12.423  13.127  63.288  1.00  0.00     0.000 HD 
BRANCH  29  32
HETATM   32  C   UNL     3     -12.331  13.498  65.781  1.00  0.00    -0.468 C  
HETATM   33  C   UNL     3     -11.512  13.400  67.080  1.00  0.00    -0.339 C  
HETATM   34  O   UNL     3     -12.502  12.106  65.269  1.00  0.00    -0.520 OA 
HETATM   35  O   UNL     3     -10.748  12.347  67.096  1.00  0.00    -0.228 OA 
HETATM   36  O   UNL     3     -11.921  14.054  68.060  1.00  0.00    -0.361 OA 
HETATM   37  H   UNL     3     -12.906  11.577  65.946  1.00  0.00     0.000 HD 
ENDBRANCH  29  32
ENDBRANCH  26  29
ENDBRANCH  23  26
ENDBRANCH   7  23
TORSDOF 8
ENDMDL
MODEL       41
REMARK 921   NORMALIZED FREE ENERGY PREDICTED BY IDOCK:   -6.20 KCAL/MOL
REMARK 922        TOTAL FREE ENERGY PREDICTED BY IDOCK:  -11.17 KCAL/MOL
REMARK 923 INTER-LIGAND FREE ENERGY PREDICTED BY IDOCK:   -9.18 KCAL/MOL
REMARK 924 INTRA-LIGAND FREE ENERGY PREDICTED BY IDOCK:   -1.99 KCAL/MOL
REMARK 927      BINDING AFFINITY PREDICTED BY RF-SCORE:    0.00 PKD
ROOT
HETATM    1 CU   UNL     1      -8.971  14.641  65.210  1.00  0.00    -0.479 Cu 
HETATM    2  O   UNL     2      -9.476   9.397  62.332  1.00  0.00    -0.580 OA 
HETATM    3  C   UNL     2      -8.615   9.353  63.479  1.00  0.00    -0.206 C  
HETATM    4  H   UNL     2      -9.326   8.598  61.840  1.00  0.00     0.000 HD 
HETATM    5  O   UNL     3      -5.141  20.089  68.215  1.00  0.00    -0.186 OA 
HETATM    6  H   UNL     3      -4.308  19.752  67.904  1.00  0.00     0.000 HD 
HETATM    7  C   UNL     3      -6.199  19.450  67.472  1.00  0.00    -0.195 C  
ENDROOT
BRANCH   3   8
HETATM    8  C   UNL     2      -8.856  10.636  64.270  1.00  0.00    -0.164 C  
HETATM    9  O   UNL     2      -9.106  11.726  63.362  1.00  0.00    -0.510 OA 
HETATM   10  H   UNL     2      -9.256  12.525  63.855  1.00  0.00     0.000 HD 
BRANCH   8  11
HETATM   11  C   UNL     2     -10.005  10.487  65.289  1.00  0.00    -0.299 C  
HETATM   12  O   UNL     2      -9.457  10.751  66.583  1.00  0.00    -0.170 OA 
HETATM   13  H   UNL     2     -10.164  10.659  67.210  1.00  0.00     0.000 HD 
BRANCH  11  14
HETATM   14  C   UNL     2     -11.114  11.498  64.934  1.00  0.00    -0.215 C  
HETATM   15  H   UNL     2     -12.086  12.014  63.290  1.00  0.00     0.000 HD 
HETATM   16  O   UNL     2     -11.403  11.392  63.508  1.00  0.00    -0.376 OA 
BRANCH  14  17
HETATM   17  C   UNL     2     -10.890  12.953  65.346  1.00  0.00    -0.283 C  
HETATM   18  C   UNL     2     -11.965  13.368  66.383  1.00  0.00    -0.406 C  
HETATM   19  H   UNL     2     -10.687  14.686  64.436  1.00  0.00     0.000 HD 
HETATM   20  O   UNL     2     -10.827  13.782  64.180  1.00  0.00    -0.302 OA 
HETATM   21  O   UNL     2     -12.063  12.505  67.314  1.00  0.00    -0.490 OA 
HETATM   22  O   UNL     2     -12.526  14.463  66.183  1.00  0.00    -0.392 OA 
ENDBRANCH  14  17
ENDBRANCH  11  14
ENDBRANCH   8  11
ENDBRANCH   3   8
BRANCH   7  23
HETATM   23  C   UNL     3      -7.543  19.993  67.973  1.00  0.00    -0.278 C  
HETATM   24  O   UNL     3      -7.943  21.075  67.107  1.00  0.00    -0.559 OA 
HETATM   25  H   UNL     3      -8.776  21.412  67.418  1.00  0.00     0.000 HD 
BRANCH  23  26
HETATM   26  C   UNL     3      -8.734  19.016  67.962  1.00  0.00    -0.306 C  
HETATM   27  O   UNL     3      -9.832  19.517  68.729  1.00  0.00    -0.414 OA 
HETATM   28  H   UNL     3     -10.566  18.913  68.721  1.00  0.00     0.000 HD 
BRANCH  26  29
HETATM   29  C   UNL     3      -9.267  18.518  66.600  1.00  0.00    -0.306 C  
HETATM   30  O   UNL     3      -9.828  19.577  65.808  1.00  0.00    -0.403 OA 
HETATM   31  H   UNL     3     -10.156  19.270  64.971  1.00  0.00     0.000 HD 
BRANCH  29  32
HETATM   32  C   UNL     3     -10.274  17.373  66.628  1.00  0.00    -0.324 C  
HETATM   33  C   UNL     3     -10.068  16.377  67.783  1.00  0.00    -0.262 C  
HETATM   34  O   UNL     3     -10.156  16.597  65.358  1.00  0.00    -0.578 OA 
HETATM   35  O   UNL     3      -9.336  15.362  67.427  1.00  0.00    -0.198 OA 
HETATM   36  O   UNL     3     -10.876  16.432  68.731  1.00  0.00    -0.297 OA 
HETATM   37  H   UNL     3     -10.783  15.883  65.375  1.00  0.00     0.000 HD 
ENDBRANCH  29  32
ENDBRANCH  26  29
ENDBRANCH  23  26
ENDBRANCH   7  23
TORSDOF 8
ENDMDL
MODEL       42
REMARK 921   NORMALIZED FREE ENERGY PREDICTED BY IDOCK:   -6.18 KCAL/MOL
REMARK 922        TOTAL FREE ENERGY PREDICTED BY IDOCK:  -11.15 KCAL/MOL
REMARK 923 INTER-LIGAND FREE ENERGY PREDICTED BY IDOCK:   -9.62 KCAL/MOL
REMARK 924 INTRA-LIGAND FREE ENERGY PREDICTED BY IDOCK:   -1.53 KCAL/MOL
REMARK 927      BINDING AFFINITY PREDICTED BY RF-SCORE:    0.00 PKD
ROOT
HETATM    1 CU   UNL     1     -10.087  11.489  69.536  1.00  0.00    -0.300 Cu 
HETATM    2  O   UNL     2     -10.111   7.530  74.048  1.00  0.00    -0.395 OA 
HETATM    3  C   UNL     2     -10.115   6.930  72.744  1.00  0.00    -0.177 C  
HETATM    4  H   UNL     2     -10.324   6.844  74.671  1.00  0.00     0.000 HD 
HETATM    5  O   UNL     3     -12.640  14.260  63.276  1.00  0.00    -1.069 OA 
HETATM    6  H   UNL     3     -13.392  13.679  63.258  1.00  0.00     0.000 HD 
HETATM    7  C   UNL     3     -12.089  14.254  64.609  1.00  0.00    -0.463 C  
ENDROOT
BRANCH   3   8
HETATM    8  C   UNL     2      -9.773   8.030  71.743  1.00  0.00    -0.176 C  
HETATM    9  O   UNL     2      -8.844   8.956  72.339  1.00  0.00    -0.396 OA 
HETATM   10  H   UNL     2      -8.632   9.641  71.716  1.00  0.00     0.000 HD 
BRANCH   8  11
HETATM   11  C   UNL     2      -9.220   7.464  70.419  1.00  0.00    -0.158 C  
HETATM   12  O   UNL     2      -9.340   6.040  70.488  1.00  0.00    -0.157 OA 
HETATM   13  H   UNL     2      -8.999   5.691  69.673  1.00  0.00     0.000 HD 
BRANCH  11  14
HETATM   14  C   UNL     2     -10.046   8.039  69.252  1.00  0.00    -0.198 C  
HETATM   15  H   UNL     2     -11.334   7.315  67.936  1.00  0.00     0.000 HD 
HETATM   16  O   UNL     2     -10.825   6.960  68.655  1.00  0.00    -0.219 OA 
BRANCH  14  17
HETATM   17  C   UNL     2      -9.289   8.830  68.184  1.00  0.00    -0.140 C  
HETATM   18  C   UNL     2     -10.302   9.523  67.238  1.00  0.00    -0.255 C  
HETATM   19  H   UNL     2      -7.871   8.468  66.868  1.00  0.00     0.000 HD 
HETATM   20  O   UNL     2      -8.341   7.977  67.531  1.00  0.00    -0.121 OA 
HETATM   21  O   UNL     2     -11.199  10.141  67.897  1.00  0.00    -0.282 OA 
HETATM   22  O   UNL     2     -10.077   9.411  66.017  1.00  0.00    -0.300 OA 
ENDBRANCH  14  17
ENDBRANCH  11  14
ENDBRANCH   8  11
ENDBRANCH   3   8
BRANCH   7  23
HETATM   23  C   UNL     3     -10.875  15.193  64.639  1.00  0.00    -0.263 C  
HETATM   24  O   UNL     3     -11.295  16.486  64.156  1.00  0.00    -1.381 OA 
HETATM   25  H   UNL     3     -10.543  17.067  64.174  1.00  0.00     0.000 HD 
BRANCH  23  26
HETATM   26  C   UNL     3     -10.246  15.470  66.018  1.00  0.00    -0.330 C  
HETATM   27  O   UNL     3      -8.926  14.926  66.111  1.00  0.00    -0.466 OA 
HETATM   28  H   UNL     3      -8.538  15.097  66.961  1.00  0.00     0.000 HD 
BRANCH  26  29
HETATM   29  C   UNL     3     -10.221  16.923  66.539  1.00  0.00    -0.318 C  
HETATM   30  O   UNL     3      -9.240  17.732  65.870  1.00  0.00    -0.519 OA 
HETATM   31  H   UNL     3      -9.225  18.626  66.191  1.00  0.00     0.000 HD 
BRANCH  29  32
HETATM   32  C   UNL     3     -10.039  17.116  68.041  1.00  0.00    -0.311 C  
HETATM   33  C   UNL     3      -9.259  18.385  68.426  1.00  0.00    -0.322 C  
HETATM   34  O   UNL     3      -9.277  15.954  68.587  1.00  0.00    -0.191 OA 
HETATM   35  O   UNL     3      -7.990  18.149  68.580  1.00  0.00    -0.289 OA 
HETATM   36  O   UNL     3      -9.916  19.333  68.901  1.00  0.00    -0.422 OA 
HETATM   37  H   UNL     3      -9.163  16.074  69.523  1.00  0.00     0.000 HD 
ENDBRANCH  29  32
ENDBRANCH  26  29
ENDBRANCH  23  26
ENDBRANCH   7  23
TORSDOF 8
ENDMDL
MODEL       43
REMARK 921   NORMALIZED FREE ENERGY PREDICTED BY IDOCK:   -6.18 KCAL/MOL
REMARK 922        TOTAL FREE ENERGY PREDICTED BY IDOCK:  -11.15 KCAL/MOL
REMARK 923 INTER-LIGAND FREE ENERGY PREDICTED BY IDOCK:   -9.14 KCAL/MOL
REMARK 924 INTRA-LIGAND FREE ENERGY PREDICTED BY IDOCK:   -2.01 KCAL/MOL
REMARK 927      BINDING AFFINITY PREDICTED BY RF-SCORE:    0.00 PKD
ROOT
HETATM    1 CU   UNL     1     -10.756  12.062  70.003  1.00  0.00    -0.429 Cu 
HETATM    2  O   UNL     2     -10.670  17.610  67.713  1.00  0.00    -0.388 OA 
HETATM    3  C   UNL     2      -9.604  16.770  67.248  1.00  0.00    -0.234 C  
HETATM    4  H   UNL     2     -10.452  18.501  67.465  1.00  0.00     0.000 HD 
HETATM    5  O   UNL     3      -7.691   6.347  73.369  1.00  0.00    -0.094 OA 
HETATM    6  H   UNL     3      -6.886   6.816  73.559  1.00  0.00     0.000 HD 
HETATM    7  C   UNL     3      -8.711   7.307  73.026  1.00  0.00    -0.129 C  
ENDROOT
BRANCH   3   8
HETATM    8  C   UNL     2      -9.954  15.339  67.646  1.00  0.00    -0.222 C  
HETATM    9  O   UNL     2     -11.325  15.280  68.086  1.00  0.00    -0.313 OA 
HETATM   10  H   UNL     2     -11.543  14.389  68.334  1.00  0.00     0.000 HD 
BRANCH   8  11
HETATM   11  C   UNL     2      -9.694  14.335  66.504  1.00  0.00    -0.291 C  
HETATM   12  O   UNL     2      -8.478  13.650  66.814  1.00  0.00    -0.419 OA 
HETATM   13  H   UNL     2      -8.318  13.032  66.111  1.00  0.00     0.000 HD 
BRANCH  11  14
HETATM   14  C   UNL     2     -10.883  13.356  66.426  1.00  0.00    -0.289 C  
HETATM   15  H   UNL     2     -11.413  11.695  67.361  1.00  0.00     0.000 HD 
HETATM   16  O   UNL     2     -10.681  12.298  67.409  1.00  0.00    -0.221 OA 
BRANCH  14  17
HETATM   17  C   UNL     2     -11.222  12.778  65.052  1.00  0.00    -0.298 C  
HETATM   18  C   UNL     2     -12.725  13.009  64.749  1.00  0.00    -0.342 C  
HETATM   19  H   UNL     2     -11.008  11.052  64.130  1.00  0.00     0.000 HD 
HETATM   20  O   UNL     2     -10.797  11.411  64.984  1.00  0.00    -0.291 OA 
HETATM   21  O   UNL     2     -13.058  14.217  64.974  1.00  0.00    -0.728 OA 
HETATM   22  O   UNL     2     -13.353  12.026  64.310  1.00  0.00    -0.709 OA 
ENDBRANCH  14  17
ENDBRANCH  11  14
ENDBRANCH   8  11
ENDBRANCH   3   8
BRANCH   7  23
HETATM   23  C   UNL     3     -10.010   6.549  72.720  1.00  0.00    -0.172 C  
HETATM   24  O   UNL     3     -10.900   6.710  73.843  1.00  0.00    -0.486 OA 
HETATM   25  H   UNL     3     -11.705   6.240  73.653  1.00  0.00     0.000 HD 
BRANCH  23  26
HETATM   26  C   UNL     3     -10.821   7.028  71.499  1.00  0.00    -0.230 C  
HETATM   27  O   UNL     3     -11.272   5.928  70.705  1.00  0.00    -0.287 OA 
HETATM   28  H   UNL     3     -11.772   6.224  69.953  1.00  0.00     0.000 HD 
BRANCH  26  29
HETATM   29  C   UNL     3     -12.006   7.990  71.733  1.00  0.00    -0.301 C  
HETATM   30  O   UNL     3     -13.075   7.785  70.795  1.00  0.00    -0.532 OA 
HETATM   31  H   UNL     3     -13.804   8.377  70.939  1.00  0.00     0.000 HD 
BRANCH  29  32
HETATM   32  C   UNL     3     -11.691   9.482  71.761  1.00  0.00    -0.341 C  
HETATM   33  C   UNL     3     -12.831  10.379  71.251  1.00  0.00    -0.433 C  
HETATM   34  O   UNL     3     -10.508   9.741  70.887  1.00  0.00    -0.302 OA 
HETATM   35  O   UNL     3     -12.705  10.656  69.986  1.00  0.00    -0.278 OA 
HETATM   36  O   UNL     3     -13.475  11.020  72.104  1.00  0.00    -0.377 OA 
HETATM   37  H   UNL     3     -10.311  10.670  70.905  1.00  0.00     0.000 HD 
ENDBRANCH  29  32
ENDBRANCH  26  29
ENDBRANCH  23  26
ENDBRANCH   7  23
TORSDOF 8
ENDMDL
MODEL       44
REMARK 921   NORMALIZED FREE ENERGY PREDICTED BY IDOCK:   -6.16 KCAL/MOL
REMARK 922        TOTAL FREE ENERGY PREDICTED BY IDOCK:  -11.12 KCAL/MOL
REMARK 923 INTER-LIGAND FREE ENERGY PREDICTED BY IDOCK:   -8.61 KCAL/MOL
REMARK 924 INTRA-LIGAND FREE ENERGY PREDICTED BY IDOCK:   -2.51 KCAL/MOL
REMARK 927      BINDING AFFINITY PREDICTED BY RF-SCORE:    0.00 PKD
ROOT
HETATM    1 CU   UNL     1     -10.669  13.053  68.708  1.00  0.00    -0.206 Cu 
HETATM    2  O   UNL     2      -9.630  18.231  65.853  1.00  0.00    -0.510 OA 
HETATM    3  C   UNL     2      -9.657  18.348  67.283  1.00  0.00    -0.288 C  
HETATM    4  H   UNL     2      -9.669  19.112  65.500  1.00  0.00     0.000 HD 
HETATM    5  O   UNL     3     -14.208   8.862  73.534  1.00  0.00    -1.194 OA 
HETATM    6  H   UNL     3     -14.854   9.532  73.730  1.00  0.00     0.000 HD 
HETATM    7  C   UNL     3     -13.542   9.214  72.304  1.00  0.00    -0.489 C  
ENDROOT
BRANCH   3   8
HETATM    8  C   UNL     2      -9.593  16.932  67.850  1.00  0.00    -0.244 C  
HETATM    9  O   UNL     2      -8.692  16.901  68.974  1.00  0.00    -0.240 OA 
HETATM   10  H   UNL     2      -8.652  16.019  69.327  1.00  0.00     0.000 HD 
BRANCH   8  11
HETATM   11  C   UNL     2     -10.986  16.395  68.239  1.00  0.00    -0.355 C  
HETATM   12  O   UNL     2     -11.299  15.339  67.327  1.00  0.00    -0.332 OA 
HETATM   13  H   UNL     2     -12.156  15.008  67.566  1.00  0.00     0.000 HD 
BRANCH  11  14
HETATM   14  C   UNL     2     -10.929  15.881  69.692  1.00  0.00    -0.319 C  
HETATM   15  H   UNL     2      -9.834  14.569  70.688  1.00  0.00     0.000 HD 
HETATM   16  O   UNL     2      -9.869  14.885  69.793  1.00  0.00    -0.075 OA 
BRANCH  14  17
HETATM   17  C   UNL     2     -12.234  15.365  70.300  1.00  0.00    -0.380 C  
HETATM   18  C   UNL     2     -12.147  15.438  71.846  1.00  0.00    -0.390 C  
HETATM   19  H   UNL     2     -13.342  13.745  70.152  1.00  0.00     0.000 HD 
HETATM   20  O   UNL     2     -12.532  14.066  69.774  1.00  0.00    -0.325 OA 
HETATM   21  O   UNL     2     -11.734  16.579  72.231  1.00  0.00    -0.501 OA 
HETATM   22  O   UNL     2     -12.518  14.420  72.465  1.00  0.00    -0.287 OA 
ENDBRANCH  14  17
ENDBRANCH  11  14
ENDBRANCH   8  11
ENDBRANCH   3   8
BRANCH   7  23
HETATM   23  C   UNL     3     -12.500   8.133  71.988  1.00  0.00    -0.336 C  
HETATM   24  O   UNL     3     -13.064   7.237  71.008  1.00  0.00    -0.573 OA 
HETATM   25  H   UNL     3     -12.419   6.567  70.812  1.00  0.00     0.000 HD 
BRANCH  23  26
HETATM   26  C   UNL     3     -11.171   8.610  71.371  1.00  0.00    -0.277 C  
HETATM   27  O   UNL     3     -10.419   7.518  70.836  1.00  0.00    -0.212 OA 
HETATM   28  H   UNL     3      -9.599   7.812  70.455  1.00  0.00     0.000 HD 
BRANCH  26  29
HETATM   29  C   UNL     3     -11.209   9.745  70.325  1.00  0.00    -0.288 C  
HETATM   30  O   UNL     3     -11.963   9.391  69.155  1.00  0.00     0.068 OA 
HETATM   31  H   UNL     3     -11.986  10.090  68.511  1.00  0.00     0.000 HD 
BRANCH  29  32
HETATM   32  C   UNL     3      -9.867  10.305  69.863  1.00  0.00    -0.105 C  
HETATM   33  C   UNL     3      -9.410   9.797  68.485  1.00  0.00    -0.142 C  
HETATM   34  O   UNL     3      -8.815   9.907  70.845  1.00  0.00    -0.327 OA 
HETATM   35  O   UNL     3      -8.633   8.758  68.582  1.00  0.00    -0.131 OA 
HETATM   36  O   UNL     3      -9.493  10.593  67.529  1.00  0.00    -0.152 OA 
HETATM   37  H   UNL     3      -7.980  10.256  70.558  1.00  0.00     0.000 HD 
ENDBRANCH  29  32
ENDBRANCH  26  29
ENDBRANCH  23  26
ENDBRANCH   7  23
TORSDOF 8
ENDMDL
MODEL       45
REMARK 921   NORMALIZED FREE ENERGY PREDICTED BY IDOCK:   -6.15 KCAL/MOL
REMARK 922        TOTAL FREE ENERGY PREDICTED BY IDOCK:  -11.11 KCAL/MOL
REMARK 923 INTER-LIGAND FREE ENERGY PREDICTED BY IDOCK:   -9.20 KCAL/MOL
REMARK 924 INTRA-LIGAND FREE ENERGY PREDICTED BY IDOCK:   -1.90 KCAL/MOL
REMARK 927      BINDING AFFINITY PREDICTED BY RF-SCORE:    0.00 PKD
ROOT
HETATM    1 CU   UNL     1     -12.145   9.137  69.047  1.00  0.00    -0.289 Cu 
HETATM    2  O   UNL     2     -11.522   5.668  73.907  1.00  0.00    -0.296 OA 
HETATM    3  C   UNL     2     -10.417   6.554  73.676  1.00  0.00    -0.311 C  
HETATM    4  H   UNL     2     -11.241   5.034  74.556  1.00  0.00     0.000 HD 
HETATM    5  O   UNL     3      -9.845  11.966  62.715  1.00  0.00    -0.472 OA 
HETATM    6  H   UNL     3      -9.070  11.416  62.684  1.00  0.00     0.000 HD 
HETATM    7  C   UNL     3     -10.767  11.406  63.672  1.00  0.00    -0.401 C  
ENDROOT
BRANCH   3   8
HETATM    8  C   UNL     2     -10.870   7.574  72.634  1.00  0.00    -0.315 C  
HETATM    9  O   UNL     2     -12.143   8.128  73.019  1.00  0.00    -0.640 OA 
HETATM   10  H   UNL     2     -12.424   8.762  72.370  1.00  0.00     0.000 HD 
BRANCH   8  11
HETATM   11  C   UNL     2      -9.824   8.686  72.413  1.00  0.00    -0.245 C  
HETATM   12  O   UNL     2      -8.692   8.367  73.226  1.00  0.00    -0.284 OA 
HETATM   13  H   UNL     2      -8.048   9.052  73.090  1.00  0.00     0.000 HD 
BRANCH  11  14
HETATM   14  C   UNL     2      -9.447   8.720  70.918  1.00  0.00    -0.216 C  
HETATM   15  H   UNL     2      -9.944   9.830  69.357  1.00  0.00     0.000 HD 
HETATM   16  O   UNL     2     -10.176   9.809  70.278  1.00  0.00    -0.261 OA 
BRANCH  14  17
HETATM   17  C   UNL     2      -9.597   7.417  70.131  1.00  0.00    -0.165 C  
HETATM   18  C   UNL     2      -8.194   6.828  69.834  1.00  0.00    -0.127 C  
HETATM   19  H   UNL     2     -10.506   6.832  68.486  1.00  0.00     0.000 HD 
HETATM   20  O   UNL     2     -10.413   7.641  68.975  1.00  0.00    -0.212 OA 
HETATM   21  O   UNL     2      -7.477   6.797  70.885  1.00  0.00    -0.081 OA 
HETATM   22  O   UNL     2      -7.995   6.449  68.663  1.00  0.00    -0.104 OA 
ENDBRANCH  14  17
ENDBRANCH  11  14
ENDBRANCH   8  11
ENDBRANCH   3   8
BRANCH   7  23
HETATM   23  C   UNL     3     -12.017  12.293  63.723  1.00  0.00    -0.519 C  
HETATM   24  O   UNL     3     -13.148  11.502  63.305  1.00  0.00    -0.616 OA 
HETATM   25  H   UNL     3     -13.923  12.052  63.336  1.00  0.00     0.000 HD 
BRANCH  23  26
HETATM   26  C   UNL     3     -12.414  12.855  65.102  1.00  0.00    -0.501 C  
HETATM   27  O   UNL     3     -12.021  11.976  66.159  1.00  0.00    -0.581 OA 
HETATM   28  H   UNL     3     -12.266  12.323  67.010  1.00  0.00     0.000 HD 
BRANCH  26  29
HETATM   29  C   UNL     3     -11.982  14.292  65.466  1.00  0.00    -0.385 C  
HETATM   30  O   UNL     3     -11.484  15.021  64.332  1.00  0.00    -0.603 OA 
HETATM   31  H   UNL     3     -11.219  15.905  64.556  1.00  0.00     0.000 HD 
BRANCH  29  32
HETATM   32  C   UNL     3     -10.972  14.445  66.599  1.00  0.00    -0.318 C  
HETATM   33  C   UNL     3     -10.735  15.899  67.042  1.00  0.00    -0.292 C  
HETATM   34  O   UNL     3      -9.655  13.907  66.146  1.00  0.00    -0.368 OA 
HETATM   35  O   UNL     3      -9.719  16.435  66.432  1.00  0.00    -0.253 OA 
HETATM   36  O   UNL     3     -11.237  16.251  68.128  1.00  0.00    -0.350 OA 
HETATM   37  H   UNL     3      -9.026  14.003  66.852  1.00  0.00     0.000 HD 
ENDBRANCH  29  32
ENDBRANCH  26  29
ENDBRANCH  23  26
ENDBRANCH   7  23
TORSDOF 8
ENDMDL
MODEL       46
REMARK 921   NORMALIZED FREE ENERGY PREDICTED BY IDOCK:   -6.13 KCAL/MOL
REMARK 922        TOTAL FREE ENERGY PREDICTED BY IDOCK:  -11.07 KCAL/MOL
REMARK 923 INTER-LIGAND FREE ENERGY PREDICTED BY IDOCK:   -8.88 KCAL/MOL
REMARK 924 INTRA-LIGAND FREE ENERGY PREDICTED BY IDOCK:   -2.19 KCAL/MOL
REMARK 927      BINDING AFFINITY PREDICTED BY RF-SCORE:    0.00 PKD
ROOT
HETATM    1 CU   UNL     1     -11.377  10.208  68.199  1.00  0.00    -0.220 Cu 
HETATM    2  O   UNL     2     -10.255   5.422  71.644  1.00  0.00    -0.195 OA 
HETATM    3  C   UNL     2     -10.246   6.668  72.355  1.00  0.00    -0.180 C  
HETATM    4  H   UNL     2      -9.870   4.770  72.218  1.00  0.00     0.000 HD 
HETATM    5  O   UNL     3      -9.894  16.885  65.628  1.00  0.00    -0.549 OA 
HETATM    6  H   UNL     3      -9.052  16.930  66.066  1.00  0.00     0.000 HD 
HETATM    7  C   UNL     3     -10.325  15.509  65.605  1.00  0.00    -0.384 C  
ENDROOT
BRANCH   3   8
HETATM    8  C   UNL     2     -10.865   7.715  71.433  1.00  0.00    -0.225 C  
HETATM    9  O   UNL     2     -10.789   9.013  72.054  1.00  0.00    -0.352 OA 
HETATM   10  H   UNL     2     -11.175   9.665  71.481  1.00  0.00     0.000 HD 
BRANCH   8  11
HETATM   11  C   UNL     2     -10.208   7.727  70.038  1.00  0.00    -0.210 C  
HETATM   12  O   UNL     2     -11.221   8.097  69.099  1.00  0.00    -0.423 OA 
HETATM   13  H   UNL     2     -10.817   8.104  68.240  1.00  0.00     0.000 HD 
BRANCH  11  14
HETATM   14  C   UNL     2      -9.052   8.748  70.045  1.00  0.00    -0.160 C  
HETATM   15  H   UNL     2      -8.889  10.704  69.792  1.00  0.00     0.000 HD 
HETATM   16  O   UNL     2      -9.601  10.075  69.788  1.00  0.00    -0.222 OA 
BRANCH  14  17
HETATM   17  C   UNL     2      -7.859   8.457  69.134  1.00  0.00    -0.105 C  
HETATM   18  C   UNL     2      -6.735   9.489  69.409  1.00  0.00    -0.048 C  
HETATM   19  H   UNL     2      -7.553   8.209  67.206  1.00  0.00     0.000 HD 
HETATM   20  O   UNL     2      -8.295   8.390  67.772  1.00  0.00    -0.128 OA 
HETATM   21  O   UNL     2      -6.506   9.599  70.656  1.00  0.00    -0.083 OA 
HETATM   22  O   UNL     2      -6.214  10.012  68.404  1.00  0.00    -0.049 OA 
ENDBRANCH  14  17
ENDBRANCH  11  14
ENDBRANCH   8  11
ENDBRANCH   3   8
BRANCH   7  23
HETATM   23  C   UNL     3     -11.685  15.436  64.898  1.00  0.00    -0.174 C  
HETATM   24  O   UNL     3     -11.617  16.247  63.707  1.00  0.00    -1.539 OA 
HETATM   25  H   UNL     3     -12.460  16.202  63.269  1.00  0.00     0.000 HD 
BRANCH  23  26
HETATM   26  C   UNL     3     -12.139  14.047  64.407  1.00  0.00    -0.458 C  
HETATM   27  O   UNL     3     -12.652  14.104  63.073  1.00  0.00    -1.002 OA 
HETATM   28  H   UNL     3     -12.931  13.247  62.771  1.00  0.00     0.000 HD 
BRANCH  26  29
HETATM   29  C   UNL     3     -11.145  12.869  64.506  1.00  0.00    -0.342 C  
HETATM   30  O   UNL     3     -11.546  11.742  63.710  1.00  0.00    -0.414 OA 
HETATM   31  H   UNL     3     -10.935  11.018  63.771  1.00  0.00     0.000 HD 
BRANCH  29  32
HETATM   32  C   UNL     3     -10.816  12.358  65.905  1.00  0.00    -0.270 C  
HETATM   33  C   UNL     3      -9.824  11.182  65.931  1.00  0.00    -0.232 C  
HETATM   34  O   UNL     3     -12.074  11.883  66.553  1.00  0.00    -0.568 OA 
HETATM   35  O   UNL     3     -10.433  10.032  65.952  1.00  0.00    -0.174 OA 
HETATM   36  O   UNL     3      -8.660  11.428  66.302  1.00  0.00    -0.177 OA 
HETATM   37  H   UNL     3     -11.869  11.564  67.424  1.00  0.00     0.000 HD 
ENDBRANCH  29  32
ENDBRANCH  26  29
ENDBRANCH  23  26
ENDBRANCH   7  23
TORSDOF 8
ENDMDL
MODEL       47
REMARK 921   NORMALIZED FREE ENERGY PREDICTED BY IDOCK:   -6.12 KCAL/MOL
REMARK 922        TOTAL FREE ENERGY PREDICTED BY IDOCK:  -11.06 KCAL/MOL
REMARK 923 INTER-LIGAND FREE ENERGY PREDICTED BY IDOCK:   -8.52 KCAL/MOL
REMARK 924 INTRA-LIGAND FREE ENERGY PREDICTED BY IDOCK:   -2.54 KCAL/MOL
REMARK 927      BINDING AFFINITY PREDICTED BY RF-SCORE:    0.00 PKD
ROOT
HETATM    1 CU   UNL     1     -11.380   8.970  67.468  1.00  0.00    -0.444 Cu 
HETATM    2  O   UNL     2     -12.762  12.731  62.998  1.00  0.00    -0.609 OA 
HETATM    3  C   UNL     2     -11.761  13.234  63.896  1.00  0.00    -0.431 C  
HETATM    4  H   UNL     2     -13.053  13.464  62.467  1.00  0.00     0.000 HD 
HETATM    5  O   UNL     3     -10.356   7.301  74.507  1.00  0.00    -0.383 OA 
HETATM    6  H   UNL     3     -10.678   8.142  74.813  1.00  0.00     0.000 HD 
HETATM    7  C   UNL     3     -10.773   7.123  73.138  1.00  0.00    -0.346 C  
ENDROOT
BRANCH   3   8
HETATM    8  C   UNL     2     -11.292  12.058  64.749  1.00  0.00    -0.313 C  
HETATM    9  O   UNL     2     -11.171  10.881  63.926  1.00  0.00    -0.353 OA 
HETATM   10  H   UNL     2     -10.880  10.149  64.457  1.00  0.00     0.000 HD 
BRANCH   8  11
HETATM   11  C   UNL     2      -9.970  12.360  65.484  1.00  0.00    -0.243 C  
HETATM   12  O   UNL     2      -9.648  13.728  65.224  1.00  0.00    -0.545 OA 
HETATM   13  H   UNL     2      -8.834  13.915  65.676  1.00  0.00     0.000 HD 
BRANCH  11  14
HETATM   14  C   UNL     2     -10.175  12.110  66.992  1.00  0.00    -0.207 C  
HETATM   15  H   UNL     2      -9.790  10.629  68.247  1.00  0.00     0.000 HD 
HETATM   16  O   UNL     2      -9.664  10.783  67.318  1.00  0.00    -0.159 OA 
BRANCH  14  17
HETATM   17  C   UNL     2     -11.585  12.311  67.547  1.00  0.00    -0.353 C  
HETATM   18  C   UNL     2     -11.654  13.662  68.305  1.00  0.00    -0.339 C  
HETATM   19  H   UNL     2     -12.845  11.293  68.665  1.00  0.00     0.000 HD 
HETATM   20  O   UNL     2     -11.969  11.168  68.320  1.00  0.00    -0.592 OA 
HETATM   21  O   UNL     2     -11.159  14.606  67.608  1.00  0.00    -0.283 OA 
HETATM   22  O   UNL     2     -12.198  13.635  69.426  1.00  0.00    -0.324 OA 
ENDBRANCH  14  17
ENDBRANCH  11  14
ENDBRANCH   8  11
ENDBRANCH   3   8
BRANCH   7  23
HETATM   23  C   UNL     3     -10.253   5.766  72.644  1.00  0.00    -0.184 C  
HETATM   24  O   UNL     3     -11.324   4.806  72.757  1.00  0.00    -0.183 OA 
HETATM   25  H   UNL     3     -11.003   3.966  72.451  1.00  0.00     0.000 HD 
BRANCH  23  26
HETATM   26  C   UNL     3      -9.806   5.689  71.171  1.00  0.00    -0.177 C  
HETATM   27  O   UNL     3      -9.952   4.367  70.647  1.00  0.00    -0.212 OA 
HETATM   28  H   UNL     3      -9.675   4.320  69.739  1.00  0.00     0.000 HD 
BRANCH  26  29
HETATM   29  C   UNL     3     -10.409   6.691  70.163  1.00  0.00    -0.203 C  
HETATM   30  O   UNL     3     -11.817   6.490  69.963  1.00  0.00    -0.574 OA 
HETATM   31  H   UNL     3     -12.188   7.107  69.342  1.00  0.00     0.000 HD 
BRANCH  29  32
HETATM   32  C   UNL     3      -9.749   6.774  68.791  1.00  0.00    -0.132 C  
HETATM   33  C   UNL     3     -10.463   5.962  67.696  1.00  0.00    -0.238 C  
HETATM   34  O   UNL     3      -8.358   6.241  68.892  1.00  0.00    -0.118 OA 
HETATM   35  O   UNL     3      -9.956   4.771  67.565  1.00  0.00    -0.174 OA 
HETATM   36  O   UNL     3     -11.121   6.601  66.852  1.00  0.00    -0.400 OA 
HETATM   37  H   UNL     3      -7.947   6.292  68.037  1.00  0.00     0.000 HD 
ENDBRANCH  29  32
ENDBRANCH  26  29
ENDBRANCH  23  26
ENDBRANCH   7  23
TORSDOF 8
ENDMDL
MODEL       48
REMARK 921   NORMALIZED FREE ENERGY PREDICTED BY IDOCK:   -6.12 KCAL/MOL
REMARK 922        TOTAL FREE ENERGY PREDICTED BY IDOCK:  -11.05 KCAL/MOL
REMARK 923 INTER-LIGAND FREE ENERGY PREDICTED BY IDOCK:   -9.11 KCAL/MOL
REMARK 924 INTRA-LIGAND FREE ENERGY PREDICTED BY IDOCK:   -1.94 KCAL/MOL
REMARK 927      BINDING AFFINITY PREDICTED BY RF-SCORE:    0.00 PKD
ROOT
HETATM    1 CU   UNL     1     -12.147  11.706  67.471  1.00  0.00    -0.285 Cu 
HETATM    2  O   UNL     2     -11.451  16.304  63.675  1.00  0.00    -1.361 OA 
HETATM    3  C   UNL     2     -10.928  16.547  64.989  1.00  0.00    -0.210 C  
HETATM    4  H   UNL     2     -11.481  17.142  63.227  1.00  0.00     0.000 HD 
HETATM    5  O   UNL     3     -14.251   8.741  73.808  1.00  0.00    -0.790 OA 
HETATM    6  H   UNL     3     -14.666   9.541  74.111  1.00  0.00     0.000 HD 
HETATM    7  C   UNL     3     -14.042   8.845  72.385  1.00  0.00    -0.420 C  
ENDROOT
BRANCH   3   8
HETATM    8  C   UNL     2     -10.878  15.202  65.708  1.00  0.00    -0.353 C  
HETATM    9  O   UNL     2      -9.567  15.001  66.271  1.00  0.00    -0.269 OA 
HETATM   10  H   UNL     2      -9.537  14.163  66.718  1.00  0.00     0.000 HD 
BRANCH   8  11
HETATM   11  C   UNL     2     -11.972  15.077  66.789  1.00  0.00     0.019 C  
HETATM   12  O   UNL     2     -12.823  13.994  66.403  1.00  0.00    -0.474 OA 
HETATM   13  H   UNL     2     -13.496  13.917  67.068  1.00  0.00     0.000 HD 
BRANCH  11  14
HETATM   14  C   UNL     2     -11.296  14.801  68.147  1.00  0.00    -0.307 C  
HETATM   15  H   UNL     2     -10.396  13.254  68.993  1.00  0.00     0.000 HD 
HETATM   16  O   UNL     2     -10.813  13.425  68.156  1.00  0.00    -0.240 OA 
BRANCH  14  17
HETATM   17  C   UNL     2     -12.106  15.111  69.406  1.00  0.00    -0.260 C  
HETATM   18  C   UNL     2     -11.253  15.977  70.369  1.00  0.00    -0.387 C  
HETATM   19  H   UNL     2     -13.109  14.087  70.755  1.00  0.00     0.000 HD 
HETATM   20  O   UNL     2     -12.605  13.894  69.972  1.00  0.00    -0.294 OA 
HETATM   21  O   UNL     2     -10.724  16.960  69.757  1.00  0.00    -0.291 OA 
HETATM   22  O   UNL     2     -11.244  15.620  71.563  1.00  0.00    -0.374 OA 
ENDBRANCH  14  17
ENDBRANCH  11  14
ENDBRANCH   8  11
ENDBRANCH   3   8
BRANCH   7  23
HETATM   23  C   UNL     3     -13.372   7.554  71.896  1.00  0.00    -0.240 C  
HETATM   24  O   UNL     3     -13.936   7.213  70.613  1.00  0.00    -0.304 OA 
HETATM   25  H   UNL     3     -13.521   6.414  70.309  1.00  0.00     0.000 HD 
BRANCH  23  26
HETATM   26  C   UNL     3     -11.851   7.609  71.659  1.00  0.00    -0.291 C  
HETATM   27  O   UNL     3     -11.368   8.954  71.657  1.00  0.00    -0.288 OA 
HETATM   28  H   UNL     3     -10.429   8.988  71.511  1.00  0.00     0.000 HD 
BRANCH  26  29
HETATM   29  C   UNL     3     -10.932   6.754  72.559  1.00  0.00    -0.247 C  
HETATM   30  O   UNL     3     -10.992   7.149  73.939  1.00  0.00    -0.526 OA 
HETATM   31  H   UNL     3     -10.426   6.622  74.493  1.00  0.00     0.000 HD 
BRANCH  29  32
HETATM   32  C   UNL     3      -9.463   6.665  72.162  1.00  0.00    -0.144 C  
HETATM   33  C   UNL     3      -8.540   7.625  72.932  1.00  0.00    -0.143 C  
HETATM   34  O   UNL     3      -9.333   7.004  70.714  1.00  0.00    -0.161 OA 
HETATM   35  O   UNL     3      -8.361   8.745  72.295  1.00  0.00    -0.367 OA 
HETATM   36  O   UNL     3      -7.805   7.127  73.807  1.00  0.00    -0.102 OA 
HETATM   37  H   UNL     3      -8.418   6.949  70.466  1.00  0.00     0.000 HD 
ENDBRANCH  29  32
ENDBRANCH  26  29
ENDBRANCH  23  26
ENDBRANCH   7  23
TORSDOF 8
ENDMDL
MODEL       49
REMARK 921   NORMALIZED FREE ENERGY PREDICTED BY IDOCK:   -6.11 KCAL/MOL
REMARK 922        TOTAL FREE ENERGY PREDICTED BY IDOCK:  -11.05 KCAL/MOL
REMARK 923 INTER-LIGAND FREE ENERGY PREDICTED BY IDOCK:   -9.25 KCAL/MOL
REMARK 924 INTRA-LIGAND FREE ENERGY PREDICTED BY IDOCK:   -1.79 KCAL/MOL
REMARK 927      BINDING AFFINITY PREDICTED BY RF-SCORE:    0.00 PKD
ROOT
HETATM    1 CU   UNL     1      -9.657  10.101  67.546  1.00  0.00    -0.143 Cu 
HETATM    2  O   UNL     2      -9.284   4.700  70.139  1.00  0.00    -0.107 OA 
HETATM    3  C   UNL     2     -10.527   5.377  70.377  1.00  0.00    -0.275 C  
HETATM    4  H   UNL     2      -9.243   3.971  70.747  1.00  0.00     0.000 HD 
HETATM    5  O   UNL     3     -10.962  17.290  67.608  1.00  0.00    -0.286 OA 
HETATM    6  H   UNL     3     -11.066  17.322  68.553  1.00  0.00     0.000 HD 
HETATM    7  C   UNL     3     -10.306  16.054  67.261  1.00  0.00    -0.295 C  
ENDROOT
BRANCH   3   8
HETATM    8  C   UNL     2     -10.594   6.548  69.400  1.00  0.00    -0.245 C  
HETATM    9  O   UNL     2      -9.571   7.510  69.726  1.00  0.00    -0.163 OA 
HETATM   10  H   UNL     2      -9.613   8.239  69.118  1.00  0.00     0.000 HD 
BRANCH   8  11
HETATM   11  C   UNL     2     -10.479   6.091  67.932  1.00  0.00    -0.234 C  
HETATM   12  O   UNL     2     -11.658   6.540  67.258  1.00  0.00    -0.737 OA 
HETATM   13  H   UNL     2     -11.587   6.258  66.354  1.00  0.00     0.000 HD 
BRANCH  11  14
HETATM   14  C   UNL     2      -9.211   6.717  67.317  1.00  0.00    -0.125 C  
HETATM   15  H   UNL     2      -8.812   8.302  66.201  1.00  0.00     0.000 HD 
HETATM   16  O   UNL     2      -9.593   7.916  66.580  1.00  0.00    -0.203 OA 
BRANCH  14  17
HETATM   17  C   UNL     2      -8.324   5.805  66.468  1.00  0.00    -0.111 C  
HETATM   18  C   UNL     2      -6.877   5.828  67.024  1.00  0.00    -0.063 C  
HETATM   19  H   UNL     2      -7.893   5.597  64.559  1.00  0.00     0.000 HD 
HETATM   20  O   UNL     2      -8.444   6.163  65.086  1.00  0.00    -0.149 OA 
HETATM   21  O   UNL     2      -6.865   5.647  68.284  1.00  0.00    -0.059 OA 
HETATM   22  O   UNL     2      -5.969   5.975  66.183  1.00  0.00    -0.026 OA 
ENDBRANCH  14  17
ENDBRANCH  11  14
ENDBRANCH   8  11
ENDBRANCH   3   8
BRANCH   7  23
HETATM   23  C   UNL     3     -10.138  16.002  65.737  1.00  0.00    -0.366 C  
HETATM   24  O   UNL     3      -9.211  14.943  65.422  1.00  0.00    -0.345 OA 
HETATM   25  H   UNL     3      -9.107  14.911  64.478  1.00  0.00     0.000 HD 
BRANCH  23  26
HETATM   26  C   UNL     3     -11.399  15.683  64.910  1.00  0.00    -0.315 C  
HETATM   27  O   UNL     3     -11.558  16.596  63.821  1.00  0.00    -1.506 OA 
HETATM   28  H   UNL     3     -12.335  16.400  63.312  1.00  0.00     0.000 HD 
BRANCH  26  29
HETATM   29  C   UNL     3     -11.592  14.245  64.383  1.00  0.00    -0.344 C  
HETATM   30  O   UNL     3     -12.415  14.195  63.206  1.00  0.00    -1.146 OA 
HETATM   31  H   UNL     3     -12.533  13.310  62.882  1.00  0.00     0.000 HD 
BRANCH  29  32
HETATM   32  C   UNL     3     -12.127  13.212  65.370  1.00  0.00    -0.433 C  
HETATM   33  C   UNL     3     -11.051  12.278  65.952  1.00  0.00    -0.322 C  
HETATM   34  O   UNL     3     -13.122  12.347  64.670  1.00  0.00    -0.825 OA 
HETATM   35  O   UNL     3     -10.947  11.173  65.274  1.00  0.00    -0.198 OA 
HETATM   36  O   UNL     3     -10.707  12.477  67.134  1.00  0.00    -0.232 OA 
HETATM   37  H   UNL     3     -13.455  11.704  65.284  1.00  0.00     0.000 HD 
ENDBRANCH  29  32
ENDBRANCH  26  29
ENDBRANCH  23  26
ENDBRANCH   7  23
TORSDOF 8
ENDMDL
MODEL       50
REMARK 921   NORMALIZED FREE ENERGY PREDICTED BY IDOCK:   -6.11 KCAL/MOL
REMARK 922        TOTAL FREE ENERGY PREDICTED BY IDOCK:  -11.04 KCAL/MOL
REMARK 923 INTER-LIGAND FREE ENERGY PREDICTED BY IDOCK:   -9.63 KCAL/MOL
REMARK 924 INTRA-LIGAND FREE ENERGY PREDICTED BY IDOCK:   -1.41 KCAL/MOL
REMARK 927      BINDING AFFINITY PREDICTED BY RF-SCORE:    0.00 PKD
ROOT
HETATM    1 CU   UNL     1     -12.253   8.727  68.557  1.00  0.00     0.430 Cu 
HETATM    2  O   UNL     2     -11.904   5.013  73.260  1.00  0.00    -0.509 OA 
HETATM    3  C   UNL     2     -10.884   6.022  73.236  1.00  0.00    -0.252 C  
HETATM    4  H   UNL     2     -11.643   4.368  73.907  1.00  0.00     0.000 HD 
HETATM    5  O   UNL     3      -9.456  12.208  62.774  1.00  0.00    -0.406 OA 
HETATM    6  H   UNL     3      -8.628  11.744  62.822  1.00  0.00     0.000 HD 
HETATM    7  C   UNL     3     -10.430  11.491  63.560  1.00  0.00    -0.428 C  
ENDROOT
BRANCH   3   8
HETATM    8  C   UNL     2     -11.303   7.059  72.197  1.00  0.00    -0.265 C  
HETATM    9  O   UNL     2     -12.191   8.019  72.802  1.00  0.00    -0.601 OA 
HETATM   10  H   UNL     2     -12.452   8.664  72.156  1.00  0.00     0.000 HD 
BRANCH   8  11
HETATM   11  C   UNL     2     -10.092   7.756  71.546  1.00  0.00    -0.178 C  
HETATM   12  O   UNL     2      -9.164   6.732  71.179  1.00  0.00    -0.158 OA 
HETATM   13  H   UNL     2      -8.418   7.161  70.778  1.00  0.00     0.000 HD 
BRANCH  11  14
HETATM   14  C   UNL     2     -10.578   8.540  70.310  1.00  0.00    -0.226 C  
HETATM   15  H   UNL     2     -10.254   8.452  68.360  1.00  0.00     0.000 HD 
HETATM   16  O   UNL     2      -9.955   7.970  69.121  1.00  0.00    -0.179 OA 
BRANCH  14  17
HETATM   17  C   UNL     2     -10.419  10.061  70.342  1.00  0.00    -0.240 C  
HETATM   18  C   UNL     2     -11.776  10.729  69.998  1.00  0.00    -0.336 C  
HETATM   19  H   UNL     2      -9.228  11.396  69.522  1.00  0.00     0.000 HD 
HETATM   20  O   UNL     2      -9.326  10.451  69.502  1.00  0.00    -0.198 OA 
HETATM   21  O   UNL     2     -12.723  10.225  70.684  1.00  0.00    -0.327 OA 
HETATM   22  O   UNL     2     -11.735  11.653  69.162  1.00  0.00    -0.271 OA 
ENDBRANCH  14  17
ENDBRANCH  11  14
ENDBRANCH   8  11
ENDBRANCH   3   8
BRANCH   7  23
HETATM   23  C   UNL     3     -11.767  12.240  63.483  1.00  0.00    -0.499 C  
HETATM   24  O   UNL     3     -12.779  11.310  63.046  1.00  0.00    -0.819 OA 
HETATM   25  H   UNL     3     -13.607  11.774  62.998  1.00  0.00     0.000 HD 
BRANCH  23  26
HETATM   26  C   UNL     3     -12.310  12.828  64.800  1.00  0.00    -0.478 C  
HETATM   27  O   UNL     3     -12.001  11.989  65.915  1.00  0.00    -0.540 OA 
HETATM   28  H   UNL     3     -12.337  12.351  66.728  1.00  0.00     0.000 HD 
BRANCH  26  29
HETATM   29  C   UNL     3     -11.950  14.285  65.161  1.00  0.00    -0.395 C  
HETATM   30  O   UNL     3     -11.792  15.117  64.001  1.00  0.00    -0.809 OA 
HETATM   31  H   UNL     3     -11.571  16.014  64.223  1.00  0.00     0.000 HD 
BRANCH  29  32
HETATM   32  C   UNL     3     -10.733  14.496  66.055  1.00  0.00    -0.305 C  
HETATM   33  C   UNL     3     -10.488  15.961  66.455  1.00  0.00    -0.304 C  
HETATM   34  O   UNL     3      -9.514  14.033  65.327  1.00  0.00    -0.519 OA 
HETATM   35  O   UNL     3      -9.656  16.553  65.649  1.00  0.00    -0.511 OA 
HETATM   36  O   UNL     3     -10.766  16.284  67.627  1.00  0.00    -0.313 OA 
HETATM   37  H   UNL     3      -8.756  14.165  65.883  1.00  0.00     0.000 HD 
ENDBRANCH  29  32
ENDBRANCH  26  29
ENDBRANCH  23  26
ENDBRANCH   7  23
TORSDOF 8
ENDMDL
MODEL       51
REMARK 921   NORMALIZED FREE ENERGY PREDICTED BY IDOCK:   -6.10 KCAL/MOL
REMARK 922        TOTAL FREE ENERGY PREDICTED BY IDOCK:  -11.02 KCAL/MOL
REMARK 923 INTER-LIGAND FREE ENERGY PREDICTED BY IDOCK:   -9.01 KCAL/MOL
REMARK 924 INTRA-LIGAND FREE ENERGY PREDICTED BY IDOCK:   -2.02 KCAL/MOL
REMARK 927      BINDING AFFINITY PREDICTED BY RF-SCORE:    0.00 PKD
ROOT
HETATM    1 CU   UNL     1     -10.113  13.936  68.278  1.00  0.00    -0.194 Cu 
HETATM    2  O   UNL     2      -8.340  19.187  65.972  1.00  0.00    -0.429 OA 
HETATM    3  C   UNL     2      -8.287  19.131  67.405  1.00  0.00    -0.281 C  
HETATM    4  H   UNL     2      -8.245  20.100  65.725  1.00  0.00     0.000 HD 
HETATM    5  O   UNL     3     -14.102   9.814  72.804  1.00  0.00    -0.691 OA 
HETATM    6  H   UNL     3     -14.617  10.551  73.114  1.00  0.00     0.000 HD 
HETATM    7  C   UNL     3     -13.439  10.201  71.583  1.00  0.00    -0.284 C  
ENDROOT
BRANCH   3   8
HETATM    8  C   UNL     2      -8.438  17.665  67.802  1.00  0.00    -0.227 C  
HETATM    9  O   UNL     2      -7.311  17.262  68.604  1.00  0.00    -0.217 OA 
HETATM   10  H   UNL     2      -7.405  16.349  68.851  1.00  0.00     0.000 HD 
BRANCH   8  11
HETATM   11  C   UNL     2      -9.767  17.392  68.535  1.00  0.00    -0.304 C  
HETATM   12  O   UNL     2     -10.221  18.642  69.062  1.00  0.00    -0.477 OA 
HETATM   13  H   UNL     2     -11.039  18.475  69.514  1.00  0.00     0.000 HD 
BRANCH  11  14
HETATM   14  C   UNL     2     -10.778  16.810  67.527  1.00  0.00    -0.275 C  
HETATM   15  H   UNL     2     -12.186  15.420  67.575  1.00  0.00     0.000 HD 
HETATM   16  O   UNL     2     -11.563  15.779  68.196  1.00  0.00    -0.344 OA 
BRANCH  14  17
HETATM   17  C   UNL     2     -10.223  16.305  66.195  1.00  0.00    -0.346 C  
HETATM   18  C   UNL     2     -10.895  17.075  65.029  1.00  0.00    -0.006 C  
HETATM   19  H   UNL     2     -10.003  14.567  65.299  1.00  0.00     0.000 HD 
HETATM   20  O   UNL     2     -10.348  14.880  66.127  1.00  0.00    -0.278 OA 
HETATM   21  O   UNL     2     -10.872  18.332  65.234  1.00  0.00    -0.629 OA 
HETATM   22  O   UNL     2     -11.309  16.381  64.080  1.00  0.00    -0.941 OA 
ENDBRANCH  14  17
ENDBRANCH  11  14
ENDBRANCH   8  11
ENDBRANCH   3   8
BRANCH   7  23
HETATM   23  C   UNL     3     -12.607   9.013  71.083  1.00  0.00    -0.211 C  
HETATM   24  O   UNL     3     -11.287   9.494  70.755  1.00  0.00    -0.273 OA 
HETATM   25  H   UNL     3     -10.772   8.758  70.445  1.00  0.00     0.000 HD 
BRANCH  23  26
HETATM   26  C   UNL     3     -12.373   7.861  72.079  1.00  0.00    -0.308 C  
HETATM   27  O   UNL     3     -13.490   6.969  72.121  1.00  0.00    -0.538 OA 
HETATM   28  H   UNL     3     -13.345   6.258  72.736  1.00  0.00     0.000 HD 
BRANCH  26  29
HETATM   29  C   UNL     3     -11.078   7.028  71.954  1.00  0.00    -0.242 C  
HETATM   30  O   UNL     3      -9.896   7.811  72.184  1.00  0.00    -0.170 OA 
HETATM   31  H   UNL     3      -9.099   7.299  72.107  1.00  0.00     0.000 HD 
BRANCH  29  32
HETATM   32  C   UNL     3     -10.878   6.251  70.657  1.00  0.00    -0.280 C  
HETATM   33  C   UNL     3      -9.572   6.585  69.915  1.00  0.00    -0.154 C  
HETATM   34  O   UNL     3     -12.001   6.569  69.727  1.00  0.00    -0.625 OA 
HETATM   35  O   UNL     3      -9.746   7.507  69.015  1.00  0.00    -0.159 OA 
HETATM   36  O   UNL     3      -8.658   5.739  69.965  1.00  0.00    -0.124 OA 
HETATM   37  H   UNL     3     -11.877   6.085  68.919  1.00  0.00     0.000 HD 
ENDBRANCH  29  32
ENDBRANCH  26  29
ENDBRANCH  23  26
ENDBRANCH   7  23
TORSDOF 8
ENDMDL
MODEL       52
REMARK 921   NORMALIZED FREE ENERGY PREDICTED BY IDOCK:   -6.08 KCAL/MOL
REMARK 922        TOTAL FREE ENERGY PREDICTED BY IDOCK:  -10.99 KCAL/MOL
REMARK 923 INTER-LIGAND FREE ENERGY PREDICTED BY IDOCK:   -9.71 KCAL/MOL
REMARK 924 INTRA-LIGAND FREE ENERGY PREDICTED BY IDOCK:   -1.28 KCAL/MOL
REMARK 927      BINDING AFFINITY PREDICTED BY RF-SCORE:    0.00 PKD
ROOT
HETATM    1 CU   UNL     1      -9.887  11.860  69.107  1.00  0.00    -0.234 Cu 
HETATM    2  O   UNL     2      -9.015   6.934  72.426  1.00  0.00    -0.133 OA 
HETATM    3  C   UNL     2     -10.075   7.778  72.900  1.00  0.00    -0.301 C  
HETATM    4  H   UNL     2      -8.823   6.312  73.118  1.00  0.00     0.000 HD 
HETATM    5  O   UNL     3     -10.688  19.068  68.218  1.00  0.00    -0.364 OA 
HETATM    6  H   UNL     3     -10.482  19.261  69.126  1.00  0.00     0.000 HD 
HETATM    7  C   UNL     3     -10.249  17.726  67.925  1.00  0.00    -0.361 C  
ENDROOT
BRANCH   3   8
HETATM    8  C   UNL     2     -10.383   8.778  71.789  1.00  0.00    -0.343 C  
HETATM    9  O   UNL     2      -9.241   9.629  71.572  1.00  0.00    -0.239 OA 
HETATM   10  H   UNL     2      -9.433  10.252  70.881  1.00  0.00     0.000 HD 
BRANCH   8  11
HETATM   11  C   UNL     2     -10.815   8.083  70.481  1.00  0.00    -0.241 C  
HETATM   12  O   UNL     2     -12.244   8.034  70.483  1.00  0.00    -0.488 OA 
HETATM   13  H   UNL     2     -12.510   7.606  69.678  1.00  0.00     0.000 HD 
BRANCH  11  14
HETATM   14  C   UNL     2     -10.285   8.904  69.287  1.00  0.00    -0.209 C  
HETATM   15  H   UNL     2     -10.871  10.521  68.310  1.00  0.00     0.000 HD 
HETATM   16  O   UNL     2     -11.197  10.016  69.045  1.00  0.00    -0.207 OA 
BRANCH  14  17
HETATM   17  C   UNL     2      -9.985   8.142  67.996  1.00  0.00    -0.184 C  
HETATM   18  C   UNL     2      -8.451   8.064  67.787  1.00  0.00    -0.128 C  
HETATM   19  H   UNL     2     -10.525   8.255  66.107  1.00  0.00     0.000 HD 
HETATM   20  O   UNL     2     -10.712   8.728  66.909  1.00  0.00    -0.240 OA 
HETATM   21  O   UNL     2      -7.862   7.674  68.845  1.00  0.00    -0.117 OA 
HETATM   22  O   UNL     2      -8.039   8.345  66.644  1.00  0.00    -0.099 OA 
ENDBRANCH  14  17
ENDBRANCH  11  14
ENDBRANCH   8  11
ENDBRANCH   3   8
BRANCH   7  23
HETATM   23  C   UNL     3     -10.581  17.413  66.460  1.00  0.00    -0.184 C  
HETATM   24  O   UNL     3      -9.588  18.048  65.629  1.00  0.00    -0.437 OA 
HETATM   25  H   UNL     3      -9.794  17.855  64.721  1.00  0.00     0.000 HD 
BRANCH  23  26
HETATM   26  C   UNL     3     -10.556  15.929  66.044  1.00  0.00    -0.323 C  
HETATM   27  O   UNL     3     -11.256  15.109  66.983  1.00  0.00    -0.335 OA 
HETATM   28  H   UNL     3     -11.240  14.194  66.726  1.00  0.00     0.000 HD 
BRANCH  26  29
HETATM   29  C   UNL     3     -11.017  15.555  64.619  1.00  0.00    -0.322 C  
HETATM   30  O   UNL     3     -11.657  16.649  63.942  1.00  0.00    -1.582 OA 
HETATM   31  H   UNL     3     -11.940  16.418  63.065  1.00  0.00     0.000 HD 
BRANCH  29  32
HETATM   32  C   UNL     3     -11.916  14.331  64.482  1.00  0.00    -0.462 C  
HETATM   33  C   UNL     3     -11.212  12.993  64.765  1.00  0.00    -0.317 C  
HETATM   34  O   UNL     3     -12.430  14.265  63.081  1.00  0.00    -1.102 OA 
HETATM   35  O   UNL     3     -10.758  12.442  63.678  1.00  0.00    -0.417 OA 
HETATM   36  O   UNL     3     -11.475  12.431  65.846  1.00  0.00    -0.337 OA 
HETATM   37  H   UNL     3     -12.990  13.503  62.995  1.00  0.00     0.000 HD 
ENDBRANCH  29  32
ENDBRANCH  26  29
ENDBRANCH  23  26
ENDBRANCH   7  23
TORSDOF 8
ENDMDL
MODEL       53
REMARK 921   NORMALIZED FREE ENERGY PREDICTED BY IDOCK:   -6.08 KCAL/MOL
REMARK 922        TOTAL FREE ENERGY PREDICTED BY IDOCK:  -10.99 KCAL/MOL
REMARK 923 INTER-LIGAND FREE ENERGY PREDICTED BY IDOCK:   -8.27 KCAL/MOL
REMARK 924 INTRA-LIGAND FREE ENERGY PREDICTED BY IDOCK:   -2.72 KCAL/MOL
REMARK 927      BINDING AFFINITY PREDICTED BY RF-SCORE:    0.00 PKD
ROOT
HETATM    1 CU   UNL     1      -9.268  13.855  64.998  1.00  0.00    -0.491 Cu 
HETATM    2  O   UNL     2      -8.797   8.140  63.224  1.00  0.00    -0.332 OA 
HETATM    3  C   UNL     2      -7.720   8.581  64.063  1.00  0.00    -0.137 C  
HETATM    4  H   UNL     2      -8.529   7.315  62.836  1.00  0.00     0.000 HD 
HETATM    5  O   UNL     3      -6.706  20.639  65.893  1.00  0.00    -0.315 OA 
HETATM    6  H   UNL     3      -5.908  20.464  65.408  1.00  0.00     0.000 HD 
HETATM    7  C   UNL     3      -7.660  19.599  65.596  1.00  0.00    -0.175 C  
ENDROOT
BRANCH   3   8
HETATM    8  C   UNL     2      -8.151   9.907  64.686  1.00  0.00    -0.152 C  
HETATM    9  O   UNL     2      -7.956  10.974  63.737  1.00  0.00    -0.338 OA 
HETATM   10  H   UNL     2      -8.223  11.799  64.126  1.00  0.00     0.000 HD 
BRANCH   8  11
HETATM   11  C   UNL     2      -9.609   9.870  65.188  1.00  0.00    -0.300 C  
HETATM   12  O   UNL     2      -9.763   8.667  65.945  1.00  0.00    -0.418 OA 
HETATM   13  H   UNL     2     -10.660   8.644  66.254  1.00  0.00     0.000 HD 
BRANCH  11  14
HETATM   14  C   UNL     2      -9.864  11.117  66.058  1.00  0.00    -0.228 C  
HETATM   15  H   UNL     2      -8.735  12.445  66.994  1.00  0.00     0.000 HD 
HETATM   16  O   UNL     2      -8.578  11.677  66.457  1.00  0.00    -0.179 OA 
BRANCH  14  17
HETATM   17  C   UNL     2     -10.792  10.949  67.262  1.00  0.00    -0.287 C  
HETATM   18  C   UNL     2     -11.678  12.212  67.412  1.00  0.00    -0.304 C  
HETATM   19  H   UNL     2     -10.599  10.508  69.171  1.00  0.00     0.000 HD 
HETATM   20  O   UNL     2     -10.022  10.612  68.423  1.00  0.00    -0.154 OA 
HETATM   21  O   UNL     2     -12.212  12.533  66.302  1.00  0.00    -0.600 OA 
HETATM   22  O   UNL     2     -11.765  12.687  68.561  1.00  0.00    -0.295 OA 
ENDBRANCH  14  17
ENDBRANCH  11  14
ENDBRANCH   8  11
ENDBRANCH   3   8
BRANCH   7  23
HETATM   23  C   UNL     3      -8.949  19.881  66.379  1.00  0.00    -0.363 C  
HETATM   24  O   UNL     3      -9.865  20.571  65.504  1.00  0.00    -0.550 OA 
HETATM   25  H   UNL     3     -10.664  20.746  65.989  1.00  0.00     0.000 HD 
BRANCH  23  26
HETATM   26  C   UNL     3      -9.734  18.657  66.889  1.00  0.00    -0.314 C  
HETATM   27  O   UNL     3     -10.872  19.048  67.661  1.00  0.00    -0.438 OA 
HETATM   28  H   UNL     3     -11.356  18.292  67.975  1.00  0.00     0.000 HD 
BRANCH  26  29
HETATM   29  C   UNL     3     -10.172  17.584  65.868  1.00  0.00    -0.242 C  
HETATM   30  O   UNL     3     -10.935  18.135  64.783  1.00  0.00    -0.634 OA 
HETATM   31  H   UNL     3     -11.204  17.475  64.155  1.00  0.00     0.000 HD 
BRANCH  29  32
HETATM   32  C   UNL     3     -10.936  16.382  66.413  1.00  0.00     0.044 C  
HETATM   33  C   UNL     3     -10.242  15.670  67.587  1.00  0.00    -0.261 C  
HETATM   34  O   UNL     3     -11.090  15.374  65.322  1.00  0.00    -0.358 OA 
HETATM   35  O   UNL     3      -9.507  14.675  67.187  1.00  0.00    -0.215 OA 
HETATM   36  O   UNL     3     -10.725  15.846  68.723  1.00  0.00    -0.238 OA 
HETATM   37  H   UNL     3     -11.566  14.625  65.661  1.00  0.00     0.000 HD 
ENDBRANCH  29  32
ENDBRANCH  26  29
ENDBRANCH  23  26
ENDBRANCH   7  23
TORSDOF 8
ENDMDL
MODEL       54
REMARK 921   NORMALIZED FREE ENERGY PREDICTED BY IDOCK:   -6.07 KCAL/MOL
REMARK 922        TOTAL FREE ENERGY PREDICTED BY IDOCK:  -10.99 KCAL/MOL
REMARK 923 INTER-LIGAND FREE ENERGY PREDICTED BY IDOCK:   -9.16 KCAL/MOL
REMARK 924 INTRA-LIGAND FREE ENERGY PREDICTED BY IDOCK:   -1.83 KCAL/MOL
REMARK 927      BINDING AFFINITY PREDICTED BY RF-SCORE:    0.00 PKD
ROOT
HETATM    1 CU   UNL     1     -10.938   9.919  69.457  1.00  0.00    -0.191 Cu 
HETATM    2  O   UNL     2     -10.331   4.388  71.712  1.00  0.00    -0.161 OA 
HETATM    3  C   UNL     2     -10.008   5.435  72.638  1.00  0.00    -0.165 C  
HETATM    4  H   UNL     2     -10.010   3.576  72.086  1.00  0.00     0.000 HD 
HETATM    5  O   UNL     3      -8.551  16.672  68.014  1.00  0.00    -0.186 OA 
HETATM    6  H   UNL     3      -7.670  16.488  68.319  1.00  0.00     0.000 HD 
HETATM    7  C   UNL     3      -9.230  15.419  67.794  1.00  0.00    -0.183 C  
ENDROOT
BRANCH   3   8
HETATM    8  C   UNL     2     -10.525   6.740  72.039  1.00  0.00    -0.202 C  
HETATM    9  O   UNL     2     -10.523   7.771  73.046  1.00  0.00    -0.320 OA 
HETATM   10  H   UNL     2     -10.846   8.583  72.673  1.00  0.00     0.000 HD 
BRANCH   8  11
HETATM   11  C   UNL     2      -9.717   7.174  70.799  1.00  0.00    -0.171 C  
HETATM   12  O   UNL     2      -8.515   6.400  70.788  1.00  0.00    -0.131 OA 
HETATM   13  H   UNL     2      -8.017   6.667  70.024  1.00  0.00     0.000 HD 
BRANCH  11  14
HETATM   14  C   UNL     2     -10.565   6.909  69.538  1.00  0.00    -0.236 C  
HETATM   15  H   UNL     2     -12.384   6.218  69.175  1.00  0.00     0.000 HD 
HETATM   16  O   UNL     2     -11.861   6.382  69.951  1.00  0.00    -0.384 OA 
BRANCH  14  17
HETATM   17  C   UNL     2      -9.938   6.044  68.445  1.00  0.00    -0.145 C  
HETATM   18  C   UNL     2     -10.633   6.340  67.090  1.00  0.00    -0.311 C  
HETATM   19  H   UNL     2      -9.570   4.131  68.165  1.00  0.00     0.000 HD 
HETATM   20  O   UNL     2      -9.959   4.669  68.845  1.00  0.00    -0.164 OA 
HETATM   21  O   UNL     2     -10.706   7.592  66.875  1.00  0.00    -0.352 OA 
HETATM   22  O   UNL     2     -10.969   5.345  66.418  1.00  0.00    -0.243 OA 
ENDBRANCH  14  17
ENDBRANCH  11  14
ENDBRANCH   8  11
ENDBRANCH   3   8
BRANCH   7  23
HETATM   23  C   UNL     3     -10.653  15.715  67.301  1.00  0.00    -0.305 C  
HETATM   24  O   UNL     3     -11.259  16.652  68.215  1.00  0.00    -0.349 OA 
HETATM   25  H   UNL     3     -12.141  16.835  67.910  1.00  0.00     0.000 HD 
BRANCH  23  26
HETATM   26  C   UNL     3     -10.784  16.372  65.914  1.00  0.00    -0.214 C  
HETATM   27  O   UNL     3      -9.638  17.167  65.599  1.00  0.00    -0.535 OA 
HETATM   28  H   UNL     3      -9.719  17.572  64.743  1.00  0.00     0.000 HD 
BRANCH  26  29
HETATM   29  C   UNL     3     -11.114  15.476  64.700  1.00  0.00    -0.359 C  
HETATM   30  O   UNL     3     -11.963  16.133  63.745  1.00  0.00    -1.394 OA 
HETATM   31  H   UNL     3     -12.166  15.581  62.999  1.00  0.00     0.000 HD 
BRANCH  29  32
HETATM   32  C   UNL     3     -11.717  14.107  64.996  1.00  0.00    -0.376 C  
HETATM   33  C   UNL     3     -11.667  13.125  63.812  1.00  0.00    -0.461 C  
HETATM   34  O   UNL     3     -13.155  14.281  65.357  1.00  0.00    -0.685 OA 
HETATM   35  O   UNL     3     -12.763  13.152  63.111  1.00  0.00    -0.607 OA 
HETATM   36  O   UNL     3     -10.831  12.203  63.874  1.00  0.00    -0.331 OA 
HETATM   37  H   UNL     3     -13.531  13.428  65.541  1.00  0.00     0.000 HD 
ENDBRANCH  29  32
ENDBRANCH  26  29
ENDBRANCH  23  26
ENDBRANCH   7  23
TORSDOF 8
ENDMDL
MODEL       55
REMARK 921   NORMALIZED FREE ENERGY PREDICTED BY IDOCK:   -6.07 KCAL/MOL
REMARK 922        TOTAL FREE ENERGY PREDICTED BY IDOCK:  -10.98 KCAL/MOL
REMARK 923 INTER-LIGAND FREE ENERGY PREDICTED BY IDOCK:   -9.11 KCAL/MOL
REMARK 924 INTRA-LIGAND FREE ENERGY PREDICTED BY IDOCK:   -1.87 KCAL/MOL
REMARK 927      BINDING AFFINITY PREDICTED BY RF-SCORE:    0.00 PKD
ROOT
HETATM    1 CU   UNL     1     -10.403  10.610  66.280  1.00  0.00    -0.197 Cu 
HETATM    2  O   UNL     2     -10.945   4.661  65.681  1.00  0.00    -0.745 OA 
HETATM    3  C   UNL     2     -10.121   5.064  66.784  1.00  0.00    -0.239 C  
HETATM    4  H   UNL     2     -10.799   3.732  65.548  1.00  0.00     0.000 HD 
HETATM    5  O   UNL     3      -6.538  16.763  67.042  1.00  0.00    -0.167 OA 
HETATM    6  H   UNL     3      -5.704  16.323  66.920  1.00  0.00     0.000 HD 
HETATM    7  C   UNL     3      -7.588  15.894  66.570  1.00  0.00     0.015 C  
ENDROOT
BRANCH   3   8
HETATM    8  C   UNL     2     -10.355   6.558  66.997  1.00  0.00    -0.253 C  
HETATM    9  O   UNL     2     -11.640   6.763  67.616  1.00  0.00    -0.633 OA 
HETATM   10  H   UNL     2     -11.787   7.692  67.748  1.00  0.00     0.000 HD 
BRANCH   8  11
HETATM   11  C   UNL     2      -9.230   7.213  67.823  1.00  0.00    -0.125 C  
HETATM   12  O   UNL     2      -8.342   7.844  66.897  1.00  0.00    -0.113 OA 
HETATM   13  H   UNL     2      -7.649   8.248  67.406  1.00  0.00     0.000 HD 
BRANCH  11  14
HETATM   14  C   UNL     2      -9.858   8.242  68.785  1.00  0.00    -0.173 C  
HETATM   15  H   UNL     2      -9.968  10.216  68.874  1.00  0.00     0.000 HD 
HETATM   16  O   UNL     2      -9.581   9.582  68.281  1.00  0.00    -0.137 OA 
BRANCH  14  17
HETATM   17  C   UNL     2      -9.497   8.123  70.266  1.00  0.00    -0.170 C  
HETATM   18  C   UNL     2     -10.782   7.860  71.092  1.00  0.00    -0.227 C  
HETATM   19  H   UNL     2      -8.519   9.196  71.595  1.00  0.00     0.000 HD 
HETATM   20  O   UNL     2      -8.743   9.270  70.674  1.00  0.00    -0.211 OA 
HETATM   21  O   UNL     2     -11.473   6.921  70.582  1.00  0.00    -0.297 OA 
HETATM   22  O   UNL     2     -10.926   8.554  72.118  1.00  0.00    -0.312 OA 
ENDBRANCH  14  17
ENDBRANCH  11  14
ENDBRANCH   8  11
ENDBRANCH   3   8
BRANCH   7  23
HETATM   23  C   UNL     3      -8.934  16.604  66.767  1.00  0.00    -0.237 C  
HETATM   24  O   UNL     3      -8.857  17.897  66.133  1.00  0.00    -0.452 OA 
HETATM   25  H   UNL     3      -9.691  18.337  66.255  1.00  0.00     0.000 HD 
BRANCH  23  26
HETATM   26  C   UNL     3     -10.172  15.930  66.144  1.00  0.00    -0.324 C  
HETATM   27  O   UNL     3     -10.537  16.545  64.906  1.00  0.00    -0.689 OA 
HETATM   28  H   UNL     3     -11.300  16.129  64.522  1.00  0.00     0.000 HD 
BRANCH  26  29
HETATM   29  C   UNL     3     -10.159  14.397  65.951  1.00  0.00    -0.325 C  
HETATM   30  O   UNL     3     -10.001  14.017  64.575  1.00  0.00    -0.663 OA 
HETATM   31  H   UNL     3      -9.993  13.074  64.457  1.00  0.00     0.000 HD 
BRANCH  29  32
HETATM   32  C   UNL     3     -11.341  13.619  66.518  1.00  0.00    -0.319 C  
HETATM   33  C   UNL     3     -12.312  13.080  65.453  1.00  0.00    -0.486 C  
HETATM   34  O   UNL     3     -12.129  14.521  67.409  1.00  0.00    -0.538 OA 
HETATM   35  O   UNL     3     -13.303  13.896  65.240  1.00  0.00    -0.732 OA 
HETATM   36  O   UNL     3     -12.276  11.856  65.218  1.00  0.00    -0.357 OA 
HETATM   37  H   UNL     3     -12.866  14.036  67.762  1.00  0.00     0.000 HD 
ENDBRANCH  29  32
ENDBRANCH  26  29
ENDBRANCH  23  26
ENDBRANCH   7  23
TORSDOF 8
ENDMDL
MODEL       56
REMARK 921   NORMALIZED FREE ENERGY PREDICTED BY IDOCK:   -6.05 KCAL/MOL
REMARK 922        TOTAL FREE ENERGY PREDICTED BY IDOCK:  -10.95 KCAL/MOL
REMARK 923 INTER-LIGAND FREE ENERGY PREDICTED BY IDOCK:   -9.17 KCAL/MOL
REMARK 924 INTRA-LIGAND FREE ENERGY PREDICTED BY IDOCK:   -1.78 KCAL/MOL
REMARK 927      BINDING AFFINITY PREDICTED BY RF-SCORE:    0.00 PKD
ROOT
HETATM    1 CU   UNL     1      -9.227   9.317  69.615  1.00  0.00    -0.131 Cu 
HETATM    2  O   UNL     2      -9.590   4.486  73.160  1.00  0.00    -0.129 OA 
HETATM    3  C   UNL     2     -10.372   5.602  73.611  1.00  0.00    -0.240 C  
HETATM    4  H   UNL     2      -9.549   3.866  73.878  1.00  0.00     0.000 HD 
HETATM    5  O   UNL     3      -8.110  16.432  68.379  1.00  0.00    -0.172 OA 
HETATM    6  H   UNL     3      -7.832  16.602  69.272  1.00  0.00     0.000 HD 
HETATM    7  C   UNL     3      -8.054  15.010  68.146  1.00  0.00    -0.131 C  
ENDROOT
BRANCH   3   8
HETATM    8  C   UNL     2     -10.439   6.599  72.457  1.00  0.00    -0.205 C  
HETATM    9  O   UNL     2      -9.289   6.432  71.605  1.00  0.00    -0.145 OA 
HETATM   10  H   UNL     2      -9.330   7.053  70.887  1.00  0.00     0.000 HD 
BRANCH   8  11
HETATM   11  C   UNL     2     -11.749   6.474  71.652  1.00  0.00    -0.324 C  
HETATM   12  O   UNL     2     -12.782   6.134  72.581  1.00  0.00    -0.470 OA 
HETATM   13  H   UNL     2     -13.589   6.057  72.086  1.00  0.00     0.000 HD 
BRANCH  11  14
HETATM   14  C   UNL     2     -12.037   7.824  70.964  1.00  0.00    -0.244 C  
HETATM   15  H   UNL     2     -11.440   8.723  69.305  1.00  0.00     0.000 HD 
HETATM   16  O   UNL     2     -11.263   7.892  69.729  1.00  0.00    -0.143 OA 
BRANCH  14  17
HETATM   17  C   UNL     2     -11.851   9.088  71.803  1.00  0.00    -0.372 C  
HETATM   18  C   UNL     2     -13.219   9.797  71.978  1.00  0.00    -0.460 C  
HETATM   19  H   UNL     2     -10.705  10.688  71.752  1.00  0.00     0.000 HD 
HETATM   20  O   UNL     2     -10.820   9.902  71.231  1.00  0.00    -0.289 OA 
HETATM   21  O   UNL     2     -14.119   8.977  72.348  1.00  0.00    -0.469 OA 
HETATM   22  O   UNL     2     -13.228  11.028  71.776  1.00  0.00    -0.446 OA 
ENDBRANCH  14  17
ENDBRANCH  11  14
ENDBRANCH   8  11
ENDBRANCH   3   8
BRANCH   7  23
HETATM   23  C   UNL     3      -8.504  14.734  66.705  1.00  0.00    -0.144 C  
HETATM   24  O   UNL     3      -8.742  13.317  66.572  1.00  0.00    -0.431 OA 
HETATM   25  H   UNL     3      -9.020  13.146  65.679  1.00  0.00     0.000 HD 
BRANCH  23  26
HETATM   26  C   UNL     3      -9.816  15.401  66.248  1.00  0.00    -0.297 C  
HETATM   27  O   UNL     3      -9.568  16.619  65.543  1.00  0.00    -0.502 OA 
HETATM   28  H   UNL     3     -10.377  17.030  65.262  1.00  0.00     0.000 HD 
BRANCH  26  29
HETATM   29  C   UNL     3     -10.829  14.559  65.442  1.00  0.00    -0.354 C  
HETATM   30  O   UNL     3     -11.243  15.209  64.229  1.00  0.00    -0.653 OA 
HETATM   31  H   UNL     3     -11.866  14.691  63.733  1.00  0.00     0.000 HD 
BRANCH  29  32
HETATM   32  C   UNL     3     -12.084  14.098  66.175  1.00  0.00    -0.435 C  
HETATM   33  C   UNL     3     -11.814  13.159  67.364  1.00  0.00    -0.361 C  
HETATM   34  O   UNL     3     -12.954  13.350  65.219  1.00  0.00    -0.681 OA 
HETATM   35  O   UNL     3     -11.885  11.907  67.021  1.00  0.00    -0.585 OA 
HETATM   36  O   UNL     3     -11.941  13.639  68.507  1.00  0.00    -0.356 OA 
HETATM   37  H   UNL     3     -13.736  13.063  65.675  1.00  0.00     0.000 HD 
ENDBRANCH  29  32
ENDBRANCH  26  29
ENDBRANCH  23  26
ENDBRANCH   7  23
TORSDOF 8
ENDMDL
MODEL       57
REMARK 921   NORMALIZED FREE ENERGY PREDICTED BY IDOCK:   -6.04 KCAL/MOL
REMARK 922        TOTAL FREE ENERGY PREDICTED BY IDOCK:  -10.94 KCAL/MOL
REMARK 923 INTER-LIGAND FREE ENERGY PREDICTED BY IDOCK:   -8.51 KCAL/MOL
REMARK 924 INTRA-LIGAND FREE ENERGY PREDICTED BY IDOCK:   -2.42 KCAL/MOL
REMARK 927      BINDING AFFINITY PREDICTED BY RF-SCORE:    0.00 PKD
ROOT
HETATM    1 CU   UNL     1     -11.740   9.147  69.369  1.00  0.00    -0.419 Cu 
HETATM    2  O   UNL     2     -11.846   4.732  73.436  1.00  0.00    -0.413 OA 
HETATM    3  C   UNL     2     -10.610   4.832  72.715  1.00  0.00    -0.211 C  
HETATM    4  H   UNL     2     -11.838   3.897  73.890  1.00  0.00     0.000 HD 
HETATM    5  O   UNL     3     -10.607  11.808  62.660  1.00  0.00    -0.437 OA 
HETATM    6  H   UNL     3     -10.455  10.949  62.282  1.00  0.00     0.000 HD 
HETATM    7  C   UNL     3     -11.251  11.637  63.939  1.00  0.00    -0.397 C  
ENDROOT
BRANCH   3   8
HETATM    8  C   UNL     2     -10.622   6.173  71.986  1.00  0.00    -0.218 C  
HETATM    9  O   UNL     2      -9.310   6.765  72.038  1.00  0.00    -0.143 OA 
HETATM   10  H   UNL     2      -9.318   7.600  71.585  1.00  0.00     0.000 HD 
BRANCH   8  11
HETATM   11  C   UNL     2     -11.115   6.042  70.530  1.00  0.00    -0.314 C  
HETATM   12  O   UNL     2     -12.294   6.843  70.412  1.00  0.00    -0.613 OA 
HETATM   13  H   UNL     2     -12.598   6.763  69.516  1.00  0.00     0.000 HD 
BRANCH  11  14
HETATM   14  C   UNL     2     -10.003   6.541  69.585  1.00  0.00    -0.164 C  
HETATM   15  H   UNL     2      -9.205   8.296  69.140  1.00  0.00     0.000 HD 
HETATM   16  O   UNL     2      -9.889   7.988  69.722  1.00  0.00    -0.179 OA 
BRANCH  14  17
HETATM   17  C   UNL     2     -10.100   6.130  68.116  1.00  0.00    -0.157 C  
HETATM   18  C   UNL     2      -8.782   6.498  67.388  1.00  0.00    -0.117 C  
HETATM   19  H   UNL     2     -11.345   6.432  66.621  1.00  0.00     0.000 HD 
HETATM   20  O   UNL     2     -11.285   6.687  67.535  1.00  0.00    -0.319 OA 
HETATM   21  O   UNL     2      -7.767   6.094  68.042  1.00  0.00    -0.099 OA 
HETATM   22  O   UNL     2      -8.905   7.078  66.291  1.00  0.00    -0.140 OA 
ENDBRANCH  14  17
ENDBRANCH  11  14
ENDBRANCH   8  11
ENDBRANCH   3   8
BRANCH   7  23
HETATM   23  C   UNL     3     -11.497  13.023  64.549  1.00  0.00    -0.347 C  
HETATM   24  O   UNL     3     -12.910  13.155  64.811  1.00  0.00    -0.701 OA 
HETATM   25  H   UNL     3     -13.062  14.014  65.189  1.00  0.00     0.000 HD 
BRANCH  23  26
HETATM   26  C   UNL     3     -10.815  13.319  65.899  1.00  0.00    -0.277 C  
HETATM   27  O   UNL     3     -10.180  14.600  65.897  1.00  0.00    -0.293 OA 
HETATM   28  H   UNL     3      -9.759  14.781  66.730  1.00  0.00     0.000 HD 
BRANCH  26  29
HETATM   29  C   UNL     3     -11.647  13.180  67.192  1.00  0.00    -0.361 C  
HETATM   30  O   UNL     3     -12.254  14.419  67.592  1.00  0.00    -0.598 OA 
HETATM   31  H   UNL     3     -12.766  14.334  68.388  1.00  0.00     0.000 HD 
BRANCH  29  32
HETATM   32  C   UNL     3     -10.941  12.592  68.410  1.00  0.00    -0.257 C  
HETATM   33  C   UNL     3     -11.853  12.385  69.631  1.00  0.00    -0.311 C  
HETATM   34  O   UNL     3      -9.852  13.523  68.831  1.00  0.00    -0.413 OA 
HETATM   35  O   UNL     3     -11.818  13.401  70.443  1.00  0.00    -0.297 OA 
HETATM   36  O   UNL     3     -12.188  11.215  69.898  1.00  0.00    -0.314 OA 
HETATM   37  H   UNL     3      -9.413  13.157  69.590  1.00  0.00     0.000 HD 
ENDBRANCH  29  32
ENDBRANCH  26  29
ENDBRANCH  23  26
ENDBRANCH   7  23
TORSDOF 8
ENDMDL
MODEL       58
REMARK 921   NORMALIZED FREE ENERGY PREDICTED BY IDOCK:   -6.03 KCAL/MOL
REMARK 922        TOTAL FREE ENERGY PREDICTED BY IDOCK:  -10.92 KCAL/MOL
REMARK 923 INTER-LIGAND FREE ENERGY PREDICTED BY IDOCK:   -9.34 KCAL/MOL
REMARK 924 INTRA-LIGAND FREE ENERGY PREDICTED BY IDOCK:   -1.58 KCAL/MOL
REMARK 927      BINDING AFFINITY PREDICTED BY RF-SCORE:    0.00 PKD
ROOT
HETATM    1 CU   UNL     1      -9.019  11.301  67.066  1.00  0.00    -0.139 Cu 
HETATM    2  O   UNL     2      -7.685   5.698  68.757  1.00  0.00    -0.086 OA 
HETATM    3  C   UNL     2      -8.884   6.216  69.350  1.00  0.00    -0.126 C  
HETATM    4  H   UNL     2      -7.454   4.910  69.237  1.00  0.00     0.000 HD 
HETATM    5  O   UNL     3     -10.778  18.268  68.388  1.00  0.00    -0.314 OA 
HETATM    6  H   UNL     3     -10.666  18.179  69.327  1.00  0.00     0.000 HD 
HETATM    7  C   UNL     3     -10.133  17.152  67.741  1.00  0.00    -0.306 C  
ENDROOT
BRANCH   3   8
HETATM    8  C   UNL     2      -9.255   7.481  68.579  1.00  0.00    -0.143 C  
HETATM    9  O   UNL     2      -9.231   7.210  67.164  1.00  0.00    -0.128 OA 
HETATM   10  H   UNL     2      -9.462   7.997  66.685  1.00  0.00     0.000 HD 
BRANCH   8  11
HETATM   11  C   UNL     2     -10.621   8.050  69.013  1.00  0.00    -0.154 C  
HETATM   12  O   UNL     2     -11.097   7.230  70.083  1.00  0.00    -0.263 OA 
HETATM   13  H   UNL     2     -11.939   7.580  70.351  1.00  0.00     0.000 HD 
BRANCH  11  14
HETATM   14  C   UNL     2     -10.425   9.510  69.471  1.00  0.00    -0.220 C  
HETATM   15  H   UNL     2      -9.211  10.452  70.717  1.00  0.00     0.000 HD 
HETATM   16  O   UNL     2      -9.332   9.553  70.435  1.00  0.00    -0.242 OA 
BRANCH  14  17
HETATM   17  C   UNL     2     -11.657  10.247  69.998  1.00  0.00    -0.276 C  
HETATM   18  C   UNL     2     -11.684  11.686  69.422  1.00  0.00    -0.340 C  
HETATM   19  H   UNL     2     -12.457  10.627  71.755  1.00  0.00     0.000 HD 
HETATM   20  O   UNL     2     -11.692  10.169  71.428  1.00  0.00    -0.360 OA 
HETATM   21  O   UNL     2     -11.500  11.681  68.163  1.00  0.00    -0.266 OA 
HETATM   22  O   UNL     2     -11.912  12.599  70.240  1.00  0.00    -0.348 OA 
ENDBRANCH  14  17
ENDBRANCH  11  14
ENDBRANCH   8  11
ENDBRANCH   3   8
BRANCH   7  23
HETATM   23  C   UNL     3     -10.315  17.295  66.224  1.00  0.00    -0.322 C  
HETATM   24  O   UNL     3      -9.009  17.427  65.625  1.00  0.00    -0.449 OA 
HETATM   25  H   UNL     3      -9.121  17.516  64.686  1.00  0.00     0.000 HD 
BRANCH  23  26
HETATM   26  C   UNL     3     -10.971  16.111  65.489  1.00  0.00    -0.177 C  
HETATM   27  O   UNL     3     -11.095  16.367  64.088  1.00  0.00    -1.226 OA 
HETATM   28  H   UNL     3     -11.500  15.636  63.634  1.00  0.00     0.000 HD 
BRANCH  26  29
HETATM   29  C   UNL     3     -10.373  14.700  65.683  1.00  0.00    -0.351 C  
HETATM   30  O   UNL     3      -8.955  14.728  65.909  1.00  0.00    -0.475 OA 
HETATM   31  H   UNL     3      -8.588  13.860  66.029  1.00  0.00     0.000 HD 
BRANCH  29  32
HETATM   32  C   UNL     3     -10.651  13.674  64.589  1.00  0.00    -0.430 C  
HETATM   33  C   UNL     3     -12.145  13.401  64.342  1.00  0.00    -0.416 C  
HETATM   34  O   UNL     3     -10.028  12.374  64.978  1.00  0.00    -0.359 OA 
HETATM   35  O   UNL     3     -12.573  12.381  65.026  1.00  0.00    -0.601 OA 
HETATM   36  O   UNL     3     -12.647  13.883  63.308  1.00  0.00    -0.824 OA 
HETATM   37  H   UNL     3     -10.201  11.735  64.297  1.00  0.00     0.000 HD 
ENDBRANCH  29  32
ENDBRANCH  26  29
ENDBRANCH  23  26
ENDBRANCH   7  23
TORSDOF 8
ENDMDL
MODEL       59
REMARK 921   NORMALIZED FREE ENERGY PREDICTED BY IDOCK:   -6.03 KCAL/MOL
REMARK 922        TOTAL FREE ENERGY PREDICTED BY IDOCK:  -10.92 KCAL/MOL
REMARK 923 INTER-LIGAND FREE ENERGY PREDICTED BY IDOCK:   -8.57 KCAL/MOL
REMARK 924 INTRA-LIGAND FREE ENERGY PREDICTED BY IDOCK:   -2.36 KCAL/MOL
REMARK 927      BINDING AFFINITY PREDICTED BY RF-SCORE:    0.00 PKD
ROOT
HETATM    1 CU   UNL     1     -10.130  11.035  68.840  1.00  0.00    -0.156 Cu 
HETATM    2  O   UNL     2      -9.944  17.029  69.123  1.00  0.00    -0.271 OA 
HETATM    3  C   UNL     2     -11.204  16.504  68.678  1.00  0.00    -0.297 C  
HETATM    4  H   UNL     2      -9.948  17.960  68.935  1.00  0.00     0.000 HD 
HETATM    5  O   UNL     3     -11.459   4.704  65.444  1.00  0.00    -1.018 OA 
HETATM    6  H   UNL     3     -11.636   5.122  64.609  1.00  0.00     0.000 HD 
HETATM    7  C   UNL     3     -10.773   5.648  66.292  1.00  0.00    -0.076 C  
ENDROOT
BRANCH   3   8
HETATM    8  C   UNL     2     -11.198  15.008  68.979  1.00  0.00    -0.268 C  
HETATM    9  O   UNL     2     -12.553  14.531  69.092  1.00  0.00    -0.566 OA 
HETATM   10  H   UNL     2     -12.549  13.599  69.280  1.00  0.00     0.000 HD 
BRANCH   8  11
HETATM   11  C   UNL     2     -10.412  14.203  67.924  1.00  0.00    -0.237 C  
HETATM   12  O   UNL     2      -9.606  13.256  68.631  1.00  0.00    -0.371 OA 
HETATM   13  H   UNL     2      -9.122  12.761  67.981  1.00  0.00     0.000 HD 
BRANCH  11  14
HETATM   14  C   UNL     2     -11.417  13.496  66.992  1.00  0.00    -0.340 C  
HETATM   15  H   UNL     2     -12.370  11.762  66.991  1.00  0.00     0.000 HD 
HETATM   16  O   UNL     2     -11.751  12.197  67.565  1.00  0.00    -0.415 OA 
BRANCH  14  17
HETATM   17  C   UNL     2     -11.030  13.367  65.518  1.00  0.00    -0.283 C  
HETATM   18  C   UNL     2     -12.286  13.007  64.684  1.00  0.00    -0.422 C  
HETATM   19  H   UNL     2      -9.695  12.372  64.468  1.00  0.00     0.000 HD 
HETATM   20  O   UNL     2      -9.935  12.453  65.384  1.00  0.00    -0.267 OA 
HETATM   21  O   UNL     2     -13.262  13.774  64.967  1.00  0.00    -0.733 OA 
HETATM   22  O   UNL     2     -12.150  12.080  63.861  1.00  0.00    -0.440 OA 
ENDBRANCH  14  17
ENDBRANCH  11  14
ENDBRANCH   8  11
ENDBRANCH   3   8
BRANCH   7  23
HETATM   23  C   UNL     3     -10.487   4.973  67.640  1.00  0.00    -0.005 C  
HETATM   24  O   UNL     3      -9.769   3.747  67.386  1.00  0.00    -0.197 OA 
HETATM   25  H   UNL     3      -9.592   3.329  68.221  1.00  0.00     0.000 HD 
BRANCH  23  26
HETATM   26  C   UNL     3      -9.601   5.752  68.632  1.00  0.00    -0.127 C  
HETATM   27  O   UNL     3      -8.726   6.657  67.955  1.00  0.00    -0.118 OA 
HETATM   28  H   UNL     3      -8.180   7.137  68.567  1.00  0.00     0.000 HD 
BRANCH  26  29
HETATM   29  C   UNL     3     -10.283   6.500  69.798  1.00  0.00    -0.187 C  
HETATM   30  O   UNL     3     -11.696   6.249  69.863  1.00  0.00    -0.449 OA 
HETATM   31  H   UNL     3     -12.115   6.710  70.581  1.00  0.00     0.000 HD 
BRANCH  29  32
HETATM   32  C   UNL     3     -10.074   8.009  69.868  1.00  0.00    -0.198 C  
HETATM   33  C   UNL     3     -10.806   8.696  71.034  1.00  0.00    -0.247 C  
HETATM   34  O   UNL     3     -10.587   8.626  68.608  1.00  0.00    -0.313 OA 
HETATM   35  O   UNL     3     -11.971   9.150  70.678  1.00  0.00    -0.239 OA 
HETATM   36  O   UNL     3     -10.111   9.070  71.999  1.00  0.00    -0.327 OA 
HETATM   37  H   UNL     3     -10.457   9.566  68.651  1.00  0.00     0.000 HD 
ENDBRANCH  29  32
ENDBRANCH  26  29
ENDBRANCH  23  26
ENDBRANCH   7  23
TORSDOF 8
ENDMDL
MODEL       60
REMARK 921   NORMALIZED FREE ENERGY PREDICTED BY IDOCK:   -6.03 KCAL/MOL
REMARK 922        TOTAL FREE ENERGY PREDICTED BY IDOCK:  -10.92 KCAL/MOL
REMARK 923 INTER-LIGAND FREE ENERGY PREDICTED BY IDOCK:   -9.37 KCAL/MOL
REMARK 924 INTRA-LIGAND FREE ENERGY PREDICTED BY IDOCK:   -1.55 KCAL/MOL
REMARK 927      BINDING AFFINITY PREDICTED BY RF-SCORE:    0.00 PKD
ROOT
HETATM    1 CU   UNL     1     -12.693   9.796  69.614  1.00  0.00    -0.491 Cu 
HETATM    2  O   UNL     2     -12.989   4.906  73.083  1.00  0.00    -0.193 OA 
HETATM    3  C   UNL     2     -11.658   5.405  72.890  1.00  0.00    -0.228 C  
HETATM    4  H   UNL     2     -12.909   4.037  73.459  1.00  0.00     0.000 HD 
HETATM    5  O   UNL     3     -10.069  13.655  63.992  1.00  0.00    -0.710 OA 
HETATM    6  H   UNL     3      -9.563  12.926  63.652  1.00  0.00     0.000 HD 
HETATM    7  C   UNL     3     -11.045  13.142  64.921  1.00  0.00    -0.314 C  
ENDROOT
BRANCH   3   8
HETATM    8  C   UNL     2     -11.785   6.802  72.287  1.00  0.00    -0.263 C  
HETATM    9  O   UNL     2     -11.333   7.784  73.240  1.00  0.00    -0.562 OA 
HETATM   10  H   UNL     2     -11.412   8.653  72.865  1.00  0.00     0.000 HD 
BRANCH   8  11
HETATM   11  C   UNL     2     -11.026   6.933  70.951  1.00  0.00    -0.253 C  
HETATM   12  O   UNL     2     -11.986   6.773  69.904  1.00  0.00    -0.651 OA 
HETATM   13  H   UNL     2     -11.519   6.854  69.081  1.00  0.00     0.000 HD 
BRANCH  11  14
HETATM   14  C   UNL     2     -10.361   8.323  70.894  1.00  0.00    -0.192 C  
HETATM   15  H   UNL     2     -10.938  10.183  71.247  1.00  0.00     0.000 HD 
HETATM   16  O   UNL     2     -11.346   9.327  71.281  1.00  0.00    -0.293 OA 
BRANCH  14  17
HETATM   17  C   UNL     2      -9.661   8.709  69.591  1.00  0.00    -0.179 C  
HETATM   18  C   UNL     2      -8.615   9.818  69.875  1.00  0.00    -0.218 C  
HETATM   19  H   UNL     2     -10.203   9.284  67.788  1.00  0.00     0.000 HD 
HETATM   20  O   UNL     2     -10.638   9.043  68.598  1.00  0.00    -0.212 OA 
HETATM   21  O   UNL     2      -7.878   9.511  70.866  1.00  0.00    -0.299 OA 
HETATM   22  O   UNL     2      -8.623  10.792  69.096  1.00  0.00    -0.150 OA 
ENDBRANCH  14  17
ENDBRANCH  11  14
ENDBRANCH   8  11
ENDBRANCH   3   8
BRANCH   7  23
HETATM   23  C   UNL     3     -11.862  14.319  65.469  1.00  0.00    -0.363 C  
HETATM   24  O   UNL     3     -13.260  13.973  65.387  1.00  0.00    -0.761 OA 
HETATM   25  H   UNL     3     -13.767  14.702  65.727  1.00  0.00     0.000 HD 
BRANCH  23  26
HETATM   26  C   UNL     3     -11.633  14.695  66.946  1.00  0.00    -0.362 C  
HETATM   27  O   UNL     3     -12.617  14.103  67.797  1.00  0.00    -0.459 OA 
HETATM   28  H   UNL     3     -12.475  14.335  68.708  1.00  0.00     0.000 HD 
BRANCH  26  29
HETATM   29  C   UNL     3     -10.236  14.454  67.560  1.00  0.00    -0.240 C  
HETATM   30  O   UNL     3     -10.298  14.124  68.957  1.00  0.00    -0.313 OA 
HETATM   31  H   UNL     3      -9.439  13.976  69.335  1.00  0.00     0.000 HD 
BRANCH  29  32
HETATM   32  C   UNL     3      -9.204  15.563  67.388  1.00  0.00    -0.202 C  
HETATM   33  C   UNL     3      -9.795  16.915  66.952  1.00  0.00    -0.276 C  
HETATM   34  O   UNL     3      -8.228  15.153  66.334  1.00  0.00    -0.366 OA 
HETATM   35  O   UNL     3      -9.767  17.064  65.660  1.00  0.00    -0.543 OA 
HETATM   36  O   UNL     3      -9.861  17.811  67.816  1.00  0.00    -0.276 OA 
HETATM   37  H   UNL     3      -7.585  15.844  66.227  1.00  0.00     0.000 HD 
ENDBRANCH  29  32
ENDBRANCH  26  29
ENDBRANCH  23  26
ENDBRANCH   7  23
TORSDOF 8
ENDMDL
MODEL       61
REMARK 921   NORMALIZED FREE ENERGY PREDICTED BY IDOCK:   -6.02 KCAL/MOL
REMARK 922        TOTAL FREE ENERGY PREDICTED BY IDOCK:  -10.90 KCAL/MOL
REMARK 923 INTER-LIGAND FREE ENERGY PREDICTED BY IDOCK:   -9.02 KCAL/MOL
REMARK 924 INTRA-LIGAND FREE ENERGY PREDICTED BY IDOCK:   -1.88 KCAL/MOL
REMARK 927      BINDING AFFINITY PREDICTED BY RF-SCORE:    0.00 PKD
ROOT
HETATM    1 CU   UNL     1     -10.257  10.646  68.555  1.00  0.00    -0.147 Cu 
HETATM    2  O   UNL     2     -10.849   5.547  71.667  1.00  0.00    -0.245 OA 
HETATM    3  C   UNL     2     -12.021   6.375  71.675  1.00  0.00    -0.291 C  
HETATM    4  H   UNL     2     -10.969   4.887  72.340  1.00  0.00     0.000 HD 
HETATM    5  O   UNL     3     -10.688  17.898  67.774  1.00  0.00    -0.400 OA 
HETATM    6  H   UNL     3     -10.901  18.042  68.689  1.00  0.00     0.000 HD 
HETATM    7  C   UNL     3     -10.148  16.568  67.633  1.00  0.00    -0.266 C  
ENDROOT
BRANCH   3   8
HETATM    8  C   UNL     2     -11.829   7.434  70.593  1.00  0.00    -0.215 C  
HETATM    9  O   UNL     2     -12.464   8.663  70.998  1.00  0.00    -0.452 OA 
HETATM   10  H   UNL     2     -12.345   9.322  70.324  1.00  0.00     0.000 HD 
BRANCH   8  11
HETATM   11  C   UNL     2     -10.341   7.663  70.257  1.00  0.00    -0.214 C  
HETATM   12  O   UNL     2     -10.284   8.159  68.917  1.00  0.00    -0.202 OA 
HETATM   13  H   UNL     2      -9.368   8.300  68.709  1.00  0.00     0.000 HD 
BRANCH  11  14
HETATM   14  C   UNL     2      -9.760   8.683  71.256  1.00  0.00    -0.237 C  
HETATM   15  H   UNL     2      -9.246  10.593  71.193  1.00  0.00     0.000 HD 
HETATM   16  O   UNL     2      -9.604   9.965  70.577  1.00  0.00    -0.180 OA 
BRANCH  14  17
HETATM   17  C   UNL     2      -8.478   8.288  71.991  1.00  0.00    -0.170 C  
HETATM   18  C   UNL     2      -8.766   8.180  73.510  1.00  0.00    -0.249 C  
HETATM   19  H   UNL     2      -6.626   8.943  72.097  1.00  0.00     0.000 HD 
HETATM   20  O   UNL     2      -7.422   9.189  71.640  1.00  0.00    -0.326 OA 
HETATM   21  O   UNL     2      -9.807   7.483  73.733  1.00  0.00    -0.296 OA 
HETATM   22  O   UNL     2      -7.945   8.739  74.264  1.00  0.00    -0.378 OA 
ENDBRANCH  14  17
ENDBRANCH  11  14
ENDBRANCH   8  11
ENDBRANCH   3   8
BRANCH   7  23
HETATM   23  C   UNL     3      -9.805  16.335  66.156  1.00  0.00    -0.334 C  
HETATM   24  O   UNL     3      -8.627  15.505  66.093  1.00  0.00    -0.399 OA 
HETATM   25  H   UNL     3      -8.415  15.360  65.178  1.00  0.00     0.000 HD 
BRANCH  23  26
HETATM   26  C   UNL     3     -10.858  15.595  65.308  1.00  0.00    -0.406 C  
HETATM   27  O   UNL     3     -11.084  16.255  64.059  1.00  0.00    -1.204 OA 
HETATM   28  H   UNL     3     -11.733  15.798  63.536  1.00  0.00     0.000 HD 
BRANCH  26  29
HETATM   29  C   UNL     3     -10.664  14.086  65.043  1.00  0.00    -0.396 C  
HETATM   30  O   UNL     3     -10.168  13.818  63.721  1.00  0.00    -0.372 OA 
HETATM   31  H   UNL     3     -10.049  12.890  63.559  1.00  0.00     0.000 HD 
BRANCH  29  32
HETATM   32  C   UNL     3     -11.868  13.181  65.282  1.00  0.00    -0.365 C  
HETATM   33  C   UNL     3     -11.937  11.960  64.348  1.00  0.00    -0.223 C  
HETATM   34  O   UNL     3     -13.115  13.971  65.060  1.00  0.00    -0.742 OA 
HETATM   35  O   UNL     3     -12.666  12.193  63.296  1.00  0.00    -0.698 OA 
HETATM   36  O   UNL     3     -11.651  10.852  64.841  1.00  0.00     0.387 OA 
HETATM   37  H   UNL     3     -13.866  13.408  65.209  1.00  0.00     0.000 HD 
ENDBRANCH  29  32
ENDBRANCH  26  29
ENDBRANCH  23  26
ENDBRANCH   7  23
TORSDOF 8
ENDMDL
MODEL       62
REMARK 921   NORMALIZED FREE ENERGY PREDICTED BY IDOCK:   -6.01 KCAL/MOL
REMARK 922        TOTAL FREE ENERGY PREDICTED BY IDOCK:  -10.90 KCAL/MOL
REMARK 923 INTER-LIGAND FREE ENERGY PREDICTED BY IDOCK:   -8.55 KCAL/MOL
REMARK 924 INTRA-LIGAND FREE ENERGY PREDICTED BY IDOCK:   -2.35 KCAL/MOL
REMARK 927      BINDING AFFINITY PREDICTED BY RF-SCORE:    0.00 PKD
ROOT
HETATM    1 CU   UNL     1     -10.006  13.813  68.311  1.00  0.00    -0.192 Cu 
HETATM    2  O   UNL     2     -11.082   7.912  68.074  1.00  0.00    -0.457 OA 
HETATM    3  C   UNL     2     -10.469   8.442  66.890  1.00  0.00    -0.289 C  
HETATM    4  H   UNL     2     -11.395   7.040  67.860  1.00  0.00     0.000 HD 
HETATM    5  O   UNL     3     -10.365  20.619  65.678  1.00  0.00    -0.340 OA 
HETATM    6  H   UNL     3     -10.933  20.372  64.957  1.00  0.00     0.000 HD 
HETATM    7  C   UNL     3     -10.386  19.563  66.660  1.00  0.00    -0.465 C  
ENDROOT
BRANCH   3   8
HETATM    8  C   UNL     2      -9.966   9.842  67.233  1.00  0.00    -0.191 C  
HETATM    9  O   UNL     2      -8.928  10.223  66.309  1.00  0.00    -0.148 OA 
HETATM   10  H   UNL     2      -8.615  11.094  66.523  1.00  0.00     0.000 HD 
BRANCH   8  11
HETATM   11  C   UNL     2     -11.104  10.883  67.250  1.00  0.00    -0.283 C  
HETATM   12  O   UNL     2     -10.945  11.659  68.441  1.00  0.00    -0.193 OA 
HETATM   13  H   UNL     2     -11.645  12.300  68.452  1.00  0.00     0.000 HD 
BRANCH  11  14
HETATM   14  C   UNL     2     -10.989  11.763  65.989  1.00  0.00    -0.306 C  
HETATM   15  H   UNL     2      -9.775  13.199  65.371  1.00  0.00     0.000 HD 
HETATM   16  O   UNL     2      -9.847  12.657  66.147  1.00  0.00    -0.253 OA 
BRANCH  14  17
HETATM   17  C   UNL     2     -12.238  12.532  65.559  1.00  0.00    -0.377 C  
HETATM   18  C   UNL     2     -12.168  12.822  64.037  1.00  0.00    -0.441 C  
HETATM   19  H   UNL     2     -13.178  14.169  66.118  1.00  0.00     0.000 HD 
HETATM   20  O   UNL     2     -12.401  13.691  66.386  1.00  0.00    -0.424 OA 
HETATM   21  O   UNL     2     -11.873  11.771  63.382  1.00  0.00    -0.453 OA 
HETATM   22  O   UNL     2     -12.438  13.988  63.689  1.00  0.00    -0.803 OA 
ENDBRANCH  14  17
ENDBRANCH  11  14
ENDBRANCH   8  11
ENDBRANCH   3   8
BRANCH   7  23
HETATM   23  C   UNL     3      -9.469  19.961  67.824  1.00  0.00    -0.362 C  
HETATM   24  O   UNL     3     -10.208  19.802  69.053  1.00  0.00    -0.586 OA 
HETATM   25  H   UNL     3      -9.640  20.049  69.774  1.00  0.00     0.000 HD 
BRANCH  23  26
HETATM   26  C   UNL     3      -8.191  19.123  68.019  1.00  0.00    -0.304 C  
HETATM   27  O   UNL     3      -7.522  19.461  69.236  1.00  0.00    -0.337 OA 
HETATM   28  H   UNL     3      -6.733  18.944  69.356  1.00  0.00     0.000 HD 
BRANCH  26  29
HETATM   29  C   UNL     3      -8.295  17.585  67.922  1.00  0.00    -0.229 C  
HETATM   30  O   UNL     3      -9.181  17.029  68.907  1.00  0.00    -0.264 OA 
HETATM   31  H   UNL     3      -9.244  16.083  68.847  1.00  0.00     0.000 HD 
BRANCH  29  32
HETATM   32  C   UNL     3      -6.989  16.798  67.971  1.00  0.00    -0.148 C  
HETATM   33  C   UNL     3      -6.646  16.230  69.359  1.00  0.00    -0.202 C  
HETATM   34  O   UNL     3      -5.867  17.703  67.581  1.00  0.00    -0.135 OA 
HETATM   35  O   UNL     3      -5.872  17.028  70.035  1.00  0.00    -0.221 OA 
HETATM   36  O   UNL     3      -6.796  15.003  69.523  1.00  0.00    -0.147 OA 
HETATM   37  H   UNL     3      -5.054  17.213  67.612  1.00  0.00     0.000 HD 
ENDBRANCH  29  32
ENDBRANCH  26  29
ENDBRANCH  23  26
ENDBRANCH   7  23
TORSDOF 8
ENDMDL
MODEL       63
REMARK 921   NORMALIZED FREE ENERGY PREDICTED BY IDOCK:   -6.00 KCAL/MOL
REMARK 922        TOTAL FREE ENERGY PREDICTED BY IDOCK:  -10.88 KCAL/MOL
REMARK 923 INTER-LIGAND FREE ENERGY PREDICTED BY IDOCK:   -8.95 KCAL/MOL
REMARK 924 INTRA-LIGAND FREE ENERGY PREDICTED BY IDOCK:   -1.93 KCAL/MOL
REMARK 927      BINDING AFFINITY PREDICTED BY RF-SCORE:    0.00 PKD
ROOT
HETATM    1 CU   UNL     1      -9.637  12.031  67.279  1.00  0.00    -0.169 Cu 
HETATM    2  O   UNL     2      -9.104  17.985  67.834  1.00  0.00    -0.259 OA 
HETATM    3  C   UNL     2      -8.631  17.471  66.581  1.00  0.00    -0.258 C  
HETATM    4  H   UNL     2      -8.790  18.879  67.905  1.00  0.00     0.000 HD 
HETATM    5  O   UNL     3      -7.048   5.360  65.802  1.00  0.00    -0.065 OA 
HETATM    6  H   UNL     3      -6.151   5.664  65.717  1.00  0.00     0.000 HD 
HETATM    7  C   UNL     3      -7.813   6.377  66.481  1.00  0.00    -0.104 C  
ENDROOT
BRANCH   3   8
HETATM    8  C   UNL     2      -9.135  16.034  66.466  1.00  0.00    -0.285 C  
HETATM    9  O   UNL     2      -9.008  15.373  67.739  1.00  0.00    -0.171 OA 
HETATM   10  H   UNL     2      -9.321  14.479  67.668  1.00  0.00     0.000 HD 
BRANCH   8  11
HETATM   11  C   UNL     2     -10.586  15.964  65.946  1.00  0.00    -0.337 C  
HETATM   12  O   UNL     2     -10.663  16.814  64.799  1.00  0.00    -0.726 OA 
HETATM   13  H   UNL     2     -11.556  16.771  64.479  1.00  0.00     0.000 HD 
BRANCH  11  14
HETATM   14  C   UNL     2     -10.910  14.501  65.582  1.00  0.00    -0.326 C  
HETATM   15  H   UNL     2     -10.185  13.162  64.319  1.00  0.00     0.000 HD 
HETATM   16  O   UNL     2      -9.985  14.063  64.544  1.00  0.00    -0.237 OA 
BRANCH  14  17
HETATM   17  C   UNL     2     -12.357  14.181  65.206  1.00  0.00    -0.460 C  
HETATM   18  C   UNL     2     -12.529  12.645  65.077  1.00  0.00    -0.487 C  
HETATM   19  H   UNL     2     -13.630  14.729  63.809  1.00  0.00     0.000 HD 
HETATM   20  O   UNL     2     -12.731  14.928  64.043  1.00  0.00    -0.792 OA 
HETATM   21  O   UNL     2     -12.040  12.041  66.085  1.00  0.00    -0.582 OA 
HETATM   22  O   UNL     2     -13.134  12.245  64.063  1.00  0.00    -0.764 OA 
ENDBRANCH  14  17
ENDBRANCH  11  14
ENDBRANCH   8  11
ENDBRANCH   3   8
BRANCH   7  23
HETATM   23  C   UNL     3      -9.260   5.887  66.619  1.00  0.00    -0.140 C  
HETATM   24  O   UNL     3      -9.280   4.806  67.573  1.00  0.00    -0.117 OA 
HETATM   25  H   UNL     3     -10.176   4.502  67.659  1.00  0.00     0.000 HD 
BRANCH  23  26
HETATM   26  C   UNL     3     -10.289   6.904  67.151  1.00  0.00    -0.269 C  
HETATM   27  O   UNL     3     -11.629   6.490  66.872  1.00  0.00    -0.725 OA 
HETATM   28  H   UNL     3     -12.263   7.117  67.200  1.00  0.00     0.000 HD 
BRANCH  26  29
HETATM   29  C   UNL     3     -10.202   7.335  68.632  1.00  0.00    -0.182 C  
HETATM   30  O   UNL     3     -11.464   7.230  69.311  1.00  0.00    -0.468 OA 
HETATM   31  H   UNL     3     -11.410   7.495  70.222  1.00  0.00     0.000 HD 
BRANCH  29  32
HETATM   32  C   UNL     3      -9.634   8.721  68.916  1.00  0.00    -0.158 C  
HETATM   33  C   UNL     3     -10.578   9.642  69.710  1.00  0.00    -0.242 C  
HETATM   34  O   UNL     3      -9.351   9.402  67.618  1.00  0.00    -0.128 OA 
HETATM   35  O   UNL     3     -11.293  10.396  68.928  1.00  0.00    -0.249 OA 
HETATM   36  O   UNL     3     -10.300   9.842  70.908  1.00  0.00    -0.253 OA 
HETATM   37  H   UNL     3      -8.997  10.266  67.795  1.00  0.00     0.000 HD 
ENDBRANCH  29  32
ENDBRANCH  26  29
ENDBRANCH  23  26
ENDBRANCH   7  23
TORSDOF 8
ENDMDL
MODEL       64
REMARK 921   NORMALIZED FREE ENERGY PREDICTED BY IDOCK:   -5.95 KCAL/MOL
REMARK 922        TOTAL FREE ENERGY PREDICTED BY IDOCK:  -10.81 KCAL/MOL
REMARK 923 INTER-LIGAND FREE ENERGY PREDICTED BY IDOCK:   -9.18 KCAL/MOL
REMARK 924 INTRA-LIGAND FREE ENERGY PREDICTED BY IDOCK:   -1.64 KCAL/MOL
REMARK 927      BINDING AFFINITY PREDICTED BY RF-SCORE:    0.00 PKD
ROOT
HETATM    1 CU   UNL     1     -10.252  10.568  69.382  1.00  0.00    -0.165 Cu 
HETATM    2  O   UNL     2      -8.671   6.250  73.241  1.00  0.00    -0.126 OA 
HETATM    3  C   UNL     2      -8.639   7.571  73.798  1.00  0.00    -0.208 C  
HETATM    4  H   UNL     2      -8.215   5.679  73.849  1.00  0.00     0.000 HD 
HETATM    5  O   UNL     3      -9.225  16.923  65.927  1.00  0.00    -0.500 OA 
HETATM    6  H   UNL     3      -8.349  17.039  66.277  1.00  0.00     0.000 HD 
HETATM    7  C   UNL     3      -9.611  15.545  66.103  1.00  0.00    -0.330 C  
ENDROOT
BRANCH   3   8
HETATM    8  C   UNL     2      -9.372   8.488  72.823  1.00  0.00    -0.168 C  
HETATM    9  O   UNL     2      -8.437   9.024  71.866  1.00  0.00    -0.363 OA 
HETATM   10  H   UNL     2      -8.894   9.595  71.259  1.00  0.00     0.000 HD 
BRANCH   8  11
HETATM   11  C   UNL     2     -10.542   7.773  72.116  1.00  0.00    -0.240 C  
HETATM   12  O   UNL     2     -11.748   8.229  72.732  1.00  0.00    -0.425 OA 
HETATM   13  H   UNL     2     -12.468   7.789  72.297  1.00  0.00     0.000 HD 
BRANCH  11  14
HETATM   14  C   UNL     2     -10.507   8.133  70.617  1.00  0.00    -0.210 C  
HETATM   15  H   UNL     2     -11.640   9.194  69.389  1.00  0.00     0.000 HD 
HETATM   16  O   UNL     2     -11.660   8.972  70.312  1.00  0.00    -0.195 OA 
BRANCH  14  17
HETATM   17  C   UNL     2     -10.389   6.976  69.624  1.00  0.00    -0.209 C  
HETATM   18  C   UNL     2     -10.179   7.540  68.195  1.00  0.00    -0.189 C  
HETATM   19  H   UNL     2     -11.438   5.380  69.149  1.00  0.00     0.000 HD 
HETATM   20  O   UNL     2     -11.512   6.098  69.766  1.00  0.00    -0.433 OA 
HETATM   21  O   UNL     2      -9.261   8.421  68.179  1.00  0.00    -0.138 OA 
HETATM   22  O   UNL     2     -10.886   7.039  67.299  1.00  0.00    -0.310 OA 
ENDBRANCH  14  17
ENDBRANCH  11  14
ENDBRANCH   8  11
ENDBRANCH   3   8
BRANCH   7  23
HETATM   23  C   UNL     3     -11.026  15.359  65.539  1.00  0.00    -0.343 C  
HETATM   24  O   UNL     3     -11.049  15.892  64.199  1.00  0.00    -0.905 OA 
HETATM   25  H   UNL     3     -11.925  15.777  63.849  1.00  0.00     0.000 HD 
BRANCH  23  26
HETATM   26  C   UNL     3     -11.531  13.910  65.397  1.00  0.00    -0.312 C  
HETATM   27  O   UNL     3     -12.957  13.858  65.299  1.00  0.00    -0.747 OA 
HETATM   28  H   UNL     3     -13.268  12.965  65.212  1.00  0.00     0.000 HD 
BRANCH  26  29
HETATM   29  C   UNL     3     -10.926  13.022  64.287  1.00  0.00    -0.399 C  
HETATM   30  O   UNL     3     -11.569  13.214  63.017  1.00  0.00    -0.742 OA 
HETATM   31  H   UNL     3     -11.197  12.668  62.335  1.00  0.00     0.000 HD 
BRANCH  29  32
HETATM   32  C   UNL     3     -10.864  11.523  64.558  1.00  0.00    -0.327 C  
HETATM   33  C   UNL     3      -9.982  11.132  65.756  1.00  0.00    -0.245 C  
HETATM   34  O   UNL     3     -10.296  10.840  63.357  1.00  0.00    -0.514 OA 
HETATM   35  O   UNL     3      -8.768  10.839  65.392  1.00  0.00    -0.185 OA 
HETATM   36  O   UNL     3     -10.566  10.778  66.799  1.00  0.00    -0.246 OA 
HETATM   37  H   UNL     3     -10.257   9.906  63.525  1.00  0.00     0.000 HD 
ENDBRANCH  29  32
ENDBRANCH  26  29
ENDBRANCH  23  26
ENDBRANCH   7  23
TORSDOF 8
ENDMDL
MODEL       65
REMARK 921   NORMALIZED FREE ENERGY PREDICTED BY IDOCK:   -5.95 KCAL/MOL
REMARK 922        TOTAL FREE ENERGY PREDICTED BY IDOCK:  -10.81 KCAL/MOL
REMARK 923 INTER-LIGAND FREE ENERGY PREDICTED BY IDOCK:   -9.69 KCAL/MOL
REMARK 924 INTRA-LIGAND FREE ENERGY PREDICTED BY IDOCK:   -1.12 KCAL/MOL
REMARK 927      BINDING AFFINITY PREDICTED BY RF-SCORE:    0.00 PKD
ROOT
HETATM    1 CU   UNL     1     -11.533  11.331  67.071  1.00  0.00    -0.254 Cu 
HETATM    2  O   UNL     2     -11.632  16.434  63.912  1.00  0.00    -1.564 OA 
HETATM    3  C   UNL     2     -10.693  16.437  64.997  1.00  0.00    -0.259 C  
HETATM    4  H   UNL     2     -11.719  17.333  63.616  1.00  0.00     0.000 HD 
HETATM    5  O   UNL     3     -11.780   7.504  73.291  1.00  0.00    -0.604 OA 
HETATM    6  H   UNL     3     -11.993   8.265  73.819  1.00  0.00     0.000 HD 
HETATM    7  C   UNL     3     -12.030   7.822  71.906  1.00  0.00    -0.301 C  
ENDROOT
BRANCH   3   8
HETATM    8  C   UNL     2     -10.551  14.994  65.472  1.00  0.00    -0.363 C  
HETATM    9  O   UNL     2      -9.238  14.793  66.030  1.00  0.00    -0.462 OA 
HETATM   10  H   UNL     2      -9.150  13.894  66.325  1.00  0.00     0.000 HD 
BRANCH   8  11
HETATM   11  C   UNL     2     -11.649  14.601  66.482  1.00  0.00    -0.344 C  
HETATM   12  O   UNL     2     -12.172  13.337  66.064  1.00  0.00    -0.421 OA 
HETATM   13  H   UNL     2     -12.848  13.095  66.686  1.00  0.00     0.000 HD 
BRANCH  11  14
HETATM   14  C   UNL     2     -11.019  14.508  67.887  1.00  0.00    -0.269 C  
HETATM   15  H   UNL     2     -10.062  13.119  68.921  1.00  0.00     0.000 HD 
HETATM   16  O   UNL     2     -10.450  13.176  68.056  1.00  0.00    -0.226 OA 
BRANCH  14  17
HETATM   17  C   UNL     2     -11.904  14.886  69.075  1.00  0.00    -0.301 C  
HETATM   18  C   UNL     2     -11.254  16.061  69.850  1.00  0.00    -0.361 C  
HETATM   19  H   UNL     2     -12.728  13.958  70.602  1.00  0.00     0.000 HD 
HETATM   20  O   UNL     2     -12.178  13.723  69.864  1.00  0.00    -0.322 OA 
HETATM   21  O   UNL     2     -10.905  16.996  69.060  1.00  0.00    -0.304 OA 
HETATM   22  O   UNL     2     -11.206  15.940  71.090  1.00  0.00    -0.362 OA 
ENDBRANCH  14  17
ENDBRANCH  11  14
ENDBRANCH   8  11
ENDBRANCH   3   8
BRANCH   7  23
HETATM   23  C   UNL     3     -11.686   6.594  71.054  1.00  0.00    -0.360 C  
HETATM   24  O   UNL     3     -11.972   6.908  69.676  1.00  0.00    -0.612 OA 
HETATM   25  H   UNL     3     -11.759   6.147  69.147  1.00  0.00     0.000 HD 
BRANCH  23  26
HETATM   26  C   UNL     3     -10.215   6.135  71.059  1.00  0.00    -0.196 C  
HETATM   27  O   UNL     3     -10.033   4.948  70.283  1.00  0.00    -0.214 OA 
HETATM   28  H   UNL     3      -9.125   4.666  70.286  1.00  0.00     0.000 HD 
BRANCH  26  29
HETATM   29  C   UNL     3      -9.123   7.155  70.671  1.00  0.00    -0.158 C  
HETATM   30  O   UNL     3      -7.812   6.744  71.091  1.00  0.00    -0.099 OA 
HETATM   31  H   UNL     3      -7.140   7.372  70.851  1.00  0.00     0.000 HD 
BRANCH  29  32
HETATM   32  C   UNL     3      -9.329   8.596  71.125  1.00  0.00    -0.216 C  
HETATM   33  C   UNL     3      -8.568   9.638  70.286  1.00  0.00    -0.197 C  
HETATM   34  O   UNL     3      -8.846   8.731  72.531  1.00  0.00    -0.402 OA 
HETATM   35  O   UNL     3      -7.411   9.929  70.804  1.00  0.00    -0.312 OA 
HETATM   36  O   UNL     3      -9.239  10.330  69.496  1.00  0.00    -0.208 OA 
HETATM   37  H   UNL     3      -8.974   9.629  72.814  1.00  0.00     0.000 HD 
ENDBRANCH  29  32
ENDBRANCH  26  29
ENDBRANCH  23  26
ENDBRANCH   7  23
TORSDOF 8
ENDMDL
MODEL       66
REMARK 921   NORMALIZED FREE ENERGY PREDICTED BY IDOCK:   -5.91 KCAL/MOL
REMARK 922        TOTAL FREE ENERGY PREDICTED BY IDOCK:  -10.76 KCAL/MOL
REMARK 923 INTER-LIGAND FREE ENERGY PREDICTED BY IDOCK:   -8.77 KCAL/MOL
REMARK 924 INTRA-LIGAND FREE ENERGY PREDICTED BY IDOCK:   -1.98 KCAL/MOL
REMARK 927      BINDING AFFINITY PREDICTED BY RF-SCORE:    0.00 PKD
ROOT
HETATM    1 CU   UNL     1     -11.602  10.280  67.428  1.00  0.00    -0.308 Cu 
HETATM    2  O   UNL     2     -12.537  14.860  63.661  1.00  0.00    -1.006 OA 
HETATM    3  C   UNL     2     -11.477  15.084  64.602  1.00  0.00    -0.381 C  
HETATM    4  H   UNL     2     -12.739  15.699  63.263  1.00  0.00     0.000 HD 
HETATM    5  O   UNL     3     -10.749   7.374  74.077  1.00  0.00    -0.550 OA 
HETATM    6  H   UNL     3     -10.962   8.186  74.523  1.00  0.00     0.000 HD 
HETATM    7  C   UNL     3     -11.193   7.473  72.709  1.00  0.00    -0.352 C  
ENDROOT
BRANCH   3   8
HETATM    8  C   UNL     2     -11.151  13.737  65.241  1.00  0.00    -0.313 C  
HETATM    9  O   UNL     2      -9.743  13.464  65.105  1.00  0.00    -0.532 OA 
HETATM   10  H   UNL     2      -9.541  12.625  65.503  1.00  0.00     0.000 HD 
BRANCH   8  11
HETATM   11  C   UNL     2     -11.590  13.670  66.718  1.00  0.00    -0.364 C  
HETATM   12  O   UNL     2     -12.343  12.465  66.879  1.00  0.00    -0.425 OA 
HETATM   13  H   UNL     2     -12.613  12.423  67.788  1.00  0.00     0.000 HD 
BRANCH  11  14
HETATM   14  C   UNL     2     -10.331  13.667  67.608  1.00  0.00    -0.239 C  
HETATM   15  H   UNL     2      -9.274  12.292  68.561  1.00  0.00     0.000 HD 
HETATM   16  O   UNL     2     -10.050  12.294  68.013  1.00  0.00    -0.194 OA 
BRANCH  14  17
HETATM   17  C   UNL     2     -10.325  14.610  68.812  1.00  0.00    -0.248 C  
HETATM   18  C   UNL     2     -11.713  14.576  69.502  1.00  0.00    -0.314 C  
HETATM   19  H   UNL     2      -9.884  16.498  69.152  1.00  0.00     0.000 HD 
HETATM   20  O   UNL     2      -9.888  15.912  68.404  1.00  0.00    -0.209 OA 
HETATM   21  O   UNL     2     -12.099  13.379  69.699  1.00  0.00    -0.312 OA 
HETATM   22  O   UNL     2     -12.211  15.683  69.788  1.00  0.00    -0.360 OA 
ENDBRANCH  14  17
ENDBRANCH  11  14
ENDBRANCH   8  11
ENDBRANCH   3   8
BRANCH   7  23
HETATM   23  C   UNL     3     -10.848   6.162  71.989  1.00  0.00    -0.247 C  
HETATM   24  O   UNL     3     -11.642   5.108  72.570  1.00  0.00    -0.152 OA 
HETATM   25  H   UNL     3     -11.428   4.296  72.124  1.00  0.00     0.000 HD 
BRANCH  23  26
HETATM   26  C   UNL     3     -11.151   6.100  70.479  1.00  0.00    -0.337 C  
HETATM   27  O   UNL     3     -12.392   6.736  70.166  1.00  0.00    -0.614 OA 
HETATM   28  H   UNL     3     -12.578   6.697  69.234  1.00  0.00     0.000 HD 
BRANCH  26  29
HETATM   29  C   UNL     3     -10.075   6.598  69.489  1.00  0.00    -0.177 C  
HETATM   30  O   UNL     3      -8.872   7.022  70.151  1.00  0.00    -0.144 OA 
HETATM   31  H   UNL     3      -8.210   7.328  69.542  1.00  0.00     0.000 HD 
BRANCH  29  32
HETATM   32  C   UNL     3     -10.485   7.699  68.517  1.00  0.00    -0.174 C  
HETATM   33  C   UNL     3      -9.373   8.133  67.547  1.00  0.00    -0.140 C  
HETATM   34  O   UNL     3     -10.879   8.909  69.298  1.00  0.00    -0.354 OA 
HETATM   35  O   UNL     3      -8.707   9.156  67.996  1.00  0.00    -0.128 OA 
HETATM   36  O   UNL     3      -9.474   7.756  66.363  1.00  0.00    -0.199 OA 
HETATM   37  H   UNL     3     -11.134   9.595  68.693  1.00  0.00     0.000 HD 
ENDBRANCH  29  32
ENDBRANCH  26  29
ENDBRANCH  23  26
ENDBRANCH   7  23
TORSDOF 8
ENDMDL
MODEL       67
REMARK 921   NORMALIZED FREE ENERGY PREDICTED BY IDOCK:   -5.90 KCAL/MOL
REMARK 922        TOTAL FREE ENERGY PREDICTED BY IDOCK:  -10.74 KCAL/MOL
REMARK 923 INTER-LIGAND FREE ENERGY PREDICTED BY IDOCK:   -9.65 KCAL/MOL
REMARK 924 INTRA-LIGAND FREE ENERGY PREDICTED BY IDOCK:   -1.09 KCAL/MOL
REMARK 927      BINDING AFFINITY PREDICTED BY RF-SCORE:    0.00 PKD
ROOT
HETATM    1 CU   UNL     1      -9.558  13.319  69.299  1.00  0.00    -0.367 Cu 
HETATM    2  O   UNL     2      -7.888  18.993  68.272  1.00  0.00    -0.290 OA 
HETATM    3  C   UNL     2      -7.972  18.186  67.089  1.00  0.00    -0.220 C  
HETATM    4  H   UNL     2      -7.426  19.789  68.035  1.00  0.00     0.000 HD 
HETATM    5  O   UNL     3      -8.784   6.080  68.685  1.00  0.00    -0.111 OA 
HETATM    6  H   UNL     3      -7.936   6.148  68.261  1.00  0.00     0.000 HD 
HETATM    7  C   UNL     3      -9.086   7.344  69.311  1.00  0.00    -0.135 C  
ENDROOT
BRANCH   3   8
HETATM    8  C   UNL     2      -8.715  16.908  67.469  1.00  0.00    -0.208 C  
HETATM    9  O   UNL     2     -10.041  17.236  67.928  1.00  0.00    -0.289 OA 
HETATM   10  H   UNL     2     -10.503  16.441  68.165  1.00  0.00     0.000 HD 
BRANCH   8  11
HETATM   11  C   UNL     2      -8.763  15.893  66.309  1.00  0.00    -0.337 C  
HETATM   12  O   UNL     2      -7.880  14.822  66.650  1.00  0.00    -0.284 OA 
HETATM   13  H   UNL     2      -7.910  14.197  65.936  1.00  0.00     0.000 HD 
BRANCH  11  14
HETATM   14  C   UNL     2     -10.214  15.394  66.149  1.00  0.00    -0.308 C  
HETATM   15  H   UNL     2     -11.461  14.298  67.226  1.00  0.00     0.000 HD 
HETATM   16  O   UNL     2     -10.567  14.605  67.324  1.00  0.00    -0.277 OA 
BRANCH  14  17
HETATM   17  C   UNL     2     -10.557  14.649  64.859  1.00  0.00    -0.422 C  
HETATM   18  C   UNL     2     -11.704  15.389  64.124  1.00  0.00    -0.100 C  
HETATM   19  H   UNL     2     -11.032  12.808  64.349  1.00  0.00     0.000 HD 
HETATM   20  O   UNL     2     -10.819  13.271  65.151  1.00  0.00    -0.291 OA 
HETATM   21  O   UNL     2     -11.463  16.636  64.033  1.00  0.00    -1.192 OA 
HETATM   22  O   UNL     2     -12.640  14.677  63.711  1.00  0.00    -0.820 OA 
ENDBRANCH  14  17
ENDBRANCH  11  14
ENDBRANCH   8  11
ENDBRANCH   3   8
BRANCH   7  23
HETATM   23  C   UNL     3     -10.455   7.234  69.995  1.00  0.00    -0.224 C  
HETATM   24  O   UNL     3     -10.974   5.910  69.752  1.00  0.00    -0.349 OA 
HETATM   25  H   UNL     3     -11.822   5.842  70.176  1.00  0.00     0.000 HD 
BRANCH  23  26
HETATM   26  C   UNL     3     -10.479   7.394  71.528  1.00  0.00    -0.201 C  
HETATM   27  O   UNL     3      -9.965   8.665  71.931  1.00  0.00    -0.265 OA 
HETATM   28  H   UNL     3      -9.980   8.763  72.877  1.00  0.00     0.000 HD 
BRANCH  26  29
HETATM   29  C   UNL     3     -11.806   7.136  72.275  1.00  0.00    -0.239 C  
HETATM   30  O   UNL     3     -11.978   5.754  72.631  1.00  0.00    -0.499 OA 
HETATM   31  H   UNL     3     -12.794   5.596  73.090  1.00  0.00     0.000 HD 
BRANCH  29  32
HETATM   32  C   UNL     3     -13.086   7.605  71.594  1.00  0.00    -0.353 C  
HETATM   33  C   UNL     3     -13.447   9.075  71.870  1.00  0.00    -0.425 C  
HETATM   34  O   UNL     3     -14.226   6.777  72.087  1.00  0.00    -0.583 OA 
HETATM   35  O   UNL     3     -14.263   9.196  72.875  1.00  0.00    -0.512 OA 
HETATM   36  O   UNL     3     -13.263   9.889  70.943  1.00  0.00    -0.348 OA 
HETATM   37  H   UNL     3     -15.025   7.069  71.663  1.00  0.00     0.000 HD 
ENDBRANCH  29  32
ENDBRANCH  26  29
ENDBRANCH  23  26
ENDBRANCH   7  23
TORSDOF 8
ENDMDL
MODEL       68
REMARK 921   NORMALIZED FREE ENERGY PREDICTED BY IDOCK:   -5.89 KCAL/MOL
REMARK 922        TOTAL FREE ENERGY PREDICTED BY IDOCK:  -10.72 KCAL/MOL
REMARK 923 INTER-LIGAND FREE ENERGY PREDICTED BY IDOCK:   -8.98 KCAL/MOL
REMARK 924 INTRA-LIGAND FREE ENERGY PREDICTED BY IDOCK:   -1.75 KCAL/MOL
REMARK 927      BINDING AFFINITY PREDICTED BY RF-SCORE:    0.00 PKD
ROOT
HETATM    1 CU   UNL     1      -9.556   9.576  70.834  1.00  0.00    -0.178 Cu 
HETATM    2  O   UNL     2      -9.834   4.097  73.271  1.00  0.00    -0.123 OA 
HETATM    3  C   UNL     2     -11.101   4.605  72.831  1.00  0.00    -0.191 C  
HETATM    4  H   UNL     2     -10.011   3.339  73.817  1.00  0.00     0.000 HD 
HETATM    5  O   UNL     3     -11.670  16.539  70.182  1.00  0.00    -0.335 OA 
HETATM    6  H   UNL     3     -12.246  16.496  70.937  1.00  0.00     0.000 HD 
HETATM    7  C   UNL     3     -10.768  15.415  70.229  1.00  0.00    -0.298 C  
ENDROOT
BRANCH   3   8
HETATM    8  C   UNL     2     -10.817   5.822  71.955  1.00  0.00    -0.252 C  
HETATM    9  O   UNL     2     -10.040   5.423  70.809  1.00  0.00    -0.193 OA 
HETATM   10  H   UNL     2      -9.863   6.181  70.264  1.00  0.00     0.000 HD 
BRANCH   8  11
HETATM   11  C   UNL     2     -12.109   6.547  71.525  1.00  0.00    -0.308 C  
HETATM   12  O   UNL     2     -13.120   6.203  72.475  1.00  0.00    -0.451 OA 
HETATM   13  H   UNL     2     -13.916   6.649  72.210  1.00  0.00     0.000 HD 
BRANCH  11  14
HETATM   14  C   UNL     2     -11.844   8.066  71.514  1.00  0.00    -0.292 C  
HETATM   15  H   UNL     2     -10.817   9.331  72.636  1.00  0.00     0.000 HD 
HETATM   16  O   UNL     2     -10.980   8.396  72.642  1.00  0.00    -0.353 OA 
BRANCH  14  17
HETATM   17  C   UNL     2     -13.063   8.987  71.463  1.00  0.00    -0.335 C  
HETATM   18  C   UNL     2     -12.606  10.432  71.140  1.00  0.00    -0.410 C  
HETATM   19  H   UNL     2     -14.581   9.423  72.638  1.00  0.00     0.000 HD 
HETATM   20  O   UNL     2     -13.823   8.851  72.670  1.00  0.00    -0.445 OA 
HETATM   21  O   UNL     2     -11.816  10.453  70.143  1.00  0.00    -0.269 OA 
HETATM   22  O   UNL     2     -13.092  11.333  71.853  1.00  0.00    -0.493 OA 
ENDBRANCH  14  17
ENDBRANCH  11  14
ENDBRANCH   8  11
ENDBRANCH   3   8
BRANCH   7  23
HETATM   23  C   UNL     3      -9.839  15.485  69.010  1.00  0.00    -0.235 C  
HETATM   24  O   UNL     3      -8.928  14.368  69.074  1.00  0.00    -0.345 OA 
HETATM   25  H   UNL     3      -8.352  14.411  68.319  1.00  0.00     0.000 HD 
BRANCH  23  26
HETATM   26  C   UNL     3     -10.503  15.376  67.623  1.00  0.00    -0.272 C  
HETATM   27  O   UNL     3     -11.878  14.998  67.729  1.00  0.00    -0.420 OA 
HETATM   28  H   UNL     3     -12.288  14.931  66.874  1.00  0.00     0.000 HD 
BRANCH  26  29
HETATM   29  C   UNL     3     -10.391  16.573  66.655  1.00  0.00    -0.298 C  
HETATM   30  O   UNL     3     -10.031  16.173  65.323  1.00  0.00    -0.487 OA 
HETATM   31  H   UNL     3      -9.962  16.910  64.728  1.00  0.00     0.000 HD 
BRANCH  29  32
HETATM   32  C   UNL     3      -9.462  17.711  67.067  1.00  0.00    -0.266 C  
HETATM   33  C   UNL     3     -10.169  18.878  67.778  1.00  0.00    -0.393 C  
HETATM   34  O   UNL     3      -8.817  18.273  65.843  1.00  0.00    -0.501 OA 
HETATM   35  O   UNL     3     -10.508  19.821  66.948  1.00  0.00    -0.430 OA 
HETATM   36  O   UNL     3     -10.000  18.978  69.009  1.00  0.00    -0.402 OA 
HETATM   37  H   UNL     3      -8.239  18.982  66.099  1.00  0.00     0.000 HD 
ENDBRANCH  29  32
ENDBRANCH  26  29
ENDBRANCH  23  26
ENDBRANCH   7  23
TORSDOF 8
ENDMDL
MODEL       69
REMARK 921   NORMALIZED FREE ENERGY PREDICTED BY IDOCK:   -5.89 KCAL/MOL
REMARK 922        TOTAL FREE ENERGY PREDICTED BY IDOCK:  -10.72 KCAL/MOL
REMARK 923 INTER-LIGAND FREE ENERGY PREDICTED BY IDOCK:   -8.73 KCAL/MOL
REMARK 924 INTRA-LIGAND FREE ENERGY PREDICTED BY IDOCK:   -1.99 KCAL/MOL
REMARK 927      BINDING AFFINITY PREDICTED BY RF-SCORE:    0.00 PKD
ROOT
HETATM    1 CU   UNL     1     -10.696   7.466  65.905  1.00  0.00    -0.461 Cu 
HETATM    2  O   UNL     2      -9.704   1.559  65.493  1.00  0.00    -0.325 OA 
HETATM    3  C   UNL     2      -8.979   2.341  64.533  1.00  0.00    -0.118 C  
HETATM    4  H   UNL     2      -9.645   0.652  65.216  1.00  0.00     0.000 HD 
HETATM    5  O   UNL     3     -12.440  13.995  63.128  1.00  0.00    -1.137 OA 
HETATM    6  H   UNL     3     -12.664  13.638  62.276  1.00  0.00     0.000 HD 
HETATM    7  C   UNL     3     -12.405  12.915  64.083  1.00  0.00    -0.376 C  
ENDROOT
BRANCH   3   8
HETATM    8  C   UNL     2      -9.073   3.798  64.978  1.00  0.00    -0.141 C  
HETATM    9  O   UNL     2     -10.295   4.379  64.481  1.00  0.00    -0.398 OA 
HETATM   10  H   UNL     2     -10.353   5.286  64.757  1.00  0.00     0.000 HD 
BRANCH   8  11
HETATM   11  C   UNL     2      -8.970   3.950  66.510  1.00  0.00    -0.134 C  
HETATM   12  O   UNL     2      -7.629   3.614  66.876  1.00  0.00    -0.078 OA 
HETATM   13  H   UNL     2      -7.565   3.707  67.819  1.00  0.00     0.000 HD 
BRANCH  11  14
HETATM   14  C   UNL     2      -9.306   5.407  66.887  1.00  0.00    -0.127 C  
HETATM   15  H   UNL     2      -8.951   7.189  66.104  1.00  0.00     0.000 HD 
HETATM   16  O   UNL     2      -8.745   6.292  65.872  1.00  0.00    -0.148 OA 
BRANCH  14  17
HETATM   17  C   UNL     2      -8.927   5.869  68.294  1.00  0.00    -0.112 C  
HETATM   18  C   UNL     2     -10.052   6.770  68.863  1.00  0.00    -0.164 C  
HETATM   19  H   UNL     2      -7.391   6.757  69.147  1.00  0.00     0.000 HD 
HETATM   20  O   UNL     2      -7.627   6.470  68.272  1.00  0.00    -0.099 OA 
HETATM   21  O   UNL     2     -11.195   6.229  68.713  1.00  0.00    -0.363 OA 
HETATM   22  O   UNL     2      -9.684   7.834  69.399  1.00  0.00    -0.166 OA 
ENDBRANCH  14  17
ENDBRANCH  11  14
ENDBRANCH   8  11
ENDBRANCH   3   8
BRANCH   7  23
HETATM   23  C   UNL     3     -12.042  13.491  65.458  1.00  0.00    -0.419 C  
HETATM   24  O   UNL     3     -12.319  12.486  66.455  1.00  0.00    -0.537 OA 
HETATM   25  H   UNL     3     -12.095  12.843  67.307  1.00  0.00     0.000 HD 
BRANCH  23  26
HETATM   26  C   UNL     3     -10.567  13.876  65.683  1.00  0.00    -0.301 C  
HETATM   27  O   UNL     3      -9.878  14.057  64.443  1.00  0.00    -0.656 OA 
HETATM   28  H   UNL     3      -8.968  14.295  64.582  1.00  0.00     0.000 HD 
BRANCH  26  29
HETATM   29  C   UNL     3     -10.249  15.072  66.606  1.00  0.00    -0.268 C  
HETATM   30  O   UNL     3     -11.346  15.408  67.471  1.00  0.00    -0.328 OA 
HETATM   31  H   UNL     3     -11.150  16.143  68.039  1.00  0.00     0.000 HD 
BRANCH  29  32
HETATM   32  C   UNL     3      -9.774  16.357  65.936  1.00  0.00    -0.294 C  
HETATM   33  C   UNL     3      -9.633  17.554  66.892  1.00  0.00    -0.278 C  
HETATM   34  O   UNL     3     -10.764  16.749  64.890  1.00  0.00    -0.721 OA 
HETATM   35  O   UNL     3     -10.707  18.288  66.916  1.00  0.00    -0.352 OA 
HETATM   36  O   UNL     3      -8.476  17.896  67.207  1.00  0.00    -0.230 OA 
HETATM   37  H   UNL     3     -10.469  17.549  64.472  1.00  0.00     0.000 HD 
ENDBRANCH  29  32
ENDBRANCH  26  29
ENDBRANCH  23  26
ENDBRANCH   7  23
TORSDOF 8
ENDMDL
MODEL       70
REMARK 921   NORMALIZED FREE ENERGY PREDICTED BY IDOCK:   -5.87 KCAL/MOL
REMARK 922        TOTAL FREE ENERGY PREDICTED BY IDOCK:  -10.69 KCAL/MOL
REMARK 923 INTER-LIGAND FREE ENERGY PREDICTED BY IDOCK:   -9.29 KCAL/MOL
REMARK 924 INTRA-LIGAND FREE ENERGY PREDICTED BY IDOCK:   -1.40 KCAL/MOL
REMARK 927      BINDING AFFINITY PREDICTED BY RF-SCORE:    0.00 PKD
ROOT
HETATM    1 CU   UNL     1     -10.817  11.822  69.843  1.00  0.00    -0.314 Cu 
HETATM    2  O   UNL     2     -10.316  17.794  69.491  1.00  0.00    -0.324 OA 
HETATM    3  C   UNL     2     -10.667  17.163  68.250  1.00  0.00    -0.363 C  
HETATM    4  H   UNL     2     -10.061  18.687  69.287  1.00  0.00     0.000 HD 
HETATM    5  O   UNL     3      -9.343   5.012  67.643  1.00  0.00    -0.117 OA 
HETATM    6  H   UNL     3      -8.691   5.295  67.012  1.00  0.00     0.000 HD 
HETATM    7  C   UNL     3      -9.591   6.096  68.562  1.00  0.00    -0.119 C  
ENDROOT
BRANCH   3   8
HETATM    8  C   UNL     2     -11.076  15.729  68.576  1.00  0.00    -0.335 C  
HETATM    9  O   UNL     2     -12.513  15.633  68.616  1.00  0.00    -0.483 OA 
HETATM   10  H   UNL     2     -12.768  14.741  68.819  1.00  0.00     0.000 HD 
BRANCH   8  11
HETATM   11  C   UNL     2     -10.478  14.711  67.584  1.00  0.00    -0.243 C  
HETATM   12  O   UNL     2      -9.677  13.804  68.345  1.00  0.00    -0.220 OA 
HETATM   13  H   UNL     2      -9.308  13.176  67.734  1.00  0.00     0.000 HD 
BRANCH  11  14
HETATM   14  C   UNL     2     -11.633  13.977  66.873  1.00  0.00    -0.386 C  
HETATM   15  H   UNL     2     -12.871  12.504  67.333  1.00  0.00     0.000 HD 
HETATM   16  O   UNL     2     -12.159  12.956  67.771  1.00  0.00    -0.312 OA 
BRANCH  14  17
HETATM   17  C   UNL     2     -11.344  13.400  65.487  1.00  0.00    -0.293 C  
HETATM   18  C   UNL     2     -11.884  14.366  64.401  1.00  0.00    -0.415 C  
HETATM   19  H   UNL     2     -11.667  11.702  64.545  1.00  0.00     0.000 HD 
HETATM   20  O   UNL     2     -11.847  12.061  65.406  1.00  0.00    -0.338 OA 
HETATM   21  O   UNL     2     -11.513  15.563  64.625  1.00  0.00    -0.410 OA 
HETATM   22  O   UNL     2     -12.544  13.843  63.482  1.00  0.00    -0.842 OA 
ENDBRANCH  14  17
ENDBRANCH  11  14
ENDBRANCH   8  11
ENDBRANCH   3   8
BRANCH   7  23
HETATM   23  C   UNL     3     -10.644   5.640  69.581  1.00  0.00    -0.331 C  
HETATM   24  O   UNL     3      -9.993   4.796  70.553  1.00  0.00    -0.211 OA 
HETATM   25  H   UNL     3     -10.645   4.513  71.184  1.00  0.00     0.000 HD 
BRANCH  23  26
HETATM   26  C   UNL     3     -11.332   6.742  70.409  1.00  0.00    -0.347 C  
HETATM   27  O   UNL     3     -12.747   6.744  70.208  1.00  0.00    -0.474 OA 
HETATM   28  H   UNL     3     -13.171   7.424  70.720  1.00  0.00     0.000 HD 
BRANCH  26  29
HETATM   29  C   UNL     3     -11.046   6.812  71.926  1.00  0.00    -0.247 C  
HETATM   30  O   UNL     3     -12.009   6.080  72.701  1.00  0.00    -0.509 OA 
HETATM   31  H   UNL     3     -11.833   6.123  73.634  1.00  0.00     0.000 HD 
BRANCH  29  32
HETATM   32  C   UNL     3     -10.910   8.200  72.541  1.00  0.00    -0.361 C  
HETATM   33  C   UNL     3     -11.311   9.351  71.601  1.00  0.00    -0.382 C  
HETATM   34  O   UNL     3      -9.482   8.422  72.917  1.00  0.00    -0.261 OA 
HETATM   35  O   UNL     3     -10.288   9.834  70.959  1.00  0.00    -0.273 OA 
HETATM   36  O   UNL     3     -12.398   9.917  71.828  1.00  0.00    -0.383 OA 
HETATM   37  H   UNL     3      -9.397   9.288  73.300  1.00  0.00     0.000 HD 
ENDBRANCH  29  32
ENDBRANCH  26  29
ENDBRANCH  23  26
ENDBRANCH   7  23
TORSDOF 8
ENDMDL
MODEL       71
REMARK 921   NORMALIZED FREE ENERGY PREDICTED BY IDOCK:   -5.87 KCAL/MOL
REMARK 922        TOTAL FREE ENERGY PREDICTED BY IDOCK:  -10.69 KCAL/MOL
REMARK 923 INTER-LIGAND FREE ENERGY PREDICTED BY IDOCK:   -9.05 KCAL/MOL
REMARK 924 INTRA-LIGAND FREE ENERGY PREDICTED BY IDOCK:   -1.64 KCAL/MOL
REMARK 927      BINDING AFFINITY PREDICTED BY RF-SCORE:    0.00 PKD
ROOT
HETATM    1 CU   UNL     1      -9.371   9.742  70.204  1.00  0.00    -0.151 Cu 
HETATM    2  O   UNL     2      -7.870   4.582  72.880  1.00  0.00    -0.085 OA 
HETATM    3  C   UNL     2      -9.285   4.797  72.778  1.00  0.00    -0.129 C  
HETATM    4  H   UNL     2      -7.740   3.864  73.488  1.00  0.00     0.000 HD 
HETATM    5  O   UNL     3     -12.979  16.084  69.825  1.00  0.00    -0.540 OA 
HETATM    6  H   UNL     3     -13.319  16.010  70.710  1.00  0.00     0.000 HD 
HETATM    7  C   UNL     3     -11.882  15.160  69.677  1.00  0.00    -0.334 C  
ENDROOT
BRANCH   3   8
HETATM    8  C   UNL     2      -9.494   5.951  71.801  1.00  0.00    -0.151 C  
HETATM    9  O   UNL     2      -9.011   5.575  70.497  1.00  0.00    -0.132 OA 
HETATM   10  H   UNL     2      -9.141   6.294  69.889  1.00  0.00     0.000 HD 
BRANCH   8  11
HETATM   11  C   UNL     2     -10.968   6.403  71.738  1.00  0.00    -0.255 C  
HETATM   12  O   UNL     2     -11.572   6.042  72.983  1.00  0.00    -0.482 OA 
HETATM   13  H   UNL     2     -12.479   6.320  72.945  1.00  0.00     0.000 HD 
BRANCH  11  14
HETATM   14  C   UNL     2     -11.008   7.928  71.518  1.00  0.00    -0.231 C  
HETATM   15  H   UNL     2     -10.139   9.502  72.345  1.00  0.00     0.000 HD 
HETATM   16  O   UNL     2     -10.115   8.562  72.481  1.00  0.00    -0.298 OA 
BRANCH  14  17
HETATM   17  C   UNL     2     -12.383   8.597  71.516  1.00  0.00    -0.324 C  
HETATM   18  C   UNL     2     -12.228  10.097  71.155  1.00  0.00    -0.389 C  
HETATM   19  H   UNL     2     -13.901   8.758  72.758  1.00  0.00     0.000 HD 
HETATM   20  O   UNL     2     -13.047   8.343  72.760  1.00  0.00    -0.170 OA 
HETATM   21  O   UNL     2     -11.503  10.248  70.120  1.00  0.00    -0.266 OA 
HETATM   22  O   UNL     2     -12.845  10.902  71.880  1.00  0.00    -0.425 OA 
ENDBRANCH  14  17
ENDBRANCH  11  14
ENDBRANCH   8  11
ENDBRANCH   3   8
BRANCH   7  23
HETATM   23  C   UNL     3     -11.333  15.279  68.250  1.00  0.00    -0.336 C  
HETATM   24  O   UNL     3     -10.043  15.920  68.316  1.00  0.00    -0.219 OA 
HETATM   25  H   UNL     3      -9.702  15.994  67.432  1.00  0.00     0.000 HD 
BRANCH  23  26
HETATM   26  C   UNL     3     -11.082  13.961  67.490  1.00  0.00    -0.286 C  
HETATM   27  O   UNL     3     -11.091  12.837  68.373  1.00  0.00    -0.234 OA 
HETATM   28  H   UNL     3     -10.936  12.025  67.905  1.00  0.00     0.000 HD 
BRANCH  26  29
HETATM   29  C   UNL     3     -11.964  13.636  66.265  1.00  0.00    -0.423 C  
HETATM   30  O   UNL     3     -12.250  12.233  66.149  1.00  0.00    -0.647 OA 
HETATM   31  H   UNL     3     -12.792  12.033  65.395  1.00  0.00     0.000 HD 
BRANCH  29  32
HETATM   32  C   UNL     3     -11.471  14.126  64.908  1.00  0.00    -0.366 C  
HETATM   33  C   UNL     3     -11.845  13.209  63.730  1.00  0.00    -0.486 C  
HETATM   34  O   UNL     3      -9.980  14.209  64.939  1.00  0.00    -0.577 OA 
HETATM   35  O   UNL     3     -10.902  12.356  63.459  1.00  0.00    -0.437 OA 
HETATM   36  O   UNL     3     -12.751  13.602  62.970  1.00  0.00    -0.681 OA 
HETATM   37  H   UNL     3      -9.672  14.514  64.093  1.00  0.00     0.000 HD 
ENDBRANCH  29  32
ENDBRANCH  26  29
ENDBRANCH  23  26
ENDBRANCH   7  23
TORSDOF 8
ENDMDL
MODEL       72
REMARK 921   NORMALIZED FREE ENERGY PREDICTED BY IDOCK:   -5.87 KCAL/MOL
REMARK 922        TOTAL FREE ENERGY PREDICTED BY IDOCK:  -10.69 KCAL/MOL
REMARK 923 INTER-LIGAND FREE ENERGY PREDICTED BY IDOCK:   -9.31 KCAL/MOL
REMARK 924 INTRA-LIGAND FREE ENERGY PREDICTED BY IDOCK:   -1.38 KCAL/MOL
REMARK 927      BINDING AFFINITY PREDICTED BY RF-SCORE:    0.00 PKD
ROOT
HETATM    1 CU   UNL     1     -11.188   8.547  68.470  1.00  0.00    -0.383 Cu 
HETATM    2  O   UNL     2     -10.083   3.196  70.956  1.00  0.00     0.002 OA 
HETATM    3  C   UNL     2      -9.099   3.608  69.996  1.00  0.00    -0.127 C  
HETATM    4  H   UNL     2      -9.935   2.274  71.129  1.00  0.00     0.000 HD 
HETATM    5  O   UNL     3     -12.020  13.045  62.773  1.00  0.00    -0.667 OA 
HETATM    6  H   UNL     3     -11.966  12.342  62.136  1.00  0.00     0.000 HD 
HETATM    7  C   UNL     3     -12.277  12.469  64.070  1.00  0.00    -0.480 C  
ENDROOT
BRANCH   3   8
HETATM    8  C   UNL     2      -9.336   5.090  69.719  1.00  0.00    -0.134 C  
HETATM    9  O   UNL     2     -10.192   5.237  68.569  1.00  0.00    -0.174 OA 
HETATM   10  H   UNL     2     -10.339   6.160  68.396  1.00  0.00     0.000 HD 
BRANCH   8  11
HETATM   11  C   UNL     2      -9.918   5.828  70.942  1.00  0.00    -0.189 C  
HETATM   12  O   UNL     2      -8.861   5.960  71.896  1.00  0.00    -0.138 OA 
HETATM   13  H   UNL     2      -9.219   6.414  72.649  1.00  0.00     0.000 HD 
BRANCH  11  14
HETATM   14  C   UNL     2     -10.437   7.207  70.487  1.00  0.00    -0.212 C  
HETATM   15  H   UNL     2      -9.695   8.735  69.472  1.00  0.00     0.000 HD 
HETATM   16  O   UNL     2      -9.376   7.885  69.752  1.00  0.00    -0.153 OA 
BRANCH  14  17
HETATM   17  C   UNL     2     -11.035   8.116  71.561  1.00  0.00    -0.243 C  
HETATM   18  C   UNL     2     -12.576   8.163  71.400  1.00  0.00    -0.283 C  
HETATM   19  H   UNL     2     -10.758   9.959  72.196  1.00  0.00     0.000 HD 
HETATM   20  O   UNL     2     -10.387   9.394  71.529  1.00  0.00    -0.327 OA 
HETATM   21  O   UNL     2     -13.063   6.992  71.288  1.00  0.00    -0.369 OA 
HETATM   22  O   UNL     2     -13.097   9.295  71.441  1.00  0.00    -0.333 OA 
ENDBRANCH  14  17
ENDBRANCH  11  14
ENDBRANCH   8  11
ENDBRANCH   3   8
BRANCH   7  23
HETATM   23  C   UNL     3     -12.364  13.604  65.099  1.00  0.00    -0.452 C  
HETATM   24  O   UNL     3     -12.640  13.021  66.389  1.00  0.00    -0.343 OA 
HETATM   25  H   UNL     3     -12.694  13.724  67.026  1.00  0.00     0.000 HD 
BRANCH  23  26
HETATM   26  C   UNL     3     -11.093  14.450  65.309  1.00  0.00    -0.342 C  
HETATM   27  O   UNL     3     -10.109  14.175  64.308  1.00  0.00    -0.648 OA 
HETATM   28  H   UNL     3      -9.325  14.697  64.438  1.00  0.00     0.000 HD 
BRANCH  26  29
HETATM   29  C   UNL     3     -11.240  15.980  65.453  1.00  0.00    -0.047 C  
HETATM   30  O   UNL     3     -11.277  16.652  64.183  1.00  0.00    -1.410 OA 
HETATM   31  H   UNL     3     -11.367  17.593  64.272  1.00  0.00     0.000 HD 
BRANCH  29  32
HETATM   32  C   UNL     3     -10.216  16.694  66.329  1.00  0.00    -0.334 C  
HETATM   33  C   UNL     3     -10.568  18.158  66.649  1.00  0.00    -0.278 C  
HETATM   34  O   UNL     3      -8.901  16.707  65.620  1.00  0.00    -0.448 OA 
HETATM   35  O   UNL     3     -10.020  18.985  65.808  1.00  0.00    -0.473 OA 
HETATM   36  O   UNL     3     -10.969  18.406  67.802  1.00  0.00    -0.323 OA 
HETATM   37  H   UNL     3      -8.263  17.152  66.166  1.00  0.00     0.000 HD 
ENDBRANCH  29  32
ENDBRANCH  26  29
ENDBRANCH  23  26
ENDBRANCH   7  23
TORSDOF 8
ENDMDL
MODEL       73
REMARK 921   NORMALIZED FREE ENERGY PREDICTED BY IDOCK:   -5.86 KCAL/MOL
REMARK 922        TOTAL FREE ENERGY PREDICTED BY IDOCK:  -10.67 KCAL/MOL
REMARK 923 INTER-LIGAND FREE ENERGY PREDICTED BY IDOCK:   -8.58 KCAL/MOL
REMARK 924 INTRA-LIGAND FREE ENERGY PREDICTED BY IDOCK:   -2.09 KCAL/MOL
REMARK 927      BINDING AFFINITY PREDICTED BY RF-SCORE:    0.00 PKD
ROOT
HETATM    1 CU   UNL     1     -11.221  13.619  70.084  1.00  0.00    -0.295 Cu 
HETATM    2  O   UNL     2     -10.714  19.468  68.833  1.00  0.00    -0.360 OA 
HETATM    3  C   UNL     2      -9.546  18.699  68.513  1.00  0.00    -0.361 C  
HETATM    4  H   UNL     2     -10.464  20.384  68.797  1.00  0.00     0.000 HD 
HETATM    5  O   UNL     3      -8.934   7.374  73.110  1.00  0.00    -0.133 OA 
HETATM    6  H   UNL     3      -8.212   7.792  73.566  1.00  0.00     0.000 HD 
HETATM    7  C   UNL     3      -9.863   8.395  72.691  1.00  0.00    -0.259 C  
ENDROOT
BRANCH   3   8
HETATM    8  C   UNL     2      -9.948  17.228  68.570  1.00  0.00    -0.320 C  
HETATM    9  O   UNL     2     -10.831  17.010  69.688  1.00  0.00    -0.386 OA 
HETATM   10  H   UNL     2     -11.081  16.094  69.724  1.00  0.00     0.000 HD 
BRANCH   8  11
HETATM   11  C   UNL     2     -10.589  16.745  67.253  1.00  0.00    -0.275 C  
HETATM   12  O   UNL     2      -9.723  17.152  66.190  1.00  0.00    -0.352 OA 
HETATM   13  H   UNL     2     -10.117  16.855  65.379  1.00  0.00     0.000 HD 
BRANCH  11  14
HETATM   14  C   UNL     2     -10.729  15.211  67.304  1.00  0.00    -0.305 C  
HETATM   15  H   UNL     2      -9.505  13.669  67.102  1.00  0.00     0.000 HD 
HETATM   16  O   UNL     2      -9.419  14.615  67.070  1.00  0.00    -0.223 OA 
BRANCH  14  17
HETATM   17  C   UNL     2     -11.793  14.577  66.408  1.00  0.00    -0.349 C  
HETATM   18  C   UNL     2     -11.947  13.077  66.770  1.00  0.00    -0.369 C  
HETATM   19  H   UNL     2     -12.146  14.442  64.477  1.00  0.00     0.000 HD 
HETATM   20  O   UNL     2     -11.485  14.836  65.033  1.00  0.00    -0.361 OA 
HETATM   21  O   UNL     2     -12.071  12.918  68.027  1.00  0.00    -0.311 OA 
HETATM   22  O   UNL     2     -11.967  12.281  65.811  1.00  0.00    -0.521 OA 
ENDBRANCH  14  17
ENDBRANCH  11  14
ENDBRANCH   8  11
ENDBRANCH   3   8
BRANCH   7  23
HETATM   23  C   UNL     3     -11.028   7.721  71.954  1.00  0.00    -0.249 C  
HETATM   24  O   UNL     3     -11.799   6.975  72.918  1.00  0.00    -0.517 OA 
HETATM   25  H   UNL     3     -12.521   6.558  72.461  1.00  0.00     0.000 HD 
BRANCH  23  26
HETATM   26  C   UNL     3     -12.045   8.651  71.266  1.00  0.00    -0.290 C  
HETATM   27  O   UNL     3     -13.009   9.153  72.195  1.00  0.00    -0.372 OA 
HETATM   28  H   UNL     3     -13.636   9.727  71.770  1.00  0.00     0.000 HD 
BRANCH  26  29
HETATM   29  C   UNL     3     -11.513   9.828  70.419  1.00  0.00    -0.280 C  
HETATM   30  O   UNL     3     -12.568  10.660  69.909  1.00  0.00    -0.484 OA 
HETATM   31  H   UNL     3     -12.240  11.385  69.388  1.00  0.00     0.000 HD 
BRANCH  29  32
HETATM   32  C   UNL     3     -10.589   9.482  69.257  1.00  0.00    -0.220 C  
HETATM   33  C   UNL     3      -9.209  10.159  69.323  1.00  0.00    -0.208 C  
HETATM   34  O   UNL     3     -11.230   9.924  67.983  1.00  0.00    -0.494 OA 
HETATM   35  O   UNL     3      -9.181  11.275  68.655  1.00  0.00    -0.179 OA 
HETATM   36  O   UNL     3      -8.239   9.443  69.639  1.00  0.00    -0.112 OA 
HETATM   37  H   UNL     3     -10.654   9.709  67.259  1.00  0.00     0.000 HD 
ENDBRANCH  29  32
ENDBRANCH  26  29
ENDBRANCH  23  26
ENDBRANCH   7  23
TORSDOF 8
ENDMDL
MODEL       74
REMARK 921   NORMALIZED FREE ENERGY PREDICTED BY IDOCK:   -5.86 KCAL/MOL
REMARK 922        TOTAL FREE ENERGY PREDICTED BY IDOCK:  -10.67 KCAL/MOL
REMARK 923 INTER-LIGAND FREE ENERGY PREDICTED BY IDOCK:   -8.58 KCAL/MOL
REMARK 924 INTRA-LIGAND FREE ENERGY PREDICTED BY IDOCK:   -2.09 KCAL/MOL
REMARK 927      BINDING AFFINITY PREDICTED BY RF-SCORE:    0.00 PKD
ROOT
HETATM    1 CU   UNL     1      -7.825  15.026  67.207  1.00  0.00    -0.117 Cu 
HETATM    2  O   UNL     2      -6.222  20.033  70.105  1.00  0.00    -0.335 OA 
HETATM    3  C   UNL     2      -5.633  19.898  68.804  1.00  0.00    -0.214 C  
HETATM    4  H   UNL     2      -5.755  20.729  70.552  1.00  0.00     0.000 HD 
HETATM    5  O   UNL     3      -6.395   8.899  63.492  1.00  0.00    -0.088 OA 
HETATM    6  H   UNL     3      -5.456   8.971  63.621  1.00  0.00     0.000 HD 
HETATM    7  C   UNL     3      -7.055   9.766  64.436  1.00  0.00    -0.129 C  
ENDROOT
BRANCH   3   8
HETATM    8  C   UNL     2      -6.384  18.780  68.085  1.00  0.00    -0.211 C  
HETATM    9  O   UNL     2      -6.292  17.563  68.852  1.00  0.00    -0.190 OA 
HETATM   10  H   UNL     2      -6.759  16.868  68.404  1.00  0.00     0.000 HD 
BRANCH   8  11
HETATM   11  C   UNL     2      -7.856  19.150  67.806  1.00  0.00    -0.264 C  
HETATM   12  O   UNL     2      -7.853  20.426  67.160  1.00  0.00    -0.318 OA 
HETATM   13  H   UNL     2      -8.758  20.654  66.988  1.00  0.00     0.000 HD 
BRANCH  11  14
HETATM   14  C   UNL     2      -8.475  18.066  66.901  1.00  0.00    -0.249 C  
HETATM   15  H   UNL     2      -7.969  17.177  65.207  1.00  0.00     0.000 HD 
HETATM   16  O   UNL     2      -7.588  17.845  65.765  1.00  0.00    -0.531 OA 
BRANCH  14  17
HETATM   17  C   UNL     2      -9.918  18.281  66.443  1.00  0.00    -0.380 C  
HETATM   18  C   UNL     2     -10.445  16.986  65.772  1.00  0.00    -0.251 C  
HETATM   19  H   UNL     2     -10.893  19.590  65.343  1.00  0.00     0.000 HD 
HETATM   20  O   UNL     2      -9.997  19.456  65.628  1.00  0.00    -0.404 OA 
HETATM   21  O   UNL     2     -10.207  15.965  66.493  1.00  0.00    -0.270 OA 
HETATM   22  O   UNL     2     -11.038  17.134  64.685  1.00  0.00    -1.036 OA 
ENDBRANCH  14  17
ENDBRANCH  11  14
ENDBRANCH   8  11
ENDBRANCH   3   8
BRANCH   7  23
HETATM   23  C   UNL     3      -8.571   9.651  64.228  1.00  0.00    -0.191 C  
HETATM   24  O   UNL     3      -9.160   9.185  65.459  1.00  0.00    -0.198 OA 
HETATM   25  H   UNL     3     -10.099   9.113  65.331  1.00  0.00     0.000 HD 
BRANCH  23  26
HETATM   26  C   UNL     3      -9.326  10.952  63.894  1.00  0.00    -0.240 C  
HETATM   27  O   UNL     3      -9.693  11.006  62.513  1.00  0.00    -0.552 OA 
HETATM   28  H   UNL     3     -10.159  11.808  62.308  1.00  0.00     0.000 HD 
BRANCH  26  29
HETATM   29  C   UNL     3     -10.555  11.331  64.749  1.00  0.00    -0.312 C  
HETATM   30  O   UNL     3     -11.781  10.802  64.216  1.00  0.00     0.459 OA 
HETATM   31  H   UNL     3     -12.537  11.036  64.743  1.00  0.00     0.000 HD 
BRANCH  29  32
HETATM   32  C   UNL     3     -10.771  12.814  65.030  1.00  0.00    -0.296 C  
HETATM   33  C   UNL     3     -12.223  13.289  64.845  1.00  0.00    -0.420 C  
HETATM   34  O   UNL     3      -9.929  13.611  64.089  1.00  0.00    -0.746 OA 
HETATM   35  O   UNL     3     -12.431  13.765  63.653  1.00  0.00    -0.718 OA 
HETATM   36  O   UNL     3     -12.881  13.520  65.879  1.00  0.00    -0.375 OA 
HETATM   37  H   UNL     3     -10.063  14.535  64.264  1.00  0.00     0.000 HD 
ENDBRANCH  29  32
ENDBRANCH  26  29
ENDBRANCH  23  26
ENDBRANCH   7  23
TORSDOF 8
ENDMDL
MODEL       75
REMARK 921   NORMALIZED FREE ENERGY PREDICTED BY IDOCK:   -5.85 KCAL/MOL
REMARK 922        TOTAL FREE ENERGY PREDICTED BY IDOCK:  -10.67 KCAL/MOL
REMARK 923 INTER-LIGAND FREE ENERGY PREDICTED BY IDOCK:   -8.89 KCAL/MOL
REMARK 924 INTRA-LIGAND FREE ENERGY PREDICTED BY IDOCK:   -1.77 KCAL/MOL
REMARK 927      BINDING AFFINITY PREDICTED BY RF-SCORE:    0.00 PKD
ROOT
HETATM    1 CU   UNL     1     -10.079  10.872  68.890  1.00  0.00    -0.149 Cu 
HETATM    2  O   UNL     2     -11.088   5.750  71.853  1.00  0.00    -0.259 OA 
HETATM    3  C   UNL     2     -11.998   6.808  72.189  1.00  0.00    -0.273 C  
HETATM    4  H   UNL     2     -11.195   5.071  72.509  1.00  0.00     0.000 HD 
HETATM    5  O   UNL     3      -8.979  18.086  68.521  1.00  0.00    -0.289 OA 
HETATM    6  H   UNL     3      -8.929  18.185  69.465  1.00  0.00     0.000 HD 
HETATM    7  C   UNL     3      -8.814  16.690  68.197  1.00  0.00    -0.206 C  
ENDROOT
BRANCH   3   8
HETATM    8  C   UNL     2     -11.827   7.898  71.134  1.00  0.00    -0.287 C  
HETATM    9  O   UNL     2     -13.084   8.569  70.923  1.00  0.00    -0.498 OA 
HETATM   10  H   UNL     2     -12.978   9.248  70.266  1.00  0.00     0.000 HD 
BRANCH   8  11
HETATM   11  C   UNL     2     -10.717   8.902  71.507  1.00  0.00    -0.328 C  
HETATM   12  O   UNL     2     -10.167   8.476  72.757  1.00  0.00    -0.256 OA 
HETATM   13  H   UNL     2      -9.484   9.094  72.986  1.00  0.00     0.000 HD 
BRANCH  11  14
HETATM   14  C   UNL     2      -9.650   8.895  70.394  1.00  0.00    -0.194 C  
HETATM   15  H   UNL     2      -9.595   8.367  68.488  1.00  0.00     0.000 HD 
HETATM   16  O   UNL     2     -10.252   8.372  69.174  1.00  0.00    -0.202 OA 
BRANCH  14  17
HETATM   17  C   UNL     2      -8.326   8.195  70.702  1.00  0.00    -0.123 C  
HETATM   18  C   UNL     2      -7.192   8.844  69.868  1.00  0.00    -0.052 C  
HETATM   19  H   UNL     2      -7.650   6.347  70.712  1.00  0.00     0.000 HD 
HETATM   20  O   UNL     2      -8.472   6.781  70.521  1.00  0.00    -0.134 OA 
HETATM   21  O   UNL     2      -7.218  10.113  69.964  1.00  0.00    -0.136 OA 
HETATM   22  O   UNL     2      -6.425   8.057  69.278  1.00  0.00    -0.035 OA 
ENDBRANCH  14  17
ENDBRANCH  11  14
ENDBRANCH   8  11
ENDBRANCH   3   8
BRANCH   7  23
HETATM   23  C   UNL     3      -8.896  16.530  66.674  1.00  0.00    -0.256 C  
HETATM   24  O   UNL     3      -8.381  15.227  66.330  1.00  0.00    -0.390 OA 
HETATM   25  H   UNL     3      -8.432  15.128  65.386  1.00  0.00     0.000 HD 
BRANCH  23  26
HETATM   26  C   UNL     3     -10.302  16.579  66.045  1.00  0.00    -0.345 C  
HETATM   27  O   UNL     3     -10.763  17.924  65.895  1.00  0.00    -0.337 OA 
HETATM   28  H   UNL     3     -11.630  17.954  65.508  1.00  0.00     0.000 HD 
BRANCH  26  29
HETATM   29  C   UNL     3     -10.546  15.821  64.722  1.00  0.00    -0.144 C  
HETATM   30  O   UNL     3     -11.438  16.523  63.842  1.00  0.00    -1.608 OA 
HETATM   31  H   UNL     3     -11.588  16.056  63.028  1.00  0.00     0.000 HD 
BRANCH  29  32
HETATM   32  C   UNL     3     -11.035  14.381  64.830  1.00  0.00    -0.406 C  
HETATM   33  C   UNL     3     -12.455  14.152  64.284  1.00  0.00    -0.266 C  
HETATM   34  O   UNL     3     -11.053  13.985  66.270  1.00  0.00    -0.301 OA 
HETATM   35  O   UNL     3     -13.356  14.239  65.218  1.00  0.00    -0.660 OA 
HETATM   36  O   UNL     3     -12.554  13.564  63.189  1.00  0.00    -0.762 OA 
HETATM   37  H   UNL     3     -11.358  13.088  66.338  1.00  0.00     0.000 HD 
ENDBRANCH  29  32
ENDBRANCH  26  29
ENDBRANCH  23  26
ENDBRANCH   7  23
TORSDOF 8
ENDMDL
MODEL       76
REMARK 921   NORMALIZED FREE ENERGY PREDICTED BY IDOCK:   -5.85 KCAL/MOL
REMARK 922        TOTAL FREE ENERGY PREDICTED BY IDOCK:  -10.66 KCAL/MOL
REMARK 923 INTER-LIGAND FREE ENERGY PREDICTED BY IDOCK:   -9.06 KCAL/MOL
REMARK 924 INTRA-LIGAND FREE ENERGY PREDICTED BY IDOCK:   -1.61 KCAL/MOL
REMARK 927      BINDING AFFINITY PREDICTED BY RF-SCORE:    0.00 PKD
ROOT
HETATM    1 CU   UNL     1     -10.316   9.778  67.175  1.00  0.00    -0.165 Cu 
HETATM    2  O   UNL     2      -8.457   4.601  69.579  1.00  0.00    -0.077 OA 
HETATM    3  C   UNL     2      -8.531   5.686  70.515  1.00  0.00    -0.121 C  
HETATM    4  H   UNL     2      -7.966   3.904  69.999  1.00  0.00     0.000 HD 
HETATM    5  O   UNL     3      -9.732  16.943  65.867  1.00  0.00    -0.467 OA 
HETATM    6  H   UNL     3      -8.872  17.004  66.265  1.00  0.00     0.000 HD 
HETATM    7  C   UNL     3     -10.015  15.554  65.600  1.00  0.00    -0.360 C  
ENDROOT
BRANCH   3   8
HETATM    8  C   UNL     2      -9.321   6.806  69.842  1.00  0.00    -0.157 C  
HETATM    9  O   UNL     2      -9.104   6.763  68.418  1.00  0.00    -0.127 OA 
HETATM   10  H   UNL     2      -9.595   7.460  67.999  1.00  0.00     0.000 HD 
BRANCH   8  11
HETATM   11  C   UNL     2     -10.825   6.744  70.177  1.00  0.00    -0.266 C  
HETATM   12  O   UNL     2     -10.999   5.700  71.138  1.00  0.00    -0.246 OA 
HETATM   13  H   UNL     2     -11.925   5.661  71.345  1.00  0.00     0.000 HD 
BRANCH  11  14
HETATM   14  C   UNL     2     -11.261   8.108  70.748  1.00  0.00    -0.261 C  
HETATM   15  H   UNL     2     -10.335   9.724  71.417  1.00  0.00     0.000 HD 
HETATM   16  O   UNL     2     -10.067   8.884  71.066  1.00  0.00    -0.212 OA 
BRANCH  14  17
HETATM   17  C   UNL     2     -12.238   8.093  71.924  1.00  0.00    -0.331 C  
HETATM   18  C   UNL     2     -13.070   9.401  71.922  1.00  0.00    -0.424 C  
HETATM   19  H   UNL     2     -12.136   7.822  73.871  1.00  0.00     0.000 HD 
HETATM   20  O   UNL     2     -11.529   7.832  73.140  1.00  0.00    -0.330 OA 
HETATM   21  O   UNL     2     -13.548   9.641  70.767  1.00  0.00    -0.187 OA 
HETATM   22  O   UNL     2     -13.177   9.984  73.019  1.00  0.00     0.508 OA 
ENDBRANCH  14  17
ENDBRANCH  11  14
ENDBRANCH   8  11
ENDBRANCH   3   8
BRANCH   7  23
HETATM   23  C   UNL     3     -11.405  15.454  64.957  1.00  0.00    -0.333 C  
HETATM   24  O   UNL     3     -11.433  16.326  63.808  1.00  0.00    -1.475 OA 
HETATM   25  H   UNL     3     -12.294  16.264  63.410  1.00  0.00     0.000 HD 
BRANCH  23  26
HETATM   26  C   UNL     3     -11.822  14.073  64.417  1.00  0.00    -0.431 C  
HETATM   27  O   UNL     3     -12.441  14.177  63.132  1.00  0.00    -1.126 OA 
HETATM   28  H   UNL     3     -12.698  13.324  62.799  1.00  0.00     0.000 HD 
BRANCH  26  29
HETATM   29  C   UNL     3     -10.763  12.950  64.367  1.00  0.00    -0.386 C  
HETATM   30  O   UNL     3      -9.785  13.160  63.336  1.00  0.00    -0.234 OA 
HETATM   31  H   UNL     3      -9.133  12.469  63.305  1.00  0.00     0.000 HD 
BRANCH  29  32
HETATM   32  C   UNL     3     -11.277  11.520  64.237  1.00  0.00    -0.283 C  
HETATM   33  C   UNL     3     -10.173  10.467  64.029  1.00  0.00    -0.168 C  
HETATM   34  O   UNL     3     -12.183  11.439  63.053  1.00  0.00    -0.946 OA 
HETATM   35  O   UNL     3      -9.969  10.218  62.769  1.00  0.00    -0.145 OA 
HETATM   36  O   UNL     3      -9.896   9.736  65.000  1.00  0.00    -0.306 OA 
HETATM   37  H   UNL     3     -12.503  10.548  62.972  1.00  0.00     0.000 HD 
ENDBRANCH  29  32
ENDBRANCH  26  29
ENDBRANCH  23  26
ENDBRANCH   7  23
TORSDOF 8
ENDMDL
MODEL       77
REMARK 921   NORMALIZED FREE ENERGY PREDICTED BY IDOCK:   -5.84 KCAL/MOL
REMARK 922        TOTAL FREE ENERGY PREDICTED BY IDOCK:  -10.65 KCAL/MOL
REMARK 923 INTER-LIGAND FREE ENERGY PREDICTED BY IDOCK:   -9.35 KCAL/MOL
REMARK 924 INTRA-LIGAND FREE ENERGY PREDICTED BY IDOCK:   -1.31 KCAL/MOL
REMARK 927      BINDING AFFINITY PREDICTED BY RF-SCORE:    0.00 PKD
ROOT
HETATM    1 CU   UNL     1     -11.306  12.245  68.581  1.00  0.00    -0.190 Cu 
HETATM    2  O   UNL     2     -12.646   6.660  70.325  1.00  0.00    -0.438 OA 
HETATM    3  C   UNL     2     -11.492   7.213  70.973  1.00  0.00    -0.297 C  
HETATM    4  H   UNL     2     -12.649   5.727  70.507  1.00  0.00     0.000 HD 
HETATM    5  O   UNL     3      -6.744  17.388  66.105  1.00  0.00    -0.246 OA 
HETATM    6  H   UNL     3      -6.038  16.770  65.953  1.00  0.00     0.000 HD 
HETATM    7  C   UNL     3      -7.975  16.650  66.249  1.00  0.00    -0.305 C  
ENDROOT
BRANCH   3   8
HETATM    8  C   UNL     2     -11.488   8.711  70.681  1.00  0.00    -0.228 C  
HETATM    9  O   UNL     2     -12.317   9.394  71.642  1.00  0.00    -0.337 OA 
HETATM   10  H   UNL     2     -12.315  10.326  71.460  1.00  0.00     0.000 HD 
BRANCH   8  11
HETATM   11  C   UNL     2     -10.062   9.299  70.661  1.00  0.00    -0.276 C  
HETATM   12  O   UNL     2      -9.326   8.652  71.702  1.00  0.00    -0.214 OA 
HETATM   13  H   UNL     2      -8.448   9.013  71.690  1.00  0.00     0.000 HD 
BRANCH  11  14
HETATM   14  C   UNL     2      -9.435   9.026  69.279  1.00  0.00    -0.157 C  
HETATM   15  H   UNL     2      -7.624   9.168  68.493  1.00  0.00     0.000 HD 
HETATM   16  O   UNL     2      -8.011   9.336  69.344  1.00  0.00    -0.090 OA 
BRANCH  14  17
HETATM   17  C   UNL     2     -10.091   9.694  68.070  1.00  0.00    -0.178 C  
HETATM   18  C   UNL     2     -10.323   8.638  66.959  1.00  0.00    -0.298 C  
HETATM   19  H   UNL     2      -9.729  11.247  66.917  1.00  0.00     0.000 HD 
HETATM   20  O   UNL     2      -9.320  10.832  67.668  1.00  0.00    -0.146 OA 
HETATM   21  O   UNL     2     -10.883   7.594  67.426  1.00  0.00    -0.258 OA 
HETATM   22  O   UNL     2      -9.978   8.969  65.808  1.00  0.00    -0.241 OA 
ENDBRANCH  14  17
ENDBRANCH  11  14
ENDBRANCH   8  11
ENDBRANCH   3   8
BRANCH   7  23
HETATM   23  C   UNL     3      -9.115  17.646  66.495  1.00  0.00    -0.265 C  
HETATM   24  O   UNL     3      -8.726  18.921  65.942  1.00  0.00    -0.464 OA 
HETATM   25  H   UNL     3      -9.432  19.538  66.094  1.00  0.00     0.000 HD 
BRANCH  23  26
HETATM   26  C   UNL     3     -10.471  17.326  65.836  1.00  0.00    -0.262 C  
HETATM   27  O   UNL     3     -10.974  18.444  65.100  1.00  0.00    -0.604 OA 
HETATM   28  H   UNL     3     -11.810  18.246  64.694  1.00  0.00     0.000 HD 
BRANCH  26  29
HETATM   29  C   UNL     3     -10.583  16.062  64.955  1.00  0.00    -0.316 C  
HETATM   30  O   UNL     3     -11.438  16.258  63.817  1.00  0.00    -1.475 OA 
HETATM   31  H   UNL     3     -11.507  15.480  63.276  1.00  0.00     0.000 HD 
BRANCH  29  32
HETATM   32  C   UNL     3     -11.015  14.774  65.647  1.00  0.00    -0.344 C  
HETATM   33  C   UNL     3     -12.104  13.987  64.896  1.00  0.00    -0.420 C  
HETATM   34  O   UNL     3     -11.570  15.111  66.991  1.00  0.00    -0.295 OA 
HETATM   35  O   UNL     3     -13.298  14.289  65.314  1.00  0.00    -0.660 OA 
HETATM   36  O   UNL     3     -11.749  12.948  64.305  1.00  0.00    -0.341 OA 
HETATM   37  H   UNL     3     -11.840  14.308  67.422  1.00  0.00     0.000 HD 
ENDBRANCH  29  32
ENDBRANCH  26  29
ENDBRANCH  23  26
ENDBRANCH   7  23
TORSDOF 8
ENDMDL
MODEL       78
REMARK 921   NORMALIZED FREE ENERGY PREDICTED BY IDOCK:   -5.84 KCAL/MOL
REMARK 922        TOTAL FREE ENERGY PREDICTED BY IDOCK:  -10.65 KCAL/MOL
REMARK 923 INTER-LIGAND FREE ENERGY PREDICTED BY IDOCK:   -8.67 KCAL/MOL
REMARK 924 INTRA-LIGAND FREE ENERGY PREDICTED BY IDOCK:   -1.98 KCAL/MOL
REMARK 927      BINDING AFFINITY PREDICTED BY RF-SCORE:    0.00 PKD
ROOT
HETATM    1 CU   UNL     1     -11.017  11.528  67.136  1.00  0.00    -0.200 Cu 
HETATM    2  O   UNL     2     -11.728  16.342  63.621  1.00  0.00    -1.520 OA 
HETATM    3  C   UNL     2     -11.041  16.614  64.851  1.00  0.00    -0.129 C  
HETATM    4  H   UNL     2     -11.970  17.181  63.245  1.00  0.00     0.000 HD 
HETATM    5  O   UNL     3     -11.522   7.963  73.493  1.00  0.00    -0.454 OA 
HETATM    6  H   UNL     3     -12.006   8.663  73.914  1.00  0.00     0.000 HD 
HETATM    7  C   UNL     3     -11.572   8.164  72.066  1.00  0.00    -0.330 C  
ENDROOT
BRANCH   3   8
HETATM    8  C   UNL     2     -10.652  15.267  65.454  1.00  0.00    -0.394 C  
HETATM    9  O   UNL     2     -10.351  14.332  64.400  1.00  0.00    -0.534 OA 
HETATM   10  H   UNL     2     -10.109  13.494  64.776  1.00  0.00     0.000 HD 
BRANCH   8  11
HETATM   11  C   UNL     2      -9.475  15.388  66.443  1.00  0.00    -0.296 C  
HETATM   12  O   UNL     2      -9.279  16.781  66.696  1.00  0.00    -0.231 OA 
HETATM   13  H   UNL     2      -8.554  16.856  67.305  1.00  0.00     0.000 HD 
BRANCH  11  14
HETATM   14  C   UNL     2      -9.835  14.629  67.736  1.00  0.00    -0.216 C  
HETATM   15  H   UNL     2      -9.536  12.802  68.436  1.00  0.00     0.000 HD 
HETATM   16  O   UNL     2      -9.314  13.270  67.640  1.00  0.00    -0.196 OA 
BRANCH  14  17
HETATM   17  C   UNL     2     -11.304  14.629  68.159  1.00  0.00    -0.302 C  
HETATM   18  C   UNL     2     -11.516  15.668  69.290  1.00  0.00    -0.362 C  
HETATM   19  H   UNL     2     -12.629  13.296  68.745  1.00  0.00     0.000 HD 
HETATM   20  O   UNL     2     -11.716  13.296  68.482  1.00  0.00    -0.310 OA 
HETATM   21  O   UNL     2     -10.994  16.789  68.989  1.00  0.00    -0.304 OA 
HETATM   22  O   UNL     2     -12.175  15.280  70.275  1.00  0.00    -0.318 OA 
ENDBRANCH  14  17
ENDBRANCH  11  14
ENDBRANCH   8  11
ENDBRANCH   3   8
BRANCH   7  23
HETATM   23  C   UNL     3     -10.790   7.033  71.386  1.00  0.00    -0.229 C  
HETATM   24  O   UNL     3     -11.646   5.874  71.313  1.00  0.00    -0.203 OA 
HETATM   25  H   UNL     3     -11.161   5.173  70.892  1.00  0.00     0.000 HD 
BRANCH  23  26
HETATM   26  C   UNL     3     -10.333   7.280  69.935  1.00  0.00    -0.219 C  
HETATM   27  O   UNL     3     -10.978   6.387  69.023  1.00  0.00    -0.289 OA 
HETATM   28  H   UNL     3     -10.696   6.540  68.128  1.00  0.00     0.000 HD 
BRANCH  26  29
HETATM   29  C   UNL     3     -10.418   8.714  69.369  1.00  0.00    -0.218 C  
HETATM   30  O   UNL     3     -11.191   8.784  68.160  1.00  0.00    -0.390 OA 
HETATM   31  H   UNL     3     -11.243   9.667  67.812  1.00  0.00     0.000 HD 
BRANCH  29  32
HETATM   32  C   UNL     3      -9.099   9.439  69.122  1.00  0.00    -0.148 C  
HETATM   33  C   UNL     3      -7.918   8.905  69.951  1.00  0.00    -0.108 C  
HETATM   34  O   UNL     3      -9.267  10.879  69.480  1.00  0.00    -0.402 OA 
HETATM   35  O   UNL     3      -7.761   9.569  71.059  1.00  0.00    -0.319 OA 
HETATM   36  O   UNL     3      -7.066   8.222  69.351  1.00  0.00    -0.053 OA 
HETATM   37  H   UNL     3      -8.446  11.331  69.326  1.00  0.00     0.000 HD 
ENDBRANCH  29  32
ENDBRANCH  26  29
ENDBRANCH  23  26
ENDBRANCH   7  23
TORSDOF 8
ENDMDL
MODEL       79
REMARK 921   NORMALIZED FREE ENERGY PREDICTED BY IDOCK:   -5.84 KCAL/MOL
REMARK 922        TOTAL FREE ENERGY PREDICTED BY IDOCK:  -10.64 KCAL/MOL
REMARK 923 INTER-LIGAND FREE ENERGY PREDICTED BY IDOCK:   -8.69 KCAL/MOL
REMARK 924 INTRA-LIGAND FREE ENERGY PREDICTED BY IDOCK:   -1.95 KCAL/MOL
REMARK 927      BINDING AFFINITY PREDICTED BY RF-SCORE:    0.00 PKD
ROOT
HETATM    1 CU   UNL     1     -10.642  11.258  69.577  1.00  0.00    -0.197 Cu 
HETATM    2  O   UNL     2     -11.028   7.239  74.020  1.00  0.00    -0.518 OA 
HETATM    3  C   UNL     2     -10.775   6.662  72.730  1.00  0.00    -0.243 C  
HETATM    4  H   UNL     2     -11.275   6.528  74.600  1.00  0.00     0.000 HD 
HETATM    5  O   UNL     3     -12.415  13.901  63.000  1.00  0.00    -1.099 OA 
HETATM    6  H   UNL     3     -13.101  13.257  62.862  1.00  0.00     0.000 HD 
HETATM    7  C   UNL     3     -12.081  13.921  64.403  1.00  0.00    -0.443 C  
ENDROOT
BRANCH   3   8
HETATM    8  C   UNL     2     -10.378   7.803  71.798  1.00  0.00    -0.199 C  
HETATM    9  O   UNL     2      -8.983   7.686  71.455  1.00  0.00    -0.131 OA 
HETATM   10  H   UNL     2      -8.736   8.396  70.875  1.00  0.00     0.000 HD 
BRANCH   8  11
HETATM   11  C   UNL     2     -11.258   7.858  70.533  1.00  0.00    -0.253 C  
HETATM   12  O   UNL     2     -11.803   9.178  70.457  1.00  0.00    -0.421 OA 
HETATM   13  H   UNL     2     -12.346   9.212  69.678  1.00  0.00     0.000 HD 
BRANCH  11  14
HETATM   14  C   UNL     2     -10.380   7.543  69.305  1.00  0.00    -0.209 C  
HETATM   15  H   UNL     2      -9.972   8.439  67.589  1.00  0.00     0.000 HD 
HETATM   16  O   UNL     2     -10.513   8.633  68.345  1.00  0.00    -0.213 OA 
BRANCH  14  17
HETATM   17  C   UNL     2     -10.584   6.185  68.632  1.00  0.00    -0.270 C  
HETATM   18  C   UNL     2      -9.258   5.383  68.676  1.00  0.00    -0.117 C  
HETATM   19  H   UNL     2     -11.257   5.528  66.903  1.00  0.00     0.000 HD 
HETATM   20  O   UNL     2     -11.131   6.372  67.321  1.00  0.00    -0.368 OA 
HETATM   21  O   UNL     2      -8.757   5.386  69.846  1.00  0.00    -0.117 OA 
HETATM   22  O   UNL     2      -8.910   4.840  67.609  1.00  0.00    -0.103 OA 
ENDBRANCH  14  17
ENDBRANCH  11  14
ENDBRANCH   8  11
ENDBRANCH   3   8
BRANCH   7  23
HETATM   23  C   UNL     3     -10.973  14.959  64.626  1.00  0.00    -0.306 C  
HETATM   24  O   UNL     3     -11.431  16.224  64.105  1.00  0.00    -1.182 OA 
HETATM   25  H   UNL     3     -10.745  16.867  64.243  1.00  0.00     0.000 HD 
BRANCH  23  26
HETATM   26  C   UNL     3     -10.579  15.251  66.087  1.00  0.00    -0.313 C  
HETATM   27  O   UNL     3     -10.388  16.650  66.309  1.00  0.00    -0.311 OA 
HETATM   28  H   UNL     3     -10.145  16.830  67.211  1.00  0.00     0.000 HD 
BRANCH  26  29
HETATM   29  C   UNL     3     -11.467  14.686  67.217  1.00  0.00    -0.372 C  
HETATM   30  O   UNL     3     -12.336  15.680  67.784  1.00  0.00    -0.027 OA 
HETATM   31  H   UNL     3     -12.882  15.332  68.479  1.00  0.00     0.000 HD 
BRANCH  29  32
HETATM   32  C   UNL     3     -10.757  13.978  68.366  1.00  0.00    -0.251 C  
HETATM   33  C   UNL     3     -11.490  14.070  69.716  1.00  0.00    -0.230 C  
HETATM   34  O   UNL     3      -9.412  14.599  68.557  1.00  0.00    -0.205 OA 
HETATM   35  O   UNL     3     -11.067  15.070  70.432  1.00  0.00    -0.261 OA 
HETATM   36  O   UNL     3     -12.070  13.043  70.118  1.00  0.00    -0.336 OA 
HETATM   37  H   UNL     3      -8.970  14.159  69.273  1.00  0.00     0.000 HD 
ENDBRANCH  29  32
ENDBRANCH  26  29
ENDBRANCH  23  26
ENDBRANCH   7  23
TORSDOF 8
ENDMDL
MODEL       80
REMARK 921   NORMALIZED FREE ENERGY PREDICTED BY IDOCK:   -5.84 KCAL/MOL
REMARK 922        TOTAL FREE ENERGY PREDICTED BY IDOCK:  -10.64 KCAL/MOL
REMARK 923 INTER-LIGAND FREE ENERGY PREDICTED BY IDOCK:   -8.50 KCAL/MOL
REMARK 924 INTRA-LIGAND FREE ENERGY PREDICTED BY IDOCK:   -2.14 KCAL/MOL
REMARK 927      BINDING AFFINITY PREDICTED BY RF-SCORE:    0.00 PKD
ROOT
HETATM    1 CU   UNL     1      -9.836   7.842  65.510  1.00  0.00    -0.407 Cu 
HETATM    2  O   UNL     2      -9.478   1.851  65.640  1.00  0.00    -0.329 OA 
HETATM    3  C   UNL     2      -9.344   2.415  64.328  1.00  0.00    -0.130 C  
HETATM    4  H   UNL     2      -9.615   0.917  65.529  1.00  0.00     0.000 HD 
HETATM    5  O   UNL     3     -12.505  14.163  62.999  1.00  0.00    -1.077 OA 
HETATM    6  H   UNL     3     -13.165  13.738  62.463  1.00  0.00     0.000 HD 
HETATM    7  C   UNL     3     -12.012  13.208  63.961  1.00  0.00    -0.460 C  
ENDROOT
BRANCH   3   8
HETATM    8  C   UNL     2      -9.122   3.915  64.505  1.00  0.00    -0.137 C  
HETATM    9  O   UNL     2      -8.548   4.465  63.303  1.00  0.00    -0.102 OA 
HETATM   10  H   UNL     2      -8.410   5.399  63.414  1.00  0.00     0.000 HD 
BRANCH   8  11
HETATM   11  C   UNL     2     -10.419   4.656  64.891  1.00  0.00     0.105 C  
HETATM   12  O   UNL     2     -11.507   3.771  64.614  1.00  0.00    -0.569 OA 
HETATM   13  H   UNL     2     -12.305   4.227  64.851  1.00  0.00     0.000 HD 
BRANCH  11  14
HETATM   14  C   UNL     2     -10.356   5.014  66.389  1.00  0.00    -0.294 C  
HETATM   15  H   UNL     2     -11.095   6.448  67.535  1.00  0.00     0.000 HD 
HETATM   16  O   UNL     2     -11.134   6.228  66.612  1.00  0.00    -0.292 OA 
BRANCH  14  17
HETATM   17  C   UNL     2      -8.969   5.122  67.023  1.00  0.00    -0.112 C  
HETATM   18  C   UNL     2      -8.915   4.246  68.301  1.00  0.00    -0.118 C  
HETATM   19  H   UNL     2      -7.773   6.567  67.618  1.00  0.00     0.000 HD 
HETATM   20  O   UNL     2      -8.635   6.501  67.224  1.00  0.00    -0.112 OA 
HETATM   21  O   UNL     2      -9.365   3.077  68.076  1.00  0.00    -0.190 OA 
HETATM   22  O   UNL     2      -8.420   4.781  69.313  1.00  0.00    -0.080 OA 
ENDBRANCH  14  17
ENDBRANCH  11  14
ENDBRANCH   8  11
ENDBRANCH   3   8
BRANCH   7  23
HETATM   23  C   UNL     3     -10.947  13.893  64.827  1.00  0.00    -0.401 C  
HETATM   24  O   UNL     3     -10.933  15.297  64.496  1.00  0.00    -0.636 OA 
HETATM   25  H   UNL     3     -10.273  15.722  65.032  1.00  0.00     0.000 HD 
BRANCH  23  26
HETATM   26  C   UNL     3     -11.157  13.848  66.352  1.00  0.00    -0.309 C  
HETATM   27  O   UNL     3     -12.483  14.244  66.711  1.00  0.00    -0.575 OA 
HETATM   28  H   UNL     3     -12.612  14.216  67.653  1.00  0.00     0.000 HD 
BRANCH  26  29
HETATM   29  C   UNL     3     -10.808  12.546  67.107  1.00  0.00    -0.250 C  
HETATM   30  O   UNL     3     -11.812  11.531  66.948  1.00  0.00    -0.542 OA 
HETATM   31  H   UNL     3     -11.597  10.730  67.412  1.00  0.00     0.000 HD 
BRANCH  29  32
HETATM   32  C   UNL     3     -10.502  12.670  68.595  1.00  0.00    -0.205 C  
HETATM   33  C   UNL     3     -11.722  12.467  69.511  1.00  0.00    -0.309 C  
HETATM   34  O   UNL     3      -9.976  14.041  68.867  1.00  0.00    -0.350 OA 
HETATM   35  O   UNL     3     -12.295  13.595  69.815  1.00  0.00    -0.305 OA 
HETATM   36  O   UNL     3     -11.790  11.391  70.136  1.00  0.00    -0.312 OA 
HETATM   37  H   UNL     3      -9.785  14.118  69.794  1.00  0.00     0.000 HD 
ENDBRANCH  29  32
ENDBRANCH  26  29
ENDBRANCH  23  26
ENDBRANCH   7  23
TORSDOF 8
ENDMDL
MODEL       81
REMARK 921   NORMALIZED FREE ENERGY PREDICTED BY IDOCK:   -5.83 KCAL/MOL
REMARK 922        TOTAL FREE ENERGY PREDICTED BY IDOCK:  -10.64 KCAL/MOL
REMARK 923 INTER-LIGAND FREE ENERGY PREDICTED BY IDOCK:   -8.72 KCAL/MOL
REMARK 924 INTRA-LIGAND FREE ENERGY PREDICTED BY IDOCK:   -1.92 KCAL/MOL
REMARK 927      BINDING AFFINITY PREDICTED BY RF-SCORE:    0.00 PKD
ROOT
HETATM    1 CU   UNL     1     -10.643  11.211  69.478  1.00  0.00    -0.195 Cu 
HETATM    2  O   UNL     2     -11.261   7.045  73.756  1.00  0.00    -0.473 OA 
HETATM    3  C   UNL     2     -11.201   6.512  72.425  1.00  0.00    -0.275 C  
HETATM    4  H   UNL     2     -11.562   6.346  74.324  1.00  0.00     0.000 HD 
HETATM    5  O   UNL     3     -12.530  14.448  63.205  1.00  0.00    -1.099 OA 
HETATM    6  H   UNL     3     -13.313  13.919  63.100  1.00  0.00     0.000 HD 
HETATM    7  C   UNL     3     -12.085  14.341  64.573  1.00  0.00    -0.480 C  
ENDROOT
BRANCH   3   8
HETATM    8  C   UNL     2     -10.715   7.635  71.513  1.00  0.00    -0.221 C  
HETATM    9  O   UNL     2     -10.728   8.883  72.232  1.00  0.00    -0.320 OA 
HETATM   10  H   UNL     2     -10.426   9.582  71.663  1.00  0.00     0.000 HD 
BRANCH   8  11
HETATM   11  C   UNL     2      -9.319   7.347  70.924  1.00  0.00    -0.155 C  
HETATM   12  O   UNL     2      -9.283   5.958  70.587  1.00  0.00    -0.150 OA 
HETATM   13  H   UNL     2      -8.424   5.780  70.224  1.00  0.00     0.000 HD 
BRANCH  11  14
HETATM   14  C   UNL     2      -9.117   8.230  69.677  1.00  0.00    -0.154 C  
HETATM   15  H   UNL     2      -8.886  10.166  69.335  1.00  0.00     0.000 HD 
HETATM   16  O   UNL     2      -9.010   9.621  70.103  1.00  0.00    -0.218 OA 
BRANCH  14  17
HETATM   17  C   UNL     2     -10.128   8.076  68.540  1.00  0.00    -0.199 C  
HETATM   18  C   UNL     2      -9.439   7.411  67.322  1.00  0.00    -0.146 C  
HETATM   19  H   UNL     2     -11.374   9.244  67.561  1.00  0.00     0.000 HD 
HETATM   20  O   UNL     2     -10.746   9.340  68.267  1.00  0.00    -0.209 OA 
HETATM   21  O   UNL     2      -8.790   6.373  67.671  1.00  0.00    -0.114 OA 
HETATM   22  O   UNL     2      -9.647   7.946  66.215  1.00  0.00    -0.195 OA 
ENDBRANCH  14  17
ENDBRANCH  11  14
ENDBRANCH   8  11
ENDBRANCH   3   8
BRANCH   7  23
HETATM   23  C   UNL     3     -10.821  15.195  64.742  1.00  0.00    -0.357 C  
HETATM   24  O   UNL     3     -11.099  16.515  64.232  1.00  0.00    -1.199 OA 
HETATM   25  H   UNL     3     -10.316  17.044  64.337  1.00  0.00     0.000 HD 
BRANCH  23  26
HETATM   26  C   UNL     3     -10.326  15.423  66.184  1.00  0.00    -0.313 C  
HETATM   27  O   UNL     3     -10.900  16.600  66.756  1.00  0.00    -0.193 OA 
HETATM   28  H   UNL     3     -10.595  16.741  67.645  1.00  0.00     0.000 HD 
BRANCH  26  29
HETATM   29  C   UNL     3     -10.453  14.266  67.199  1.00  0.00    -0.266 C  
HETATM   30  O   UNL     3     -10.009  13.010  66.661  1.00  0.00    -0.238 OA 
HETATM   31  H   UNL     3     -10.088  12.298  67.286  1.00  0.00     0.000 HD 
BRANCH  29  32
HETATM   32  C   UNL     3     -11.825  14.045  67.828  1.00  0.00    -0.384 C  
HETATM   33  C   UNL     3     -11.919  14.467  69.305  1.00  0.00    -0.319 C  
HETATM   34  O   UNL     3     -12.153  12.590  67.769  1.00  0.00    -0.409 OA 
HETATM   35  O   UNL     3     -11.692  13.472  70.111  1.00  0.00    -0.278 OA 
HETATM   36  O   UNL     3     -12.539  15.519  69.556  1.00  0.00    -0.157 OA 
HETATM   37  H   UNL     3     -13.008  12.452  68.161  1.00  0.00     0.000 HD 
ENDBRANCH  29  32
ENDBRANCH  26  29
ENDBRANCH  23  26
ENDBRANCH   7  23
TORSDOF 8
ENDMDL
MODEL       82
REMARK 921   NORMALIZED FREE ENERGY PREDICTED BY IDOCK:   -5.83 KCAL/MOL
REMARK 922        TOTAL FREE ENERGY PREDICTED BY IDOCK:  -10.64 KCAL/MOL
REMARK 923 INTER-LIGAND FREE ENERGY PREDICTED BY IDOCK:   -8.65 KCAL/MOL
REMARK 924 INTRA-LIGAND FREE ENERGY PREDICTED BY IDOCK:   -1.99 KCAL/MOL
REMARK 927      BINDING AFFINITY PREDICTED BY RF-SCORE:    0.00 PKD
ROOT
HETATM    1 CU   UNL     1     -11.603   9.738  67.064  1.00  0.00    -0.189 Cu 
HETATM    2  O   UNL     2     -12.347  14.777  63.886  1.00  0.00    -0.981 OA 
HETATM    3  C   UNL     2     -12.088  13.614  63.085  1.00  0.00     0.173 C  
HETATM    4  H   UNL     2     -12.241  15.534  63.321  1.00  0.00     0.000 HD 
HETATM    5  O   UNL     3      -7.978   3.672  68.918  1.00  0.00    -0.058 OA 
HETATM    6  H   UNL     3      -7.225   3.888  68.380  1.00  0.00     0.000 HD 
HETATM    7  C   UNL     3      -8.768   4.865  69.099  1.00  0.00    -0.087 C  
ENDROOT
BRANCH   3   8
HETATM    8  C   UNL     2     -12.257  12.398  63.992  1.00  0.00    -0.490 C  
HETATM    9  O   UNL     2     -12.945  11.353  63.277  1.00  0.00    -0.534 OA 
HETATM   10  H   UNL     2     -13.051  10.596  63.842  1.00  0.00     0.000 HD 
BRANCH   8  11
HETATM   11  C   UNL     2     -10.911  11.895  64.552  1.00  0.00    -0.322 C  
HETATM   12  O   UNL     2      -9.881  12.663  63.926  1.00  0.00    -0.624 OA 
HETATM   13  H   UNL     2      -9.052  12.354  64.271  1.00  0.00     0.000 HD 
BRANCH  11  14
HETATM   14  C   UNL     2     -10.907  12.094  66.081  1.00  0.00    -0.282 C  
HETATM   15  H   UNL     2     -12.284  12.346  67.481  1.00  0.00     0.000 HD 
HETATM   16  O   UNL     2     -12.286  12.223  66.539  1.00  0.00    -0.588 OA 
BRANCH  14  17
HETATM   17  C   UNL     2     -10.033  13.220  66.636  1.00  0.00    -0.272 C  
HETATM   18  C   UNL     2     -10.186  13.282  68.177  1.00  0.00    -0.243 C  
HETATM   19  H   UNL     2      -9.786  15.143  66.296  1.00  0.00     0.000 HD 
HETATM   20  O   UNL     2     -10.329  14.444  65.952  1.00  0.00    -0.289 OA 
HETATM   21  O   UNL     2     -10.054  12.128  68.699  1.00  0.00    -0.212 OA 
HETATM   22  O   UNL     2     -10.370  14.415  68.665  1.00  0.00    -0.234 OA 
ENDBRANCH  14  17
ENDBRANCH  11  14
ENDBRANCH   8  11
ENDBRANCH   3   8
BRANCH   7  23
HETATM   23  C   UNL     3      -9.984   4.517  69.968  1.00  0.00    -0.210 C  
HETATM   24  O   UNL     3      -9.617   3.427  70.839  1.00  0.00    -0.158 OA 
HETATM   25  H   UNL     3     -10.370   3.212  71.378  1.00  0.00     0.000 HD 
BRANCH  23  26
HETATM   26  C   UNL     3     -10.502   5.621  70.911  1.00  0.00    -0.256 C  
HETATM   27  O   UNL     3      -9.436   6.444  71.390  1.00  0.00    -0.156 OA 
HETATM   28  H   UNL     3      -9.756   7.125  71.971  1.00  0.00     0.000 HD 
BRANCH  26  29
HETATM   29  C   UNL     3     -11.650   6.531  70.420  1.00  0.00    -0.407 C  
HETATM   30  O   UNL     3     -11.325   7.218  69.201  1.00  0.00    -0.454 OA 
HETATM   31  H   UNL     3     -12.031   7.777  68.900  1.00  0.00     0.000 HD 
BRANCH  29  32
HETATM   32  C   UNL     3     -12.185   7.562  71.408  1.00  0.00    -0.335 C  
HETATM   33  C   UNL     3     -11.551   8.957  71.272  1.00  0.00    -0.304 C  
HETATM   34  O   UNL     3     -11.905   7.090  72.797  1.00  0.00    -0.512 OA 
HETATM   35  O   UNL     3     -10.542   9.114  72.077  1.00  0.00    -0.333 OA 
HETATM   36  O   UNL     3     -12.248   9.849  70.750  1.00  0.00    -0.293 OA 
HETATM   37  H   UNL     3     -12.238   7.732  73.412  1.00  0.00     0.000 HD 
ENDBRANCH  29  32
ENDBRANCH  26  29
ENDBRANCH  23  26
ENDBRANCH   7  23
TORSDOF 8
ENDMDL
MODEL       83
REMARK 921   NORMALIZED FREE ENERGY PREDICTED BY IDOCK:   -5.83 KCAL/MOL
REMARK 922        TOTAL FREE ENERGY PREDICTED BY IDOCK:  -10.63 KCAL/MOL
REMARK 923 INTER-LIGAND FREE ENERGY PREDICTED BY IDOCK:   -8.81 KCAL/MOL
REMARK 924 INTRA-LIGAND FREE ENERGY PREDICTED BY IDOCK:   -1.82 KCAL/MOL
REMARK 927      BINDING AFFINITY PREDICTED BY RF-SCORE:    0.00 PKD
ROOT
HETATM    1 CU   UNL     1     -11.818  10.659  71.661  1.00  0.00    -0.314 Cu 
HETATM    2  O   UNL     2     -13.892  15.993  73.472  1.00  0.00    -0.796 OA 
HETATM    3  C   UNL     2     -12.563  16.036  72.934  1.00  0.00    -0.480 C  
HETATM    4  H   UNL     2     -14.042  16.823  73.911  1.00  0.00     0.000 HD 
HETATM    5  O   UNL     3      -6.831   5.322  71.471  1.00  0.00    -0.049 OA 
HETATM    6  H   UNL     3      -6.290   5.725  72.141  1.00  0.00     0.000 HD 
HETATM    7  C   UNL     3      -8.139   5.929  71.513  1.00  0.00    -0.115 C  
ENDROOT
BRANCH   3   8
HETATM    8  C   UNL     2     -12.322  14.704  72.228  1.00  0.00    -0.282 C  
HETATM    9  O   UNL     2     -12.930  13.638  72.983  1.00  0.00    -0.346 OA 
HETATM   10  H   UNL     2     -12.779  12.809  72.544  1.00  0.00     0.000 HD 
BRANCH   8  11
HETATM   11  C   UNL     2     -12.831  14.713  70.772  1.00  0.00    -0.358 C  
HETATM   12  O   UNL     2     -13.290  16.039  70.496  1.00  0.00    -0.626 OA 
HETATM   13  H   UNL     2     -13.603  16.045  69.599  1.00  0.00     0.000 HD 
BRANCH  11  14
HETATM   14  C   UNL     2     -11.669  14.317  69.839  1.00  0.00    -0.311 C  
HETATM   15  H   UNL     2     -10.019  15.191  69.182  1.00  0.00     0.000 HD 
HETATM   16  O   UNL     2     -10.735  15.435  69.757  1.00  0.00    -0.253 OA 
BRANCH  14  17
HETATM   17  C   UNL     2     -12.036  13.800  68.448  1.00  0.00    -0.360 C  
HETATM   18  C   UNL     2     -11.625  12.310  68.326  1.00  0.00    -0.331 C  
HETATM   19  H   UNL     2     -11.707  14.340  66.584  1.00  0.00     0.000 HD 
HETATM   20  O   UNL     2     -11.479  14.662  67.449  1.00  0.00    -0.341 OA 
HETATM   21  O   UNL     2     -12.033  11.637  69.326  1.00  0.00    -0.320 OA 
HETATM   22  O   UNL     2     -11.014  11.994  67.286  1.00  0.00    -0.237 OA 
ENDBRANCH  14  17
ENDBRANCH  11  14
ENDBRANCH   8  11
ENDBRANCH   3   8
BRANCH   7  23
HETATM   23  C   UNL     3      -9.012   5.279  70.431  1.00  0.00    -0.128 C  
HETATM   24  O   UNL     3      -8.543   3.931  70.223  1.00  0.00    -0.066 OA 
HETATM   25  H   UNL     3      -9.084   3.529  69.553  1.00  0.00     0.000 HD 
BRANCH  23  26
HETATM   26  C   UNL     3     -10.514   5.132  70.747  1.00  0.00    -0.193 C  
HETATM   27  O   UNL     3     -10.726   4.671  72.084  1.00  0.00    -0.151 OA 
HETATM   28  H   UNL     3     -11.652   4.581  72.278  1.00  0.00     0.000 HD 
BRANCH  26  29
HETATM   29  C   UNL     3     -11.444   6.336  70.484  1.00  0.00    -0.338 C  
HETATM   30  O   UNL     3     -11.711   6.530  69.086  1.00  0.00    -0.623 OA 
HETATM   31  H   UNL     3     -12.284   7.271  68.925  1.00  0.00     0.000 HD 
BRANCH  29  32
HETATM   32  C   UNL     3     -11.021   7.679  71.070  1.00  0.00    -0.248 C  
HETATM   33  C   UNL     3     -11.474   7.907  72.522  1.00  0.00    -0.398 C  
HETATM   34  O   UNL     3     -11.621   8.772  70.249  1.00  0.00    -0.446 OA 
HETATM   35  O   UNL     3     -12.605   8.546  72.585  1.00  0.00    -0.355 OA 
HETATM   36  O   UNL     3     -10.602   7.824  73.409  1.00  0.00    -0.348 OA 
HETATM   37  H   UNL     3     -11.357   9.609  70.614  1.00  0.00     0.000 HD 
ENDBRANCH  29  32
ENDBRANCH  26  29
ENDBRANCH  23  26
ENDBRANCH   7  23
TORSDOF 8
ENDMDL
MODEL       84
REMARK 921   NORMALIZED FREE ENERGY PREDICTED BY IDOCK:   -5.82 KCAL/MOL
REMARK 922        TOTAL FREE ENERGY PREDICTED BY IDOCK:  -10.61 KCAL/MOL
REMARK 923 INTER-LIGAND FREE ENERGY PREDICTED BY IDOCK:   -9.19 KCAL/MOL
REMARK 924 INTRA-LIGAND FREE ENERGY PREDICTED BY IDOCK:   -1.42 KCAL/MOL
REMARK 927      BINDING AFFINITY PREDICTED BY RF-SCORE:    0.00 PKD
ROOT
HETATM    1 CU   UNL     1     -10.251  11.842  69.129  1.00  0.00    -0.190 Cu 
HETATM    2  O   UNL     2      -9.620  17.812  69.168  1.00  0.00    -0.174 OA 
HETATM    3  C   UNL     2     -10.777  17.352  68.454  1.00  0.00    -0.301 C  
HETATM    4  H   UNL     2      -9.498  18.727  68.942  1.00  0.00     0.000 HD 
HETATM    5  O   UNL     3     -11.271   5.413  65.812  1.00  0.00    -0.752 OA 
HETATM    6  H   UNL     3     -11.207   5.787  64.940  1.00  0.00     0.000 HD 
HETATM    7  C   UNL     3     -10.729   6.358  66.756  1.00  0.00    -0.285 C  
ENDROOT
BRANCH   3   8
HETATM    8  C   UNL     2     -10.972  15.882  68.817  1.00  0.00    -0.301 C  
HETATM    9  O   UNL     2     -12.380  15.586  68.899  1.00  0.00    -0.602 OA 
HETATM   10  H   UNL     2     -12.502  14.672  69.125  1.00  0.00     0.000 HD 
BRANCH   8  11
HETATM   11  C   UNL     2     -10.262  14.936  67.827  1.00  0.00    -0.236 C  
HETATM   12  O   UNL     2      -9.423  14.073  68.599  1.00  0.00    -0.261 OA 
HETATM   13  H   UNL     2      -8.985  13.491  67.990  1.00  0.00     0.000 HD 
BRANCH  11  14
HETATM   14  C   UNL     2     -11.331  14.135  67.057  1.00  0.00    -0.332 C  
HETATM   15  H   UNL     2     -12.471  12.563  67.438  1.00  0.00     0.000 HD 
HETATM   16  O   UNL     2     -11.812  13.057  67.913  1.00  0.00    -0.344 OA 
BRANCH  14  17
HETATM   17  C   UNL     2     -10.947  13.612  65.672  1.00  0.00    -0.290 C  
HETATM   18  C   UNL     2     -12.231  13.331  64.851  1.00  0.00    -0.420 C  
HETATM   19  H   UNL     2      -9.823  12.169  64.945  1.00  0.00     0.000 HD 
HETATM   20  O   UNL     2     -10.061  12.494  65.806  1.00  0.00    -0.256 OA 
HETATM   21  O   UNL     2     -13.034  14.318  64.901  1.00  0.00    -0.682 OA 
HETATM   22  O   UNL     2     -12.271  12.239  64.252  1.00  0.00    -0.415 OA 
ENDBRANCH  14  17
ENDBRANCH  11  14
ENDBRANCH   8  11
ENDBRANCH   3   8
BRANCH   7  23
HETATM   23  C   UNL     3     -10.833   5.755  68.164  1.00  0.00    -0.162 C  
HETATM   24  O   UNL     3      -9.708   4.874  68.359  1.00  0.00    -0.142 OA 
HETATM   25  H   UNL     3      -9.772   4.500  69.231  1.00  0.00     0.000 HD 
BRANCH  23  26
HETATM   26  C   UNL     3     -10.775   6.741  69.347  1.00  0.00    -0.255 C  
HETATM   27  O   UNL     3     -10.974   8.090  68.917  1.00  0.00    -0.424 OA 
HETATM   28  H   UNL     3     -10.938   8.697  69.647  1.00  0.00     0.000 HD 
BRANCH  26  29
HETATM   29  C   UNL     3     -11.673   6.474  70.574  1.00  0.00    -0.375 C  
HETATM   30  O   UNL     3     -12.881   7.252  70.552  1.00  0.00    -0.590 OA 
HETATM   31  H   UNL     3     -13.433   7.087  71.307  1.00  0.00     0.000 HD 
BRANCH  29  32
HETATM   32  C   UNL     3     -11.035   6.642  71.949  1.00  0.00    -0.244 C  
HETATM   33  C   UNL     3     -10.442   5.348  72.534  1.00  0.00    -0.214 C  
HETATM   34  O   UNL     3     -12.075   7.117  72.908  1.00  0.00    -0.489 OA 
HETATM   35  O   UNL     3     -11.288   4.730  73.305  1.00  0.00    -0.319 OA 
HETATM   36  O   UNL     3      -9.200   5.242  72.535  1.00  0.00    -0.136 OA 
HETATM   37  H   UNL     3     -11.678   7.222  73.765  1.00  0.00     0.000 HD 
ENDBRANCH  29  32
ENDBRANCH  26  29
ENDBRANCH  23  26
ENDBRANCH   7  23
TORSDOF 8
ENDMDL
MODEL       85
REMARK 921   NORMALIZED FREE ENERGY PREDICTED BY IDOCK:   -5.81 KCAL/MOL
REMARK 922        TOTAL FREE ENERGY PREDICTED BY IDOCK:  -10.60 KCAL/MOL
REMARK 923 INTER-LIGAND FREE ENERGY PREDICTED BY IDOCK:   -9.20 KCAL/MOL
REMARK 924 INTRA-LIGAND FREE ENERGY PREDICTED BY IDOCK:   -1.41 KCAL/MOL
REMARK 927      BINDING AFFINITY PREDICTED BY RF-SCORE:    0.00 PKD
ROOT
HETATM    1 CU   UNL     1     -10.705  11.497  69.669  1.00  0.00    -0.211 Cu 
HETATM    2  O   UNL     2     -10.963   7.447  74.092  1.00  0.00    -0.417 OA 
HETATM    3  C   UNL     2     -10.717   6.882  72.796  1.00  0.00    -0.255 C  
HETATM    4  H   UNL     2     -11.190   6.729  74.671  1.00  0.00     0.000 HD 
HETATM    5  O   UNL     3     -12.608  14.145  63.130  1.00  0.00    -1.058 OA 
HETATM    6  H   UNL     3     -13.285  13.491  62.997  1.00  0.00     0.000 HD 
HETATM    7  C   UNL     3     -12.257  14.163  64.529  1.00  0.00    -0.445 C  
ENDROOT
BRANCH   3   8
HETATM    8  C   UNL     2     -10.352   8.035  71.865  1.00  0.00    -0.223 C  
HETATM    9  O   UNL     2      -9.191   8.720  72.375  1.00  0.00    -0.361 OA 
HETATM   10  H   UNL     2      -8.964   9.438  71.796  1.00  0.00     0.000 HD 
BRANCH   8  11
HETATM   11  C   UNL     2     -10.126   7.565  70.414  1.00  0.00    -0.196 C  
HETATM   12  O   UNL     2     -11.254   8.001  69.651  1.00  0.00    -0.444 OA 
HETATM   13  H   UNL     2     -11.116   7.712  68.757  1.00  0.00     0.000 HD 
BRANCH  11  14
HETATM   14  C   UNL     2      -8.819   8.192  69.888  1.00  0.00    -0.139 C  
HETATM   15  H   UNL     2      -8.186  10.025  69.494  1.00  0.00     0.000 HD 
HETATM   16  O   UNL     2      -8.992   9.639  69.818  1.00  0.00    -0.178 OA 
BRANCH  14  17
HETATM   17  C   UNL     2      -8.256   7.638  68.579  1.00  0.00    -0.125 C  
HETATM   18  C   UNL     2      -6.995   8.444  68.177  1.00  0.00    -0.081 C  
HETATM   19  H   UNL     2      -8.938   7.254  66.773  1.00  0.00     0.000 HD 
HETATM   20  O   UNL     2      -9.288   7.599  67.587  1.00  0.00    -0.140 OA 
HETATM   21  O   UNL     2      -6.191   8.560  69.157  1.00  0.00    -0.041 OA 
HETATM   22  O   UNL     2      -6.937   8.813  66.987  1.00  0.00    -0.073 OA 
ENDBRANCH  14  17
ENDBRANCH  11  14
ENDBRANCH   8  11
ENDBRANCH   3   8
BRANCH   7  23
HETATM   23  C   UNL     3     -11.164  15.219  64.743  1.00  0.00    -0.396 C  
HETATM   24  O   UNL     3     -11.467  16.356  63.908  1.00  0.00    -1.569 OA 
HETATM   25  H   UNL     3     -10.791  17.010  64.041  1.00  0.00     0.000 HD 
BRANCH  23  26
HETATM   26  C   UNL     3     -11.028  15.798  66.165  1.00  0.00    -0.169 C  
HETATM   27  O   UNL     3     -11.386  14.835  67.160  1.00  0.00    -0.337 OA 
HETATM   28  H   UNL     3     -11.301  15.192  68.037  1.00  0.00     0.000 HD 
BRANCH  26  29
HETATM   29  C   UNL     3      -9.690  16.454  66.570  1.00  0.00    -0.269 C  
HETATM   30  O   UNL     3      -9.339  16.192  67.938  1.00  0.00    -0.210 OA 
HETATM   31  H   UNL     3      -8.516  16.596  68.186  1.00  0.00     0.000 HD 
BRANCH  29  32
HETATM   32  C   UNL     3      -9.556  17.955  66.333  1.00  0.00    -0.286 C  
HETATM   33  C   UNL     3      -9.480  18.794  67.621  1.00  0.00    -0.300 C  
HETATM   34  O   UNL     3     -10.750  18.431  65.573  1.00  0.00    -0.588 OA 
HETATM   35  O   UNL     3     -10.648  19.233  67.986  1.00  0.00    -0.396 OA 
HETATM   36  O   UNL     3      -8.366  19.261  67.929  1.00  0.00    -0.287 OA 
HETATM   37  H   UNL     3     -10.667  19.366  65.426  1.00  0.00     0.000 HD 
ENDBRANCH  29  32
ENDBRANCH  26  29
ENDBRANCH  23  26
ENDBRANCH   7  23
TORSDOF 8
ENDMDL
MODEL       86
REMARK 921   NORMALIZED FREE ENERGY PREDICTED BY IDOCK:   -5.80 KCAL/MOL
REMARK 922        TOTAL FREE ENERGY PREDICTED BY IDOCK:  -10.59 KCAL/MOL
REMARK 923 INTER-LIGAND FREE ENERGY PREDICTED BY IDOCK:   -9.22 KCAL/MOL
REMARK 924 INTRA-LIGAND FREE ENERGY PREDICTED BY IDOCK:   -1.37 KCAL/MOL
REMARK 927      BINDING AFFINITY PREDICTED BY RF-SCORE:    0.00 PKD
ROOT
HETATM    1 CU   UNL     1      -9.969   8.968  69.674  1.00  0.00    -0.165 Cu 
HETATM    2  O   UNL     2      -9.344   5.057  74.186  1.00  0.00    -0.120 OA 
HETATM    3  C   UNL     2      -8.353   4.924  73.156  1.00  0.00    -0.104 C  
HETATM    4  H   UNL     2      -9.286   4.280  74.730  1.00  0.00     0.000 HD 
HETATM    5  O   UNL     3     -10.507  10.740  62.606  1.00  0.00    -0.760 OA 
HETATM    6  H   UNL     3     -10.545   9.833  62.322  1.00  0.00     0.000 HD 
HETATM    7  C   UNL     3     -10.783  10.788  64.021  1.00  0.00     0.027 C  
ENDROOT
BRANCH   3   8
HETATM    8  C   UNL     2      -8.445   6.171  72.281  1.00  0.00    -0.116 C  
HETATM    9  O   UNL     2      -7.280   6.258  71.438  1.00  0.00    -0.076 OA 
HETATM   10  H   UNL     2      -7.337   7.035  70.893  1.00  0.00     0.000 HD 
BRANCH   8  11
HETATM   11  C   UNL     2      -9.740   6.204  71.445  1.00  0.00    -0.167 C  
HETATM   12  O   UNL     2     -10.382   4.938  71.613  1.00  0.00    -0.203 OA 
HETATM   13  H   UNL     2     -11.180   4.957  71.098  1.00  0.00     0.000 HD 
BRANCH  11  14
HETATM   14  C   UNL     2     -10.630   7.355  71.956  1.00  0.00    -0.208 C  
HETATM   15  H   UNL     2     -11.326   7.933  73.716  1.00  0.00     0.000 HD 
HETATM   16  O   UNL     2     -10.777   7.224  73.401  1.00  0.00    -0.365 OA 
BRANCH  14  17
HETATM   17  C   UNL     2     -11.987   7.543  71.276  1.00  0.00    -0.307 C  
HETATM   18  C   UNL     2     -12.518   8.970  71.568  1.00  0.00    -0.331 C  
HETATM   19  H   UNL     2     -13.713   6.599  71.236  1.00  0.00     0.000 HD 
HETATM   20  O   UNL     2     -12.870   6.482  71.658  1.00  0.00    -0.263 OA 
HETATM   21  O   UNL     2     -11.625   9.848  71.343  1.00  0.00    -0.374 OA 
HETATM   22  O   UNL     2     -13.709   9.048  71.929  1.00  0.00    -0.396 OA 
ENDBRANCH  14  17
ENDBRANCH  11  14
ENDBRANCH   8  11
ENDBRANCH   3   8
BRANCH   7  23
HETATM   23  C   UNL     3     -10.722  12.251  64.480  1.00  0.00    -0.319 C  
HETATM   24  O   UNL     3      -9.451  12.798  64.071  1.00  0.00    -0.485 OA 
HETATM   25  H   UNL     3      -9.413  13.704  64.356  1.00  0.00     0.000 HD 
BRANCH  23  26
HETATM   26  C   UNL     3     -11.774  13.208  63.889  1.00  0.00    -0.456 C  
HETATM   27  O   UNL     3     -13.035  12.558  63.713  1.00  0.00    -0.733 OA 
HETATM   28  H   UNL     3     -13.684  13.149  63.348  1.00  0.00     0.000 HD 
BRANCH  26  29
HETATM   29  C   UNL     3     -12.010  14.567  64.585  1.00  0.00    -0.468 C  
HETATM   30  O   UNL     3     -13.084  15.312  63.989  1.00  0.00    -0.308 OA 
HETATM   31  H   UNL     3     -13.228  16.147  64.418  1.00  0.00     0.000 HD 
BRANCH  29  32
HETATM   32  C   UNL     3     -10.808  15.498  64.708  1.00  0.00    -0.363 C  
HETATM   33  C   UNL     3     -10.250  15.625  66.136  1.00  0.00    -0.311 C  
HETATM   34  O   UNL     3     -11.214  16.868  64.275  1.00  0.00    -1.325 OA 
HETATM   35  O   UNL     3     -10.758  16.643  66.768  1.00  0.00    -0.253 OA 
HETATM   36  O   UNL     3      -9.176  15.042  66.380  1.00  0.00    -0.271 OA 
HETATM   37  H   UNL     3     -10.466  17.449  64.352  1.00  0.00     0.000 HD 
ENDBRANCH  29  32
ENDBRANCH  26  29
ENDBRANCH  23  26
ENDBRANCH   7  23
TORSDOF 8
ENDMDL
MODEL       87
REMARK 921   NORMALIZED FREE ENERGY PREDICTED BY IDOCK:   -5.79 KCAL/MOL
REMARK 922        TOTAL FREE ENERGY PREDICTED BY IDOCK:  -10.58 KCAL/MOL
REMARK 923 INTER-LIGAND FREE ENERGY PREDICTED BY IDOCK:   -8.79 KCAL/MOL
REMARK 924 INTRA-LIGAND FREE ENERGY PREDICTED BY IDOCK:   -1.79 KCAL/MOL
REMARK 927      BINDING AFFINITY PREDICTED BY RF-SCORE:    0.00 PKD
ROOT
HETATM    1 CU   UNL     1     -11.022  10.381  67.640  1.00  0.00    -0.187 Cu 
HETATM    2  O   UNL     2     -11.515  15.661  64.826  1.00  0.00    -0.366 OA 
HETATM    3  C   UNL     2     -12.189  14.581  64.164  1.00  0.00    -0.342 C  
HETATM    4  H   UNL     2     -11.475  16.384  64.211  1.00  0.00     0.000 HD 
HETATM    5  O   UNL     3      -9.487   3.243  67.892  1.00  0.00    -0.198 OA 
HETATM    6  H   UNL     3      -9.146   3.225  67.005  1.00  0.00     0.000 HD 
HETATM    7  C   UNL     3      -9.543   4.614  68.334  1.00  0.00    -0.151 C  
ENDROOT
BRANCH   3   8
HETATM    8  C   UNL     2     -12.254  13.419  65.152  1.00  0.00    -0.434 C  
HETATM    9  O   UNL     2     -13.052  12.355  64.597  1.00  0.00    -0.825 OA 
HETATM   10  H   UNL     2     -13.092  11.632  65.213  1.00  0.00     0.000 HD 
BRANCH   8  11
HETATM   11  C   UNL     2     -10.852  12.913  65.550  1.00  0.00    -0.274 C  
HETATM   12  O   UNL     2      -9.924  13.464  64.612  1.00  0.00    -0.607 OA 
HETATM   13  H   UNL     2      -9.061  13.152  64.857  1.00  0.00     0.000 HD 
BRANCH  11  14
HETATM   14  C   UNL     2     -10.545  13.385  66.985  1.00  0.00    -0.264 C  
HETATM   15  H   UNL     2      -9.550  12.657  68.533  1.00  0.00     0.000 HD 
HETATM   16  O   UNL     2      -9.739  12.366  67.649  1.00  0.00    -0.188 OA 
BRANCH  14  17
HETATM   17  C   UNL     2     -11.734  13.801  67.852  1.00  0.00    -0.360 C  
HETATM   18  C   UNL     2     -11.484  15.219  68.427  1.00  0.00    -0.345 C  
HETATM   19  H   UNL     2     -12.732  13.049  69.373  1.00  0.00     0.000 HD 
HETATM   20  O   UNL     2     -11.994  12.791  68.834  1.00  0.00    -0.300 OA 
HETATM   21  O   UNL     2     -11.115  16.026  67.514  1.00  0.00    -0.300 OA 
HETATM   22  O   UNL     2     -11.710  15.365  69.644  1.00  0.00    -0.294 OA 
ENDBRANCH  14  17
ENDBRANCH  11  14
ENDBRANCH   8  11
ENDBRANCH   3   8
BRANCH   7  23
HETATM   23  C   UNL     3     -10.094   4.642  69.766  1.00  0.00    -0.173 C  
HETATM   24  O   UNL     3      -9.156   3.959  70.623  1.00  0.00    -0.092 OA 
HETATM   25  H   UNL     3      -9.497   3.976  71.510  1.00  0.00     0.000 HD 
BRANCH  23  26
HETATM   26  C   UNL     3     -10.282   6.029  70.410  1.00  0.00    -0.204 C  
HETATM   27  O   UNL     3      -9.219   6.919  70.061  1.00  0.00    -0.154 OA 
HETATM   28  H   UNL     3      -9.336   7.774  70.459  1.00  0.00     0.000 HD 
BRANCH  26  29
HETATM   29  C   UNL     3     -11.627   6.760  70.207  1.00  0.00    -0.362 C  
HETATM   30  O   UNL     3     -11.484   7.978  69.458  1.00  0.00    -0.423 OA 
HETATM   31  H   UNL     3     -12.312   8.428  69.333  1.00  0.00     0.000 HD 
BRANCH  29  32
HETATM   32  C   UNL     3     -12.440   7.076  71.459  1.00  0.00    -0.386 C  
HETATM   33  C   UNL     3     -11.991   8.347  72.200  1.00  0.00    -0.374 C  
HETATM   34  O   UNL     3     -12.304   5.940  72.419  1.00  0.00    -0.466 OA 
HETATM   35  O   UNL     3     -11.143   8.083  73.150  1.00  0.00    -0.334 OA 
HETATM   36  O   UNL     3     -12.720   9.353  72.095  1.00  0.00    -0.384 OA 
HETATM   37  H   UNL     3     -12.810   6.136  73.199  1.00  0.00     0.000 HD 
ENDBRANCH  29  32
ENDBRANCH  26  29
ENDBRANCH  23  26
ENDBRANCH   7  23
TORSDOF 8
ENDMDL
MODEL       88
REMARK 921   NORMALIZED FREE ENERGY PREDICTED BY IDOCK:   -5.79 KCAL/MOL
REMARK 922        TOTAL FREE ENERGY PREDICTED BY IDOCK:  -10.57 KCAL/MOL
REMARK 923 INTER-LIGAND FREE ENERGY PREDICTED BY IDOCK:   -9.11 KCAL/MOL
REMARK 924 INTRA-LIGAND FREE ENERGY PREDICTED BY IDOCK:   -1.47 KCAL/MOL
REMARK 927      BINDING AFFINITY PREDICTED BY RF-SCORE:    0.00 PKD
ROOT
HETATM    1 CU   UNL     1     -12.103  12.797  68.817  1.00  0.00    -0.253 Cu 
HETATM    2  O   UNL     2     -14.251   7.620  70.965  1.00  0.00    -0.667 OA 
HETATM    3  C   UNL     2     -13.551   8.410  71.937  1.00  0.00    -0.379 C  
HETATM    4  H   UNL     2     -14.364   6.753  71.338  1.00  0.00     0.000 HD 
HETATM    5  O   UNL     3      -6.799  17.699  67.708  1.00  0.00    -0.174 OA 
HETATM    6  H   UNL     3      -6.123  17.134  68.066  1.00  0.00     0.000 HD 
HETATM    7  C   UNL     3      -7.958  16.893  67.411  1.00  0.00    -0.170 C  
ENDROOT
BRANCH   3   8
HETATM    8  C   UNL     2     -13.371   9.802  71.338  1.00  0.00    -0.371 C  
HETATM    9  O   UNL     2     -13.396  10.788  72.389  1.00  0.00    -0.606 OA 
HETATM   10  H   UNL     2     -13.284  11.655  72.016  1.00  0.00     0.000 HD 
BRANCH   8  11
HETATM   11  C   UNL     2     -12.081   9.915  70.500  1.00  0.00    -0.207 C  
HETATM   12  O   UNL     2     -11.535  11.214  70.743  1.00  0.00    -0.386 OA 
HETATM   13  H   UNL     2     -10.741  11.284  70.227  1.00  0.00     0.000 HD 
BRANCH  11  14
HETATM   14  C   UNL     2     -11.106   8.806  70.941  1.00  0.00    -0.268 C  
HETATM   15  H   UNL     2      -9.420   8.731  71.975  1.00  0.00     0.000 HD 
HETATM   16  O   UNL     2     -10.021   9.414  71.703  1.00  0.00    -0.233 OA 
BRANCH  14  17
HETATM   17  C   UNL     2     -10.565   7.879  69.852  1.00  0.00    -0.242 C  
HETATM   18  C   UNL     2     -10.296   8.698  68.564  1.00  0.00    -0.196 C  
HETATM   19  H   UNL     2     -11.110   6.187  69.007  1.00  0.00     0.000 HD 
HETATM   20  O   UNL     2     -11.447   6.763  69.684  1.00  0.00    -0.287 OA 
HETATM   21  O   UNL     2      -9.630   9.752  68.819  1.00  0.00    -0.147 OA 
HETATM   22  O   UNL     2     -10.722   8.203  67.501  1.00  0.00    -0.242 OA 
ENDBRANCH  14  17
ENDBRANCH  11  14
ENDBRANCH   8  11
ENDBRANCH   3   8
BRANCH   7  23
HETATM   23  C   UNL     3      -9.050  17.804  66.834  1.00  0.00    -0.258 C  
HETATM   24  O   UNL     3      -8.475  18.563  65.750  1.00  0.00    -0.455 OA 
HETATM   25  H   UNL     3      -9.151  19.128  65.392  1.00  0.00     0.000 HD 
BRANCH  23  26
HETATM   26  C   UNL     3     -10.281  17.109  66.221  1.00  0.00    -0.334 C  
HETATM   27  O   UNL     3     -10.849  17.884  65.163  1.00  0.00    -0.672 OA 
HETATM   28  H   UNL     3     -11.608  17.455  64.785  1.00  0.00     0.000 HD 
BRANCH  26  29
HETATM   29  C   UNL     3     -10.142  15.647  65.745  1.00  0.00    -0.366 C  
HETATM   30  O   UNL     3     -10.847  15.397  64.519  1.00  0.00    -0.640 OA 
HETATM   31  H   UNL     3     -10.762  14.497  64.226  1.00  0.00     0.000 HD 
BRANCH  29  32
HETATM   32  C   UNL     3     -10.533  14.556  66.738  1.00  0.00    -0.270 C  
HETATM   33  C   UNL     3     -10.891  13.208  66.088  1.00  0.00    -0.279 C  
HETATM   34  O   UNL     3     -11.735  15.006  67.499  1.00  0.00    -0.343 OA 
HETATM   35  O   UNL     3     -12.169  13.093  65.878  1.00  0.00    -0.425 OA 
HETATM   36  O   UNL     3     -10.055  12.289  66.189  1.00  0.00    -0.234 OA 
HETATM   37  H   UNL     3     -11.979  14.327  68.117  1.00  0.00     0.000 HD 
ENDBRANCH  29  32
ENDBRANCH  26  29
ENDBRANCH  23  26
ENDBRANCH   7  23
TORSDOF 8
ENDMDL
MODEL       89
REMARK 921   NORMALIZED FREE ENERGY PREDICTED BY IDOCK:   -5.77 KCAL/MOL
REMARK 922        TOTAL FREE ENERGY PREDICTED BY IDOCK:  -10.54 KCAL/MOL
REMARK 923 INTER-LIGAND FREE ENERGY PREDICTED BY IDOCK:   -9.34 KCAL/MOL
REMARK 924 INTRA-LIGAND FREE ENERGY PREDICTED BY IDOCK:   -1.20 KCAL/MOL
REMARK 927      BINDING AFFINITY PREDICTED BY RF-SCORE:    0.00 PKD
ROOT
HETATM    1 CU   UNL     1      -9.836  10.209  67.297  1.00  0.00    -0.153 Cu 
HETATM    2  O   UNL     2      -7.604   5.309  69.952  1.00  0.00    -0.063 OA 
HETATM    3  C   UNL     2      -7.785   6.423  70.839  1.00  0.00    -0.101 C  
HETATM    4  H   UNL     2      -7.065   4.673  70.409  1.00  0.00     0.000 HD 
HETATM    5  O   UNL     3      -9.819  17.336  65.689  1.00  0.00    -0.548 OA 
HETATM    6  H   UNL     3      -8.974  17.486  66.098  1.00  0.00     0.000 HD 
HETATM    7  C   UNL     3      -9.981  15.919  65.478  1.00  0.00    -0.278 C  
ENDROOT
BRANCH   3   8
HETATM    8  C   UNL     2      -8.651   7.444  70.106  1.00  0.00    -0.139 C  
HETATM    9  O   UNL     2      -9.738   6.770  69.442  1.00  0.00    -0.152 OA 
HETATM   10  H   UNL     2     -10.276   7.406  68.985  1.00  0.00     0.000 HD 
BRANCH   8  11
HETATM   11  C   UNL     2      -9.174   8.549  71.046  1.00  0.00    -0.182 C  
HETATM   12  O   UNL     2      -8.206   9.602  71.037  1.00  0.00    -0.338 OA 
HETATM   13  H   UNL     2      -8.528  10.282  71.616  1.00  0.00     0.000 HD 
BRANCH  11  14
HETATM   14  C   UNL     2     -10.539   9.039  70.523  1.00  0.00    -0.227 C  
HETATM   15  H   UNL     2     -11.169  10.543  69.402  1.00  0.00     0.000 HD 
HETATM   16  O   UNL     2     -10.328  10.241  69.725  1.00  0.00    -0.243 OA 
BRANCH  14  17
HETATM   17  C   UNL     2     -11.648   9.246  71.554  1.00  0.00    -0.382 C  
HETATM   18  C   UNL     2     -12.641   8.057  71.492  1.00  0.00    -0.312 C  
HETATM   19  H   UNL     2     -12.931  10.666  72.014  1.00  0.00     0.000 HD 
HETATM   20  O   UNL     2     -12.242  10.537  71.373  1.00  0.00    -0.354 OA 
HETATM   21  O   UNL     2     -12.026   6.943  71.511  1.00  0.00    -0.303 OA 
HETATM   22  O   UNL     2     -13.852   8.355  71.473  1.00  0.00    -0.360 OA 
ENDBRANCH  14  17
ENDBRANCH  11  14
ENDBRANCH   8  11
ENDBRANCH   3   8
BRANCH   7  23
HETATM   23  C   UNL     3     -11.346  15.677  64.819  1.00  0.00    -0.343 C  
HETATM   24  O   UNL     3     -11.476  16.588  63.708  1.00  0.00    -1.615 OA 
HETATM   25  H   UNL     3     -12.321  16.439  63.300  1.00  0.00     0.000 HD 
BRANCH  23  26
HETATM   26  C   UNL     3     -11.587  14.280  64.216  1.00  0.00    -0.282 C  
HETATM   27  O   UNL     3     -10.361  13.661  63.819  1.00  0.00    -0.477 OA 
HETATM   28  H   UNL     3     -10.511  12.799  63.447  1.00  0.00     0.000 HD 
BRANCH  26  29
HETATM   29  C   UNL     3     -12.418  13.260  65.026  1.00  0.00    -0.443 C  
HETATM   30  O   UNL     3     -13.432  13.889  65.827  1.00  0.00    -0.608 OA 
HETATM   31  H   UNL     3     -13.943  13.261  66.325  1.00  0.00     0.000 HD 
BRANCH  29  32
HETATM   32  C   UNL     3     -11.648  12.296  65.921  1.00  0.00    -0.393 C  
HETATM   33  C   UNL     3     -11.784  12.585  67.427  1.00  0.00    -0.366 C  
HETATM   34  O   UNL     3     -10.195  12.387  65.590  1.00  0.00    -0.253 OA 
HETATM   35  O   UNL     3     -10.817  13.335  67.868  1.00  0.00    -0.234 OA 
HETATM   36  O   UNL     3     -12.508  11.816  68.089  1.00  0.00    -0.190 OA 
HETATM   37  H   UNL     3      -9.714  11.786  66.148  1.00  0.00     0.000 HD 
ENDBRANCH  29  32
ENDBRANCH  26  29
ENDBRANCH  23  26
ENDBRANCH   7  23
TORSDOF 8
ENDMDL
MODEL       90
REMARK 921   NORMALIZED FREE ENERGY PREDICTED BY IDOCK:   -5.73 KCAL/MOL
REMARK 922        TOTAL FREE ENERGY PREDICTED BY IDOCK:  -10.49 KCAL/MOL
REMARK 923 INTER-LIGAND FREE ENERGY PREDICTED BY IDOCK:   -9.10 KCAL/MOL
REMARK 924 INTRA-LIGAND FREE ENERGY PREDICTED BY IDOCK:   -1.39 KCAL/MOL
REMARK 927      BINDING AFFINITY PREDICTED BY RF-SCORE:    0.00 PKD
ROOT
HETATM    1 CU   UNL     1     -11.906  11.083  67.044  1.00  0.00    -0.297 Cu 
HETATM    2  O   UNL     2     -12.044  16.075  63.713  1.00  0.00    -1.318 OA 
HETATM    3  C   UNL     2     -10.971  16.038  64.665  1.00  0.00    -0.278 C  
HETATM    4  H   UNL     2     -12.103  16.968  63.393  1.00  0.00     0.000 HD 
HETATM    5  O   UNL     3     -11.605   7.488  73.398  1.00  0.00    -0.621 OA 
HETATM    6  H   UNL     3     -11.688   8.281  73.917  1.00  0.00     0.000 HD 
HETATM    7  C   UNL     3     -12.012   7.781  72.046  1.00  0.00    -0.308 C  
ENDROOT
BRANCH   3   8
HETATM    8  C   UNL     2     -10.876  14.603  65.178  1.00  0.00    -0.401 C  
HETATM    9  O   UNL     2     -10.159  13.795  64.224  1.00  0.00    -0.744 OA 
HETATM   10  H   UNL     2     -10.100  12.901  64.544  1.00  0.00     0.000 HD 
BRANCH   8  11
HETATM   11  C   UNL     2     -10.225  14.524  66.574  1.00  0.00    -0.279 C  
HETATM   12  O   UNL     2      -9.859  15.856  66.943  1.00  0.00    -0.234 OA 
HETATM   13  H   UNL     2      -9.458  15.808  67.803  1.00  0.00     0.000 HD 
BRANCH  11  14
HETATM   14  C   UNL     2     -11.247  13.929  67.563  1.00  0.00    -0.303 C  
HETATM   15  H   UNL     2     -13.199  13.603  67.557  1.00  0.00     0.000 HD 
HETATM   16  O   UNL     2     -12.569  13.970  66.948  1.00  0.00    -0.262 OA 
BRANCH  14  17
HETATM   17  C   UNL     2     -11.277  14.517  68.974  1.00  0.00    -0.268 C  
HETATM   18  C   UNL     2     -12.064  13.568  69.913  1.00  0.00    -0.341 C  
HETATM   19  H   UNL     2     -11.785  16.228  69.805  1.00  0.00     0.000 HD 
HETATM   20  O   UNL     2     -11.767  15.863  68.928  1.00  0.00    -0.390 OA 
HETATM   21  O   UNL     2     -11.668  12.365  69.789  1.00  0.00    -0.307 OA 
HETATM   22  O   UNL     2     -12.911  14.108  70.653  1.00  0.00    -0.336 OA 
ENDBRANCH  14  17
ENDBRANCH  11  14
ENDBRANCH   8  11
ENDBRANCH   3   8
BRANCH   7  23
HETATM   23  C   UNL     3     -11.878   6.503  71.209  1.00  0.00    -0.329 C  
HETATM   24  O   UNL     3     -12.097   6.846  69.825  1.00  0.00    -0.623 OA 
HETATM   25  H   UNL     3     -12.014   6.054  69.306  1.00  0.00     0.000 HD 
BRANCH  23  26
HETATM   26  C   UNL     3     -10.507   5.799  71.231  1.00  0.00    -0.235 C  
HETATM   27  O   UNL     3     -10.312   5.067  72.443  1.00  0.00    -0.193 OA 
HETATM   28  H   UNL     3      -9.466   4.634  72.456  1.00  0.00     0.000 HD 
BRANCH  26  29
HETATM   29  C   UNL     3     -10.122   4.896  70.039  1.00  0.00    -0.266 C  
HETATM   30  O   UNL     3      -9.813   3.552  70.443  1.00  0.00    -0.156 OA 
HETATM   31  H   UNL     3      -9.577   2.997  69.710  1.00  0.00     0.000 HD 
BRANCH  29  32
HETATM   32  C   UNL     3      -8.992   5.383  69.138  1.00  0.00    -0.104 C  
HETATM   33  C   UNL     3      -8.783   6.908  69.154  1.00  0.00    -0.135 C  
HETATM   34  O   UNL     3      -9.300   5.000  67.728  1.00  0.00    -0.118 OA 
HETATM   35  O   UNL     3      -9.434   7.498  68.195  1.00  0.00    -0.143 OA 
HETATM   36  O   UNL     3      -7.789   7.338  69.771  1.00  0.00    -0.111 OA 
HETATM   37  H   UNL     3      -8.596   5.304  67.167  1.00  0.00     0.000 HD 
ENDBRANCH  29  32
ENDBRANCH  26  29
ENDBRANCH  23  26
ENDBRANCH   7  23
TORSDOF 8
ENDMDL
MODEL       91
REMARK 921   NORMALIZED FREE ENERGY PREDICTED BY IDOCK:   -5.73 KCAL/MOL
REMARK 922        TOTAL FREE ENERGY PREDICTED BY IDOCK:  -10.48 KCAL/MOL
REMARK 923 INTER-LIGAND FREE ENERGY PREDICTED BY IDOCK:   -8.90 KCAL/MOL
REMARK 924 INTRA-LIGAND FREE ENERGY PREDICTED BY IDOCK:   -1.58 KCAL/MOL
REMARK 927      BINDING AFFINITY PREDICTED BY RF-SCORE:    0.00 PKD
ROOT
HETATM    1 CU   UNL     1      -9.182  13.705  67.302  1.00  0.00    -0.177 Cu 
HETATM    2  O   UNL     2      -9.410  19.635  66.396  1.00  0.00    -0.351 OA 
HETATM    3  C   UNL     2     -10.438  18.900  65.716  1.00  0.00    -0.290 C  
HETATM    4  H   UNL     2      -9.405  20.511  66.030  1.00  0.00     0.000 HD 
HETATM    5  O   UNL     3      -9.049   6.761  65.033  1.00  0.00    -0.258 OA 
HETATM    6  H   UNL     3      -8.979   7.001  64.116  1.00  0.00     0.000 HD 
HETATM    7  C   UNL     3      -8.713   7.912  65.834  1.00  0.00    -0.154 C  
ENDROOT
BRANCH   3   8
HETATM    8  C   UNL     2     -10.447  17.492  66.304  1.00  0.00    -0.283 C  
HETATM    9  O   UNL     2     -10.827  17.549  67.693  1.00  0.00    -0.343 OA 
HETATM   10  H   UNL     2     -10.832  16.672  68.060  1.00  0.00     0.000 HD 
BRANCH   8  11
HETATM   11  C   UNL     2     -11.366  16.535  65.517  1.00  0.00     0.371 C  
HETATM   12  O   UNL     2     -11.118  16.763  64.127  1.00  0.00    -1.346 OA 
HETATM   13  H   UNL     2     -11.684  16.175  63.642  1.00  0.00     0.000 HD 
BRANCH  11  14
HETATM   14  C   UNL     2     -11.028  15.085  65.915  1.00  0.00    -0.343 C  
HETATM   15  H   UNL     2      -9.717  13.724  65.328  1.00  0.00     0.000 HD 
HETATM   16  O   UNL     2      -9.926  14.617  65.083  1.00  0.00    -0.358 OA 
BRANCH  14  17
HETATM   17  C   UNL     2     -12.179  14.078  65.926  1.00  0.00    -0.456 C  
HETATM   18  C   UNL     2     -11.819  12.891  66.856  1.00  0.00    -0.379 C  
HETATM   19  H   UNL     2     -13.227  13.084  64.589  1.00  0.00     0.000 HD 
HETATM   20  O   UNL     2     -12.512  13.710  64.582  1.00  0.00    -0.540 OA 
HETATM   21  O   UNL     2     -11.392  13.303  67.983  1.00  0.00    -0.259 OA 
HETATM   22  O   UNL     2     -12.029  11.751  66.397  1.00  0.00    -0.515 OA 
ENDBRANCH  14  17
ENDBRANCH  11  14
ENDBRANCH   8  11
ENDBRANCH   3   8
BRANCH   7  23
HETATM   23  C   UNL     3      -8.826   7.524  67.315  1.00  0.00    -0.124 C  
HETATM   24  O   UNL     3      -7.555   7.785  67.946  1.00  0.00    -0.110 OA 
HETATM   25  H   UNL     3      -7.625   7.545  68.863  1.00  0.00     0.000 HD 
BRANCH  23  26
HETATM   26  C   UNL     3      -9.855   8.301  68.159  1.00  0.00    -0.172 C  
HETATM   27  O   UNL     3     -10.900   8.840  67.346  1.00  0.00    -0.449 OA 
HETATM   28  H   UNL     3     -11.535   9.319  67.867  1.00  0.00     0.000 HD 
BRANCH  26  29
HETATM   29  C   UNL     3     -10.488   7.599  69.380  1.00  0.00    -0.220 C  
HETATM   30  O   UNL     3     -11.599   6.763  69.020  1.00  0.00    -0.587 OA 
HETATM   31  H   UNL     3     -11.988   6.331  69.771  1.00  0.00     0.000 HD 
BRANCH  29  32
HETATM   32  C   UNL     3     -10.930   8.489  70.537  1.00  0.00    -0.241 C  
HETATM   33  C   UNL     3     -11.452   7.720  71.763  1.00  0.00    -0.266 C  
HETATM   34  O   UNL     3     -12.042   9.370  70.070  1.00  0.00    -0.450 OA 
HETATM   35  O   UNL     3     -12.745   7.580  71.736  1.00  0.00    -0.322 OA 
HETATM   36  O   UNL     3     -10.706   7.667  72.760  1.00  0.00    -0.281 OA 
HETATM   37  H   UNL     3     -12.318   9.924  70.790  1.00  0.00     0.000 HD 
ENDBRANCH  29  32
ENDBRANCH  26  29
ENDBRANCH  23  26
ENDBRANCH   7  23
TORSDOF 8
ENDMDL
MODEL       92
REMARK 921   NORMALIZED FREE ENERGY PREDICTED BY IDOCK:   -5.72 KCAL/MOL
REMARK 922        TOTAL FREE ENERGY PREDICTED BY IDOCK:  -10.47 KCAL/MOL
REMARK 923 INTER-LIGAND FREE ENERGY PREDICTED BY IDOCK:   -8.31 KCAL/MOL
REMARK 924 INTRA-LIGAND FREE ENERGY PREDICTED BY IDOCK:   -2.16 KCAL/MOL
REMARK 927      BINDING AFFINITY PREDICTED BY RF-SCORE:    0.00 PKD
ROOT
HETATM    1 CU   UNL     1     -11.919  11.076  67.131  1.00  0.00    -0.267 Cu 
HETATM    2  O   UNL     2     -11.979  16.078  63.812  1.00  0.00    -1.339 OA 
HETATM    3  C   UNL     2     -10.878  15.999  64.728  1.00  0.00    -0.294 C  
HETATM    4  H   UNL     2     -12.015  16.974  63.496  1.00  0.00     0.000 HD 
HETATM    5  O   UNL     3     -11.544   7.457  73.466  1.00  0.00    -0.514 OA 
HETATM    6  H   UNL     3     -11.580   8.250  73.989  1.00  0.00     0.000 HD 
HETATM    7  C   UNL     3     -11.985   7.768  72.129  1.00  0.00    -0.317 C  
ENDROOT
BRANCH   3   8
HETATM    8  C   UNL     2     -10.819  14.560  65.236  1.00  0.00    -0.367 C  
HETATM    9  O   UNL     2     -10.108  13.741  64.288  1.00  0.00    -0.744 OA 
HETATM   10  H   UNL     2     -10.072  12.845  64.604  1.00  0.00     0.000 HD 
BRANCH   8  11
HETATM   11  C   UNL     2     -10.188  14.461  66.640  1.00  0.00    -0.277 C  
HETATM   12  O   UNL     2     -10.113  15.790  67.162  1.00  0.00    -0.243 OA 
HETATM   13  H   UNL     2      -9.725  15.730  68.026  1.00  0.00     0.000 HD 
BRANCH  11  14
HETATM   14  C   UNL     2     -11.079  13.563  67.520  1.00  0.00    -0.274 C  
HETATM   15  H   UNL     2     -12.939  12.891  67.432  1.00  0.00     0.000 HD 
HETATM   16  O   UNL     2     -12.389  13.445  66.890  1.00  0.00    -0.328 OA 
BRANCH  14  17
HETATM   17  C   UNL     2     -11.208  13.940  68.996  1.00  0.00    -0.274 C  
HETATM   18  C   UNL     2     -11.763  12.731  69.792  1.00  0.00    -0.282 C  
HETATM   19  H   UNL     2     -12.051  15.380  70.041  1.00  0.00     0.000 HD 
HETATM   20  O   UNL     2     -11.971  15.146  69.123  1.00  0.00    -0.307 OA 
HETATM   21  O   UNL     2     -11.124  11.665  69.515  1.00  0.00    -0.233 OA 
HETATM   22  O   UNL     2     -12.691  12.977  70.587  1.00  0.00    -0.214 OA 
ENDBRANCH  14  17
ENDBRANCH  11  14
ENDBRANCH   8  11
ENDBRANCH   3   8
BRANCH   7  23
HETATM   23  C   UNL     3     -11.926   6.488  71.286  1.00  0.00    -0.306 C  
HETATM   24  O   UNL     3     -11.980   6.863  69.894  1.00  0.00    -0.627 OA 
HETATM   25  H   UNL     3     -11.944   6.069  69.372  1.00  0.00     0.000 HD 
BRANCH  23  26
HETATM   26  C   UNL     3     -10.653   5.628  71.416  1.00  0.00    -0.253 C  
HETATM   27  O   UNL     3      -9.548   6.397  71.896  1.00  0.00    -0.154 OA 
HETATM   28  H   UNL     3      -8.763   5.867  71.976  1.00  0.00     0.000 HD 
BRANCH  26  29
HETATM   29  C   UNL     3     -10.730   4.314  72.222  1.00  0.00     0.043 C  
HETATM   30  O   UNL     3     -11.177   4.521  73.572  1.00  0.00    -0.305 OA 
HETATM   31  H   UNL     3     -11.224   3.712  74.068  1.00  0.00     0.000 HD 
BRANCH  29  32
HETATM   32  C   UNL     3      -9.468   3.459  72.275  1.00  0.00    -0.123 C  
HETATM   33  C   UNL     3      -8.655   3.610  73.573  1.00  0.00    -0.083 C  
HETATM   34  O   UNL     3      -8.570   3.857  71.150  1.00  0.00    -0.074 OA 
HETATM   35  O   UNL     3      -7.717   4.503  73.458  1.00  0.00    -0.084 OA 
HETATM   36  O   UNL     3      -8.710   2.670  74.389  1.00  0.00    -0.070 OA 
HETATM   37  H   UNL     3      -7.784   3.325  71.182  1.00  0.00     0.000 HD 
ENDBRANCH  29  32
ENDBRANCH  26  29
ENDBRANCH  23  26
ENDBRANCH   7  23
TORSDOF 8
ENDMDL
MODEL       93
REMARK 921   NORMALIZED FREE ENERGY PREDICTED BY IDOCK:   -5.72 KCAL/MOL
REMARK 922        TOTAL FREE ENERGY PREDICTED BY IDOCK:  -10.47 KCAL/MOL
REMARK 923 INTER-LIGAND FREE ENERGY PREDICTED BY IDOCK:   -7.95 KCAL/MOL
REMARK 924 INTRA-LIGAND FREE ENERGY PREDICTED BY IDOCK:   -2.52 KCAL/MOL
REMARK 927      BINDING AFFINITY PREDICTED BY RF-SCORE:    0.00 PKD
ROOT
HETATM    1 CU   UNL     1     -11.010   9.783  66.875  1.00  0.00    -0.236 Cu 
HETATM    2  O   UNL     2     -12.463  14.210  63.090  1.00  0.00    -1.126 OA 
HETATM    3  C   UNL     2     -12.246  14.644  64.441  1.00  0.00    -0.452 C  
HETATM    4  H   UNL     2     -12.882  14.929  62.630  1.00  0.00     0.000 HD 
HETATM    5  O   UNL     3     -11.804   5.957  73.049  1.00  0.00    -0.509 OA 
HETATM    6  H   UNL     3     -12.592   6.422  73.304  1.00  0.00     0.000 HD 
HETATM    7  C   UNL     3     -11.563   6.198  71.647  1.00  0.00    -0.257 C  
ENDROOT
BRANCH   3   8
HETATM    8  C   UNL     2     -11.573  13.491  65.180  1.00  0.00    -0.316 C  
HETATM    9  O   UNL     2     -11.013  12.566  64.228  1.00  0.00    -0.313 OA 
HETATM   10  H   UNL     2     -10.595  11.847  64.688  1.00  0.00     0.000 HD 
BRANCH   8  11
HETATM   11  C   UNL     2     -10.501  13.980  66.175  1.00  0.00    -0.297 C  
HETATM   12  O   UNL     2     -10.868  15.305  66.570  1.00  0.00    -0.310 OA 
HETATM   13  H   UNL     2     -10.208  15.607  67.182  1.00  0.00     0.000 HD 
BRANCH  11  14
HETATM   14  C   UNL     2     -10.475  13.023  67.384  1.00  0.00    -0.234 C  
HETATM   15  H   UNL     2      -9.790  11.199  67.730  1.00  0.00     0.000 HD 
HETATM   16  O   UNL     2      -9.807  11.789  66.986  1.00  0.00    -0.195 OA 
BRANCH  14  17
HETATM   17  C   UNL     2     -11.808  12.733  68.074  1.00  0.00    -0.336 C  
HETATM   18  C   UNL     2     -11.816  13.389  69.479  1.00  0.00    -0.332 C  
HETATM   19  H   UNL     2     -12.889  11.143  68.494  1.00  0.00     0.000 HD 
HETATM   20  O   UNL     2     -12.060  11.323  68.065  1.00  0.00    -0.638 OA 
HETATM   21  O   UNL     2     -11.439  14.603  69.422  1.00  0.00    -0.264 OA 
HETATM   22  O   UNL     2     -12.213  12.670  70.417  1.00  0.00    -0.349 OA 
ENDBRANCH  14  17
ENDBRANCH  11  14
ENDBRANCH   8  11
ENDBRANCH   3   8
BRANCH   7  23
HETATM   23  C   UNL     3     -10.290   5.448  71.235  1.00  0.00    -0.228 C  
HETATM   24  O   UNL     3     -10.588   4.668  70.058  1.00  0.00     0.018 OA 
HETATM   25  H   UNL     3      -9.799   4.203  69.803  1.00  0.00     0.000 HD 
BRANCH  23  26
HETATM   26  C   UNL     3      -9.073   6.309  70.843  1.00  0.00    -0.151 C  
HETATM   27  O   UNL     3      -7.844   5.614  71.069  1.00  0.00    -0.100 OA 
HETATM   28  H   UNL     3      -7.094   6.146  70.827  1.00  0.00     0.000 HD 
BRANCH  26  29
HETATM   29  C   UNL     3      -9.037   6.934  69.431  1.00  0.00    -0.141 C  
HETATM   30  O   UNL     3      -8.306   6.129  68.491  1.00  0.00    -0.113 OA 
HETATM   31  H   UNL     3      -8.283   6.514  67.623  1.00  0.00     0.000 HD 
BRANCH  29  32
HETATM   32  C   UNL     3      -8.520   8.364  69.321  1.00  0.00    -0.125 C  
HETATM   33  C   UNL     3      -8.828   9.244  70.546  1.00  0.00    -0.241 C  
HETATM   34  O   UNL     3      -9.161   9.019  68.142  1.00  0.00    -0.133 OA 
HETATM   35  O   UNL     3      -9.929   9.920  70.394  1.00  0.00    -0.259 OA 
HETATM   36  O   UNL     3      -7.879   9.503  71.312  1.00  0.00    -0.312 OA 
HETATM   37  H   UNL     3      -8.840   9.910  68.074  1.00  0.00     0.000 HD 
ENDBRANCH  29  32
ENDBRANCH  26  29
ENDBRANCH  23  26
ENDBRANCH   7  23
TORSDOF 8
ENDMDL
MODEL       94
REMARK 921   NORMALIZED FREE ENERGY PREDICTED BY IDOCK:   -5.69 KCAL/MOL
REMARK 922        TOTAL FREE ENERGY PREDICTED BY IDOCK:  -10.42 KCAL/MOL
REMARK 923 INTER-LIGAND FREE ENERGY PREDICTED BY IDOCK:   -9.15 KCAL/MOL
REMARK 924 INTRA-LIGAND FREE ENERGY PREDICTED BY IDOCK:   -1.27 KCAL/MOL
REMARK 927      BINDING AFFINITY PREDICTED BY RF-SCORE:    0.00 PKD
ROOT
HETATM    1 CU   UNL     1      -9.065  12.117  68.034  1.00  0.00    -0.143 Cu 
HETATM    2  O   UNL     2      -6.857  17.558  66.786  1.00  0.00    -0.165 OA 
HETATM    3  C   UNL     2      -7.975  17.180  65.970  1.00  0.00    -0.154 C  
HETATM    4  H   UNL     2      -6.460  18.321  66.381  1.00  0.00     0.000 HD 
HETATM    5  O   UNL     3     -11.276   5.398  66.203  1.00  0.00    -0.761 OA 
HETATM    6  H   UNL     3     -10.983   5.484  65.302  1.00  0.00     0.000 HD 
HETATM    7  C   UNL     3     -10.647   6.430  66.989  1.00  0.00    -0.327 C  
ENDROOT
BRANCH   3   8
HETATM    8  C   UNL     2      -8.613  15.956  66.621  1.00  0.00    -0.285 C  
HETATM    9  O   UNL     2      -8.155  15.837  67.982  1.00  0.00    -0.137 OA 
HETATM   10  H   UNL     2      -8.551  15.075  68.387  1.00  0.00     0.000 HD 
BRANCH   8  11
HETATM   11  C   UNL     2     -10.153  15.994  66.554  1.00  0.00    -0.287 C  
HETATM   12  O   UNL     2     -10.538  17.371  66.522  1.00  0.00    -0.285 OA 
HETATM   13  H   UNL     2     -11.487  17.395  66.481  1.00  0.00     0.000 HD 
BRANCH  11  14
HETATM   14  C   UNL     2     -10.611  15.254  65.281  1.00  0.00    -0.417 C  
HETATM   15  H   UNL     2     -11.104  15.780  63.438  1.00  0.00     0.000 HD 
HETATM   16  O   UNL     2     -10.822  16.235  64.223  1.00  0.00    -0.608 OA 
BRANCH  14  17
HETATM   17  C   UNL     2     -11.812  14.317  65.413  1.00  0.00    -0.363 C  
HETATM   18  C   UNL     2     -11.333  12.846  65.312  1.00  0.00    -0.300 C  
HETATM   19  H   UNL     2     -13.568  14.105  64.549  1.00  0.00     0.000 HD 
HETATM   20  O   UNL     2     -12.822  14.688  64.467  1.00  0.00    -0.579 OA 
HETATM   21  O   UNL     2     -10.338  12.633  66.077  1.00  0.00    -0.259 OA 
HETATM   22  O   UNL     2     -11.992  12.106  64.555  1.00  0.00    -0.368 OA 
ENDBRANCH  14  17
ENDBRANCH  11  14
ENDBRANCH   8  11
ENDBRANCH   3   8
BRANCH   7  23
HETATM   23  C   UNL     3     -11.119   6.291  68.443  1.00  0.00    -0.279 C  
HETATM   24  O   UNL     3     -10.486   5.127  69.012  1.00  0.00    -0.180 OA 
HETATM   25  H   UNL     3     -10.778   5.040  69.912  1.00  0.00     0.000 HD 
BRANCH  23  26
HETATM   26  C   UNL     3     -10.762   7.444  69.401  1.00  0.00    -0.211 C  
HETATM   27  O   UNL     3     -10.904   8.717  68.766  1.00  0.00    -0.410 OA 
HETATM   28  H   UNL     3     -10.684   9.428  69.358  1.00  0.00     0.000 HD 
BRANCH  26  29
HETATM   29  C   UNL     3     -11.456   7.498  70.780  1.00  0.00    -0.284 C  
HETATM   30  O   UNL     3     -12.879   7.319  70.688  1.00  0.00    -0.604 OA 
HETATM   31  H   UNL     3     -13.305   7.352  71.537  1.00  0.00     0.000 HD 
BRANCH  29  32
HETATM   32  C   UNL     3     -11.196   8.732  71.637  1.00  0.00    -0.324 C  
HETATM   33  C   UNL     3     -12.113   9.927  71.321  1.00  0.00    -0.394 C  
HETATM   34  O   UNL     3      -9.792   9.188  71.412  1.00  0.00    -0.298 OA 
HETATM   35  O   UNL     3     -11.570  10.744  70.467  1.00  0.00    -0.316 OA 
HETATM   36  O   UNL     3     -13.019  10.179  72.139  1.00  0.00    -0.415 OA 
HETATM   37  H   UNL     3      -9.630   9.957  71.946  1.00  0.00     0.000 HD 
ENDBRANCH  29  32
ENDBRANCH  26  29
ENDBRANCH  23  26
ENDBRANCH   7  23
TORSDOF 8
ENDMDL
MODEL       95
REMARK 921   NORMALIZED FREE ENERGY PREDICTED BY IDOCK:   -5.65 KCAL/MOL
REMARK 922        TOTAL FREE ENERGY PREDICTED BY IDOCK:  -10.36 KCAL/MOL
REMARK 923 INTER-LIGAND FREE ENERGY PREDICTED BY IDOCK:   -8.55 KCAL/MOL
REMARK 924 INTRA-LIGAND FREE ENERGY PREDICTED BY IDOCK:   -1.81 KCAL/MOL
REMARK 927      BINDING AFFINITY PREDICTED BY RF-SCORE:    0.00 PKD
ROOT
HETATM    1 CU   UNL     1      -9.487  13.487  67.056  1.00  0.00    -0.196 Cu 
HETATM    2  O   UNL     2      -9.688   7.488  67.117  1.00  0.00    -0.150 OA 
HETATM    3  C   UNL     2      -9.839   8.090  68.411  1.00  0.00    -0.171 C  
HETATM    4  H   UNL     2      -9.527   6.562  67.258  1.00  0.00     0.000 HD 
HETATM    5  O   UNL     3      -6.989  19.953  69.364  1.00  0.00    -0.330 OA 
HETATM    6  H   UNL     3      -6.319  19.563  69.914  1.00  0.00     0.000 HD 
HETATM    7  C   UNL     3      -7.455  18.955  68.433  1.00  0.00    -0.300 C  
ENDROOT
BRANCH   3   8
HETATM    8  C   UNL     2     -10.100   9.577  68.185  1.00  0.00    -0.182 C  
HETATM    9  O   UNL     2     -11.232   9.744  67.310  1.00  0.00    -0.298 OA 
HETATM   10  H   UNL     2     -11.394  10.669  67.170  1.00  0.00     0.000 HD 
BRANCH   8  11
HETATM   11  C   UNL     2     -10.304  10.342  69.509  1.00  0.00    -0.242 C  
HETATM   12  O   UNL     2     -10.010  11.717  69.251  1.00  0.00    -0.413 OA 
HETATM   13  H   UNL     2     -10.135  12.188  70.065  1.00  0.00     0.000 HD 
BRANCH  11  14
HETATM   14  C   UNL     2     -11.766  10.159  69.966  1.00  0.00    -0.223 C  
HETATM   15  H   UNL     2     -13.513  10.945  69.470  1.00  0.00     0.000 HD 
HETATM   16  O   UNL     2     -12.612  11.057  69.190  1.00  0.00    -0.378 OA 
BRANCH  14  17
HETATM   17  C   UNL     2     -12.050  10.286  71.463  1.00  0.00    -0.314 C  
HETATM   18  C   UNL     2     -12.557   8.926  72.009  1.00  0.00    -0.394 C  
HETATM   19  H   UNL     2     -13.105  11.472  72.626  1.00  0.00     0.000 HD 
HETATM   20  O   UNL     2     -12.928  11.394  71.696  1.00  0.00    -0.448 OA 
HETATM   21  O   UNL     2     -11.803   7.971  71.637  1.00  0.00    -0.268 OA 
HETATM   22  O   UNL     2     -13.567   8.971  72.739  1.00  0.00    -0.433 OA 
ENDBRANCH  14  17
ENDBRANCH  11  14
ENDBRANCH   8  11
ENDBRANCH   3   8
BRANCH   7  23
HETATM   23  C   UNL     3      -8.536  19.585  67.545  1.00  0.00    -0.307 C  
HETATM   24  O   UNL     3      -8.054  20.865  67.087  1.00  0.00    -0.549 OA 
HETATM   25  H   UNL     3      -8.724  21.255  66.537  1.00  0.00     0.000 HD 
BRANCH  23  26
HETATM   26  C   UNL     3      -8.911  18.820  66.260  1.00  0.00    -0.236 C  
HETATM   27  O   UNL     3      -7.795  18.098  65.735  1.00  0.00    -0.526 OA 
HETATM   28  H   UNL     3      -8.027  17.626  64.943  1.00  0.00     0.000 HD 
BRANCH  26  29
HETATM   29  C   UNL     3     -10.138  17.882  66.292  1.00  0.00    -0.351 C  
HETATM   30  O   UNL     3     -10.910  18.025  67.495  1.00  0.00    -0.379 OA 
HETATM   31  H   UNL     3     -11.664  17.448  67.514  1.00  0.00     0.000 HD 
BRANCH  29  32
HETATM   32  C   UNL     3      -9.877  16.395  66.079  1.00  0.00    -0.335 C  
HETATM   33  C   UNL     3     -11.150  15.547  65.908  1.00  0.00    -0.205 C  
HETATM   34  O   UNL     3      -9.152  15.857  67.268  1.00  0.00    -0.199 OA 
HETATM   35  O   UNL     3     -11.550  15.036  67.035  1.00  0.00    -0.331 OA 
HETATM   36  O   UNL     3     -11.414  15.144  64.758  1.00  0.00    -0.398 OA 
HETATM   37  H   UNL     3      -8.990  14.931  67.136  1.00  0.00     0.000 HD 
ENDBRANCH  29  32
ENDBRANCH  26  29
ENDBRANCH  23  26
ENDBRANCH   7  23
TORSDOF 8
ENDMDL
MODEL       96
REMARK 921   NORMALIZED FREE ENERGY PREDICTED BY IDOCK:   -5.64 KCAL/MOL
REMARK 922        TOTAL FREE ENERGY PREDICTED BY IDOCK:  -10.35 KCAL/MOL
REMARK 923 INTER-LIGAND FREE ENERGY PREDICTED BY IDOCK:   -8.60 KCAL/MOL
REMARK 924 INTRA-LIGAND FREE ENERGY PREDICTED BY IDOCK:   -1.75 KCAL/MOL
REMARK 927      BINDING AFFINITY PREDICTED BY RF-SCORE:    0.00 PKD
ROOT
HETATM    1 CU   UNL     1     -10.899  11.624  67.121  1.00  0.00    -0.197 Cu 
HETATM    2  O   UNL     2     -11.762  16.396  63.583  1.00  0.00    -1.520 OA 
HETATM    3  C   UNL     2     -11.284  16.722  64.897  1.00  0.00     0.022 C  
HETATM    4  H   UNL     2     -12.059  17.207  63.186  1.00  0.00     0.000 HD 
HETATM    5  O   UNL     3     -11.766   7.861  73.324  1.00  0.00    -0.632 OA 
HETATM    6  H   UNL     3     -12.389   8.483  73.682  1.00  0.00     0.000 HD 
HETATM    7  C   UNL     3     -11.654   8.091  71.905  1.00  0.00    -0.298 C  
ENDROOT
BRANCH   3   8
HETATM    8  C   UNL     2     -10.806  15.421  65.535  1.00  0.00    -0.374 C  
HETATM    9  O   UNL     2     -11.161  14.308  64.692  1.00  0.00    -0.415 OA 
HETATM   10  H   UNL     2     -10.863  13.498  65.090  1.00  0.00     0.000 HD 
BRANCH   8  11
HETATM   11  C   UNL     2      -9.292  15.435  65.828  1.00  0.00    -0.229 C  
HETATM   12  O   UNL     2      -8.905  16.804  65.976  1.00  0.00    -0.447 OA 
HETATM   13  H   UNL     2      -7.973  16.814  66.156  1.00  0.00     0.000 HD 
BRANCH  11  14
HETATM   14  C   UNL     2      -9.030  14.636  67.120  1.00  0.00    -0.225 C  
HETATM   15  H   UNL     2     -10.144  13.657  68.430  1.00  0.00     0.000 HD 
HETATM   16  O   UNL     2     -10.305  14.149  67.633  1.00  0.00    -0.239 OA 
BRANCH  14  17
HETATM   17  C   UNL     2      -8.221  15.329  68.217  1.00  0.00    -0.142 C  
HETATM   18  C   UNL     2      -6.910  14.542  68.469  1.00  0.00    -0.096 C  
HETATM   19  H   UNL     2      -8.538  15.950  70.058  1.00  0.00     0.000 HD 
HETATM   20  O   UNL     2      -9.041  15.519  69.376  1.00  0.00    -0.259 OA 
HETATM   21  O   UNL     2      -6.311  14.284  67.375  1.00  0.00    -0.324 OA 
HETATM   22  O   UNL     2      -6.624  14.319  69.662  1.00  0.00    -0.132 OA 
ENDBRANCH  14  17
ENDBRANCH  11  14
ENDBRANCH   8  11
ENDBRANCH   3   8
BRANCH   7  23
HETATM   23  C   UNL     3     -10.648   7.087  71.326  1.00  0.00    -0.218 C  
HETATM   24  O   UNL     3     -10.944   5.787  71.876  1.00  0.00    -0.252 OA 
HETATM   25  H   UNL     3     -10.321   5.165  71.517  1.00  0.00     0.000 HD 
BRANCH  23  26
HETATM   26  C   UNL     3     -10.670   6.886  69.798  1.00  0.00    -0.244 C  
HETATM   27  O   UNL     3     -11.954   6.450  69.344  1.00  0.00    -0.479 OA 
HETATM   28  H   UNL     3     -11.967   6.325  68.402  1.00  0.00     0.000 HD 
BRANCH  26  29
HETATM   29  C   UNL     3     -10.192   8.043  68.894  1.00  0.00    -0.209 C  
HETATM   30  O   UNL     3     -11.077   9.174  68.933  1.00  0.00    -0.435 OA 
HETATM   31  H   UNL     3     -10.783   9.886  68.377  1.00  0.00     0.000 HD 
BRANCH  29  32
HETATM   32  C   UNL     3      -9.922   7.712  67.430  1.00  0.00    -0.192 C  
HETATM   33  C   UNL     3      -9.347   8.881  66.613  1.00  0.00    -0.185 C  
HETATM   34  O   UNL     3     -11.207   7.317  66.781  1.00  0.00    -0.504 OA 
HETATM   35  O   UNL     3     -10.278   9.555  66.004  1.00  0.00    -0.272 OA 
HETATM   36  O   UNL     3      -8.137   8.826  66.317  1.00  0.00    -0.103 OA 
HETATM   37  H   UNL     3     -11.040   7.111  65.869  1.00  0.00     0.000 HD 
ENDBRANCH  29  32
ENDBRANCH  26  29
ENDBRANCH  23  26
ENDBRANCH   7  23
TORSDOF 8
ENDMDL
MODEL       97
REMARK 921   NORMALIZED FREE ENERGY PREDICTED BY IDOCK:   -5.64 KCAL/MOL
REMARK 922        TOTAL FREE ENERGY PREDICTED BY IDOCK:  -10.35 KCAL/MOL
REMARK 923 INTER-LIGAND FREE ENERGY PREDICTED BY IDOCK:   -7.90 KCAL/MOL
REMARK 924 INTRA-LIGAND FREE ENERGY PREDICTED BY IDOCK:   -2.45 KCAL/MOL
REMARK 927      BINDING AFFINITY PREDICTED BY RF-SCORE:    0.00 PKD
ROOT
HETATM    1 CU   UNL     1      -9.885   9.482  67.302  1.00  0.00    -0.139 Cu 
HETATM    2  O   UNL     2      -9.761  14.832  70.023  1.00  0.00    -0.419 OA 
HETATM    3  C   UNL     2      -9.585  14.896  68.600  1.00  0.00    -0.222 C  
HETATM    4  H   UNL     2      -9.521  15.682  70.372  1.00  0.00     0.000 HD 
HETATM    5  O   UNL     3      -7.182   4.374  62.832  1.00  0.00    -0.042 OA 
HETATM    6  H   UNL     3      -6.369   4.845  62.690  1.00  0.00     0.000 HD 
HETATM    7  C   UNL     3      -7.832   4.922  63.997  1.00  0.00    -0.089 C  
ENDROOT
BRANCH   3   8
HETATM    8  C   UNL     2      -9.971  13.530  68.038  1.00  0.00    -0.248 C  
HETATM    9  O   UNL     2      -9.133  12.512  68.620  1.00  0.00    -0.368 OA 
HETATM   10  H   UNL     2      -9.374  11.662  68.270  1.00  0.00     0.000 HD 
BRANCH   8  11
HETATM   11  C   UNL     2     -11.465  13.211  68.254  1.00  0.00    -0.314 C  
HETATM   12  O   UNL     2     -12.182  14.441  68.118  1.00  0.00    -0.563 OA 
HETATM   13  H   UNL     2     -13.101  14.244  68.251  1.00  0.00     0.000 HD 
BRANCH  11  14
HETATM   14  C   UNL     2     -11.909  12.184  67.193  1.00  0.00    -0.222 C  
HETATM   15  H   UNL     2     -11.944  10.210  67.061  1.00  0.00     0.000 HD 
HETATM   16  O   UNL     2     -11.671  10.843  67.714  1.00  0.00    -0.569 OA 
BRANCH  14  17
HETATM   17  C   UNL     2     -11.332  12.341  65.786  1.00  0.00    -0.355 C  
HETATM   18  C   UNL     2     -12.466  12.728  64.803  1.00  0.00    -0.472 C  
HETATM   19  H   UNL     2     -10.244  11.259  64.553  1.00  0.00     0.000 HD 
HETATM   20  O   UNL     2     -10.602  11.161  65.428  1.00  0.00    -0.265 OA 
HETATM   21  O   UNL     2     -13.162  13.691  65.260  1.00  0.00    -0.724 OA 
HETATM   22  O   UNL     2     -12.505  12.091  63.732  1.00  0.00    -0.495 OA 
ENDBRANCH  14  17
ENDBRANCH  11  14
ENDBRANCH   8  11
ENDBRANCH   3   8
BRANCH   7  23
HETATM   23  C   UNL     3      -9.145   4.161  64.226  1.00  0.00    -0.147 C  
HETATM   24  O   UNL     3      -9.045   2.883  63.565  1.00  0.00    -0.095 OA 
HETATM   25  H   UNL     3      -9.858   2.411  63.707  1.00  0.00     0.000 HD 
BRANCH  23  26
HETATM   26  C   UNL     3      -9.506   3.825  65.686  1.00  0.00    -0.170 C  
HETATM   27  O   UNL     3      -8.355   3.419  66.431  1.00  0.00    -0.099 OA 
HETATM   28  H   UNL     3      -8.578   3.212  67.332  1.00  0.00     0.000 HD 
BRANCH  26  29
HETATM   29  C   UNL     3     -10.288   4.869  66.512  1.00  0.00    -0.270 C  
HETATM   30  O   UNL     3     -11.449   5.360  65.821  1.00  0.00    -0.676 OA 
HETATM   31  H   UNL     3     -11.930   6.002  66.330  1.00  0.00     0.000 HD 
BRANCH  29  32
HETATM   32  C   UNL     3      -9.506   6.074  67.023  1.00  0.00    -0.127 C  
HETATM   33  C   UNL     3      -9.975   6.599  68.392  1.00  0.00    -0.145 C  
HETATM   34  O   UNL     3      -9.659   7.196  66.051  1.00  0.00    -0.400 OA 
HETATM   35  O   UNL     3     -10.844   7.559  68.273  1.00  0.00    -0.120 OA 
HETATM   36  O   UNL     3      -9.247   6.354  69.374  1.00  0.00    -0.142 OA 
HETATM   37  H   UNL     3      -9.172   7.947  66.369  1.00  0.00     0.000 HD 
ENDBRANCH  29  32
ENDBRANCH  26  29
ENDBRANCH  23  26
ENDBRANCH   7  23
TORSDOF 8
ENDMDL
MODEL       98
REMARK 921   NORMALIZED FREE ENERGY PREDICTED BY IDOCK:   -5.63 KCAL/MOL
REMARK 922        TOTAL FREE ENERGY PREDICTED BY IDOCK:  -10.34 KCAL/MOL
REMARK 923 INTER-LIGAND FREE ENERGY PREDICTED BY IDOCK:   -8.00 KCAL/MOL
REMARK 924 INTRA-LIGAND FREE ENERGY PREDICTED BY IDOCK:   -2.34 KCAL/MOL
REMARK 927      BINDING AFFINITY PREDICTED BY RF-SCORE:    0.00 PKD
ROOT
HETATM    1 CU   UNL     1      -8.457  13.495  65.742  1.00  0.00    -0.371 Cu 
HETATM    2  O   UNL     2      -8.286   7.674  64.284  1.00  0.00    -0.346 OA 
HETATM    3  C   UNL     2      -8.220   8.561  63.158  1.00  0.00    -0.151 C  
HETATM    4  H   UNL     2      -8.461   6.804  63.945  1.00  0.00     0.000 HD 
HETATM    5  O   UNL     3     -11.076  20.291  65.158  1.00  0.00    -0.145 OA 
HETATM    6  H   UNL     3     -11.783  20.031  64.579  1.00  0.00     0.000 HD 
HETATM    7  C   UNL     3     -10.553  19.111  65.801  1.00  0.00    -0.341 C  
ENDROOT
BRANCH   3   8
HETATM    8  C   UNL     2      -7.938   9.958  63.702  1.00  0.00    -0.147 C  
HETATM    9  O   UNL     2      -6.638  10.396  63.264  1.00  0.00    -0.220 OA 
HETATM   10  H   UNL     2      -6.462  11.266  63.603  1.00  0.00     0.000 HD 
BRANCH   8  11
HETATM   11  C   UNL     2      -9.030  10.972  63.302  1.00  0.00    -0.172 C  
HETATM   12  O   UNL     2      -9.862  10.333  62.331  1.00  0.00    -0.695 OA 
HETATM   13  H   UNL     2     -10.534  10.957  62.084  1.00  0.00     0.000 HD 
BRANCH  11  14
HETATM   14  C   UNL     2      -9.833  11.357  64.561  1.00  0.00    -0.260 C  
HETATM   15  H   UNL     2     -10.814  10.373  65.971  1.00  0.00     0.000 HD 
HETATM   16  O   UNL     2     -10.319  10.136  65.195  1.00  0.00    -0.257 OA 
BRANCH  14  17
HETATM   17  C   UNL     2     -10.959  12.375  64.386  1.00  0.00    -0.334 C  
HETATM   18  C   UNL     2     -11.460  12.837  65.779  1.00  0.00    -0.348 C  
HETATM   19  H   UNL     2     -12.673  12.467  63.423  1.00  0.00     0.000 HD 
HETATM   20  O   UNL     2     -11.973  11.834  63.531  1.00  0.00    -0.482 OA 
HETATM   21  O   UNL     2     -10.487  13.165  66.532  1.00  0.00    -0.273 OA 
HETATM   22  O   UNL     2     -12.696  12.857  65.938  1.00  0.00    -0.437 OA 
ENDBRANCH  14  17
ENDBRANCH  11  14
ENDBRANCH   8  11
ENDBRANCH   3   8
BRANCH   7  23
HETATM   23  C   UNL     3      -9.412  19.530  66.737  1.00  0.00    -0.354 C  
HETATM   24  O   UNL     3      -9.534  20.945  66.989  1.00  0.00    -0.669 OA 
HETATM   25  H   UNL     3      -8.827  21.205  67.568  1.00  0.00     0.000 HD 
BRANCH  23  26
HETATM   26  C   UNL     3      -9.384  18.880  68.133  1.00  0.00    -0.325 C  
HETATM   27  O   UNL     3     -10.680  18.417  68.523  1.00  0.00    -0.319 OA 
HETATM   28  H   UNL     3     -10.662  18.016  69.384  1.00  0.00     0.000 HD 
BRANCH  26  29
HETATM   29  C   UNL     3      -8.356  17.760  68.405  1.00  0.00    -0.295 C  
HETATM   30  O   UNL     3      -7.309  17.723  67.422  1.00  0.00    -0.183 OA 
HETATM   31  H   UNL     3      -6.677  17.034  67.590  1.00  0.00     0.000 HD 
BRANCH  29  32
HETATM   32  C   UNL     3      -8.900  16.344  68.561  1.00  0.00    -0.224 C  
HETATM   33  C   UNL     3      -7.816  15.260  68.692  1.00  0.00    -0.142 C  
HETATM   34  O   UNL     3      -9.711  16.004  67.354  1.00  0.00    -0.229 OA 
HETATM   35  O   UNL     3      -7.519  14.726  67.544  1.00  0.00    -0.170 OA 
HETATM   36  O   UNL     3      -7.639  14.768  69.824  1.00  0.00    -0.114 OA 
HETATM   37  H   UNL     3     -10.050  15.122  67.450  1.00  0.00     0.000 HD 
ENDBRANCH  29  32
ENDBRANCH  26  29
ENDBRANCH  23  26
ENDBRANCH   7  23
TORSDOF 8
ENDMDL
MODEL       99
REMARK 921   NORMALIZED FREE ENERGY PREDICTED BY IDOCK:   -5.63 KCAL/MOL
REMARK 922        TOTAL FREE ENERGY PREDICTED BY IDOCK:  -10.34 KCAL/MOL
REMARK 923 INTER-LIGAND FREE ENERGY PREDICTED BY IDOCK:   -8.27 KCAL/MOL
REMARK 924 INTRA-LIGAND FREE ENERGY PREDICTED BY IDOCK:   -2.06 KCAL/MOL
REMARK 927      BINDING AFFINITY PREDICTED BY RF-SCORE:    0.00 PKD
ROOT
HETATM    1 CU   UNL     1     -12.361   9.215  69.051  1.00  0.00    -0.002 Cu 
HETATM    2  O   UNL     2     -12.329   4.870  73.193  1.00  0.00    -0.341 OA 
HETATM    3  C   UNL     2     -11.024   5.242  72.727  1.00  0.00    -0.275 C  
HETATM    4  H   UNL     2     -12.233   4.055  73.673  1.00  0.00     0.000 HD 
HETATM    5  O   UNL     3     -10.499  12.085  62.596  1.00  0.00    -0.328 OA 
HETATM    6  H   UNL     3     -10.091  11.282  62.291  1.00  0.00     0.000 HD 
HETATM    7  C   UNL     3     -11.335  11.773  63.728  1.00  0.00    -0.438 C  
ENDROOT
BRANCH   3   8
HETATM    8  C   UNL     2     -11.179   6.550  71.956  1.00  0.00    -0.273 C  
HETATM    9  O   UNL     2     -12.473   6.589  71.324  1.00  0.00    -0.283 OA 
HETATM   10  H   UNL     2     -12.569   7.404  70.844  1.00  0.00     0.000 HD 
BRANCH   8  11
HETATM   11  C   UNL     2     -10.961   7.786  72.853  1.00  0.00    -0.407 C  
HETATM   12  O   UNL     2     -10.183   7.360  73.975  1.00  0.00    -0.405 OA 
HETATM   13  H   UNL     2     -10.049   8.120  74.527  1.00  0.00     0.000 HD 
BRANCH  11  14
HETATM   14  C   UNL     2     -10.221   8.865  72.037  1.00  0.00    -0.293 C  
HETATM   15  H   UNL     2     -10.711  10.144  70.609  1.00  0.00     0.000 HD 
HETATM   16  O   UNL     2     -11.167   9.479  71.112  1.00  0.00    -0.315 OA 
BRANCH  14  17
HETATM   17  C   UNL     2      -8.941   8.440  71.318  1.00  0.00    -0.178 C  
HETATM   18  C   UNL     2      -7.716   9.079  72.022  1.00  0.00     0.274 C  
HETATM   19  H   UNL     2      -8.255   8.468  69.473  1.00  0.00     0.000 HD 
HETATM   20  O   UNL     2      -9.051   8.732  69.920  1.00  0.00    -0.148 OA 
HETATM   21  O   UNL     2      -7.766   8.901  73.282  1.00  0.00    -0.375 OA 
HETATM   22  O   UNL     2      -6.874   9.617  71.277  1.00  0.00    -0.311 OA 
ENDBRANCH  14  17
ENDBRANCH  11  14
ENDBRANCH   8  11
ENDBRANCH   3   8
BRANCH   7  23
HETATM   23  C   UNL     3     -11.993  13.068  64.220  1.00  0.00    -0.402 C  
HETATM   24  O   UNL     3     -13.186  12.717  64.951  1.00  0.00    -0.808 OA 
HETATM   25  H   UNL     3     -13.594  13.520  65.256  1.00  0.00     0.000 HD 
BRANCH  23  26
HETATM   26  C   UNL     3     -11.173  13.937  65.194  1.00  0.00    -0.326 C  
HETATM   27  O   UNL     3     -11.202  15.316  64.819  1.00  0.00    -0.458 OA 
HETATM   28  H   UNL     3     -10.696  15.852  65.420  1.00  0.00     0.000 HD 
BRANCH  26  29
HETATM   29  C   UNL     3     -11.466  13.828  66.706  1.00  0.00    -0.348 C  
HETATM   30  O   UNL     3     -12.767  14.328  67.052  1.00  0.00    -0.483 OA 
HETATM   31  H   UNL     3     -12.947  14.261  67.983  1.00  0.00     0.000 HD 
BRANCH  29  32
HETATM   32  C   UNL     3     -10.455  14.463  67.655  1.00  0.00    -0.245 C  
HETATM   33  C   UNL     3     -10.879  15.836  68.205  1.00  0.00    -0.305 C  
HETATM   34  O   UNL     3      -9.169  14.665  66.923  1.00  0.00    -0.225 OA 
HETATM   35  O   UNL     3     -10.409  16.814  67.488  1.00  0.00    -0.286 OA 
HETATM   36  O   UNL     3     -11.253  15.880  69.394  1.00  0.00    -0.287 OA 
HETATM   37  H   UNL     3      -8.539  15.061  67.513  1.00  0.00     0.000 HD 
ENDBRANCH  29  32
ENDBRANCH  26  29
ENDBRANCH  23  26
ENDBRANCH   7  23
TORSDOF 8
ENDMDL
MODEL      100
REMARK 921   NORMALIZED FREE ENERGY PREDICTED BY IDOCK:   -5.63 KCAL/MOL
REMARK 922        TOTAL FREE ENERGY PREDICTED BY IDOCK:  -10.33 KCAL/MOL
REMARK 923 INTER-LIGAND FREE ENERGY PREDICTED BY IDOCK:   -8.39 KCAL/MOL
REMARK 924 INTRA-LIGAND FREE ENERGY PREDICTED BY IDOCK:   -1.95 KCAL/MOL
REMARK 927      BINDING AFFINITY PREDICTED BY RF-SCORE:    0.00 PKD
ROOT
HETATM    1 CU   UNL     1     -11.520  10.702  71.042  1.00  0.00    -0.262 Cu 
HETATM    2  O   UNL     2     -12.382  15.809  74.077  1.00  0.00    -0.522 OA 
HETATM    3  C   UNL     2     -12.775  15.876  72.699  1.00  0.00    -0.463 C  
HETATM    4  H   UNL     2     -12.361  16.701  74.405  1.00  0.00     0.000 HD 
HETATM    5  O   UNL     3      -8.966   6.817  65.406  1.00  0.00    -0.364 OA 
HETATM    6  H   UNL     3      -8.496   7.555  65.035  1.00  0.00     0.000 HD 
HETATM    7  C   UNL     3      -9.299   7.126  66.775  1.00  0.00    -0.161 C  
ENDROOT
BRANCH   3   8
HETATM    8  C   UNL     2     -12.810  14.444  72.172  1.00  0.00    -0.342 C  
HETATM    9  O   UNL     2     -13.751  13.668  72.940  1.00  0.00    -0.672 OA 
HETATM   10  H   UNL     2     -13.772  12.776  72.612  1.00  0.00     0.000 HD 
BRANCH   8  11
HETATM   11  C   UNL     2     -13.137  14.382  70.666  1.00  0.00    -0.223 C  
HETATM   12  O   UNL     2     -13.472  15.710  70.254  1.00  0.00    -0.761 OA 
HETATM   13  H   UNL     2     -13.674  15.673  69.327  1.00  0.00     0.000 HD 
BRANCH  11  14
HETATM   14  C   UNL     2     -11.899  13.858  69.912  1.00  0.00    -0.328 C  
HETATM   15  H   UNL     2     -10.028  14.457  69.672  1.00  0.00     0.000 HD 
HETATM   16  O   UNL     2     -10.791  14.780  70.136  1.00  0.00    -0.183 OA 
BRANCH  14  17
HETATM   17  C   UNL     2     -12.068  13.547  68.424  1.00  0.00    -0.258 C  
HETATM   18  C   UNL     2     -11.476  12.148  68.118  1.00  0.00    -0.317 C  
HETATM   19  H   UNL     2     -11.627  14.423  66.718  1.00  0.00     0.000 HD 
HETATM   20  O   UNL     2     -11.522  14.616  67.642  1.00  0.00    -0.317 OA 
HETATM   21  O   UNL     2     -11.897  11.279  68.948  1.00  0.00    -0.317 OA 
HETATM   22  O   UNL     2     -10.735  12.073  67.118  1.00  0.00    -0.225 OA 
ENDBRANCH  14  17
ENDBRANCH  11  14
ENDBRANCH   8  11
ENDBRANCH   3   8
BRANCH   7  23
HETATM   23  C   UNL     3     -10.058   5.935  67.374  1.00  0.00    -0.169 C  
HETATM   24  O   UNL     3      -9.309   4.735  67.089  1.00  0.00    -0.122 OA 
HETATM   25  H   UNL     3      -9.780   3.997  67.460  1.00  0.00     0.000 HD 
BRANCH  23  26
HETATM   26  C   UNL     3     -10.247   5.930  68.903  1.00  0.00    -0.198 C  
HETATM   27  O   UNL     3      -9.024   6.219  69.584  1.00  0.00    -0.134 OA 
HETATM   28  H   UNL     3      -9.141   6.216  70.527  1.00  0.00     0.000 HD 
BRANCH  26  29
HETATM   29  C   UNL     3     -11.370   6.800  69.510  1.00  0.00    -0.237 C  
HETATM   30  O   UNL     3     -11.170   8.203  69.270  1.00  0.00    -0.434 OA 
HETATM   31  H   UNL     3     -11.861   8.738  69.644  1.00  0.00     0.000 HD 
BRANCH  29  32
HETATM   32  C   UNL     3     -11.659   6.618  70.996  1.00  0.00    -0.346 C  
HETATM   33  C   UNL     3     -11.276   7.826  71.868  1.00  0.00    -0.265 C  
HETATM   34  O   UNL     3     -10.876   5.451  71.500  1.00  0.00    -0.224 OA 
HETATM   35  O   UNL     3     -10.080   7.707  72.367  1.00  0.00    -0.186 OA 
HETATM   36  O   UNL     3     -12.207   8.536  72.297  1.00  0.00    -0.357 OA 
HETATM   37  H   UNL     3     -11.056   5.337  72.426  1.00  0.00     0.000 HD 
ENDBRANCH  29  32
ENDBRANCH  26  29
ENDBRANCH  23  26
ENDBRANCH   7  23
TORSDOF 8
ENDMDL
MODEL      101
REMARK 921   NORMALIZED FREE ENERGY PREDICTED BY IDOCK:   -5.63 KCAL/MOL
REMARK 922        TOTAL FREE ENERGY PREDICTED BY IDOCK:  -10.33 KCAL/MOL
REMARK 923 INTER-LIGAND FREE ENERGY PREDICTED BY IDOCK:   -8.48 KCAL/MOL
REMARK 924 INTRA-LIGAND FREE ENERGY PREDICTED BY IDOCK:   -1.85 KCAL/MOL
REMARK 927      BINDING AFFINITY PREDICTED BY RF-SCORE:    0.00 PKD
ROOT
HETATM    1 CU   UNL     1     -12.015  11.045  67.113  1.00  0.00    -0.267 Cu 
HETATM    2  O   UNL     2     -12.220  16.047  63.798  1.00  0.00    -1.269 OA 
HETATM    3  C   UNL     2     -11.047  15.937  64.617  1.00  0.00    -0.354 C  
HETATM    4  H   UNL     2     -12.258  16.943  63.484  1.00  0.00     0.000 HD 
HETATM    5  O   UNL     3     -11.202   7.418  73.403  1.00  0.00    -0.587 OA 
HETATM    6  H   UNL     3     -11.172   8.213  73.924  1.00  0.00     0.000 HD 
HETATM    7  C   UNL     3     -11.747   7.742  72.107  1.00  0.00    -0.320 C  
ENDROOT
BRANCH   3   8
HETATM    8  C   UNL     2     -10.985  14.497  65.122  1.00  0.00    -0.379 C  
HETATM    9  O   UNL     2      -9.661  14.213  65.614  1.00  0.00    -0.476 OA 
HETATM   10  H   UNL     2      -9.623  13.316  65.928  1.00  0.00     0.000 HD 
BRANCH   8  11
HETATM   11  C   UNL     2     -12.052  14.209  66.198  1.00  0.00    -0.435 C  
HETATM   12  O   UNL     2     -12.647  12.950  65.875  1.00  0.00    -0.509 OA 
HETATM   13  H   UNL     2     -13.303  12.772  66.537  1.00  0.00     0.000 HD 
BRANCH  11  14
HETATM   14  C   UNL     2     -11.363  14.165  67.577  1.00  0.00    -0.322 C  
HETATM   15  H   UNL     2     -10.422  12.792  68.647  1.00  0.00     0.000 HD 
HETATM   16  O   UNL     2     -10.846  12.819  67.797  1.00  0.00    -0.217 OA 
BRANCH  14  17
HETATM   17  C   UNL     2     -12.176  14.648  68.779  1.00  0.00    -0.119 C  
HETATM   18  C   UNL     2     -11.440  15.832  69.458  1.00  0.00    -0.353 C  
HETATM   19  H   UNL     2     -12.970  13.844  70.390  1.00  0.00     0.000 HD 
HETATM   20  O   UNL     2     -12.465  13.544  69.643  1.00  0.00    -0.218 OA 
HETATM   21  O   UNL     2     -11.086  16.705  68.602  1.00  0.00    -0.341 OA 
HETATM   22  O   UNL     2     -11.342  15.776  70.700  1.00  0.00    -0.324 OA 
ENDBRANCH  14  17
ENDBRANCH  11  14
ENDBRANCH   8  11
ENDBRANCH   3   8
BRANCH   7  23
HETATM   23  C   UNL     3     -11.796   6.460  71.265  1.00  0.00    -0.273 C  
HETATM   24  O   UNL     3     -12.493   6.754  70.037  1.00  0.00    -0.546 OA 
HETATM   25  H   UNL     3     -12.524   5.960  69.516  1.00  0.00     0.000 HD 
BRANCH  23  26
HETATM   26  C   UNL     3     -10.444   5.869  70.821  1.00  0.00    -0.248 C  
HETATM   27  O   UNL     3      -9.378   6.805  70.999  1.00  0.00    -0.160 OA 
HETATM   28  H   UNL     3      -8.544   6.440  70.725  1.00  0.00     0.000 HD 
BRANCH  26  29
HETATM   29  C   UNL     3     -10.008   4.506  71.403  1.00  0.00    -0.189 C  
HETATM   30  O   UNL     3      -9.054   4.642  72.469  1.00  0.00    -0.123 OA 
HETATM   31  H   UNL     3      -8.786   3.803  72.826  1.00  0.00     0.000 HD 
BRANCH  29  32
HETATM   32  C   UNL     3      -9.464   3.476  70.419  1.00  0.00    -0.183 C  
HETATM   33  C   UNL     3      -8.077   2.919  70.787  1.00  0.00    -0.049 C  
HETATM   34  O   UNL     3      -9.334   4.115  69.075  1.00  0.00    -0.138 OA 
HETATM   35  O   UNL     3      -7.118   3.578  70.205  1.00  0.00    -0.037 OA 
HETATM   36  O   UNL     3      -8.033   1.758  71.238  1.00  0.00    -0.039 OA 
HETATM   37  H   UNL     3      -8.995   3.473  68.462  1.00  0.00     0.000 HD 
ENDBRANCH  29  32
ENDBRANCH  26  29
ENDBRANCH  23  26
ENDBRANCH   7  23
TORSDOF 8
ENDMDL
MODEL      102
REMARK 921   NORMALIZED FREE ENERGY PREDICTED BY IDOCK:   -5.62 KCAL/MOL
REMARK 922        TOTAL FREE ENERGY PREDICTED BY IDOCK:  -10.33 KCAL/MOL
REMARK 923 INTER-LIGAND FREE ENERGY PREDICTED BY IDOCK:   -8.58 KCAL/MOL
REMARK 924 INTRA-LIGAND FREE ENERGY PREDICTED BY IDOCK:   -1.75 KCAL/MOL
REMARK 927      BINDING AFFINITY PREDICTED BY RF-SCORE:    0.00 PKD
ROOT
HETATM    1 CU   UNL     1      -9.191  10.242  68.166  1.00  0.00    -0.126 Cu 
HETATM    2  O   UNL     2      -8.838   4.811  70.698  1.00  0.00    -0.107 OA 
HETATM    3  C   UNL     2     -10.126   5.430  70.822  1.00  0.00    -0.220 C  
HETATM    4  H   UNL     2      -8.825   4.072  71.296  1.00  0.00     0.000 HD 
HETATM    5  O   UNL     3     -10.813  17.366  68.210  1.00  0.00    -0.355 OA 
HETATM    6  H   UNL     3     -11.011  17.375  69.139  1.00  0.00     0.000 HD 
HETATM    7  C   UNL     3     -10.071  16.166  67.911  1.00  0.00    -0.244 C  
ENDROOT
BRANCH   3   8
HETATM    8  C   UNL     2     -10.148   6.616  69.861  1.00  0.00    -0.176 C  
HETATM    9  O   UNL     2     -11.363   6.591  69.088  1.00  0.00    -0.514 OA 
HETATM   10  H   UNL     2     -11.377   7.329  68.489  1.00  0.00     0.000 HD 
BRANCH   8  11
HETATM   11  C   UNL     2      -9.984   7.964  70.594  1.00  0.00    -0.186 C  
HETATM   12  O   UNL     2      -8.835   8.608  70.037  1.00  0.00    -0.134 OA 
HETATM   13  H   UNL     2      -8.734   9.438  70.487  1.00  0.00     0.000 HD 
BRANCH  11  14
HETATM   14  C   UNL     2     -11.258   8.804  70.375  1.00  0.00    -0.223 C  
HETATM   15  H   UNL     2     -11.700  10.486  69.430  1.00  0.00     0.000 HD 
HETATM   16  O   UNL     2     -10.915   9.968  69.565  1.00  0.00    -0.232 OA 
BRANCH  14  17
HETATM   17  C   UNL     2     -12.049   9.210  71.619  1.00  0.00    -0.362 C  
HETATM   18  C   UNL     2     -13.377   8.412  71.669  1.00  0.00    -0.338 C  
HETATM   19  H   UNL     2     -12.692  10.885  72.427  1.00  0.00     0.000 HD 
HETATM   20  O   UNL     2     -12.200  10.634  71.654  1.00  0.00    -0.304 OA 
HETATM   21  O   UNL     2     -13.175   7.169  71.484  1.00  0.00    -0.383 OA 
HETATM   22  O   UNL     2     -14.405   9.074  71.913  1.00  0.00    -0.320 OA 
ENDBRANCH  14  17
ENDBRANCH  11  14
ENDBRANCH   8  11
ENDBRANCH   3   8
BRANCH   7  23
HETATM   23  C   UNL     3      -9.751  16.152  66.410  1.00  0.00    -0.286 C  
HETATM   24  O   UNL     3      -8.514  15.436  66.220  1.00  0.00    -0.401 OA 
HETATM   25  H   UNL     3      -8.316  15.427  65.291  1.00  0.00     0.000 HD 
BRANCH  23  26
HETATM   26  C   UNL     3     -10.765  15.442  65.491  1.00  0.00    -0.384 C  
HETATM   27  O   UNL     3     -11.000  16.188  64.294  1.00  0.00    -1.016 OA 
HETATM   28  H   UNL     3     -11.625  15.750  63.727  1.00  0.00     0.000 HD 
BRANCH  26  29
HETATM   29  C   UNL     3     -10.511  13.967  65.114  1.00  0.00    -0.393 C  
HETATM   30  O   UNL     3     -10.223  13.797  63.716  1.00  0.00    -0.372 OA 
HETATM   31  H   UNL     3     -10.067  12.889  63.485  1.00  0.00     0.000 HD 
BRANCH  29  32
HETATM   32  C   UNL     3     -11.592  12.960  65.493  1.00  0.00    -0.358 C  
HETATM   33  C   UNL     3     -11.648  11.720  64.584  1.00  0.00    -0.198 C  
HETATM   34  O   UNL     3     -12.925  13.627  65.403  1.00  0.00    -0.683 OA 
HETATM   35  O   UNL     3     -12.506  11.864  63.617  1.00  0.00    -0.508 OA 
HETATM   36  O   UNL     3     -11.208  10.652  65.052  1.00  0.00     0.242 OA 
HETATM   37  H   UNL     3     -13.598  13.000  65.639  1.00  0.00     0.000 HD 
ENDBRANCH  29  32
ENDBRANCH  26  29
ENDBRANCH  23  26
ENDBRANCH   7  23
TORSDOF 8
ENDMDL
MODEL      103
REMARK 921   NORMALIZED FREE ENERGY PREDICTED BY IDOCK:   -5.62 KCAL/MOL
REMARK 922        TOTAL FREE ENERGY PREDICTED BY IDOCK:  -10.33 KCAL/MOL
REMARK 923 INTER-LIGAND FREE ENERGY PREDICTED BY IDOCK:   -8.32 KCAL/MOL
REMARK 924 INTRA-LIGAND FREE ENERGY PREDICTED BY IDOCK:   -2.01 KCAL/MOL
REMARK 927      BINDING AFFINITY PREDICTED BY RF-SCORE:    0.00 PKD
ROOT
HETATM    1 CU   UNL     1     -10.293  13.354  69.686  1.00  0.00    -0.405 Cu 
HETATM    2  O   UNL     2      -8.824  19.115  68.856  1.00  0.00    -0.349 OA 
HETATM    3  C   UNL     2      -8.116  18.203  68.004  1.00  0.00    -0.258 C  
HETATM    4  H   UNL     2      -8.381  19.953  68.797  1.00  0.00     0.000 HD 
HETATM    5  O   UNL     3      -8.702   6.326  70.897  1.00  0.00    -0.134 OA 
HETATM    6  H   UNL     3      -7.778   6.500  71.039  1.00  0.00     0.000 HD 
HETATM    7  C   UNL     3      -9.423   7.571  71.002  1.00  0.00    -0.160 C  
ENDROOT
BRANCH   3   8
HETATM    8  C   UNL     2      -8.828  16.856  68.097  1.00  0.00    -0.223 C  
HETATM    9  O   UNL     2      -8.435  16.183  69.310  1.00  0.00    -0.247 OA 
HETATM   10  H   UNL     2      -8.878  15.344  69.367  1.00  0.00     0.000 HD 
BRANCH   8  11
HETATM   11  C   UNL     2     -10.361  16.999  68.013  1.00  0.00    -0.341 C  
HETATM   12  O   UNL     2     -10.635  18.047  67.080  1.00  0.00    -0.366 OA 
HETATM   13  H   UNL     2     -11.579  18.135  67.028  1.00  0.00     0.000 HD 
BRANCH  11  14
HETATM   14  C   UNL     2     -10.958  15.658  67.541  1.00  0.00    -0.309 C  
HETATM   15  H   UNL     2     -11.835  14.113  68.412  1.00  0.00     0.000 HD 
HETATM   16  O   UNL     2     -11.468  14.939  68.703  1.00  0.00    -0.277 OA 
BRANCH  14  17
HETATM   17  C   UNL     2     -10.064  14.760  66.684  1.00  0.00    -0.264 C  
HETATM   18  C   UNL     2     -10.474  14.894  65.194  1.00  0.00    -0.417 C  
HETATM   19  H   UNL     2      -9.532  12.866  66.664  1.00  0.00     0.000 HD 
HETATM   20  O   UNL     2     -10.087  13.423  67.197  1.00  0.00    -0.236 OA 
HETATM   21  O   UNL     2     -10.574  16.116  64.853  1.00  0.00    -0.622 OA 
HETATM   22  O   UNL     2     -10.601  13.827  64.563  1.00  0.00    -0.423 OA 
ENDBRANCH  14  17
ENDBRANCH  11  14
ENDBRANCH   8  11
ENDBRANCH   3   8
BRANCH   7  23
HETATM   23  C   UNL     3     -10.914   7.291  70.772  1.00  0.00    -0.251 C  
HETATM   24  O   UNL     3     -11.067   5.889  70.468  1.00  0.00    -0.311 OA 
HETATM   25  H   UNL     3     -11.991   5.716  70.326  1.00  0.00     0.000 HD 
BRANCH  23  26
HETATM   26  C   UNL     3     -11.859   7.544  71.963  1.00  0.00    -0.294 C  
HETATM   27  O   UNL     3     -11.298   7.070  73.189  1.00  0.00    -0.521 OA 
HETATM   28  H   UNL     3     -11.881   7.226  73.923  1.00  0.00     0.000 HD 
BRANCH  26  29
HETATM   29  C   UNL     3     -12.399   8.973  72.185  1.00  0.00    -0.372 C  
HETATM   30  O   UNL     3     -13.429   9.024  73.186  1.00  0.00    -0.948 OA 
HETATM   31  H   UNL     3     -13.761   9.904  73.323  1.00  0.00     0.000 HD 
BRANCH  29  32
HETATM   32  C   UNL     3     -12.907   9.720  70.956  1.00  0.00    -0.291 C  
HETATM   33  C   UNL     3     -11.929  10.772  70.406  1.00  0.00    -0.357 C  
HETATM   34  O   UNL     3     -14.165  10.440  71.315  1.00  0.00     0.651 OA 
HETATM   35  O   UNL     3     -12.168  11.957  70.886  1.00  0.00    -0.357 OA 
HETATM   36  O   UNL     3     -11.325  10.490  69.353  1.00  0.00    -0.239 OA 
HETATM   37  H   UNL     3     -14.481  10.906  70.550  1.00  0.00     0.000 HD 
ENDBRANCH  29  32
ENDBRANCH  26  29
ENDBRANCH  23  26
ENDBRANCH   7  23
TORSDOF 8
ENDMDL
MODEL      104
REMARK 921   NORMALIZED FREE ENERGY PREDICTED BY IDOCK:   -5.62 KCAL/MOL
REMARK 922        TOTAL FREE ENERGY PREDICTED BY IDOCK:  -10.32 KCAL/MOL
REMARK 923 INTER-LIGAND FREE ENERGY PREDICTED BY IDOCK:   -8.56 KCAL/MOL
REMARK 924 INTRA-LIGAND FREE ENERGY PREDICTED BY IDOCK:   -1.76 KCAL/MOL
REMARK 927      BINDING AFFINITY PREDICTED BY RF-SCORE:    0.00 PKD
ROOT
HETATM    1 CU   UNL     1     -10.587  11.515  67.233  1.00  0.00    -0.188 Cu 
HETATM    2  O   UNL     2     -10.015   5.704  65.840  1.00  0.00    -0.359 OA 
HETATM    3  C   UNL     2      -9.258   6.106  66.992  1.00  0.00    -0.123 C  
HETATM    4  H   UNL     2      -9.700   4.845  65.585  1.00  0.00     0.000 HD 
HETATM    5  O   UNL     3      -7.931  18.132  68.830  1.00  0.00    -0.300 OA 
HETATM    6  H   UNL     3      -7.032  17.877  68.654  1.00  0.00     0.000 HD 
HETATM    7  C   UNL     3      -8.808  17.150  68.241  1.00  0.00    -0.245 C  
ENDROOT
BRANCH   3   8
HETATM    8  C   UNL     2      -9.764   7.486  67.402  1.00  0.00    -0.159 C  
HETATM    9  O   UNL     2     -10.994   7.778  66.708  1.00  0.00    -0.428 OA 
HETATM   10  H   UNL     2     -11.308   8.637  66.963  1.00  0.00     0.000 HD 
BRANCH   8  11
HETATM   11  C   UNL     2      -9.945   7.613  68.928  1.00  0.00    -0.176 C  
HETATM   12  O   UNL     2      -8.743   7.131  69.535  1.00  0.00    -0.133 OA 
HETATM   13  H   UNL     2      -8.854   7.209  70.475  1.00  0.00     0.000 HD 
BRANCH  11  14
HETATM   14  C   UNL     2     -10.192   9.094  69.276  1.00  0.00    -0.210 C  
HETATM   15  H   UNL     2      -9.085  10.601  69.923  1.00  0.00     0.000 HD 
HETATM   16  O   UNL     2      -8.933   9.689  69.709  1.00  0.00    -0.178 OA 
BRANCH  14  17
HETATM   17  C   UNL     2     -11.317   9.400  70.266  1.00  0.00    -0.220 C  
HETATM   18  C   UNL     2     -11.944  10.777  69.926  1.00  0.00    -0.342 C  
HETATM   19  H   UNL     2     -11.527   9.466  72.222  1.00  0.00     0.000 HD 
HETATM   20  O   UNL     2     -10.828   9.275  71.607  1.00  0.00    -0.357 OA 
HETATM   21  O   UNL     2     -12.217  10.865  68.686  1.00  0.00    -0.533 OA 
HETATM   22  O   UNL     2     -12.119  11.551  70.887  1.00  0.00    -0.349 OA 
ENDBRANCH  14  17
ENDBRANCH  11  14
ENDBRANCH   8  11
ENDBRANCH   3   8
BRANCH   7  23
HETATM   23  C   UNL     3     -10.260  17.561  68.525  1.00  0.00    -0.378 C  
HETATM   24  O   UNL     3     -10.793  18.179  67.336  1.00  0.00    -0.374 OA 
HETATM   25  H   UNL     3     -11.692  18.433  67.511  1.00  0.00     0.000 HD 
BRANCH  23  26
HETATM   26  C   UNL     3     -11.248  16.427  68.860  1.00  0.00    -0.304 C  
HETATM   27  O   UNL     3     -10.966  15.245  68.108  1.00  0.00    -0.270 OA 
HETATM   28  H   UNL     3     -11.576  14.546  68.316  1.00  0.00     0.000 HD 
BRANCH  26  29
HETATM   29  C   UNL     3     -11.449  16.037  70.341  1.00  0.00    -0.377 C  
HETATM   30  O   UNL     3     -10.457  15.107  70.804  1.00  0.00    -0.513 OA 
HETATM   31  H   UNL     3     -10.580  14.867  71.715  1.00  0.00     0.000 HD 
BRANCH  29  32
HETATM   32  C   UNL     3     -12.818  15.494  70.734  1.00  0.00    -0.458 C  
HETATM   33  C   UNL     3     -13.014  15.309  72.249  1.00  0.00    -0.369 C  
HETATM   34  O   UNL     3     -13.003  14.153  70.104  1.00  0.00    -0.392 OA 
HETATM   35  O   UNL     3     -12.728  14.100  72.633  1.00  0.00    -0.334 OA 
HETATM   36  O   UNL     3     -13.742  16.136  72.833  1.00  0.00    -0.494 OA 
HETATM   37  H   UNL     3     -13.856  13.814  70.349  1.00  0.00     0.000 HD 
ENDBRANCH  29  32
ENDBRANCH  26  29
ENDBRANCH  23  26
ENDBRANCH   7  23
TORSDOF 8
ENDMDL
MODEL      105
REMARK 921   NORMALIZED FREE ENERGY PREDICTED BY IDOCK:   -5.60 KCAL/MOL
REMARK 922        TOTAL FREE ENERGY PREDICTED BY IDOCK:  -10.30 KCAL/MOL
REMARK 923 INTER-LIGAND FREE ENERGY PREDICTED BY IDOCK:   -8.30 KCAL/MOL
REMARK 924 INTRA-LIGAND FREE ENERGY PREDICTED BY IDOCK:   -2.00 KCAL/MOL
REMARK 927      BINDING AFFINITY PREDICTED BY RF-SCORE:    0.00 PKD
ROOT
HETATM    1 CU   UNL     1      -9.004  13.321  67.204  1.00  0.00    -0.166 Cu 
HETATM    2  O   UNL     2      -9.145  19.167  65.847  1.00  0.00    -0.436 OA 
HETATM    3  C   UNL     2     -10.411  18.633  66.262  1.00  0.00    -0.424 C  
HETATM    4  H   UNL     2      -9.315  20.020  65.464  1.00  0.00     0.000 HD 
HETATM    5  O   UNL     3     -11.413   6.443  66.678  1.00  0.00    -0.700 OA 
HETATM    6  H   UNL     3     -12.025   6.649  65.980  1.00  0.00     0.000 HD 
HETATM    7  C   UNL     3     -10.462   7.521  66.786  1.00  0.00    -0.249 C  
ENDROOT
BRANCH   3   8
HETATM    8  C   UNL     2     -10.140  17.263  66.878  1.00  0.00    -0.304 C  
HETATM    9  O   UNL     2      -9.285  16.499  66.005  1.00  0.00    -0.369 OA 
HETATM   10  H   UNL     2      -9.117  15.646  66.388  1.00  0.00     0.000 HD 
BRANCH   8  11
HETATM   11  C   UNL     2      -9.536  17.368  68.293  1.00  0.00    -0.292 C  
HETATM   12  O   UNL     2     -10.218  18.432  68.963  1.00  0.00    -0.449 OA 
HETATM   13  H   UNL     2      -9.846  18.497  69.835  1.00  0.00     0.000 HD 
BRANCH  11  14
HETATM   14  C   UNL     2      -9.744  16.025  69.021  1.00  0.00    -0.244 C  
HETATM   15  H   UNL     2      -8.856  14.256  69.009  1.00  0.00     0.000 HD 
HETATM   16  O   UNL     2      -8.728  15.084  68.561  1.00  0.00    -0.161 OA 
BRANCH  14  17
HETATM   17  C   UNL     2     -11.140  15.405  68.957  1.00  0.00    -0.268 C  
HETATM   18  C   UNL     2     -11.697  15.238  70.394  1.00  0.00    -0.310 C  
HETATM   19  H   UNL     2     -11.969  13.816  68.144  1.00  0.00     0.000 HD 
HETATM   20  O   UNL     2     -11.101  14.201  68.183  1.00  0.00    -0.244 OA 
HETATM   21  O   UNL     2     -11.563  16.311  71.067  1.00  0.00    -0.410 OA 
HETATM   22  O   UNL     2     -12.211  14.134  70.658  1.00  0.00    -0.316 OA 
ENDBRANCH  14  17
ENDBRANCH  11  14
ENDBRANCH   8  11
ENDBRANCH   3   8
BRANCH   7  23
HETATM   23  C   UNL     3      -9.474   7.189  67.912  1.00  0.00    -0.130 C  
HETATM   24  O   UNL     3      -8.135   7.359  67.401  1.00  0.00    -0.110 OA 
HETATM   25  H   UNL     3      -7.523   7.153  68.098  1.00  0.00     0.000 HD 
BRANCH  23  26
HETATM   26  C   UNL     3      -9.533   8.075  69.171  1.00  0.00    -0.155 C  
HETATM   27  O   UNL     3      -9.783   9.443  68.839  1.00  0.00    -0.158 OA 
HETATM   28  H   UNL     3      -9.820   9.989  69.616  1.00  0.00     0.000 HD 
BRANCH  26  29
HETATM   29  C   UNL     3     -10.479   7.663  70.320  1.00  0.00    -0.224 C  
HETATM   30  O   UNL     3     -11.848   7.557  69.894  1.00  0.00    -0.469 OA 
HETATM   31  H   UNL     3     -12.430   7.303  70.601  1.00  0.00     0.000 HD 
BRANCH  29  32
HETATM   32  C   UNL     3     -10.448   8.517  71.582  1.00  0.00    -0.275 C  
HETATM   33  C   UNL     3     -11.345   7.998  72.720  1.00  0.00    -0.374 C  
HETATM   34  O   UNL     3     -10.924   9.892  71.246  1.00  0.00    -0.320 OA 
HETATM   35  O   UNL     3     -12.522   8.551  72.704  1.00  0.00    -0.370 OA 
HETATM   36  O   UNL     3     -10.777   7.455  73.688  1.00  0.00    -0.371 OA 
HETATM   37  H   UNL     3     -10.905  10.424  72.032  1.00  0.00     0.000 HD 
ENDBRANCH  29  32
ENDBRANCH  26  29
ENDBRANCH  23  26
ENDBRANCH   7  23
TORSDOF 8
ENDMDL
MODEL      106
REMARK 921   NORMALIZED FREE ENERGY PREDICTED BY IDOCK:   -5.60 KCAL/MOL
REMARK 922        TOTAL FREE ENERGY PREDICTED BY IDOCK:  -10.30 KCAL/MOL
REMARK 923 INTER-LIGAND FREE ENERGY PREDICTED BY IDOCK:   -8.54 KCAL/MOL
REMARK 924 INTRA-LIGAND FREE ENERGY PREDICTED BY IDOCK:   -1.76 KCAL/MOL
REMARK 927      BINDING AFFINITY PREDICTED BY RF-SCORE:    0.00 PKD
ROOT
HETATM    1 CU   UNL     1     -11.805   9.894  67.452  1.00  0.00    -0.421 Cu 
HETATM    2  O   UNL     2     -12.529  14.330  63.473  1.00  0.00    -1.095 OA 
HETATM    3  C   UNL     2     -11.351  14.459  64.283  1.00  0.00    -0.151 C  
HETATM    4  H   UNL     2     -12.659  15.164  63.037  1.00  0.00     0.000 HD 
HETATM    5  O   UNL     3     -10.622   7.292  74.176  1.00  0.00    -0.533 OA 
HETATM    6  H   UNL     3     -10.675   8.150  74.581  1.00  0.00     0.000 HD 
HETATM    7  C   UNL     3     -11.197   7.372  72.856  1.00  0.00    -0.319 C  
ENDROOT
BRANCH   3   8
HETATM    8  C   UNL     2     -11.140  13.119  64.983  1.00  0.00    -0.301 C  
HETATM    9  O   UNL     2      -9.796  12.655  64.746  1.00  0.00    -0.477 OA 
HETATM   10  H   UNL     2      -9.665  11.820  65.182  1.00  0.00     0.000 HD 
BRANCH   8  11
HETATM   11  C   UNL     2     -11.443  13.195  66.494  1.00  0.00    -0.338 C  
HETATM   12  O   UNL     2     -12.229  12.047  66.823  1.00  0.00    -0.545 OA 
HETATM   13  H   UNL     2     -12.416  12.093  67.753  1.00  0.00     0.000 HD 
BRANCH  11  14
HETATM   14  C   UNL     2     -10.109  13.199  67.266  1.00  0.00    -0.233 C  
HETATM   15  H   UNL     2      -8.477  14.319  67.267  1.00  0.00     0.000 HD 
HETATM   16  O   UNL     2      -9.299  14.316  66.791  1.00  0.00    -0.254 OA 
BRANCH  14  17
HETATM   17  C   UNL     2      -9.305  11.899  67.278  1.00  0.00    -0.177 C  
HETATM   18  C   UNL     2      -9.417  11.235  68.675  1.00  0.00    -0.175 C  
HETATM   19  H   UNL     2      -7.466  11.345  66.846  1.00  0.00     0.000 HD 
HETATM   20  O   UNL     2      -7.966  12.154  66.838  1.00  0.00    -0.157 OA 
HETATM   21  O   UNL     2     -10.628  11.177  69.061  1.00  0.00    -0.207 OA 
HETATM   22  O   UNL     2      -8.349  10.835  69.179  1.00  0.00    -0.150 OA 
ENDBRANCH  14  17
ENDBRANCH  11  14
ENDBRANCH   8  11
ENDBRANCH   3   8
BRANCH   7  23
HETATM   23  C   UNL     3     -11.111   5.986  72.203  1.00  0.00    -0.279 C  
HETATM   24  O   UNL     3     -11.917   5.073  72.977  1.00  0.00    -0.423 OA 
HETATM   25  H   UNL     3     -11.864   4.215  72.572  1.00  0.00     0.000 HD 
BRANCH  23  26
HETATM   26  C   UNL     3     -11.646   5.863  70.762  1.00  0.00     0.085 C  
HETATM   27  O   UNL     3     -12.550   6.925  70.446  1.00  0.00    -0.593 OA 
HETATM   28  H   UNL     3     -12.879   6.849  69.558  1.00  0.00     0.000 HD 
BRANCH  26  29
HETATM   29  C   UNL     3     -10.630   5.716  69.609  1.00  0.00    -0.331 C  
HETATM   30  O   UNL     3      -9.320   6.187  69.965  1.00  0.00    -0.152 OA 
HETATM   31  H   UNL     3      -8.696   6.096  69.254  1.00  0.00     0.000 HD 
BRANCH  29  32
HETATM   32  C   UNL     3     -11.005   6.348  68.272  1.00  0.00    -0.312 C  
HETATM   33  C   UNL     3     -10.131   5.894  67.090  1.00  0.00    -0.177 C  
HETATM   34  O   UNL     3     -10.855   7.830  68.381  1.00  0.00    -0.406 OA 
HETATM   35  O   UNL     3      -9.135   6.704  66.882  1.00  0.00    -0.127 OA 
HETATM   36  O   UNL     3     -10.644   5.100  66.277  1.00  0.00    -0.292 OA 
HETATM   37  H   UNL     3     -11.089   8.224  67.548  1.00  0.00     0.000 HD 
ENDBRANCH  29  32
ENDBRANCH  26  29
ENDBRANCH  23  26
ENDBRANCH   7  23
TORSDOF 8
ENDMDL
MODEL      107
REMARK 921   NORMALIZED FREE ENERGY PREDICTED BY IDOCK:   -5.60 KCAL/MOL
REMARK 922        TOTAL FREE ENERGY PREDICTED BY IDOCK:  -10.30 KCAL/MOL
REMARK 923 INTER-LIGAND FREE ENERGY PREDICTED BY IDOCK:   -8.83 KCAL/MOL
REMARK 924 INTRA-LIGAND FREE ENERGY PREDICTED BY IDOCK:   -1.47 KCAL/MOL
REMARK 927      BINDING AFFINITY PREDICTED BY RF-SCORE:    0.00 PKD
ROOT
HETATM    1 CU   UNL     1     -11.015  12.318  69.451  1.00  0.00    -0.213 Cu 
HETATM    2  O   UNL     2     -10.500  18.102  67.928  1.00  0.00    -0.380 OA 
HETATM    3  C   UNL     2      -9.354  17.574  68.610  1.00  0.00    -0.277 C  
HETATM    4  H   UNL     2     -10.408  19.048  67.920  1.00  0.00     0.000 HD 
HETATM    5  O   UNL     3     -10.721   6.773  74.199  1.00  0.00    -0.455 OA 
HETATM    6  H   UNL     3     -10.575   7.343  74.945  1.00  0.00     0.000 HD 
HETATM    7  C   UNL     3     -11.216   7.569  73.103  1.00  0.00    -0.267 C  
ENDROOT
BRANCH   3   8
HETATM    8  C   UNL     2      -9.500  16.054  68.623  1.00  0.00    -0.224 C  
HETATM    9  O   UNL     2     -10.824  15.699  69.066  1.00  0.00    -0.228 OA 
HETATM   10  H   UNL     2     -10.915  14.753  69.074  1.00  0.00     0.000 HD 
BRANCH   8  11
HETATM   11  C   UNL     2      -9.186  15.425  67.250  1.00  0.00    -0.207 C  
HETATM   12  O   UNL     2      -8.262  14.358  67.478  1.00  0.00    -0.161 OA 
HETATM   13  H   UNL     2      -8.068  13.971  66.633  1.00  0.00     0.000 HD 
BRANCH  11  14
HETATM   14  C   UNL     2     -10.499  14.906  66.632  1.00  0.00    -0.292 C  
HETATM   15  H   UNL     2     -11.555  13.236  66.747  1.00  0.00     0.000 HD 
HETATM   16  O   UNL     2     -10.746  13.557  67.127  1.00  0.00    -0.275 OA 
BRANCH  14  17
HETATM   17  C   UNL     2     -10.626  14.968  65.110  1.00  0.00    -0.418 C  
HETATM   18  C   UNL     2     -11.250  16.326  64.698  1.00  0.00    -0.254 C  
HETATM   19  H   UNL     2     -11.408  13.853  63.689  1.00  0.00     0.000 HD 
HETATM   20  O   UNL     2     -11.329  13.814  64.635  1.00  0.00    -0.345 OA 
HETATM   21  O   UNL     2     -10.662  17.296  65.275  1.00  0.00    -0.637 OA 
HETATM   22  O   UNL     2     -12.175  16.274  63.863  1.00  0.00    -0.945 OA 
ENDBRANCH  14  17
ENDBRANCH  11  14
ENDBRANCH   8  11
ENDBRANCH   3   8
BRANCH   7  23
HETATM   23  C   UNL     3     -11.452   6.649  71.899  1.00  0.00    -0.291 C  
HETATM   24  O   UNL     3     -12.875   6.480  71.734  1.00  0.00    -0.314 OA 
HETATM   25  H   UNL     3     -13.021   5.909  70.988  1.00  0.00     0.000 HD 
BRANCH  23  26
HETATM   26  C   UNL     3     -10.952   7.154  70.531  1.00  0.00    -0.262 C  
HETATM   27  O   UNL     3     -11.789   6.698  69.465  1.00  0.00    -0.658 OA 
HETATM   28  H   UNL     3     -11.480   7.009  68.622  1.00  0.00     0.000 HD 
BRANCH  26  29
HETATM   29  C   UNL     3     -10.699   8.666  70.350  1.00  0.00    -0.224 C  
HETATM   30  O   UNL     3     -11.757   9.319  69.630  1.00  0.00    -0.418 OA 
HETATM   31  H   UNL     3     -11.601  10.250  69.519  1.00  0.00     0.000 HD 
BRANCH  29  32
HETATM   32  C   UNL     3      -9.377   9.075  69.709  1.00  0.00    -0.171 C  
HETATM   33  C   UNL     3      -8.133   8.473  70.386  1.00  0.00    -0.108 C  
HETATM   34  O   UNL     3      -9.242  10.560  69.789  1.00  0.00    -0.409 OA 
HETATM   35  O   UNL     3      -7.632   9.273  71.281  1.00  0.00    -0.306 OA 
HETATM   36  O   UNL     3      -7.551   7.549  69.786  1.00  0.00    -0.089 OA 
HETATM   37  H   UNL     3      -8.418  10.815  69.390  1.00  0.00     0.000 HD 
ENDBRANCH  29  32
ENDBRANCH  26  29
ENDBRANCH  23  26
ENDBRANCH   7  23
TORSDOF 8
ENDMDL
MODEL      108
REMARK 921   NORMALIZED FREE ENERGY PREDICTED BY IDOCK:   -5.59 KCAL/MOL
REMARK 922        TOTAL FREE ENERGY PREDICTED BY IDOCK:  -10.27 KCAL/MOL
REMARK 923 INTER-LIGAND FREE ENERGY PREDICTED BY IDOCK:   -8.66 KCAL/MOL
REMARK 924 INTRA-LIGAND FREE ENERGY PREDICTED BY IDOCK:   -1.62 KCAL/MOL
REMARK 927      BINDING AFFINITY PREDICTED BY RF-SCORE:    0.00 PKD
ROOT
HETATM    1 CU   UNL     1     -10.939  11.925  70.323  1.00  0.00    -0.431 Cu 
HETATM    2  O   UNL     2     -10.351  17.572  68.372  1.00  0.00    -0.339 OA 
HETATM    3  C   UNL     2     -10.886  16.669  67.393  1.00  0.00    -0.186 C  
HETATM    4  H   UNL     2     -10.106  18.368  67.913  1.00  0.00     0.000 HD 
HETATM    5  O   UNL     3      -9.946   4.706  69.795  1.00  0.00    -0.217 OA 
HETATM    6  H   UNL     3      -9.381   4.781  69.034  1.00  0.00     0.000 HD 
HETATM    7  C   UNL     3     -10.038   6.000  70.425  1.00  0.00    -0.194 C  
ENDROOT
BRANCH   3   8
HETATM    8  C   UNL     2     -11.280  15.391  68.130  1.00  0.00    -0.325 C  
HETATM    9  O   UNL     2     -12.231  15.703  69.166  1.00  0.00    -0.574 OA 
HETATM   10  H   UNL     2     -12.476  14.908  69.625  1.00  0.00     0.000 HD 
BRANCH   8  11
HETATM   11  C   UNL     2     -11.832  14.313  67.175  1.00  0.00    -0.425 C  
HETATM   12  O   UNL     2     -11.785  14.858  65.854  1.00  0.00    -0.296 OA 
HETATM   13  H   UNL     2     -12.125  14.194  65.265  1.00  0.00     0.000 HD 
BRANCH  11  14
HETATM   14  C   UNL     2     -10.953  13.052  67.292  1.00  0.00    -0.264 C  
HETATM   15  H   UNL     2      -9.011  12.672  67.263  1.00  0.00     0.000 HD 
HETATM   16  O   UNL     2      -9.553  13.448  67.190  1.00  0.00    -0.226 OA 
BRANCH  14  17
HETATM   17  C   UNL     2     -11.269  11.891  66.348  1.00  0.00    -0.331 C  
HETATM   18  C   UNL     2     -10.593  10.599  66.875  1.00  0.00    -0.254 C  
HETATM   19  H   UNL     2     -11.115  11.528  64.420  1.00  0.00     0.000 HD 
HETATM   20  O   UNL     2     -10.919  12.250  65.006  1.00  0.00    -0.285 OA 
HETATM   21  O   UNL     2     -10.832  10.427  68.113  1.00  0.00    -0.224 OA 
HETATM   22  O   UNL     2      -9.972   9.922  66.031  1.00  0.00    -0.247 OA 
ENDBRANCH  14  17
ENDBRANCH  11  14
ENDBRANCH   8  11
ENDBRANCH   3   8
BRANCH   7  23
HETATM   23  C   UNL     3     -10.950   5.880  71.654  1.00  0.00    -0.268 C  
HETATM   24  O   UNL     3     -10.208   6.320  72.809  1.00  0.00    -0.178 OA 
HETATM   25  H   UNL     3     -10.772   6.246  73.570  1.00  0.00     0.000 HD 
BRANCH  23  26
HETATM   26  C   UNL     3     -12.231   6.737  71.654  1.00  0.00    -0.365 C  
HETATM   27  O   UNL     3     -13.250   6.157  72.471  1.00  0.00    -0.412 OA 
HETATM   28  H   UNL     3     -14.040   6.686  72.471  1.00  0.00     0.000 HD 
BRANCH  26  29
HETATM   29  C   UNL     3     -12.113   8.238  71.999  1.00  0.00    -0.348 C  
HETATM   30  O   UNL     3     -11.751   8.460  73.372  1.00  0.00    -0.048 OA 
HETATM   31  H   UNL     3     -11.679   9.384  73.584  1.00  0.00     0.000 HD 
BRANCH  29  32
HETATM   32  C   UNL     3     -13.321   9.116  71.687  1.00  0.00    -0.383 C  
HETATM   33  C   UNL     3     -12.965  10.526  71.186  1.00  0.00    -0.411 C  
HETATM   34  O   UNL     3     -14.127   9.287  72.932  1.00  0.00    -0.939 OA 
HETATM   35  O   UNL     3     -12.929  11.393  72.155  1.00  0.00    -0.395 OA 
HETATM   36  O   UNL     3     -13.128  10.755  69.972  1.00  0.00    -0.093 OA 
HETATM   37  H   UNL     3     -14.879   9.834  72.738  1.00  0.00     0.000 HD 
ENDBRANCH  29  32
ENDBRANCH  26  29
ENDBRANCH  23  26
ENDBRANCH   7  23
TORSDOF 8
ENDMDL
MODEL      109
REMARK 921   NORMALIZED FREE ENERGY PREDICTED BY IDOCK:   -5.54 KCAL/MOL
REMARK 922        TOTAL FREE ENERGY PREDICTED BY IDOCK:  -10.21 KCAL/MOL
REMARK 923 INTER-LIGAND FREE ENERGY PREDICTED BY IDOCK:   -8.89 KCAL/MOL
REMARK 924 INTRA-LIGAND FREE ENERGY PREDICTED BY IDOCK:   -1.33 KCAL/MOL
REMARK 927      BINDING AFFINITY PREDICTED BY RF-SCORE:    0.00 PKD
ROOT
HETATM    1 CU   UNL     1     -11.979  10.057  69.571  1.00  0.00    -0.271 Cu 
HETATM    2  O   UNL     2     -11.813   5.397  73.352  1.00  0.00    -0.447 OA 
HETATM    3  C   UNL     2     -10.765   5.391  72.371  1.00  0.00    -0.231 C  
HETATM    4  H   UNL     2     -11.824   4.536  73.754  1.00  0.00     0.000 HD 
HETATM    5  O   UNL     3     -11.990  13.051  62.906  1.00  0.00    -0.778 OA 
HETATM    6  H   UNL     3     -12.049  12.211  62.466  1.00  0.00     0.000 HD 
HETATM    7  C   UNL     3     -12.353  12.869  64.290  1.00  0.00    -0.385 C  
ENDROOT
BRANCH   3   8
HETATM    8  C   UNL     2     -10.747   6.774  71.726  1.00  0.00    -0.224 C  
HETATM    9  O   UNL     2     -11.095   7.771  72.706  1.00  0.00    -0.342 OA 
HETATM   10  H   UNL     2     -11.084   8.632  72.304  1.00  0.00     0.000 HD 
BRANCH   8  11
HETATM   11  C   UNL     2      -9.390   7.093  71.066  1.00  0.00    -0.158 C  
HETATM   12  O   UNL     2      -8.857   5.858  70.580  1.00  0.00    -0.138 OA 
HETATM   13  H   UNL     2      -8.022   6.054  70.174  1.00  0.00     0.000 HD 
BRANCH  11  14
HETATM   14  C   UNL     2      -9.622   8.094  69.917  1.00  0.00    -0.175 C  
HETATM   15  H   UNL     2     -11.169   8.654  68.817  1.00  0.00     0.000 HD 
HETATM   16  O   UNL     2     -11.026   8.038  69.526  1.00  0.00    -0.179 OA 
BRANCH  14  17
HETATM   17  C   UNL     2      -8.704   7.983  68.699  1.00  0.00    -0.131 C  
HETATM   18  C   UNL     2      -8.735   9.314  67.905  1.00  0.00    -0.124 C  
HETATM   19  H   UNL     2      -8.479   6.751  67.181  1.00  0.00     0.000 HD 
HETATM   20  O   UNL     2      -9.049   6.819  67.937  1.00  0.00    -0.118 OA 
HETATM   21  O   UNL     2      -8.565  10.313  68.676  1.00  0.00    -0.116 OA 
HETATM   22  O   UNL     2      -8.876   9.213  66.670  1.00  0.00    -0.124 OA 
ENDBRANCH  14  17
ENDBRANCH  11  14
ENDBRANCH   8  11
ENDBRANCH   3   8
BRANCH   7  23
HETATM   23  C   UNL     3     -12.257  14.225  65.002  1.00  0.00    -0.433 C  
HETATM   24  O   UNL     3     -11.912  13.985  66.382  1.00  0.00    -0.396 OA 
HETATM   25  H   UNL     3     -11.853  14.825  66.823  1.00  0.00     0.000 HD 
BRANCH  23  26
HETATM   26  C   UNL     3     -11.184  15.204  64.489  1.00  0.00    -0.272 C  
HETATM   27  O   UNL     3     -11.773  16.353  63.875  1.00  0.00    -1.504 OA 
HETATM   28  H   UNL     3     -11.110  16.957  63.559  1.00  0.00     0.000 HD 
BRANCH  26  29
HETATM   29  C   UNL     3     -10.084  15.672  65.467  1.00  0.00    -0.362 C  
HETATM   30  O   UNL     3      -9.349  14.576  66.035  1.00  0.00    -0.462 OA 
HETATM   31  H   UNL     3      -8.673  14.865  66.636  1.00  0.00     0.000 HD 
BRANCH  29  32
HETATM   32  C   UNL     3     -10.518  16.585  66.609  1.00  0.00    -0.266 C  
HETATM   33  C   UNL     3      -9.850  17.971  66.600  1.00  0.00    -0.352 C  
HETATM   34  O   UNL     3     -10.159  15.937  67.906  1.00  0.00    -0.230 OA 
HETATM   35  O   UNL     3      -8.784  18.003  67.344  1.00  0.00    -0.243 OA 
HETATM   36  O   UNL     3     -10.553  18.937  66.242  1.00  0.00    -0.424 OA 
HETATM   37  H   UNL     3     -10.429  16.505  68.618  1.00  0.00     0.000 HD 
ENDBRANCH  29  32
ENDBRANCH  26  29
ENDBRANCH  23  26
ENDBRANCH   7  23
TORSDOF 8
ENDMDL
MODEL      110
REMARK 921   NORMALIZED FREE ENERGY PREDICTED BY IDOCK:   -5.53 KCAL/MOL
REMARK 922        TOTAL FREE ENERGY PREDICTED BY IDOCK:  -10.20 KCAL/MOL
REMARK 923 INTER-LIGAND FREE ENERGY PREDICTED BY IDOCK:   -8.34 KCAL/MOL
REMARK 924 INTRA-LIGAND FREE ENERGY PREDICTED BY IDOCK:   -1.86 KCAL/MOL
REMARK 927      BINDING AFFINITY PREDICTED BY RF-SCORE:    0.00 PKD
ROOT
HETATM    1 CU   UNL     1     -11.384  12.351  68.937  1.00  0.00    -0.194 Cu 
HETATM    2  O   UNL     2     -10.752  17.439  65.814  1.00  0.00    -0.361 OA 
HETATM    3  C   UNL     2      -9.671  16.510  65.642  1.00  0.00    -0.089 C  
HETATM    4  H   UNL     2     -10.463  18.271  65.458  1.00  0.00     0.000 HD 
HETATM    5  O   UNL     3      -9.044   7.208  73.570  1.00  0.00    -0.141 OA 
HETATM    6  H   UNL     3      -8.252   7.685  73.790  1.00  0.00     0.000 HD 
HETATM    7  C   UNL     3      -9.967   8.120  72.941  1.00  0.00    -0.266 C  
ENDROOT
BRANCH   3   8
HETATM    8  C   UNL     2     -10.134  15.172  66.214  1.00  0.00    -0.283 C  
HETATM    9  O   UNL     2     -10.264  15.276  67.645  1.00  0.00    -0.238 OA 
HETATM   10  H   UNL     2     -10.552  14.443  68.001  1.00  0.00     0.000 HD 
BRANCH   8  11
HETATM   11  C   UNL     2     -11.449  14.686  65.570  1.00  0.00    -0.341 C  
HETATM   12  O   UNL     2     -11.423  15.094  64.200  1.00  0.00    -0.660 OA 
HETATM   13  H   UNL     2     -12.232  14.794  63.804  1.00  0.00     0.000 HD 
BRANCH  11  14
HETATM   14  C   UNL     2     -11.522  13.150  65.696  1.00  0.00    -0.323 C  
HETATM   15  H   UNL     2     -12.280  11.871  67.001  1.00  0.00     0.000 HD 
HETATM   16  O   UNL     2     -12.234  12.816  66.924  1.00  0.00    -0.454 OA 
BRANCH  14  17
HETATM   17  C   UNL     2     -10.206  12.379  65.593  1.00  0.00    -0.262 C  
HETATM   18  C   UNL     2     -10.210  11.521  64.301  1.00  0.00    -0.311 C  
HETATM   19  H   UNL     2      -9.161  11.166  66.738  1.00  0.00     0.000 HD 
HETATM   20  O   UNL     2      -9.979  11.645  66.802  1.00  0.00    -0.200 OA 
HETATM   21  O   UNL     2     -10.563  12.211  63.292  1.00  0.00    -0.428 OA 
HETATM   22  O   UNL     2      -9.842  10.337  64.429  1.00  0.00    -0.327 OA 
ENDBRANCH  14  17
ENDBRANCH  11  14
ENDBRANCH   8  11
ENDBRANCH   3   8
BRANCH   7  23
HETATM   23  C   UNL     3     -11.247   7.351  72.585  1.00  0.00    -0.332 C  
HETATM   24  O   UNL     3     -12.378   8.137  73.013  1.00  0.00    -0.666 OA 
HETATM   25  H   UNL     3     -13.170   7.661  72.793  1.00  0.00     0.000 HD 
BRANCH  23  26
HETATM   26  C   UNL     3     -11.498   7.077  71.089  1.00  0.00    -0.294 C  
HETATM   27  O   UNL     3     -12.873   7.267  70.745  1.00  0.00    -0.598 OA 
HETATM   28  H   UNL     3     -13.027   7.098  69.823  1.00  0.00     0.000 HD 
BRANCH  26  29
HETATM   29  C   UNL     3     -10.620   7.804  70.048  1.00  0.00    -0.238 C  
HETATM   30  O   UNL     3     -11.381   8.687  69.207  1.00  0.00    -0.416 OA 
HETATM   31  H   UNL     3     -10.840   9.134  68.566  1.00  0.00     0.000 HD 
BRANCH  29  32
HETATM   32  C   UNL     3      -9.752   6.934  69.146  1.00  0.00    -0.155 C  
HETATM   33  C   UNL     3     -10.440   5.648  68.655  1.00  0.00    -0.207 C  
HETATM   34  O   UNL     3      -8.537   6.515  69.905  1.00  0.00    -0.136 OA 
HETATM   35  O   UNL     3     -10.179   4.632  69.425  1.00  0.00    -0.184 OA 
HETATM   36  O   UNL     3     -10.810   5.620  67.465  1.00  0.00    -0.233 OA 
HETATM   37  H   UNL     3      -7.995   5.973  69.344  1.00  0.00     0.000 HD 
ENDBRANCH  29  32
ENDBRANCH  26  29
ENDBRANCH  23  26
ENDBRANCH   7  23
TORSDOF 8
ENDMDL
MODEL      111
REMARK 921   NORMALIZED FREE ENERGY PREDICTED BY IDOCK:   -5.53 KCAL/MOL
REMARK 922        TOTAL FREE ENERGY PREDICTED BY IDOCK:  -10.19 KCAL/MOL
REMARK 923 INTER-LIGAND FREE ENERGY PREDICTED BY IDOCK:   -8.54 KCAL/MOL
REMARK 924 INTRA-LIGAND FREE ENERGY PREDICTED BY IDOCK:   -1.65 KCAL/MOL
REMARK 927      BINDING AFFINITY PREDICTED BY RF-SCORE:    0.00 PKD
ROOT
HETATM    1 CU   UNL     1     -10.109  12.530  67.839  1.00  0.00    -0.181 Cu 
HETATM    2  O   UNL     2     -10.784  18.017  65.497  1.00  0.00    -0.597 OA 
HETATM    3  C   UNL     2      -9.470  17.759  66.012  1.00  0.00    -0.063 C  
HETATM    4  H   UNL     2     -10.846  18.953  65.347  1.00  0.00     0.000 HD 
HETATM    5  O   UNL     3      -8.142   7.896  73.133  1.00  0.00    -0.133 OA 
HETATM    6  H   UNL     3      -7.964   8.591  73.756  1.00  0.00     0.000 HD 
HETATM    7  C   UNL     3      -8.935   8.436  72.057  1.00  0.00    -0.223 C  
ENDROOT
BRANCH   3   8
HETATM    8  C   UNL     2      -9.369  16.255  66.253  1.00  0.00    -0.326 C  
HETATM    9  O   UNL     2      -8.013  15.909  66.596  1.00  0.00    -0.247 OA 
HETATM   10  H   UNL     2      -7.950  14.973  66.746  1.00  0.00     0.000 HD 
BRANCH   8  11
HETATM   11  C   UNL     2     -10.357  15.769  67.333  1.00  0.00    -0.282 C  
HETATM   12  O   UNL     2     -10.867  16.931  67.990  1.00  0.00    -0.363 OA 
HETATM   13  H   UNL     2     -11.476  16.632  68.655  1.00  0.00     0.000 HD 
BRANCH  11  14
HETATM   14  C   UNL     2     -11.485  14.972  66.647  1.00  0.00    -0.251 C  
HETATM   15  H   UNL     2     -12.765  13.568  67.201  1.00  0.00     0.000 HD 
HETATM   16  O   UNL     2     -12.070  14.059  67.623  1.00  0.00    -0.382 OA 
BRANCH  14  17
HETATM   17  C   UNL     2     -11.137  14.245  65.349  1.00  0.00    -0.327 C  
HETATM   18  C   UNL     2     -12.149  14.645  64.244  1.00  0.00    -0.415 C  
HETATM   19  H   UNL     2     -10.822  12.385  64.786  1.00  0.00     0.000 HD 
HETATM   20  O   UNL     2     -11.039  12.837  65.594  1.00  0.00    -0.271 OA 
HETATM   21  O   UNL     2     -12.290  15.909  64.187  1.00  0.00    -0.634 OA 
HETATM   22  O   UNL     2     -12.627  13.709  63.574  1.00  0.00    -0.754 OA 
ENDBRANCH  14  17
ENDBRANCH  11  14
ENDBRANCH   8  11
ENDBRANCH   3   8
BRANCH   7  23
HETATM   23  C   UNL     3      -9.222   7.313  71.051  1.00  0.00    -0.154 C  
HETATM   24  O   UNL     3      -8.004   6.567  70.850  1.00  0.00    -0.108 OA 
HETATM   25  H   UNL     3      -8.182   5.871  70.227  1.00  0.00     0.000 HD 
BRANCH  23  26
HETATM   26  C   UNL     3     -10.268   6.261  71.466  1.00  0.00    -0.200 C  
HETATM   27  O   UNL     3     -10.237   6.017  72.875  1.00  0.00    -0.178 OA 
HETATM   28  H   UNL     3     -10.882   5.368  73.130  1.00  0.00     0.000 HD 
BRANCH  26  29
HETATM   29  C   UNL     3     -11.736   6.468  71.032  1.00  0.00    -0.343 C  
HETATM   30  O   UNL     3     -11.847   6.970  69.690  1.00  0.00    -0.573 OA 
HETATM   31  H   UNL     3     -12.750   7.097  69.423  1.00  0.00     0.000 HD 
BRANCH  29  32
HETATM   32  C   UNL     3     -12.607   7.340  71.930  1.00  0.00    -0.291 C  
HETATM   33  C   UNL     3     -13.126   8.622  71.256  1.00  0.00    -0.161 C  
HETATM   34  O   UNL     3     -11.803   7.765  73.114  1.00  0.00    -0.645 OA 
HETATM   35  O   UNL     3     -12.350   9.640  71.484  1.00  0.00    -0.338 OA 
HETATM   36  O   UNL     3     -14.329   8.645  70.931  1.00  0.00    -0.095 OA 
HETATM   37  H   UNL     3     -12.345   8.308  73.674  1.00  0.00     0.000 HD 
ENDBRANCH  29  32
ENDBRANCH  26  29
ENDBRANCH  23  26
ENDBRANCH   7  23
TORSDOF 8
ENDMDL
MODEL      112
REMARK 921   NORMALIZED FREE ENERGY PREDICTED BY IDOCK:   -5.52 KCAL/MOL
REMARK 922        TOTAL FREE ENERGY PREDICTED BY IDOCK:  -10.18 KCAL/MOL
REMARK 923 INTER-LIGAND FREE ENERGY PREDICTED BY IDOCK:   -8.25 KCAL/MOL
REMARK 924 INTRA-LIGAND FREE ENERGY PREDICTED BY IDOCK:   -1.93 KCAL/MOL
REMARK 927      BINDING AFFINITY PREDICTED BY RF-SCORE:    0.00 PKD
ROOT
HETATM    1 CU   UNL     1     -10.633   9.578  69.580  1.00  0.00    -0.178 Cu 
HETATM    2  O   UNL     2      -9.328   4.467  72.446  1.00  0.00    -0.122 OA 
HETATM    3  C   UNL     2      -8.614   4.644  71.213  1.00  0.00    -0.113 C  
HETATM    4  H   UNL     2      -9.213   3.560  72.707  1.00  0.00     0.000 HD 
HETATM    5  O   UNL     3     -12.624  13.435  63.703  1.00  0.00    -0.718 OA 
HETATM    6  H   UNL     3     -12.803  12.660  63.183  1.00  0.00     0.000 HD 
HETATM    7  C   UNL     3     -12.562  13.051  65.091  1.00  0.00    -0.469 C  
ENDROOT
BRANCH   3   8
HETATM    8  C   UNL     2      -8.797   6.100  70.794  1.00  0.00    -0.140 C  
HETATM    9  O   UNL     2      -7.842   6.433  69.768  1.00  0.00    -0.109 OA 
HETATM   10  H   UNL     2      -7.955   7.340  69.508  1.00  0.00     0.000 HD 
BRANCH   8  11
HETATM   11  C   UNL     2     -10.238   6.398  70.330  1.00  0.00    -0.195 C  
HETATM   12  O   UNL     2     -10.947   5.157  70.338  1.00  0.00    -0.074 OA 
HETATM   13  H   UNL     2     -11.834   5.340  70.052  1.00  0.00     0.000 HD 
BRANCH  11  14
HETATM   14  C   UNL     2     -10.871   7.412  71.303  1.00  0.00    -0.238 C  
HETATM   15  H   UNL     2     -10.793   7.742  73.253  1.00  0.00     0.000 HD 
HETATM   16  O   UNL     2     -10.403   7.117  72.653  1.00  0.00    -0.193 OA 
BRANCH  14  17
HETATM   17  C   UNL     2     -12.393   7.559  71.266  1.00  0.00    -0.327 C  
HETATM   18  C   UNL     2     -12.788   8.974  71.760  1.00  0.00    -0.374 C  
HETATM   19  H   UNL     2     -13.947   6.570  71.959  1.00  0.00     0.000 HD 
HETATM   20  O   UNL     2     -13.001   6.478  71.983  1.00  0.00    -0.244 OA 
HETATM   21  O   UNL     2     -12.099   9.873  71.179  1.00  0.00    -0.318 OA 
HETATM   22  O   UNL     2     -13.714   9.024  72.593  1.00  0.00    -0.470 OA 
ENDBRANCH  14  17
ENDBRANCH  11  14
ENDBRANCH   8  11
ENDBRANCH   3   8
BRANCH   7  23
HETATM   23  C   UNL     3     -12.272  14.302  65.931  1.00  0.00    -0.407 C  
HETATM   24  O   UNL     3     -12.614  14.013  67.302  1.00  0.00    -0.483 OA 
HETATM   25  H   UNL     3     -12.434  14.788  67.822  1.00  0.00     0.000 HD 
BRANCH  23  26
HETATM   26  C   UNL     3     -10.809  14.782  65.979  1.00  0.00    -0.318 C  
HETATM   27  O   UNL     3     -10.096  14.412  64.796  1.00  0.00    -0.499 OA 
HETATM   28  H   UNL     3      -9.193  14.708  64.826  1.00  0.00     0.000 HD 
BRANCH  26  29
HETATM   29  C   UNL     3     -10.529  16.270  66.282  1.00  0.00    -0.308 C  
HETATM   30  O   UNL     3      -9.238  16.694  65.817  1.00  0.00    -0.502 OA 
HETATM   31  H   UNL     3      -9.066  17.609  66.003  1.00  0.00     0.000 HD 
BRANCH  29  32
HETATM   32  C   UNL     3     -10.673  16.720  67.732  1.00  0.00    -0.321 C  
HETATM   33  C   UNL     3      -9.636  17.766  68.176  1.00  0.00    -0.303 C  
HETATM   34  O   UNL     3     -10.506  15.534  68.623  1.00  0.00    -0.227 OA 
HETATM   35  O   UNL     3      -8.599  17.215  68.737  1.00  0.00    -0.268 OA 
HETATM   36  O   UNL     3     -10.033  18.940  68.308  1.00  0.00    -0.337 OA 
HETATM   37  H   UNL     3     -10.595  15.814  69.527  1.00  0.00     0.000 HD 
ENDBRANCH  29  32
ENDBRANCH  26  29
ENDBRANCH  23  26
ENDBRANCH   7  23
TORSDOF 8
ENDMDL
MODEL      113
REMARK 921   NORMALIZED FREE ENERGY PREDICTED BY IDOCK:   -5.50 KCAL/MOL
REMARK 922        TOTAL FREE ENERGY PREDICTED BY IDOCK:  -10.15 KCAL/MOL
REMARK 923 INTER-LIGAND FREE ENERGY PREDICTED BY IDOCK:   -8.66 KCAL/MOL
REMARK 924 INTRA-LIGAND FREE ENERGY PREDICTED BY IDOCK:   -1.49 KCAL/MOL
REMARK 927      BINDING AFFINITY PREDICTED BY RF-SCORE:    0.00 PKD
ROOT
HETATM    1 CU   UNL     1      -8.587  11.676  67.916  1.00  0.00    -0.119 Cu 
HETATM    2  O   UNL     2      -7.368   6.125  69.847  1.00  0.00    -0.075 OA 
HETATM    3  C   UNL     2      -8.573   6.681  70.393  1.00  0.00    -0.143 C  
HETATM    4  H   UNL     2      -7.159   5.353  70.361  1.00  0.00     0.000 HD 
HETATM    5  O   UNL     3     -10.276  18.712  68.933  1.00  0.00    -0.444 OA 
HETATM    6  H   UNL     3     -10.185  18.657  69.878  1.00  0.00     0.000 HD 
HETATM    7  C   UNL     3      -9.633  17.563  68.344  1.00  0.00    -0.303 C  
ENDROOT
BRANCH   3   8
HETATM    8  C   UNL     2      -8.909   7.920  69.567  1.00  0.00    -0.142 C  
HETATM    9  O   UNL     2      -9.774   7.554  68.474  1.00  0.00    -0.152 OA 
HETATM   10  H   UNL     2      -9.983   8.325  67.960  1.00  0.00     0.000 HD 
BRANCH   8  11
HETATM   11  C   UNL     2      -9.537   9.039  70.422  1.00  0.00    -0.208 C  
HETATM   12  O   UNL     2      -8.976  10.276  69.975  1.00  0.00    -0.388 OA 
HETATM   13  H   UNL     2      -9.362  10.965  70.501  1.00  0.00     0.000 HD 
BRANCH  11  14
HETATM   14  C   UNL     2     -11.066   9.014  70.223  1.00  0.00    -0.235 C  
HETATM   15  H   UNL     2     -12.405  10.210  69.391  1.00  0.00     0.000 HD 
HETATM   16  O   UNL     2     -11.464  10.226  69.514  1.00  0.00    -0.242 OA 
BRANCH  14  17
HETATM   17  C   UNL     2     -11.928   8.793  71.466  1.00  0.00    -0.324 C  
HETATM   18  C   UNL     2     -12.802   7.528  71.270  1.00  0.00    -0.290 C  
HETATM   19  H   UNL     2     -13.194   9.851  72.540  1.00  0.00     0.000 HD 
HETATM   20  O   UNL     2     -12.658   9.988  71.768  1.00  0.00    -0.384 OA 
HETATM   21  O   UNL     2     -12.104   6.545  70.861  1.00  0.00    -0.355 OA 
HETATM   22  O   UNL     2     -14.007   7.642  71.569  1.00  0.00    -0.398 OA 
ENDBRANCH  14  17
ENDBRANCH  11  14
ENDBRANCH   8  11
ENDBRANCH   3   8
BRANCH   7  23
HETATM   23  C   UNL     3      -9.780  17.651  66.819  1.00  0.00    -0.300 C  
HETATM   24  O   UNL     3      -8.749  18.526  66.318  1.00  0.00    -0.392 OA 
HETATM   25  H   UNL     3      -8.840  18.581  65.373  1.00  0.00     0.000 HD 
BRANCH  23  26
HETATM   26  C   UNL     3      -9.606  16.340  66.029  1.00  0.00    -0.337 C  
HETATM   27  O   UNL     3      -8.541  15.546  66.557  1.00  0.00    -0.269 OA 
HETATM   28  H   UNL     3      -8.434  14.737  66.069  1.00  0.00     0.000 HD 
BRANCH  26  29
HETATM   29  C   UNL     3     -10.840  15.436  65.818  1.00  0.00    -0.343 C  
HETATM   30  O   UNL     3     -11.220  14.734  67.012  1.00  0.00    -0.328 OA 
HETATM   31  H   UNL     3     -11.979  14.178  66.882  1.00  0.00     0.000 HD 
BRANCH  29  32
HETATM   32  C   UNL     3     -10.768  14.420  64.683  1.00  0.00    -0.336 C  
HETATM   33  C   UNL     3     -12.050  13.590  64.494  1.00  0.00    -0.416 C  
HETATM   34  O   UNL     3      -9.663  13.457  64.968  1.00  0.00    -0.551 OA 
HETATM   35  O   UNL     3     -11.999  12.462  65.140  1.00  0.00    -0.392 OA 
HETATM   36  O   UNL     3     -12.768  13.869  63.514  1.00  0.00    -0.797 OA 
HETATM   37  H   UNL     3      -9.618  12.824  64.261  1.00  0.00     0.000 HD 
ENDBRANCH  29  32
ENDBRANCH  26  29
ENDBRANCH  23  26
ENDBRANCH   7  23
TORSDOF 8
ENDMDL
MODEL      114
REMARK 921   NORMALIZED FREE ENERGY PREDICTED BY IDOCK:   -5.50 KCAL/MOL
REMARK 922        TOTAL FREE ENERGY PREDICTED BY IDOCK:  -10.14 KCAL/MOL
REMARK 923 INTER-LIGAND FREE ENERGY PREDICTED BY IDOCK:   -8.76 KCAL/MOL
REMARK 924 INTRA-LIGAND FREE ENERGY PREDICTED BY IDOCK:   -1.38 KCAL/MOL
REMARK 927      BINDING AFFINITY PREDICTED BY RF-SCORE:    0.00 PKD
ROOT
HETATM    1 CU   UNL     1      -9.191  11.122  68.197  1.00  0.00    -0.132 Cu 
HETATM    2  O   UNL     2      -6.390   7.086  71.647  1.00  0.00    -0.038 OA 
HETATM    3  C   UNL     2      -6.909   8.212  72.370  1.00  0.00    -0.085 C  
HETATM    4  H   UNL     2      -5.800   6.626  72.233  1.00  0.00     0.000 HD 
HETATM    5  O   UNL     3     -10.400  17.905  65.764  1.00  0.00    -0.577 OA 
HETATM    6  H   UNL     3      -9.665  18.270  66.243  1.00  0.00     0.000 HD 
HETATM    7  C   UNL     3     -10.243  16.472  65.707  1.00  0.00    -0.329 C  
ENDROOT
BRANCH   3   8
HETATM    8  C   UNL     2      -7.858   8.950  71.429  1.00  0.00    -0.097 C  
HETATM    9  O   UNL     2      -7.177   9.255  70.195  1.00  0.00    -0.061 OA 
HETATM   10  H   UNL     2      -7.767   9.715  69.610  1.00  0.00     0.000 HD 
BRANCH   8  11
HETATM   11  C   UNL     2      -9.155   8.158  71.166  1.00  0.00    -0.154 C  
HETATM   12  O   UNL     2      -8.987   6.868  71.760  1.00  0.00    -0.138 OA 
HETATM   13  H   UNL     2      -9.785   6.380  71.598  1.00  0.00     0.000 HD 
BRANCH  11  14
HETATM   14  C   UNL     2     -10.336   8.918  71.803  1.00  0.00    -0.356 C  
HETATM   15  H   UNL     2     -11.363   8.781  73.489  1.00  0.00     0.000 HD 
HETATM   16  O   UNL     2     -10.636   8.314  73.096  1.00  0.00    -0.170 OA 
BRANCH  14  17
HETATM   17  C   UNL     2     -11.601   9.075  70.959  1.00  0.00    -0.300 C  
HETATM   18  C   UNL     2     -11.645  10.502  70.355  1.00  0.00    -0.342 C  
HETATM   19  H   UNL     2     -13.535   8.811  71.211  1.00  0.00     0.000 HD 
HETATM   20  O   UNL     2     -12.749   8.713  71.736  1.00  0.00    -0.324 OA 
HETATM   21  O   UNL     2     -10.536  10.805  69.808  1.00  0.00    -0.226 OA 
HETATM   22  O   UNL     2     -12.732  11.105  70.454  1.00  0.00    -0.250 OA 
ENDBRANCH  14  17
ENDBRANCH  11  14
ENDBRANCH   8  11
ENDBRANCH   3   8
BRANCH   7  23
HETATM   23  C   UNL     3     -11.430  15.882  64.934  1.00  0.00    -0.162 C  
HETATM   24  O   UNL     3     -11.512  16.550  63.658  1.00  0.00    -1.421 OA 
HETATM   25  H   UNL     3     -12.248  16.185  63.179  1.00  0.00     0.000 HD 
BRANCH  23  26
HETATM   26  C   UNL     3     -11.358  14.381  64.591  1.00  0.00    -0.371 C  
HETATM   27  O   UNL     3     -10.039  13.863  64.779  1.00  0.00    -0.583 OA 
HETATM   28  H   UNL     3      -9.996  12.937  64.568  1.00  0.00     0.000 HD 
BRANCH  26  29
HETATM   29  C   UNL     3     -12.367  13.423  65.261  1.00  0.00    -0.469 C  
HETATM   30  O   UNL     3     -13.591  14.080  65.628  1.00  0.00    -0.659 OA 
HETATM   31  H   UNL     3     -14.212  13.490  66.040  1.00  0.00     0.000 HD 
BRANCH  29  32
HETATM   32  C   UNL     3     -11.877  12.640  66.474  1.00  0.00    -0.396 C  
HETATM   33  C   UNL     3     -11.191  13.501  67.548  1.00  0.00    -0.283 C  
HETATM   34  O   UNL     3     -10.877  11.628  66.022  1.00  0.00    -0.276 OA 
HETATM   35  O   UNL     3      -9.900  13.536  67.392  1.00  0.00    -0.221 OA 
HETATM   36  O   UNL     3     -11.833  13.725  68.593  1.00  0.00    -0.337 OA 
HETATM   37  H   UNL     3     -10.571  11.140  66.778  1.00  0.00     0.000 HD 
ENDBRANCH  29  32
ENDBRANCH  26  29
ENDBRANCH  23  26
ENDBRANCH   7  23
TORSDOF 8
ENDMDL
MODEL      115
REMARK 921   NORMALIZED FREE ENERGY PREDICTED BY IDOCK:   -5.49 KCAL/MOL
REMARK 922        TOTAL FREE ENERGY PREDICTED BY IDOCK:  -10.14 KCAL/MOL
REMARK 923 INTER-LIGAND FREE ENERGY PREDICTED BY IDOCK:   -7.68 KCAL/MOL
REMARK 924 INTRA-LIGAND FREE ENERGY PREDICTED BY IDOCK:   -2.46 KCAL/MOL
REMARK 927      BINDING AFFINITY PREDICTED BY RF-SCORE:    0.00 PKD
ROOT
HETATM    1 CU   UNL     1     -10.845   9.701  70.683  1.00  0.00    -0.195 Cu 
HETATM    2  O   UNL     2      -9.991   4.098  72.665  1.00  0.00    -0.144 OA 
HETATM    3  C   UNL     2     -11.059   4.794  73.324  1.00  0.00    -0.333 C  
HETATM    4  H   UNL     2      -9.805   3.322  73.179  1.00  0.00     0.000 HD 
HETATM    5  O   UNL     3     -11.662  16.899  71.629  1.00  0.00    -0.495 OA 
HETATM    6  H   UNL     3     -11.467  16.858  72.558  1.00  0.00     0.000 HD 
HETATM    7  C   UNL     3     -11.216  15.674  71.012  1.00  0.00    -0.364 C  
ENDROOT
BRANCH   3   8
HETATM    8  C   UNL     2     -11.359   6.042  72.497  1.00  0.00    -0.300 C  
HETATM    9  O   UNL     2     -12.778   6.293  72.496  1.00  0.00    -0.537 OA 
HETATM   10  H   UNL     2     -12.965   7.070  71.981  1.00  0.00     0.000 HD 
BRANCH   8  11
HETATM   11  C   UNL     2     -10.577   7.275  72.994  1.00  0.00    -0.326 C  
HETATM   12  O   UNL     2     -10.162   6.997  74.334  1.00  0.00    -0.454 OA 
HETATM   13  H   UNL     2      -9.680   7.756  74.640  1.00  0.00     0.000 HD 
BRANCH  11  14
HETATM   14  C   UNL     2      -9.365   7.498  72.067  1.00  0.00    -0.133 C  
HETATM   15  H   UNL     2      -8.341   9.067  71.428  1.00  0.00     0.000 HD 
HETATM   16  O   UNL     2      -9.088   8.928  71.999  1.00  0.00    -0.353 OA 
BRANCH  14  17
HETATM   17  C   UNL     2      -9.433   6.881  70.670  1.00  0.00    -0.165 C  
HETATM   18  C   UNL     2      -8.090   6.175  70.351  1.00  0.00    -0.112 C  
HETATM   19  H   UNL     2      -9.871   7.493  68.851  1.00  0.00     0.000 HD 
HETATM   20  O   UNL     2      -9.830   7.877  69.719  1.00  0.00    -0.176 OA 
HETATM   21  O   UNL     2      -7.730   5.417  71.308  1.00  0.00    -0.097 OA 
HETATM   22  O   UNL     2      -7.597   6.414  69.231  1.00  0.00    -0.095 OA 
ENDBRANCH  14  17
ENDBRANCH  11  14
ENDBRANCH   8  11
ENDBRANCH   3   8
BRANCH   7  23
HETATM   23  C   UNL     3     -11.531  15.740  69.512  1.00  0.00    -0.353 C  
HETATM   24  O   UNL     3     -10.469  16.469  68.861  1.00  0.00    -0.262 OA 
HETATM   25  H   UNL     3     -10.664  16.510  67.932  1.00  0.00     0.000 HD 
BRANCH  23  26
HETATM   26  C   UNL     3     -11.609  14.398  68.760  1.00  0.00    -0.315 C  
HETATM   27  O   UNL     3     -12.495  14.475  67.640  1.00  0.00    -0.595 OA 
HETATM   28  H   UNL     3     -12.543  13.647  67.176  1.00  0.00     0.000 HD 
BRANCH  26  29
HETATM   29  C   UNL     3     -10.294  13.728  68.306  1.00  0.00    -0.247 C  
HETATM   30  O   UNL     3      -9.684  14.408  67.197  1.00  0.00    -0.237 OA 
HETATM   31  H   UNL     3      -8.874  13.995  66.918  1.00  0.00     0.000 HD 
BRANCH  29  32
HETATM   32  C   UNL     3     -10.355  12.243  67.967  1.00  0.00    -0.214 C  
HETATM   33  C   UNL     3     -10.559  11.943  66.471  1.00  0.00    -0.243 C  
HETATM   34  O   UNL     3     -11.504  11.629  68.696  1.00  0.00    -0.237 OA 
HETATM   35  O   UNL     3     -11.816  11.782  66.175  1.00  0.00    -0.477 OA 
HETATM   36  O   UNL     3      -9.572  11.525  65.836  1.00  0.00    -0.218 OA 
HETATM   37  H   UNL     3     -11.542  10.703  68.484  1.00  0.00     0.000 HD 
ENDBRANCH  29  32
ENDBRANCH  26  29
ENDBRANCH  23  26
ENDBRANCH   7  23
TORSDOF 8
ENDMDL
MODEL      116
REMARK 921   NORMALIZED FREE ENERGY PREDICTED BY IDOCK:   -5.49 KCAL/MOL
REMARK 922        TOTAL FREE ENERGY PREDICTED BY IDOCK:  -10.13 KCAL/MOL
REMARK 923 INTER-LIGAND FREE ENERGY PREDICTED BY IDOCK:   -8.08 KCAL/MOL
REMARK 924 INTRA-LIGAND FREE ENERGY PREDICTED BY IDOCK:   -2.05 KCAL/MOL
REMARK 927      BINDING AFFINITY PREDICTED BY RF-SCORE:    0.00 PKD
ROOT
HETATM    1 CU   UNL     1     -10.374  10.321  67.494  1.00  0.00    -0.164 Cu 
HETATM    2  O   UNL     2     -12.221  14.042  63.161  1.00  0.00    -1.071 OA 
HETATM    3  C   UNL     2     -12.170  14.642  64.464  1.00  0.00    -0.456 C  
HETATM    4  H   UNL     2     -12.712  14.633  62.601  1.00  0.00     0.000 HD 
HETATM    5  O   UNL     3     -11.001   7.074  74.010  1.00  0.00    -0.478 OA 
HETATM    6  H   UNL     3     -11.868   7.430  74.168  1.00  0.00     0.000 HD 
HETATM    7  C   UNL     3     -10.703   7.205  72.605  1.00  0.00    -0.268 C  
ENDROOT
BRANCH   3   8
HETATM    8  C   UNL     2     -11.381  13.695  65.364  1.00  0.00    -0.301 C  
HETATM    9  O   UNL     2     -10.620  12.778  64.553  1.00  0.00    -0.318 OA 
HETATM   10  H   UNL     2     -10.129  12.188  65.113  1.00  0.00     0.000 HD 
BRANCH   8  11
HETATM   11  C   UNL     2     -10.470  14.451  66.352  1.00  0.00    -0.295 C  
HETATM   12  O   UNL     2     -11.033  15.753  66.531  1.00  0.00    -0.278 OA 
HETATM   13  H   UNL     2     -10.472  16.219  67.140  1.00  0.00     0.000 HD 
BRANCH  11  14
HETATM   14  C   UNL     2     -10.429  13.671  67.682  1.00  0.00    -0.238 C  
HETATM   15  H   UNL     2      -9.581  12.000  68.318  1.00  0.00     0.000 HD 
HETATM   16  O   UNL     2      -9.607  12.481  67.499  1.00  0.00    -0.180 OA 
BRANCH  14  17
HETATM   17  C   UNL     2     -11.771  13.323  68.328  1.00  0.00    -0.353 C  
HETATM   18  C   UNL     2     -11.927  14.113  69.652  1.00  0.00    -0.336 C  
HETATM   19  H   UNL     2     -12.724  11.685  68.859  1.00  0.00     0.000 HD 
HETATM   20  O   UNL     2     -11.891  11.901  68.457  1.00  0.00    -0.308 OA 
HETATM   21  O   UNL     2     -11.661  15.347  69.486  1.00  0.00    -0.304 OA 
HETATM   22  O   UNL     2     -12.314  13.457  70.640  1.00  0.00    -0.350 OA 
ENDBRANCH  14  17
ENDBRANCH  11  14
ENDBRANCH   8  11
ENDBRANCH   3   8
BRANCH   7  23
HETATM   23  C   UNL     3      -9.303   6.631  72.349  1.00  0.00    -0.141 C  
HETATM   24  O   UNL     3      -9.361   5.203  72.538  1.00  0.00    -0.135 OA 
HETATM   25  H   UNL     3      -8.494   4.847  72.379  1.00  0.00     0.000 HD 
BRANCH  23  26
HETATM   26  C   UNL     3      -8.724   6.821  70.933  1.00  0.00    -0.142 C  
HETATM   27  O   UNL     3      -8.762   5.604  70.183  1.00  0.00    -0.132 OA 
HETATM   28  H   UNL     3      -8.405   5.721  69.310  1.00  0.00     0.000 HD 
BRANCH  26  29
HETATM   29  C   UNL     3      -9.280   7.962  70.055  1.00  0.00    -0.153 C  
HETATM   30  O   UNL     3      -9.290   9.227  70.737  1.00  0.00    -0.241 OA 
HETATM   31  H   UNL     3      -9.633   9.929  70.196  1.00  0.00     0.000 HD 
BRANCH  29  32
HETATM   32  C   UNL     3     -10.660   7.753  69.441  1.00  0.00    -0.208 C  
HETATM   33  C   UNL     3     -10.638   7.146  68.027  1.00  0.00    -0.196 C  
HETATM   34  O   UNL     3     -11.347   9.074  69.337  1.00  0.00    -0.439 OA 
HETATM   35  O   UNL     3     -10.668   8.062  67.104  1.00  0.00    -0.322 OA 
HETATM   36  O   UNL     3     -10.970   5.950  67.917  1.00  0.00    -0.276 OA 
HETATM   37  H   UNL     3     -12.207   8.944  68.954  1.00  0.00     0.000 HD 
ENDBRANCH  29  32
ENDBRANCH  26  29
ENDBRANCH  23  26
ENDBRANCH   7  23
TORSDOF 8
ENDMDL
MODEL      117
REMARK 921   NORMALIZED FREE ENERGY PREDICTED BY IDOCK:   -5.47 KCAL/MOL
REMARK 922        TOTAL FREE ENERGY PREDICTED BY IDOCK:  -10.10 KCAL/MOL
REMARK 923 INTER-LIGAND FREE ENERGY PREDICTED BY IDOCK:   -9.17 KCAL/MOL
REMARK 924 INTRA-LIGAND FREE ENERGY PREDICTED BY IDOCK:   -0.93 KCAL/MOL
REMARK 927      BINDING AFFINITY PREDICTED BY RF-SCORE:    0.00 PKD
ROOT
HETATM    1 CU   UNL     1      -9.872   8.562  64.990  1.00  0.00    -0.427 Cu 
HETATM    2  O   UNL     2      -7.887   3.138  63.354  1.00  0.00    -0.067 OA 
HETATM    3  C   UNL     2      -8.331   3.211  64.717  1.00  0.00    -0.090 C  
HETATM    4  H   UNL     2      -7.411   2.322  63.259  1.00  0.00     0.000 HD 
HETATM    5  O   UNL     3     -10.046  14.388  69.396  1.00  0.00    -0.420 OA 
HETATM    6  H   UNL     3      -9.318  14.082  69.925  1.00  0.00     0.000 HD 
HETATM    7  C   UNL     3     -10.056  13.647  68.159  1.00  0.00    -0.245 C  
ENDROOT
BRANCH   3   8
HETATM    8  C   UNL     2      -9.098   4.522  64.870  1.00  0.00    -0.152 C  
HETATM    9  O   UNL     2      -9.715   4.871  63.615  1.00  0.00    -0.342 OA 
HETATM   10  H   UNL     2     -10.192   5.688  63.710  1.00  0.00     0.000 HD 
BRANCH   8  11
HETATM   11  C   UNL     2     -10.141   4.460  66.004  1.00  0.00    -0.239 C  
HETATM   12  O   UNL     2      -9.871   3.277  66.760  1.00  0.00    -0.405 OA 
HETATM   13  H   UNL     2     -10.513   3.238  67.458  1.00  0.00     0.000 HD 
BRANCH  11  14
HETATM   14  C   UNL     2     -10.001   5.725  66.874  1.00  0.00    -0.171 C  
HETATM   15  H   UNL     2      -9.153   7.501  66.665  1.00  0.00     0.000 HD 
HETATM   16  O   UNL     2      -9.239   6.721  66.130  1.00  0.00    -0.154 OA 
BRANCH  14  17
HETATM   17  C   UNL     2      -9.441   5.542  68.285  1.00  0.00    -0.115 C  
HETATM   18  C   UNL     2      -9.917   6.711  69.186  1.00  0.00    -0.157 C  
HETATM   19  H   UNL     2      -7.672   5.257  69.100  1.00  0.00     0.000 HD 
HETATM   20  O   UNL     2      -8.020   5.370  68.223  1.00  0.00    -0.088 OA 
HETATM   21  O   UNL     2     -11.172   6.896  69.074  1.00  0.00    -0.168 OA 
HETATM   22  O   UNL     2      -9.042   7.252  69.890  1.00  0.00    -0.142 OA 
ENDBRANCH  14  17
ENDBRANCH  11  14
ENDBRANCH   8  11
ENDBRANCH   3   8
BRANCH   7  23
HETATM   23  C   UNL     3     -11.231  14.141  67.305  1.00  0.00    -0.316 C  
HETATM   24  O   UNL     3     -12.241  14.667  68.190  1.00  0.00    -0.578 OA 
HETATM   25  H   UNL     3     -12.969  14.973  67.661  1.00  0.00     0.000 HD 
BRANCH  23  26
HETATM   26  C   UNL     3     -10.938  15.284  66.314  1.00  0.00    -0.300 C  
HETATM   27  O   UNL     3      -9.630  15.827  66.512  1.00  0.00    -0.233 OA 
HETATM   28  H   UNL     3      -9.449  16.532  65.900  1.00  0.00     0.000 HD 
BRANCH  26  29
HETATM   29  C   UNL     3     -11.143  15.024  64.806  1.00  0.00    -0.376 C  
HETATM   30  O   UNL     3     -11.424  16.227  64.073  1.00  0.00    -1.371 OA 
HETATM   31  H   UNL     3     -11.551  16.067  63.145  1.00  0.00     0.000 HD 
BRANCH  29  32
HETATM   32  C   UNL     3     -12.192  13.987  64.419  1.00  0.00    -0.426 C  
HETATM   33  C   UNL     3     -11.709  12.529  64.522  1.00  0.00    -0.362 C  
HETATM   34  O   UNL     3     -12.594  14.214  62.999  1.00  0.00    -1.002 OA 
HETATM   35  O   UNL     3     -11.251  12.088  63.387  1.00  0.00    -0.413 OA 
HETATM   36  O   UNL     3     -12.136  11.856  65.479  1.00  0.00    -0.410 OA 
HETATM   37  H   UNL     3     -13.247  13.567  62.758  1.00  0.00     0.000 HD 
ENDBRANCH  29  32
ENDBRANCH  26  29
ENDBRANCH  23  26
ENDBRANCH   7  23
TORSDOF 8
ENDMDL
MODEL      118
REMARK 921   NORMALIZED FREE ENERGY PREDICTED BY IDOCK:   -5.45 KCAL/MOL
REMARK 922        TOTAL FREE ENERGY PREDICTED BY IDOCK:  -10.08 KCAL/MOL
REMARK 923 INTER-LIGAND FREE ENERGY PREDICTED BY IDOCK:   -8.71 KCAL/MOL
REMARK 924 INTRA-LIGAND FREE ENERGY PREDICTED BY IDOCK:   -1.37 KCAL/MOL
REMARK 927      BINDING AFFINITY PREDICTED BY RF-SCORE:    0.00 PKD
ROOT
HETATM    1 CU   UNL     1     -12.357   9.470  69.281  1.00  0.00    -0.442 Cu 
HETATM    2  O   UNL     2     -12.126   4.939  73.212  1.00  0.00    -0.419 OA 
HETATM    3  C   UNL     2     -10.851   5.301  72.663  1.00  0.00    -0.253 C  
HETATM    4  H   UNL     2     -12.015   4.102  73.647  1.00  0.00     0.000 HD 
HETATM    5  O   UNL     3     -10.918  12.590  62.833  1.00  0.00    -0.589 OA 
HETATM    6  H   UNL     3     -10.557  11.793  62.462  1.00  0.00     0.000 HD 
HETATM    7  C   UNL     3     -11.674  12.246  64.012  1.00  0.00    -0.425 C  
ENDROOT
BRANCH   3   8
HETATM    8  C   UNL     2     -11.028   6.647  71.965  1.00  0.00    -0.242 C  
HETATM    9  O   UNL     2     -10.050   7.582  72.459  1.00  0.00    -0.185 OA 
HETATM   10  H   UNL     2     -10.161   8.420  72.025  1.00  0.00     0.000 HD 
BRANCH   8  11
HETATM   11  C   UNL     2     -10.952   6.523  70.429  1.00  0.00    -0.298 C  
HETATM   12  O   UNL     2     -12.208   6.965  69.909  1.00  0.00    -0.626 OA 
HETATM   13  H   UNL     2     -12.162   6.889  68.963  1.00  0.00     0.000 HD 
BRANCH  11  14
HETATM   14  C   UNL     2      -9.794   7.404  69.919  1.00  0.00    -0.178 C  
HETATM   15  H   UNL     2      -9.470   9.348  69.731  1.00  0.00     0.000 HD 
HETATM   16  O   UNL     2     -10.183   8.804  70.045  1.00  0.00    -0.188 OA 
BRANCH  14  17
HETATM   17  C   UNL     2      -9.252   7.105  68.521  1.00  0.00    -0.134 C  
HETATM   18  C   UNL     2      -7.712   7.275  68.516  1.00  0.00    -0.120 C  
HETATM   19  H   UNL     2      -9.613   7.710  66.683  1.00  0.00     0.000 HD 
HETATM   20  O   UNL     2      -9.949   7.896  67.552  1.00  0.00    -0.163 OA 
HETATM   21  O   UNL     2      -7.177   6.661  69.494  1.00  0.00    -0.077 OA 
HETATM   22  O   UNL     2      -7.236   7.932  67.569  1.00  0.00    -0.083 OA 
ENDBRANCH  14  17
ENDBRANCH  11  14
ENDBRANCH   8  11
ENDBRANCH   3   8
BRANCH   7  23
HETATM   23  C   UNL     3     -12.256  13.533  64.611  1.00  0.00    -0.406 C  
HETATM   24  O   UNL     3     -12.449  13.324  66.025  1.00  0.00    -0.405 OA 
HETATM   25  H   UNL     3     -12.810  14.121  66.396  1.00  0.00     0.000 HD 
BRANCH  23  26
HETATM   26  C   UNL     3     -11.385  14.800  64.513  1.00  0.00    -0.303 C  
HETATM   27  O   UNL     3     -12.065  15.852  63.822  1.00  0.00    -1.239 OA 
HETATM   28  H   UNL     3     -11.527  16.633  63.762  1.00  0.00     0.000 HD 
BRANCH  26  29
HETATM   29  C   UNL     3     -10.769  15.374  65.807  1.00  0.00    -0.351 C  
HETATM   30  O   UNL     3     -10.515  16.786  65.718  1.00  0.00    -0.389 OA 
HETATM   31  H   UNL     3     -10.137  17.139  66.514  1.00  0.00     0.000 HD 
BRANCH  29  32
HETATM   32  C   UNL     3      -9.502  14.704  66.327  1.00  0.00    -0.293 C  
HETATM   33  C   UNL     3      -9.496  14.451  67.844  1.00  0.00    -0.214 C  
HETATM   34  O   UNL     3      -8.334  15.586  66.028  1.00  0.00    -0.288 OA 
HETATM   35  O   UNL     3      -8.924  15.419  68.498  1.00  0.00    -0.178 OA 
HETATM   36  O   UNL     3      -9.661  13.275  68.224  1.00  0.00    -0.221 OA 
HETATM   37  H   UNL     3      -7.544  15.169  66.352  1.00  0.00     0.000 HD 
ENDBRANCH  29  32
ENDBRANCH  26  29
ENDBRANCH  23  26
ENDBRANCH   7  23
TORSDOF 8
ENDMDL
MODEL      119
REMARK 921   NORMALIZED FREE ENERGY PREDICTED BY IDOCK:   -5.44 KCAL/MOL
REMARK 922        TOTAL FREE ENERGY PREDICTED BY IDOCK:  -10.06 KCAL/MOL
REMARK 923 INTER-LIGAND FREE ENERGY PREDICTED BY IDOCK:   -8.30 KCAL/MOL
REMARK 924 INTRA-LIGAND FREE ENERGY PREDICTED BY IDOCK:   -1.77 KCAL/MOL
REMARK 927      BINDING AFFINITY PREDICTED BY RF-SCORE:    0.00 PKD
ROOT
HETATM    1 CU   UNL     1     -10.840   8.393  68.692  1.00  0.00    -0.209 Cu 
HETATM    2  O   UNL     2      -9.311   5.080  73.459  1.00  0.00    -0.132 OA 
HETATM    3  C   UNL     2     -10.641   5.615  73.522  1.00  0.00    -0.269 C  
HETATM    4  H   UNL     2      -9.098   4.759  74.327  1.00  0.00     0.000 HD 
HETATM    5  O   UNL     3     -13.454  14.430  65.512  1.00  0.00    -0.609 OA 
HETATM    6  H   UNL     3     -13.504  14.909  66.331  1.00  0.00     0.000 HD 
HETATM    7  C   UNL     3     -12.601  13.283  65.705  1.00  0.00    -0.406 C  
ENDROOT
BRANCH   3   8
HETATM    8  C   UNL     2     -10.984   6.131  72.127  1.00  0.00    -0.262 C  
HETATM    9  O   UNL     2     -12.415   6.167  71.962  1.00  0.00    -0.330 OA 
HETATM   10  H   UNL     2     -12.628   6.487  71.093  1.00  0.00     0.000 HD 
BRANCH   8  11
HETATM   11  C   UNL     2     -10.357   7.511  71.843  1.00  0.00    -0.193 C  
HETATM   12  O   UNL     2      -9.441   7.342  70.758  1.00  0.00    -0.164 OA 
HETATM   13  H   UNL     2      -9.054   8.191  70.583  1.00  0.00     0.000 HD 
BRANCH  11  14
HETATM   14  C   UNL     2     -11.482   8.499  71.477  1.00  0.00    -0.287 C  
HETATM   15  H   UNL     2     -12.925   8.564  70.124  1.00  0.00     0.000 HD 
HETATM   16  O   UNL     2     -12.232   7.955  70.350  1.00  0.00     0.089 OA 
BRANCH  14  17
HETATM   17  C   UNL     2     -11.079   9.952  71.223  1.00  0.00    -0.232 C  
HETATM   18  C   UNL     2     -12.353  10.818  71.047  1.00  0.00    -0.404 C  
HETATM   19  H   UNL     2      -9.903  10.918  69.975  1.00  0.00     0.000 HD 
HETATM   20  O   UNL     2     -10.153  10.015  70.132  1.00  0.00    -0.255 OA 
HETATM   21  O   UNL     2     -13.192  10.598  71.979  1.00  0.00    -0.473 OA 
HETATM   22  O   UNL     2     -12.353  11.603  70.077  1.00  0.00    -0.255 OA 
ENDBRANCH  14  17
ENDBRANCH  11  14
ENDBRANCH   8  11
ENDBRANCH   3   8
BRANCH   7  23
HETATM   23  C   UNL     3     -12.520  12.508  64.383  1.00  0.00    -0.446 C  
HETATM   24  O   UNL     3     -12.255  13.451  63.324  1.00  0.00    -0.847 OA 
HETATM   25  H   UNL     3     -12.205  12.971  62.505  1.00  0.00     0.000 HD 
BRANCH  23  26
HETATM   26  C   UNL     3     -11.402  11.454  64.264  1.00  0.00    -0.168 C  
HETATM   27  O   UNL     3     -10.999  11.268  62.905  1.00  0.00    -0.801 OA 
HETATM   28  H   UNL     3     -10.309  10.618  62.831  1.00  0.00     0.000 HD 
BRANCH  26  29
HETATM   29  C   UNL     3     -10.139  11.616  65.138  1.00  0.00    -0.262 C  
HETATM   30  O   UNL     3      -9.487  12.880  64.935  1.00  0.00    -0.418 OA 
HETATM   31  H   UNL     3      -8.711  12.979  65.473  1.00  0.00     0.000 HD 
BRANCH  29  32
HETATM   32  C   UNL     3      -9.080  10.523  65.033  1.00  0.00    -0.201 C  
HETATM   33  C   UNL     3      -8.200  10.372  66.286  1.00  0.00    -0.144 C  
HETATM   34  O   UNL     3      -8.168  10.844  63.895  1.00  0.00    -0.370 OA 
HETATM   35  O   UNL     3      -7.103  11.064  66.196  1.00  0.00    -0.124 OA 
HETATM   36  O   UNL     3      -8.415   9.384  67.015  1.00  0.00    -0.125 OA 
HETATM   37  H   UNL     3      -7.508  10.164  63.830  1.00  0.00     0.000 HD 
ENDBRANCH  29  32
ENDBRANCH  26  29
ENDBRANCH  23  26
ENDBRANCH   7  23
TORSDOF 8
ENDMDL
MODEL      120
REMARK 921   NORMALIZED FREE ENERGY PREDICTED BY IDOCK:   -5.44 KCAL/MOL
REMARK 922        TOTAL FREE ENERGY PREDICTED BY IDOCK:  -10.06 KCAL/MOL
REMARK 923 INTER-LIGAND FREE ENERGY PREDICTED BY IDOCK:   -8.66 KCAL/MOL
REMARK 924 INTRA-LIGAND FREE ENERGY PREDICTED BY IDOCK:   -1.40 KCAL/MOL
REMARK 927      BINDING AFFINITY PREDICTED BY RF-SCORE:    0.00 PKD
ROOT
HETATM    1 CU   UNL     1     -10.108  14.230  68.116  1.00  0.00    -0.199 Cu 
HETATM    2  O   UNL     2     -10.961   8.287  68.123  1.00  0.00    -0.452 OA 
HETATM    3  C   UNL     2     -10.318   8.784  66.940  1.00  0.00    -0.274 C  
HETATM    4  H   UNL     2     -11.233   7.396  67.940  1.00  0.00     0.000 HD 
HETATM    5  O   UNL     3     -10.598  20.886  65.143  1.00  0.00     0.320 OA 
HETATM    6  H   UNL     3     -11.127  20.584  64.413  1.00  0.00     0.000 HD 
HETATM    7  C   UNL     3     -10.623  19.877  66.174  1.00  0.00    -0.420 C  
ENDROOT
BRANCH   3   8
HETATM    8  C   UNL     2      -9.880  10.216  67.234  1.00  0.00    -0.183 C  
HETATM    9  O   UNL     2      -8.527  10.412  66.781  1.00  0.00    -0.123 OA 
HETATM   10  H   UNL     2      -8.254  11.303  66.965  1.00  0.00     0.000 HD 
BRANCH   8  11
HETATM   11  C   UNL     2     -10.831  11.258  66.609  1.00  0.00    -0.273 C  
HETATM   12  O   UNL     2     -11.310  12.082  67.675  1.00  0.00    -0.264 OA 
HETATM   13  H   UNL     2     -11.896  12.723  67.291  1.00  0.00     0.000 HD 
BRANCH  11  14
HETATM   14  C   UNL     2     -10.045  12.085  65.572  1.00  0.00    -0.252 C  
HETATM   15  H   UNL     2      -9.146  13.847  65.553  1.00  0.00     0.000 HD 
HETATM   16  O   UNL     2      -9.630  13.337  66.192  1.00  0.00    -0.264 OA 
BRANCH  14  17
HETATM   17  C   UNL     2     -10.720  12.333  64.222  1.00  0.00    -0.351 C  
HETATM   18  C   UNL     2     -12.220  12.651  64.445  1.00  0.00    -0.443 C  
HETATM   19  H   UNL     2     -10.881  11.386  62.504  1.00  0.00     0.000 HD 
HETATM   20  O   UNL     2     -10.462  11.232  63.343  1.00  0.00    -0.368 OA 
HETATM   21  O   UNL     2     -12.374  13.536  65.347  1.00  0.00    -0.420 OA 
HETATM   22  O   UNL     2     -13.024  12.046  63.709  1.00  0.00    -0.709 OA 
ENDBRANCH  14  17
ENDBRANCH  11  14
ENDBRANCH   8  11
ENDBRANCH   3   8
BRANCH   7  23
HETATM   23  C   UNL     3      -9.771  20.364  67.353  1.00  0.00    -0.457 C  
HETATM   24  O   UNL     3     -10.217  19.681  68.543  1.00  0.00    -0.427 OA 
HETATM   25  H   UNL     3      -9.689  19.983  69.273  1.00  0.00     0.000 HD 
BRANCH  23  26
HETATM   26  C   UNL     3      -8.257  20.081  67.279  1.00  0.00    -0.326 C  
HETATM   27  O   UNL     3      -7.500  21.293  67.213  1.00  0.00    -0.698 OA 
HETATM   28  H   UNL     3      -6.567  21.118  67.167  1.00  0.00     0.000 HD 
BRANCH  26  29
HETATM   29  C   UNL     3      -7.626  19.159  68.344  1.00  0.00    -0.312 C  
HETATM   30  O   UNL     3      -6.336  19.621  68.777  1.00  0.00    -0.249 OA 
HETATM   31  H   UNL     3      -5.948  19.053  69.433  1.00  0.00     0.000 HD 
BRANCH  29  32
HETATM   32  C   UNL     3      -7.497  17.681  67.991  1.00  0.00    -0.223 C  
HETATM   33  C   UNL     3      -7.042  17.413  66.547  1.00  0.00    -0.265 C  
HETATM   34  O   UNL     3      -8.830  17.029  68.156  1.00  0.00    -0.214 OA 
HETATM   35  O   UNL     3      -8.049  17.235  65.743  1.00  0.00    -0.527 OA 
HETATM   36  O   UNL     3      -5.867  17.028  66.384  1.00  0.00    -0.286 OA 
HETATM   37  H   UNL     3      -8.751  16.108  67.936  1.00  0.00     0.000 HD 
ENDBRANCH  29  32
ENDBRANCH  26  29
ENDBRANCH  23  26
ENDBRANCH   7  23
TORSDOF 8
ENDMDL
MODEL      121
REMARK 921   NORMALIZED FREE ENERGY PREDICTED BY IDOCK:   -5.42 KCAL/MOL
REMARK 922        TOTAL FREE ENERGY PREDICTED BY IDOCK:  -10.04 KCAL/MOL
REMARK 923 INTER-LIGAND FREE ENERGY PREDICTED BY IDOCK:   -8.67 KCAL/MOL
REMARK 924 INTRA-LIGAND FREE ENERGY PREDICTED BY IDOCK:   -1.37 KCAL/MOL
REMARK 927      BINDING AFFINITY PREDICTED BY RF-SCORE:    0.00 PKD
ROOT
HETATM    1 CU   UNL     1      -9.939  10.045  68.005  1.00  0.00    -0.138 Cu 
HETATM    2  O   UNL     2      -8.557   4.209  67.743  1.00  0.00    -0.097 OA 
HETATM    3  C   UNL     2      -9.966   4.478  67.708  1.00  0.00    -0.066 C  
HETATM    4  H   UNL     2      -8.454   3.278  67.905  1.00  0.00     0.000 HD 
HETATM    5  O   UNL     3     -13.531  15.780  70.762  1.00  0.00    -0.756 OA 
HETATM    6  H   UNL     3     -13.911  15.274  71.471  1.00  0.00     0.000 HD 
HETATM    7  C   UNL     3     -12.428  15.034  70.208  1.00  0.00    -0.337 C  
ENDROOT
BRANCH   3   8
HETATM    8  C   UNL     2     -10.132   5.972  67.446  1.00  0.00    -0.163 C  
HETATM    9  O   UNL     2     -11.486   6.369  67.740  1.00  0.00    -0.649 OA 
HETATM   10  H   UNL     2     -11.589   7.299  67.576  1.00  0.00     0.000 HD 
BRANCH   8  11
HETATM   11  C   UNL     2      -9.120   6.821  68.242  1.00  0.00    -0.124 C  
HETATM   12  O   UNL     2      -8.699   7.886  67.387  1.00  0.00    -0.127 OA 
HETATM   13  H   UNL     2      -8.075   8.409  67.876  1.00  0.00     0.000 HD 
BRANCH  11  14
HETATM   14  C   UNL     2      -9.815   7.361  69.508  1.00  0.00    -0.165 C  
HETATM   15  H   UNL     2      -9.689   9.007  70.600  1.00  0.00     0.000 HD 
HETATM   16  O   UNL     2      -9.261   8.673  69.820  1.00  0.00    -0.150 OA 
BRANCH  14  17
HETATM   17  C   UNL     2      -9.821   6.456  70.741  1.00  0.00    -0.184 C  
HETATM   18  C   UNL     2     -11.116   6.705  71.557  1.00  0.00    -0.256 C  
HETATM   19  H   UNL     2      -8.608   6.067  72.241  1.00  0.00     0.000 HD 
HETATM   20  O   UNL     2      -8.604   6.630  71.475  1.00  0.00    -0.124 OA 
HETATM   21  O   UNL     2     -12.144   6.679  70.808  1.00  0.00    -0.385 OA 
HETATM   22  O   UNL     2     -10.969   6.848  72.787  1.00  0.00    -0.254 OA 
ENDBRANCH  14  17
ENDBRANCH  11  14
ENDBRANCH   8  11
ENDBRANCH   3   8
BRANCH   7  23
HETATM   23  C   UNL     3     -11.814  15.849  69.062  1.00  0.00    -0.318 C  
HETATM   24  O   UNL     3     -10.965  16.864  69.637  1.00  0.00    -0.374 OA 
HETATM   25  H   UNL     3     -10.585  17.370  68.928  1.00  0.00     0.000 HD 
BRANCH  23  26
HETATM   26  C   UNL     3     -10.908  15.087  68.076  1.00  0.00    -0.270 C  
HETATM   27  O   UNL     3     -10.035  14.182  68.756  1.00  0.00    -0.250 OA 
HETATM   28  H   UNL     3      -9.477  13.712  68.147  1.00  0.00     0.000 HD 
BRANCH  26  29
HETATM   29  C   UNL     3     -11.566  14.346  66.892  1.00  0.00    -0.388 C  
HETATM   30  O   UNL     3     -11.697  12.935  67.130  1.00  0.00    -0.344 OA 
HETATM   31  H   UNL     3     -12.102  12.480  66.401  1.00  0.00     0.000 HD 
BRANCH  29  32
HETATM   32  C   UNL     3     -10.927  14.530  65.519  1.00  0.00    -0.335 C  
HETATM   33  C   UNL     3     -11.796  15.310  64.516  1.00  0.00    -0.295 C  
HETATM   34  O   UNL     3     -10.673  13.186  64.922  1.00  0.00    -0.312 OA 
HETATM   35  O   UNL     3     -12.512  14.517  63.774  1.00  0.00    -0.809 OA 
HETATM   36  O   UNL     3     -11.459  16.483  64.265  1.00  0.00    -1.000 OA 
HETATM   37  H   UNL     3     -10.275  13.300  64.067  1.00  0.00     0.000 HD 
ENDBRANCH  29  32
ENDBRANCH  26  29
ENDBRANCH  23  26
ENDBRANCH   7  23
TORSDOF 8
ENDMDL
MODEL      122
REMARK 921   NORMALIZED FREE ENERGY PREDICTED BY IDOCK:   -5.40 KCAL/MOL
REMARK 922        TOTAL FREE ENERGY PREDICTED BY IDOCK:  -10.01 KCAL/MOL
REMARK 923 INTER-LIGAND FREE ENERGY PREDICTED BY IDOCK:   -8.00 KCAL/MOL
REMARK 924 INTRA-LIGAND FREE ENERGY PREDICTED BY IDOCK:   -2.01 KCAL/MOL
REMARK 927      BINDING AFFINITY PREDICTED BY RF-SCORE:    0.00 PKD
ROOT
HETATM    1 CU   UNL     1     -10.910  11.051  69.277  1.00  0.00    -0.171 Cu 
HETATM    2  O   UNL     2     -11.291   6.710  73.406  1.00  0.00    -0.473 OA 
HETATM    3  C   UNL     2     -10.960   6.239  72.092  1.00  0.00    -0.257 C  
HETATM    4  H   UNL     2     -11.528   5.950  73.924  1.00  0.00     0.000 HD 
HETATM    5  O   UNL     3     -12.535  14.081  62.830  1.00  0.00    -1.028 OA 
HETATM    6  H   UNL     3     -13.185  13.421  62.618  1.00  0.00     0.000 HD 
HETATM    7  C   UNL     3     -12.260  14.015  64.244  1.00  0.00    -0.418 C  
ENDROOT
BRANCH   3   8
HETATM    8  C   UNL     2     -10.578   7.460  71.260  1.00  0.00    -0.216 C  
HETATM    9  O   UNL     2     -11.025   8.658  71.924  1.00  0.00    -0.293 OA 
HETATM   10  H   UNL     2     -10.788   9.418  71.406  1.00  0.00     0.000 HD 
BRANCH   8  11
HETATM   11  C   UNL     2      -9.064   7.519  70.968  1.00  0.00    -0.148 C  
HETATM   12  O   UNL     2      -8.636   6.181  70.700  1.00  0.00    -0.131 OA 
HETATM   13  H   UNL     2      -7.704   6.217  70.520  1.00  0.00     0.000 HD 
BRANCH  11  14
HETATM   14  C   UNL     2      -8.830   8.436  69.752  1.00  0.00    -0.134 C  
HETATM   15  H   UNL     2      -8.895  10.385  69.415  1.00  0.00     0.000 HD 
HETATM   16  O   UNL     2      -9.039   9.820  70.164  1.00  0.00    -0.227 OA 
BRANCH  14  17
HETATM   17  C   UNL     2      -9.610   8.116  68.476  1.00  0.00    -0.148 C  
HETATM   18  C   UNL     2      -8.618   7.900  67.304  1.00  0.00    -0.128 C  
HETATM   19  H   UNL     2     -11.085   8.927  67.455  1.00  0.00     0.000 HD 
HETATM   20  O   UNL     2     -10.600   9.126  68.248  1.00  0.00    -0.214 OA 
HETATM   21  O   UNL     2      -7.683   7.101  67.634  1.00  0.00    -0.107 OA 
HETATM   22  O   UNL     2      -8.892   8.486  66.239  1.00  0.00    -0.138 OA 
ENDBRANCH  14  17
ENDBRANCH  11  14
ENDBRANCH   8  11
ENDBRANCH   3   8
BRANCH   7  23
HETATM   23  C   UNL     3     -11.211  15.081  64.587  1.00  0.00    -0.332 C  
HETATM   24  O   UNL     3     -11.568  16.300  63.903  1.00  0.00    -1.489 OA 
HETATM   25  H   UNL     3     -10.918  16.960  64.115  1.00  0.00     0.000 HD 
BRANCH  23  26
HETATM   26  C   UNL     3     -11.087  15.481  66.070  1.00  0.00    -0.185 C  
HETATM   27  O   UNL     3     -11.956  14.703  66.898  1.00  0.00    -0.373 OA 
HETATM   28  H   UNL     3     -11.879  14.950  67.812  1.00  0.00     0.000 HD 
BRANCH  26  29
HETATM   29  C   UNL     3      -9.683  15.507  66.713  1.00  0.00    -0.239 C  
HETATM   30  O   UNL     3      -8.866  16.575  66.207  1.00  0.00    -0.283 OA 
HETATM   31  H   UNL     3      -8.002  16.590  66.603  1.00  0.00     0.000 HD 
BRANCH  29  32
HETATM   32  C   UNL     3      -8.866  14.221  66.642  1.00  0.00    -0.139 C  
HETATM   33  C   UNL     3      -9.239  13.175  67.708  1.00  0.00    -0.203 C  
HETATM   34  O   UNL     3      -7.425  14.554  66.844  1.00  0.00    -0.293 OA 
HETATM   35  O   UNL     3      -8.489  13.270  68.766  1.00  0.00    -0.035 OA 
HETATM   36  O   UNL     3      -9.886  12.181  67.325  1.00  0.00    -0.194 OA 
HETATM   37  H   UNL     3      -6.916  13.753  66.801  1.00  0.00     0.000 HD 
ENDBRANCH  29  32
ENDBRANCH  26  29
ENDBRANCH  23  26
ENDBRANCH   7  23
TORSDOF 8
ENDMDL
MODEL      123
REMARK 921   NORMALIZED FREE ENERGY PREDICTED BY IDOCK:   -5.40 KCAL/MOL
REMARK 922        TOTAL FREE ENERGY PREDICTED BY IDOCK:  -10.00 KCAL/MOL
REMARK 923 INTER-LIGAND FREE ENERGY PREDICTED BY IDOCK:   -9.02 KCAL/MOL
REMARK 924 INTRA-LIGAND FREE ENERGY PREDICTED BY IDOCK:   -0.98 KCAL/MOL
REMARK 927      BINDING AFFINITY PREDICTED BY RF-SCORE:    0.00 PKD
ROOT
HETATM    1 CU   UNL     1     -10.773  11.998  68.030  1.00  0.00    -0.181 Cu 
HETATM    2  O   UNL     2     -12.152  16.161  63.930  1.00  0.00    -1.283 OA 
HETATM    3  C   UNL     2     -12.346  14.812  63.480  1.00  0.00     0.730 C  
HETATM    4  H   UNL     2     -12.194  16.719  63.162  1.00  0.00     0.000 HD 
HETATM    5  O   UNL     3      -7.372   5.936  70.282  1.00  0.00    -0.075 OA 
HETATM    6  H   UNL     3      -6.867   5.852  69.480  1.00  0.00     0.000 HD 
HETATM    7  C   UNL     3      -7.901   7.276  70.351  1.00  0.00    -0.099 C  
ENDROOT
BRANCH   3   8
HETATM    8  C   UNL     2     -12.279  13.914  64.713  1.00  0.00    -0.415 C  
HETATM    9  O   UNL     2     -12.988  12.686  64.457  1.00  0.00    -0.744 OA 
HETATM   10  H   UNL     2     -12.946  12.128  65.225  1.00  0.00     0.000 HD 
BRANCH   8  11
HETATM   11  C   UNL     2     -10.828  13.636  65.156  1.00  0.00    -0.334 C  
HETATM   12  O   UNL     2     -10.008  13.722  63.987  1.00  0.00    -0.604 OA 
HETATM   13  H   UNL     2      -9.114  13.551  64.259  1.00  0.00     0.000 HD 
BRANCH  11  14
HETATM   14  C   UNL     2     -10.420  14.691  66.204  1.00  0.00    -0.302 C  
HETATM   15  H   UNL     2      -9.383  16.376  66.189  1.00  0.00     0.000 HD 
HETATM   16  O   UNL     2      -9.634  15.726  65.543  1.00  0.00    -0.331 OA 
BRANCH  14  17
HETATM   17  C   UNL     2      -9.719  14.186  67.466  1.00  0.00    -0.234 C  
HETATM   18  C   UNL     2      -9.694  15.313  68.530  1.00  0.00    -0.211 C  
HETATM   19  H   UNL     2      -7.999  13.338  67.908  1.00  0.00     0.000 HD 
HETATM   20  O   UNL     2      -8.434  13.651  67.124  1.00  0.00    -0.203 OA 
HETATM   21  O   UNL     2     -10.845  15.837  68.671  1.00  0.00    -0.250 OA 
HETATM   22  O   UNL     2      -8.601  15.506  69.098  1.00  0.00    -0.210 OA 
ENDBRANCH  14  17
ENDBRANCH  11  14
ENDBRANCH   8  11
ENDBRANCH   3   8
BRANCH   7  23
HETATM   23  C   UNL     3      -8.716   7.412  71.644  1.00  0.00    -0.116 C  
HETATM   24  O   UNL     3      -8.609   8.776  72.102  1.00  0.00    -0.355 OA 
HETATM   25  H   UNL     3      -9.113   8.860  72.903  1.00  0.00     0.000 HD 
BRANCH  23  26
HETATM   26  C   UNL     3     -10.231   7.147  71.541  1.00  0.00    -0.197 C  
HETATM   27  O   UNL     3     -10.560   5.820  71.959  1.00  0.00    -0.211 OA 
HETATM   28  H   UNL     3     -11.494   5.656  71.896  1.00  0.00     0.000 HD 
BRANCH  26  29
HETATM   29  C   UNL     3     -11.201   8.136  72.221  1.00  0.00    -0.359 C  
HETATM   30  O   UNL     3     -11.768   7.608  73.431  1.00  0.00    -0.615 OA 
HETATM   31  H   UNL     3     -12.365   8.217  73.849  1.00  0.00     0.000 HD 
BRANCH  29  32
HETATM   32  C   UNL     3     -12.343   8.681  71.370  1.00  0.00    -0.304 C  
HETATM   33  C   UNL     3     -13.312   9.605  72.128  1.00  0.00    -0.454 C  
HETATM   34  O   UNL     3     -13.148   7.535  70.854  1.00  0.00    -0.581 OA 
HETATM   35  O   UNL     3     -14.337   8.956  72.598  1.00  0.00    -0.613 OA 
HETATM   36  O   UNL     3     -13.234  10.827  71.892  1.00  0.00    -0.469 OA 
HETATM   37  H   UNL     3     -13.860   7.874  70.323  1.00  0.00     0.000 HD 
ENDBRANCH  29  32
ENDBRANCH  26  29
ENDBRANCH  23  26
ENDBRANCH   7  23
TORSDOF 8
ENDMDL
MODEL      124
REMARK 921   NORMALIZED FREE ENERGY PREDICTED BY IDOCK:   -5.40 KCAL/MOL
REMARK 922        TOTAL FREE ENERGY PREDICTED BY IDOCK:  -10.00 KCAL/MOL
REMARK 923 INTER-LIGAND FREE ENERGY PREDICTED BY IDOCK:   -8.63 KCAL/MOL
REMARK 924 INTRA-LIGAND FREE ENERGY PREDICTED BY IDOCK:   -1.38 KCAL/MOL
REMARK 927      BINDING AFFINITY PREDICTED BY RF-SCORE:    0.00 PKD
ROOT
HETATM    1 CU   UNL     1     -11.229   8.348  69.895  1.00  0.00    -0.244 Cu 
HETATM    2  O   UNL     2      -9.955   2.814  71.843  1.00  0.00    -0.164 OA 
HETATM    3  C   UNL     2     -10.198   3.762  72.893  1.00  0.00    -0.162 C  
HETATM    4  H   UNL     2      -9.567   2.046  72.244  1.00  0.00     0.000 HD 
HETATM    5  O   UNL     3     -10.298  15.594  69.769  1.00  0.00    -0.270 OA 
HETATM    6  H   UNL     3      -9.531  15.563  70.331  1.00  0.00     0.000 HD 
HETATM    7  C   UNL     3     -10.542  14.268  69.256  1.00  0.00    -0.141 C  
ENDROOT
BRANCH   3   8
HETATM    8  C   UNL     2     -10.823   4.996  72.248  1.00  0.00    -0.140 C  
HETATM    9  O   UNL     2     -11.667   5.667  73.204  1.00  0.00    -0.521 OA 
HETATM   10  H   UNL     2     -12.056   6.435  72.802  1.00  0.00     0.000 HD 
BRANCH   8  11
HETATM   11  C   UNL     2      -9.761   5.957  71.675  1.00  0.00    -0.160 C  
HETATM   12  O   UNL     2      -8.506   5.272  71.721  1.00  0.00    -0.123 OA 
HETATM   13  H   UNL     2      -7.852   5.863  71.368  1.00  0.00     0.000 HD 
BRANCH  11  14
HETATM   14  C   UNL     2     -10.150   6.317  70.227  1.00  0.00    -0.184 C  
HETATM   15  H   UNL     2     -11.821   6.315  69.168  1.00  0.00     0.000 HD 
HETATM   16  O   UNL     2     -11.581   6.094  70.060  1.00  0.00    -0.392 OA 
BRANCH  14  17
HETATM   17  C   UNL     2      -9.352   5.652  69.105  1.00  0.00    -0.124 C  
HETATM   18  C   UNL     2      -9.609   6.404  67.773  1.00  0.00    -0.121 C  
HETATM   19  H   UNL     2      -9.145   3.837  68.372  1.00  0.00     0.000 HD 
HETATM   20  O   UNL     2      -9.641   4.250  69.070  1.00  0.00    -0.165 OA 
HETATM   21  O   UNL     2      -9.475   7.661  67.921  1.00  0.00    -0.141 OA 
HETATM   22  O   UNL     2      -9.861   5.691  66.782  1.00  0.00    -0.141 OA 
ENDBRANCH  14  17
ENDBRANCH  11  14
ENDBRANCH   8  11
ENDBRANCH   3   8
BRANCH   7  23
HETATM   23  C   UNL     3     -11.779  14.317  68.349  1.00  0.00    -0.338 C  
HETATM   24  O   UNL     3     -12.145  15.700  68.162  1.00  0.00    -0.398 OA 
HETATM   25  H   UNL     3     -12.911  15.730  67.600  1.00  0.00     0.000 HD 
BRANCH  23  26
HETATM   26  C   UNL     3     -11.617  13.753  66.924  1.00  0.00    -0.370 C  
HETATM   27  O   UNL     3     -12.044  12.391  66.847  1.00  0.00    -0.564 OA 
HETATM   28  H   UNL     3     -11.944  12.043  65.968  1.00  0.00     0.000 HD 
BRANCH  26  29
HETATM   29  C   UNL     3     -12.241  14.534  65.746  1.00  0.00    -0.261 C  
HETATM   30  O   UNL     3     -13.202  13.755  65.016  1.00  0.00    -0.733 OA 
HETATM   31  H   UNL     3     -13.585  14.236  64.292  1.00  0.00     0.000 HD 
BRANCH  29  32
HETATM   32  C   UNL     3     -11.277  15.151  64.738  1.00  0.00    -0.388 C  
HETATM   33  C   UNL     3     -10.264  16.133  65.350  1.00  0.00    -0.264 C  
HETATM   34  O   UNL     3     -12.064  15.912  63.723  1.00  0.00    -1.239 OA 
HETATM   35  O   UNL     3     -10.682  17.364  65.290  1.00  0.00    -0.646 OA 
HETATM   36  O   UNL     3      -9.087  15.738  65.463  1.00  0.00    -0.235 OA 
HETATM   37  H   UNL     3     -11.464  16.296  63.095  1.00  0.00     0.000 HD 
ENDBRANCH  29  32
ENDBRANCH  26  29
ENDBRANCH  23  26
ENDBRANCH   7  23
TORSDOF 8
ENDMDL
MODEL      125
REMARK 921   NORMALIZED FREE ENERGY PREDICTED BY IDOCK:   -5.39 KCAL/MOL
REMARK 922        TOTAL FREE ENERGY PREDICTED BY IDOCK:   -9.98 KCAL/MOL
REMARK 923 INTER-LIGAND FREE ENERGY PREDICTED BY IDOCK:   -7.95 KCAL/MOL
REMARK 924 INTRA-LIGAND FREE ENERGY PREDICTED BY IDOCK:   -2.03 KCAL/MOL
REMARK 927      BINDING AFFINITY PREDICTED BY RF-SCORE:    0.00 PKD
ROOT
HETATM    1 CU   UNL     1     -10.061   7.518  65.857  1.00  0.00    -0.392 Cu 
HETATM    2  O   UNL     2      -8.063   1.863  65.602  1.00  0.00    -0.076 OA 
HETATM    3  C   UNL     2      -7.360   2.770  64.741  1.00  0.00    -0.067 C  
HETATM    4  H   UNL     2      -7.819   0.983  65.339  1.00  0.00     0.000 HD 
HETATM    5  O   UNL     3     -12.490  13.719  62.851  1.00  0.00    -1.009 OA 
HETATM    6  H   UNL     3     -12.542  13.344  61.979  1.00  0.00     0.000 HD 
HETATM    7  C   UNL     3     -12.400  12.643  63.807  1.00  0.00    -0.478 C  
ENDROOT
BRANCH   3   8
HETATM    8  C   UNL     2      -7.750   4.184  65.164  1.00  0.00    -0.085 C  
HETATM    9  O   UNL     2      -6.867   5.137  64.540  1.00  0.00    -0.046 OA 
HETATM   10  H   UNL     2      -7.110   6.018  64.804  1.00  0.00     0.000 HD 
BRANCH   8  11
HETATM   11  C   UNL     2      -9.225   4.503  64.846  1.00  0.00    -0.156 C  
HETATM   12  O   UNL     2      -9.696   3.479  63.966  1.00  0.00    -0.141 OA 
HETATM   13  H   UNL     2     -10.605   3.674  63.770  1.00  0.00     0.000 HD 
BRANCH  11  14
HETATM   14  C   UNL     2     -10.023   4.518  66.165  1.00  0.00    -0.248 C  
HETATM   15  H   UNL     2     -11.627   5.462  66.839  1.00  0.00     0.000 HD 
HETATM   16  O   UNL     2     -11.135   5.452  66.027  1.00  0.00    -0.057 OA 
BRANCH  14  17
HETATM   17  C   UNL     2      -9.239   4.778  67.452  1.00  0.00    -0.129 C  
HETATM   18  C   UNL     2      -9.590   3.691  68.500  1.00  0.00    -0.094 C  
HETATM   19  H   UNL     2      -8.969   6.288  68.686  1.00  0.00     0.000 HD 
HETATM   20  O   UNL     2      -9.456   6.126  67.886  1.00  0.00    -0.117 OA 
HETATM   21  O   UNL     2      -9.515   2.525  67.995  1.00  0.00    -0.212 OA 
HETATM   22  O   UNL     2      -9.846   4.100  69.649  1.00  0.00    -0.217 OA 
ENDBRANCH  14  17
ENDBRANCH  11  14
ENDBRANCH   8  11
ENDBRANCH   3   8
BRANCH   7  23
HETATM   23  C   UNL     3     -12.317  13.247  65.215  1.00  0.00    -0.476 C  
HETATM   24  O   UNL     3     -12.263  12.165  66.167  1.00  0.00    -0.611 OA 
HETATM   25  H   UNL     3     -12.212  12.539  67.039  1.00  0.00     0.000 HD 
BRANCH  23  26
HETATM   26  C   UNL     3     -11.081  14.112  65.527  1.00  0.00    -0.310 C  
HETATM   27  O   UNL     3     -10.860  15.098  64.515  1.00  0.00    -0.627 OA 
HETATM   28  H   UNL     3     -10.097  15.631  64.708  1.00  0.00     0.000 HD 
BRANCH  26  29
HETATM   29  C   UNL     3     -10.987  14.793  66.911  1.00  0.00    -0.328 C  
HETATM   30  O   UNL     3     -12.164  14.586  67.707  1.00  0.00    -0.602 OA 
HETATM   31  H   UNL     3     -12.106  15.004  68.558  1.00  0.00     0.000 HD 
BRANCH  29  32
HETATM   32  C   UNL     3     -10.668  16.284  66.928  1.00  0.00    -0.217 C  
HETATM   33  C   UNL     3      -9.165  16.610  66.895  1.00  0.00    -0.227 C  
HETATM   34  O   UNL     3     -11.216  16.879  68.182  1.00  0.00    -0.297 OA 
HETATM   35  O   UNL     3      -8.676  16.771  68.090  1.00  0.00    -0.207 OA 
HETATM   36  O   UNL     3      -8.701  17.044  65.823  1.00  0.00    -0.522 OA 
HETATM   37  H   UNL     3     -11.018  17.808  68.194  1.00  0.00     0.000 HD 
ENDBRANCH  29  32
ENDBRANCH  26  29
ENDBRANCH  23  26
ENDBRANCH   7  23
TORSDOF 8
ENDMDL
MODEL      126
REMARK 921   NORMALIZED FREE ENERGY PREDICTED BY IDOCK:   -5.39 KCAL/MOL
REMARK 922        TOTAL FREE ENERGY PREDICTED BY IDOCK:   -9.98 KCAL/MOL
REMARK 923 INTER-LIGAND FREE ENERGY PREDICTED BY IDOCK:   -8.81 KCAL/MOL
REMARK 924 INTRA-LIGAND FREE ENERGY PREDICTED BY IDOCK:   -1.17 KCAL/MOL
REMARK 927      BINDING AFFINITY PREDICTED BY RF-SCORE:    0.00 PKD
ROOT
HETATM    1 CU   UNL     1      -9.770   9.914  68.068  1.00  0.00    -0.134 Cu 
HETATM    2  O   UNL     2      -9.744   4.758  71.142  1.00  0.00    -0.159 OA 
HETATM    3  C   UNL     2     -10.059   4.606  69.751  1.00  0.00    -0.173 C  
HETATM    4  H   UNL     2      -9.968   3.939  71.570  1.00  0.00     0.000 HD 
HETATM    5  O   UNL     3     -12.785  14.794  63.542  1.00  0.00    -0.851 OA 
HETATM    6  H   UNL     3     -13.618  14.336  63.510  1.00  0.00     0.000 HD 
HETATM    7  C   UNL     3     -12.037  14.304  64.673  1.00  0.00    -0.463 C  
ENDROOT
BRANCH   3   8
HETATM    8  C   UNL     2      -9.700   5.921  69.063  1.00  0.00    -0.136 C  
HETATM    9  O   UNL     2     -10.663   6.207  68.031  1.00  0.00    -0.239 OA 
HETATM   10  H   UNL     2     -10.439   7.025  67.603  1.00  0.00     0.000 HD 
BRANCH   8  11
HETATM   11  C   UNL     2      -9.592   7.092  70.062  1.00  0.00    -0.164 C  
HETATM   12  O   UNL     2      -8.708   8.056  69.485  1.00  0.00    -0.135 OA 
HETATM   13  H   UNL     2      -8.642   8.777  70.100  1.00  0.00     0.000 HD 
BRANCH  11  14
HETATM   14  C   UNL     2     -10.999   7.683  70.284  1.00  0.00    -0.252 C  
HETATM   15  H   UNL     2     -11.911   9.379  69.825  1.00  0.00     0.000 HD 
HETATM   16  O   UNL     2     -11.044   9.014  69.689  1.00  0.00    -0.187 OA 
BRANCH  14  17
HETATM   17  C   UNL     2     -11.531   7.700  71.717  1.00  0.00    -0.264 C  
HETATM   18  C   UNL     2     -10.351   7.894  72.704  1.00  0.00    -0.308 C  
HETATM   19  H   UNL     2     -12.657   6.542  72.842  1.00  0.00     0.000 HD 
HETATM   20  O   UNL     2     -12.326   6.532  71.951  1.00  0.00    -0.347 OA 
HETATM   21  O   UNL     2      -9.606   8.862  72.346  1.00  0.00    -0.278 OA 
HETATM   22  O   UNL     2     -10.328   7.128  73.688  1.00  0.00    -0.330 OA 
ENDBRANCH  14  17
ENDBRANCH  11  14
ENDBRANCH   8  11
ENDBRANCH   3   8
BRANCH   7  23
HETATM   23  C   UNL     3     -10.692  15.042  64.725  1.00  0.00    -0.330 C  
HETATM   24  O   UNL     3     -10.893  16.378  64.218  1.00  0.00    -1.042 OA 
HETATM   25  H   UNL     3     -10.060  16.835  64.250  1.00  0.00     0.000 HD 
BRANCH  23  26
HETATM   26  C   UNL     3     -10.060  15.236  66.117  1.00  0.00    -0.296 C  
HETATM   27  O   UNL     3      -8.970  14.336  66.329  1.00  0.00    -0.478 OA 
HETATM   28  H   UNL     3      -8.580  14.456  67.187  1.00  0.00     0.000 HD 
BRANCH  26  29
HETATM   29  C   UNL     3      -9.619  16.656  66.535  1.00  0.00    -0.273 C  
HETATM   30  O   UNL     3      -8.551  17.164  65.718  1.00  0.00    -0.525 OA 
HETATM   31  H   UNL     3      -8.280  18.037  65.976  1.00  0.00     0.000 HD 
BRANCH  29  32
HETATM   32  C   UNL     3      -9.225  16.856  67.995  1.00  0.00    -0.235 C  
HETATM   33  C   UNL     3     -10.324  17.493  68.864  1.00  0.00    -0.338 C  
HETATM   34  O   UNL     3      -8.041  17.764  68.054  1.00  0.00    -0.229 OA 
HETATM   35  O   UNL     3     -10.198  18.786  68.938  1.00  0.00    -0.360 OA 
HETATM   36  O   UNL     3     -10.923  16.745  69.660  1.00  0.00    -0.287 OA 
HETATM   37  H   UNL     3      -7.796  17.889  68.963  1.00  0.00     0.000 HD 
ENDBRANCH  29  32
ENDBRANCH  26  29
ENDBRANCH  23  26
ENDBRANCH   7  23
TORSDOF 8
ENDMDL
MODEL      127
REMARK 921   NORMALIZED FREE ENERGY PREDICTED BY IDOCK:   -5.38 KCAL/MOL
REMARK 922        TOTAL FREE ENERGY PREDICTED BY IDOCK:   -9.97 KCAL/MOL
REMARK 923 INTER-LIGAND FREE ENERGY PREDICTED BY IDOCK:   -8.43 KCAL/MOL
REMARK 924 INTRA-LIGAND FREE ENERGY PREDICTED BY IDOCK:   -1.54 KCAL/MOL
REMARK 927      BINDING AFFINITY PREDICTED BY RF-SCORE:    0.00 PKD
ROOT
HETATM    1 CU   UNL     1     -11.993  11.666  67.355  1.00  0.00    -0.283 Cu 
HETATM    2  O   UNL     2     -11.420  16.300  63.581  1.00  0.00    -1.361 OA 
HETATM    3  C   UNL     2     -10.883  16.542  64.889  1.00  0.00    -0.204 C  
HETATM    4  H   UNL     2     -11.469  17.140  63.139  1.00  0.00     0.000 HD 
HETATM    5  O   UNL     3     -13.964   8.629  73.701  1.00  0.00    -0.749 OA 
HETATM    6  H   UNL     3     -14.387   9.420  74.015  1.00  0.00     0.000 HD 
HETATM    7  C   UNL     3     -13.776   8.745  72.276  1.00  0.00    -0.440 C  
ENDROOT
BRANCH   3   8
HETATM    8  C   UNL     2     -10.803  15.193  65.599  1.00  0.00    -0.360 C  
HETATM    9  O   UNL     2      -9.513  15.051  66.225  1.00  0.00    -0.275 OA 
HETATM   10  H   UNL     2      -9.463  14.211  66.667  1.00  0.00     0.000 HD 
BRANCH   8  11
HETATM   11  C   UNL     2     -11.941  15.003  66.622  1.00  0.00     0.031 C  
HETATM   12  O   UNL     2     -12.670  13.838  66.228  1.00  0.00    -0.373 OA 
HETATM   13  H   UNL     2     -13.371  13.720  66.858  1.00  0.00     0.000 HD 
BRANCH  11  14
HETATM   14  C   UNL     2     -11.322  14.829  68.024  1.00  0.00    -0.316 C  
HETATM   15  H   UNL     2     -10.538  13.329  69.049  1.00  0.00     0.000 HD 
HETATM   16  O   UNL     2     -10.919  13.437  68.186  1.00  0.00    -0.239 OA 
BRANCH  14  17
HETATM   17  C   UNL     2     -12.151  15.307  69.216  1.00  0.00    -0.249 C  
HETATM   18  C   UNL     2     -11.328  16.330  70.041  1.00  0.00    -0.269 C  
HETATM   19  H   UNL     2     -13.141  14.476  70.700  1.00  0.00     0.000 HD 
HETATM   20  O   UNL     2     -12.626  14.178  69.959  1.00  0.00    -0.332 OA 
HETATM   21  O   UNL     2     -10.816  17.221  69.289  1.00  0.00    -0.178 OA 
HETATM   22  O   UNL     2     -11.320  16.160  71.276  1.00  0.00    -0.384 OA 
ENDBRANCH  14  17
ENDBRANCH  11  14
ENDBRANCH   8  11
ENDBRANCH   3   8
BRANCH   7  23
HETATM   23  C   UNL     3     -13.093   7.468  71.769  1.00  0.00    -0.322 C  
HETATM   24  O   UNL     3     -13.155   7.467  70.328  1.00  0.00    -0.085 OA 
HETATM   25  H   UNL     3     -12.731   6.675  70.013  1.00  0.00     0.000 HD 
BRANCH  23  26
HETATM   26  C   UNL     3     -11.598   7.301  72.102  1.00  0.00    -0.286 C  
HETATM   27  O   UNL     3     -11.399   7.005  73.487  1.00  0.00    -0.500 OA 
HETATM   28  H   UNL     3     -10.476   6.903  73.692  1.00  0.00     0.000 HD 
BRANCH  26  29
HETATM   29  C   UNL     3     -10.759   6.316  71.259  1.00  0.00    -0.248 C  
HETATM   30  O   UNL     3     -10.081   5.340  72.066  1.00  0.00    -0.181 OA 
HETATM   31  H   UNL     3      -9.565   4.734  71.546  1.00  0.00     0.000 HD 
BRANCH  29  32
HETATM   32  C   UNL     3      -9.738   6.921  70.301  1.00  0.00    -0.172 C  
HETATM   33  C   UNL     3     -10.243   7.081  68.856  1.00  0.00    -0.180 C  
HETATM   34  O   UNL     3      -8.541   6.030  70.248  1.00  0.00    -0.137 OA 
HETATM   35  O   UNL     3      -9.928   6.060  68.114  1.00  0.00    -0.131 OA 
HETATM   36  O   UNL     3     -10.522   8.235  68.477  1.00  0.00    -0.207 OA 
HETATM   37  H   UNL     3      -7.905   6.406  69.651  1.00  0.00     0.000 HD 
ENDBRANCH  29  32
ENDBRANCH  26  29
ENDBRANCH  23  26
ENDBRANCH   7  23
TORSDOF 8
ENDMDL
MODEL      128
REMARK 921   NORMALIZED FREE ENERGY PREDICTED BY IDOCK:   -5.37 KCAL/MOL
REMARK 922        TOTAL FREE ENERGY PREDICTED BY IDOCK:   -9.96 KCAL/MOL
REMARK 923 INTER-LIGAND FREE ENERGY PREDICTED BY IDOCK:   -7.84 KCAL/MOL
REMARK 924 INTRA-LIGAND FREE ENERGY PREDICTED BY IDOCK:   -2.12 KCAL/MOL
REMARK 927      BINDING AFFINITY PREDICTED BY RF-SCORE:    0.00 PKD
ROOT
HETATM    1 CU   UNL     1     -10.460   9.229  71.289  1.00  0.00    -0.189 Cu 
HETATM    2  O   UNL     2      -9.951   3.849  73.903  1.00  0.00    -0.114 OA 
HETATM    3  C   UNL     2     -11.286   4.172  73.487  1.00  0.00    -0.250 C  
HETATM    4  H   UNL     2     -10.013   3.094  74.477  1.00  0.00     0.000 HD 
HETATM    5  O   UNL     3     -13.487  15.830  70.486  1.00  0.00    -0.776 OA 
HETATM    6  H   UNL     3     -14.032  15.739  71.260  1.00  0.00     0.000 HD 
HETATM    7  C   UNL     3     -12.444  14.836  70.540  1.00  0.00    -0.352 C  
ENDROOT
BRANCH   3   8
HETATM    8  C   UNL     2     -11.187   5.384  72.564  1.00  0.00    -0.247 C  
HETATM    9  O   UNL     2     -11.133   6.589  73.352  1.00  0.00    -0.465 OA 
HETATM   10  H   UNL     2     -11.072   7.344  72.778  1.00  0.00     0.000 HD 
BRANCH   8  11
HETATM   11  C   UNL     2      -9.982   5.293  71.606  1.00  0.00    -0.180 C  
HETATM   12  O   UNL     2     -10.029   4.001  70.994  1.00  0.00    -0.179 OA 
HETATM   13  H   UNL     2      -9.287   3.945  70.404  1.00  0.00     0.000 HD 
BRANCH  11  14
HETATM   14  C   UNL     2     -10.099   6.415  70.555  1.00  0.00    -0.186 C  
HETATM   15  H   UNL     2     -11.557   7.180  69.457  1.00  0.00     0.000 HD 
HETATM   16  O   UNL     2     -11.485   6.488  70.105  1.00  0.00    -0.368 OA 
BRANCH  14  17
HETATM   17  C   UNL     2      -9.134   6.365  69.371  1.00  0.00    -0.140 C  
HETATM   18  C   UNL     2      -8.855   7.806  68.871  1.00  0.00    -0.135 C  
HETATM   19  H   UNL     2      -9.039   5.439  67.637  1.00  0.00     0.000 HD 
HETATM   20  O   UNL     2      -9.639   5.469  68.373  1.00  0.00    -0.114 OA 
HETATM   21  O   UNL     2      -8.554   8.578  69.838  1.00  0.00    -0.126 OA 
HETATM   22  O   UNL     2      -8.923   7.982  67.639  1.00  0.00    -0.134 OA 
ENDBRANCH  14  17
ENDBRANCH  11  14
ENDBRANCH   8  11
ENDBRANCH   3   8
BRANCH   7  23
HETATM   23  C   UNL     3     -11.564  14.983  69.291  1.00  0.00    -0.315 C  
HETATM   24  O   UNL     3     -12.410  14.861  68.129  1.00  0.00    -0.578 OA 
HETATM   25  H   UNL     3     -11.865  14.952  67.355  1.00  0.00     0.000 HD 
BRANCH  23  26
HETATM   26  C   UNL     3     -10.835  16.329  69.112  1.00  0.00    -0.314 C  
HETATM   27  O   UNL     3      -9.440  16.212  69.400  1.00  0.00    -0.250 OA 
HETATM   28  H   UNL     3      -8.990  17.042  69.289  1.00  0.00     0.000 HD 
BRANCH  26  29
HETATM   29  C   UNL     3     -11.003  17.086  67.776  1.00  0.00    -0.199 C  
HETATM   30  O   UNL     3     -10.511  16.338  66.653  1.00  0.00    -0.300 OA 
HETATM   31  H   UNL     3     -10.615  16.805  65.832  1.00  0.00     0.000 HD 
BRANCH  29  32
HETATM   32  C   UNL     3     -10.411  18.490  67.698  1.00  0.00    -0.417 C  
HETATM   33  C   UNL     3      -9.040  18.560  67.002  1.00  0.00    -0.281 C  
HETATM   34  O   UNL     3     -10.224  19.012  69.084  1.00  0.00    -0.537 OA 
HETATM   35  O   UNL     3      -8.059  18.490  67.853  1.00  0.00    -0.247 OA 
HETATM   36  O   UNL     3      -9.011  19.037  65.851  1.00  0.00    -0.448 OA 
HETATM   37  H   UNL     3      -9.855  19.886  69.035  1.00  0.00     0.000 HD 
ENDBRANCH  29  32
ENDBRANCH  26  29
ENDBRANCH  23  26
ENDBRANCH   7  23
TORSDOF 8
ENDMDL
MODEL      129
REMARK 921   NORMALIZED FREE ENERGY PREDICTED BY IDOCK:   -5.37 KCAL/MOL
REMARK 922        TOTAL FREE ENERGY PREDICTED BY IDOCK:   -9.96 KCAL/MOL
REMARK 923 INTER-LIGAND FREE ENERGY PREDICTED BY IDOCK:   -7.56 KCAL/MOL
REMARK 924 INTRA-LIGAND FREE ENERGY PREDICTED BY IDOCK:   -2.40 KCAL/MOL
REMARK 927      BINDING AFFINITY PREDICTED BY RF-SCORE:    0.00 PKD
ROOT
HETATM    1 CU   UNL     1      -8.108  14.033  66.827  1.00  0.00    -0.172 Cu 
HETATM    2  O   UNL     2      -5.587   8.585  66.905  1.00  0.00    -0.036 OA 
HETATM    3  C   UNL     2      -6.648   8.751  67.857  1.00  0.00    -0.061 C  
HETATM    4  H   UNL     2      -5.128   7.785  67.135  1.00  0.00     0.000 HD 
HETATM    5  O   UNL     3     -10.428  20.192  70.000  1.00  0.00    -0.673 OA 
HETATM    6  H   UNL     3     -10.058  19.964  70.846  1.00  0.00     0.000 HD 
HETATM    7  C   UNL     3      -9.825  19.351  68.995  1.00  0.00    -0.419 C  
ENDROOT
BRANCH   3   8
HETATM    8  C   UNL     2      -7.386  10.035  67.486  1.00  0.00    -0.090 C  
HETATM    9  O   UNL     2      -6.625  10.765  66.504  1.00  0.00    -0.100 OA 
HETATM   10  H   UNL     2      -7.085  11.565  66.274  1.00  0.00     0.000 HD 
BRANCH   8  11
HETATM   11  C   UNL     2      -8.820   9.762  66.987  1.00  0.00    -0.135 C  
HETATM   12  O   UNL     2      -9.582   9.325  68.116  1.00  0.00    -0.141 OA 
HETATM   13  H   UNL     2     -10.464   9.156  67.809  1.00  0.00     0.000 HD 
BRANCH  11  14
HETATM   14  C   UNL     2      -9.394  11.064  66.395  1.00  0.00    -0.183 C  
HETATM   15  H   UNL     2      -9.570  12.939  67.002  1.00  0.00     0.000 HD 
HETATM   16  O   UNL     2      -9.217  12.137  67.367  1.00  0.00    -0.173 OA 
BRANCH  14  17
HETATM   17  C   UNL     2     -10.831  11.020  65.875  1.00  0.00    -0.115 C  
HETATM   18  C   UNL     2     -11.009  12.079  64.757  1.00  0.00    -0.311 C  
HETATM   19  H   UNL     2     -12.639  11.115  66.649  1.00  0.00     0.000 HD 
HETATM   20  O   UNL     2     -11.746  11.142  66.971  1.00  0.00    -0.460 OA 
HETATM   21  O   UNL     2     -10.074  12.002  63.897  1.00  0.00    -0.338 OA 
HETATM   22  O   UNL     2     -12.025  12.798  64.840  1.00  0.00    -0.355 OA 
ENDBRANCH  14  17
ENDBRANCH  11  14
ENDBRANCH   8  11
ENDBRANCH   3   8
BRANCH   7  23
HETATM   23  C   UNL     3     -10.421  19.718  67.630  1.00  0.00    -0.424 C  
HETATM   24  O   UNL     3      -9.444  20.497  66.908  1.00  0.00    -0.547 OA 
HETATM   25  H   UNL     3      -9.814  20.725  66.062  1.00  0.00     0.000 HD 
BRANCH  23  26
HETATM   26  C   UNL     3     -10.772  18.550  66.689  1.00  0.00    -0.233 C  
HETATM   27  O   UNL     3     -10.855  18.979  65.327  1.00  0.00    -0.540 OA 
HETATM   28  H   UNL     3     -11.071  18.258  64.747  1.00  0.00     0.000 HD 
BRANCH  26  29
HETATM   29  C   UNL     3      -9.913  17.268  66.752  1.00  0.00    -0.301 C  
HETATM   30  O   UNL     3      -9.465  16.840  65.456  1.00  0.00    -0.490 OA 
HETATM   31  H   UNL     3      -8.937  16.051  65.496  1.00  0.00     0.000 HD 
BRANCH  29  32
HETATM   32  C   UNL     3     -10.523  16.061  67.457  1.00  0.00    -0.297 C  
HETATM   33  C   UNL     3      -9.928  15.771  68.846  1.00  0.00    -0.223 C  
HETATM   34  O   UNL     3     -10.290  14.846  66.621  1.00  0.00    -0.273 OA 
HETATM   35  O   UNL     3      -8.960  14.904  68.790  1.00  0.00    -0.178 OA 
HETATM   36  O   UNL     3     -10.630  16.060  69.835  1.00  0.00    -0.290 OA 
HETATM   37  H   UNL     3     -10.670  14.094  67.060  1.00  0.00     0.000 HD 
ENDBRANCH  29  32
ENDBRANCH  26  29
ENDBRANCH  23  26
ENDBRANCH   7  23
TORSDOF 8
ENDMDL
MODEL      130
REMARK 921   NORMALIZED FREE ENERGY PREDICTED BY IDOCK:   -5.36 KCAL/MOL
REMARK 922        TOTAL FREE ENERGY PREDICTED BY IDOCK:   -9.95 KCAL/MOL
REMARK 923 INTER-LIGAND FREE ENERGY PREDICTED BY IDOCK:   -7.74 KCAL/MOL
REMARK 924 INTRA-LIGAND FREE ENERGY PREDICTED BY IDOCK:   -2.21 KCAL/MOL
REMARK 927      BINDING AFFINITY PREDICTED BY RF-SCORE:    0.00 PKD
ROOT
HETATM    1 CU   UNL     1     -10.071  10.005  68.667  1.00  0.00    -0.148 Cu 
HETATM    2  O   UNL     2      -8.663   4.230  67.822  1.00  0.00    -0.102 OA 
HETATM    3  C   UNL     2      -9.976   4.585  67.363  1.00  0.00    -0.120 C  
HETATM    4  H   UNL     2      -8.619   3.281  67.836  1.00  0.00     0.000 HD 
HETATM    5  O   UNL     3     -14.411  15.379  71.048  1.00  0.00    -0.810 OA 
HETATM    6  H   UNL     3     -15.010  14.782  71.481  1.00  0.00     0.000 HD 
HETATM    7  C   UNL     3     -13.182  14.676  70.773  1.00  0.00    -0.281 C  
ENDROOT
BRANCH   3   8
HETATM    8  C   UNL     2     -10.046   6.109  67.339  1.00  0.00    -0.156 C  
HETATM    9  O   UNL     2     -11.424   6.530  67.294  1.00  0.00    -0.754 OA 
HETATM   10  H   UNL     2     -11.468   7.479  67.278  1.00  0.00     0.000 HD 
BRANCH   8  11
HETATM   11  C   UNL     2      -9.310   6.747  68.534  1.00  0.00    -0.126 C  
HETATM   12  O   UNL     2      -8.866   8.040  68.114  1.00  0.00    -0.132 OA 
HETATM   13  H   UNL     2      -8.413   8.433  68.850  1.00  0.00     0.000 HD 
BRANCH  11  14
HETATM   14  C   UNL     2     -10.289   6.850  69.721  1.00  0.00    -0.206 C  
HETATM   15  H   UNL     2     -11.602   8.185  70.362  1.00  0.00     0.000 HD 
HETATM   16  O   UNL     2     -10.998   8.122  69.631  1.00  0.00    -0.201 OA 
BRANCH  14  17
HETATM   17  C   UNL     2      -9.714   6.635  71.121  1.00  0.00    -0.174 C  
HETATM   18  C   UNL     2     -10.830   6.850  72.176  1.00  0.00    -0.225 C  
HETATM   19  H   UNL     2      -8.195   7.319  72.168  1.00  0.00     0.000 HD 
HETATM   20  O   UNL     2      -8.552   7.453  71.298  1.00  0.00    -0.117 OA 
HETATM   21  O   UNL     2     -11.883   6.203  71.871  1.00  0.00    -0.314 OA 
HETATM   22  O   UNL     2     -10.530   7.565  73.152  1.00  0.00    -0.299 OA 
ENDBRANCH  14  17
ENDBRANCH  11  14
ENDBRANCH   8  11
ENDBRANCH   3   8
BRANCH   7  23
HETATM   23  C   UNL     3     -12.215  15.639  70.072  1.00  0.00    -0.327 C  
HETATM   24  O   UNL     3     -11.570  16.442  71.082  1.00  0.00    -0.590 OA 
HETATM   25  H   UNL     3     -10.971  17.040  70.648  1.00  0.00     0.000 HD 
BRANCH  23  26
HETATM   26  C   UNL     3     -11.060  15.005  69.273  1.00  0.00    -0.272 C  
HETATM   27  O   UNL     3      -9.861  14.935  70.049  1.00  0.00    -0.462 OA 
HETATM   28  H   UNL     3      -9.149  14.544  69.556  1.00  0.00     0.000 HD 
BRANCH  26  29
HETATM   29  C   UNL     3     -11.294  13.635  68.600  1.00  0.00    -0.286 C  
HETATM   30  O   UNL     3     -10.682  12.554  69.321  1.00  0.00    -0.432 OA 
HETATM   31  H   UNL     3     -10.827  11.712  68.907  1.00  0.00     0.000 HD 
BRANCH  29  32
HETATM   32  C   UNL     3     -10.889  13.506  67.135  1.00  0.00    -0.284 C  
HETATM   33  C   UNL     3      -9.954  12.321  66.839  1.00  0.00    -0.213 C  
HETATM   34  O   UNL     3     -10.165  14.746  66.725  1.00  0.00    -0.259 OA 
HETATM   35  O   UNL     3      -8.701  12.669  66.871  1.00  0.00    -0.204 OA 
HETATM   36  O   UNL     3     -10.451  11.337  66.258  1.00  0.00    -0.243 OA 
HETATM   37  H   UNL     3      -9.912  14.666  65.812  1.00  0.00     0.000 HD 
ENDBRANCH  29  32
ENDBRANCH  26  29
ENDBRANCH  23  26
ENDBRANCH   7  23
TORSDOF 8
ENDMDL
MODEL      131
REMARK 921   NORMALIZED FREE ENERGY PREDICTED BY IDOCK:   -5.36 KCAL/MOL
REMARK 922        TOTAL FREE ENERGY PREDICTED BY IDOCK:   -9.94 KCAL/MOL
REMARK 923 INTER-LIGAND FREE ENERGY PREDICTED BY IDOCK:   -8.49 KCAL/MOL
REMARK 924 INTRA-LIGAND FREE ENERGY PREDICTED BY IDOCK:   -1.45 KCAL/MOL
REMARK 927      BINDING AFFINITY PREDICTED BY RF-SCORE:    0.00 PKD
ROOT
HETATM    1 CU   UNL     1     -10.217  10.208  69.116  1.00  0.00    -0.159 Cu 
HETATM    2  O   UNL     2      -7.917   6.317  73.067  1.00  0.00    -0.107 OA 
HETATM    3  C   UNL     2      -8.001   7.664  73.555  1.00  0.00    -0.141 C  
HETATM    4  H   UNL     2      -7.362   5.836  73.670  1.00  0.00     0.000 HD 
HETATM    5  O   UNL     3     -10.137  16.431  65.288  1.00  0.00    -0.545 OA 
HETATM    6  H   UNL     3      -9.260  16.662  65.571  1.00  0.00     0.000 HD 
HETATM    7  C   UNL     3     -10.352  15.030  65.559  1.00  0.00    -0.373 C  
ENDROOT
BRANCH   3   8
HETATM    8  C   UNL     2      -8.893   8.437  72.588  1.00  0.00    -0.217 C  
HETATM    9  O   UNL     2      -8.111   8.892  71.466  1.00  0.00    -0.241 OA 
HETATM   10  H   UNL     2      -8.667   9.374  70.864  1.00  0.00     0.000 HD 
BRANCH   8  11
HETATM   11  C   UNL     2     -10.105   7.606  72.120  1.00  0.00    -0.196 C  
HETATM   12  O   UNL     2     -11.234   8.043  72.881  1.00  0.00    -0.401 OA 
HETATM   13  H   UNL     2     -11.980   7.531  72.593  1.00  0.00     0.000 HD 
BRANCH  11  14
HETATM   14  C   UNL     2     -10.319   7.849  70.612  1.00  0.00    -0.202 C  
HETATM   15  H   UNL     2     -11.708   8.716  69.500  1.00  0.00     0.000 HD 
HETATM   16  O   UNL     2     -11.576   8.566  70.429  1.00  0.00    -0.204 OA 
BRANCH  14  17
HETATM   17  C   UNL     2     -10.237   6.632  69.690  1.00  0.00    -0.186 C  
HETATM   18  C   UNL     2     -10.453   7.080  68.222  1.00  0.00    -0.202 C  
HETATM   19  H   UNL     2     -11.086   4.860  69.576  1.00  0.00     0.000 HD 
HETATM   20  O   UNL     2     -11.137   5.616  70.149  1.00  0.00    -0.296 OA 
HETATM   21  O   UNL     2      -9.722   8.081  67.934  1.00  0.00    -0.151 OA 
HETATM   22  O   UNL     2     -11.251   6.395  67.552  1.00  0.00    -0.347 OA 
ENDBRANCH  14  17
ENDBRANCH  11  14
ENDBRANCH   8  11
ENDBRANCH   3   8
BRANCH   7  23
HETATM   23  C   UNL     3     -11.769  14.657  65.102  1.00  0.00    -0.364 C  
HETATM   24  O   UNL     3     -11.689  14.161  63.750  1.00  0.00    -0.647 OA 
HETATM   25  H   UNL     3     -12.567  13.930  63.467  1.00  0.00     0.000 HD 
BRANCH  23  26
HETATM   26  C   UNL     3     -12.482  13.543  65.892  1.00  0.00    -0.429 C  
HETATM   27  O   UNL     3     -13.126  12.611  65.020  1.00  0.00    -0.808 OA 
HETATM   28  H   UNL     3     -13.565  11.924  65.508  1.00  0.00     0.000 HD 
BRANCH  26  29
HETATM   29  C   UNL     3     -11.676  12.758  66.950  1.00  0.00    -0.380 C  
HETATM   30  O   UNL     3     -11.915  11.342  66.885  1.00  0.00    -0.440 OA 
HETATM   31  H   UNL     3     -11.419  10.859  67.536  1.00  0.00     0.000 HD 
BRANCH  29  32
HETATM   32  C   UNL     3     -11.836  13.191  68.403  1.00  0.00    -0.351 C  
HETATM   33  C   UNL     3     -11.316  14.608  68.702  1.00  0.00    -0.283 C  
HETATM   34  O   UNL     3     -11.068  12.252  69.273  1.00  0.00    -0.348 OA 
HETATM   35  O   UNL     3     -10.087  14.595  69.128  1.00  0.00    -0.225 OA 
HETATM   36  O   UNL     3     -12.168  15.501  68.877  1.00  0.00    -0.245 OA 
HETATM   37  H   UNL     3     -11.167  12.522  70.179  1.00  0.00     0.000 HD 
ENDBRANCH  29  32
ENDBRANCH  26  29
ENDBRANCH  23  26
ENDBRANCH   7  23
TORSDOF 8
ENDMDL
MODEL      132
REMARK 921   NORMALIZED FREE ENERGY PREDICTED BY IDOCK:   -5.35 KCAL/MOL
REMARK 922        TOTAL FREE ENERGY PREDICTED BY IDOCK:   -9.93 KCAL/MOL
REMARK 923 INTER-LIGAND FREE ENERGY PREDICTED BY IDOCK:   -8.90 KCAL/MOL
REMARK 924 INTRA-LIGAND FREE ENERGY PREDICTED BY IDOCK:   -1.04 KCAL/MOL
REMARK 927      BINDING AFFINITY PREDICTED BY RF-SCORE:    0.00 PKD
ROOT
HETATM    1 CU   UNL     1      -9.279  13.031  68.959  1.00  0.00    -0.299 Cu 
HETATM    2  O   UNL     2      -7.753  18.097  66.123  1.00  0.00    -0.344 OA 
HETATM    3  C   UNL     2      -8.112  18.284  67.499  1.00  0.00    -0.239 C  
HETATM    4  H   UNL     2      -7.735  18.957  65.720  1.00  0.00     0.000 HD 
HETATM    5  O   UNL     3     -13.720   8.948  73.081  1.00  0.00    -1.009 OA 
HETATM    6  H   UNL     3     -14.411   9.600  73.085  1.00  0.00     0.000 HD 
HETATM    7  C   UNL     3     -12.798   9.263  72.018  1.00  0.00    -0.415 C  
ENDROOT
BRANCH   3   8
HETATM    8  C   UNL     2      -8.142  16.902  68.147  1.00  0.00    -0.201 C  
HETATM    9  O   UNL     2      -7.437  16.940  69.403  1.00  0.00    -0.180 OA 
HETATM   10  H   UNL     2      -7.455  16.080  69.806  1.00  0.00     0.000 HD 
BRANCH   8  11
HETATM   11  C   UNL     2      -9.579  16.374  68.332  1.00  0.00    -0.219 C  
HETATM   12  O   UNL     2     -10.466  17.457  68.039  1.00  0.00    -0.351 OA 
HETATM   13  H   UNL     2     -11.351  17.132  68.153  1.00  0.00     0.000 HD 
BRANCH  11  14
HETATM   14  C   UNL     2      -9.800  15.192  67.367  1.00  0.00    -0.224 C  
HETATM   15  H   UNL     2      -8.637  13.910  66.409  1.00  0.00     0.000 HD 
HETATM   16  O   UNL     2      -8.501  14.638  67.004  1.00  0.00    -0.214 OA 
BRANCH  14  17
HETATM   17  C   UNL     2     -10.656  15.454  66.128  1.00  0.00    -0.316 C  
HETATM   18  C   UNL     2     -11.738  14.350  66.004  1.00  0.00    -0.375 C  
HETATM   19  H   UNL     2     -10.345  15.764  64.209  1.00  0.00     0.000 HD 
HETATM   20  O   UNL     2      -9.813  15.602  64.980  1.00  0.00    -0.322 OA 
HETATM   21  O   UNL     2     -12.346  14.176  67.109  1.00  0.00    -0.370 OA 
HETATM   22  O   UNL     2     -11.875  13.841  64.874  1.00  0.00    -0.344 OA 
ENDBRANCH  14  17
ENDBRANCH  11  14
ENDBRANCH   8  11
ENDBRANCH   3   8
BRANCH   7  23
HETATM   23  C   UNL     3     -11.682   8.211  72.012  1.00  0.00    -0.332 C  
HETATM   24  O   UNL     3     -11.694   7.534  73.286  1.00  0.00    -0.604 OA 
HETATM   25  H   UNL     3     -11.003   6.882  73.282  1.00  0.00     0.000 HD 
BRANCH  23  26
HETATM   26  C   UNL     3     -11.794   7.086  70.964  1.00  0.00    -0.351 C  
HETATM   27  O   UNL     3     -13.156   6.823  70.621  1.00  0.00    -0.369 OA 
HETATM   28  H   UNL     3     -13.225   6.129  69.975  1.00  0.00     0.000 HD 
BRANCH  26  29
HETATM   29  C   UNL     3     -10.969   7.204  69.664  1.00  0.00    -0.212 C  
HETATM   30  O   UNL     3     -11.269   8.401  68.928  1.00  0.00    -0.388 OA 
HETATM   31  H   UNL     3     -10.761   8.473  68.129  1.00  0.00     0.000 HD 
BRANCH  29  32
HETATM   32  C   UNL     3     -11.036   6.030  68.693  1.00  0.00    -0.211 C  
HETATM   33  C   UNL     3      -9.754   5.181  68.637  1.00  0.00    -0.151 C  
HETATM   34  O   UNL     3     -11.271   6.557  67.316  1.00  0.00    -0.592 OA 
HETATM   35  O   UNL     3      -8.956   5.568  67.686  1.00  0.00    -0.110 OA 
HETATM   36  O   UNL     3      -9.788   4.064  69.189  1.00  0.00    -0.153 OA 
HETATM   37  H   UNL     3     -11.312   5.826  66.711  1.00  0.00     0.000 HD 
ENDBRANCH  29  32
ENDBRANCH  26  29
ENDBRANCH  23  26
ENDBRANCH   7  23
TORSDOF 8
ENDMDL
MODEL      133
REMARK 921   NORMALIZED FREE ENERGY PREDICTED BY IDOCK:   -5.35 KCAL/MOL
REMARK 922        TOTAL FREE ENERGY PREDICTED BY IDOCK:   -9.93 KCAL/MOL
REMARK 923 INTER-LIGAND FREE ENERGY PREDICTED BY IDOCK:   -8.53 KCAL/MOL
REMARK 924 INTRA-LIGAND FREE ENERGY PREDICTED BY IDOCK:   -1.41 KCAL/MOL
REMARK 927      BINDING AFFINITY PREDICTED BY RF-SCORE:    0.00 PKD
ROOT
HETATM    1 CU   UNL     1     -11.082   7.618  66.795  1.00  0.00    -0.314 Cu 
HETATM    2  O   UNL     2      -9.898   1.804  67.708  1.00  0.00    -0.397 OA 
HETATM    3  C   UNL     2      -8.932   2.474  66.884  1.00  0.00    -0.136 C  
HETATM    4  H   UNL     2      -9.740   0.871  67.620  1.00  0.00     0.000 HD 
HETATM    5  O   UNL     3     -12.036  13.492  62.556  1.00  0.00    -0.469 OA 
HETATM    6  H   UNL     3     -11.987  12.991  61.750  1.00  0.00     0.000 HD 
HETATM    7  C   UNL     3     -12.269  12.581  63.649  1.00  0.00    -0.550 C  
ENDROOT
BRANCH   3   8
HETATM    8  C   UNL     2      -9.185   3.973  67.026  1.00  0.00    -0.168 C  
HETATM    9  O   UNL     2     -10.574   4.257  66.768  1.00  0.00    -0.141 OA 
HETATM   10  H   UNL     2     -10.731   5.190  66.856  1.00  0.00     0.000 HD 
BRANCH   8  11
HETATM   11  C   UNL     2      -8.755   4.510  68.406  1.00  0.00    -0.099 C  
HETATM   12  O   UNL     2      -7.446   3.998  68.668  1.00  0.00    -0.055 OA 
HETATM   13  H   UNL     2      -7.181   4.328  69.518  1.00  0.00     0.000 HD 
BRANCH  11  14
HETATM   14  C   UNL     2      -8.754   6.051  68.359  1.00  0.00    -0.113 C  
HETATM   15  H   UNL     2      -7.607   7.442  67.544  1.00  0.00     0.000 HD 
HETATM   16  O   UNL     2      -7.608   6.493  67.573  1.00  0.00    -0.100 OA 
BRANCH  14  17
HETATM   17  C   UNL     2      -8.826   6.790  69.696  1.00  0.00    -0.144 C  
HETATM   18  C   UNL     2      -8.678   8.314  69.452  1.00  0.00    -0.142 C  
HETATM   19  H   UNL     2      -7.920   6.690  71.440  1.00  0.00     0.000 HD 
HETATM   20  O   UNL     2      -7.876   6.231  70.610  1.00  0.00    -0.102 OA 
HETATM   21  O   UNL     2      -9.454   8.709  68.523  1.00  0.00    -0.141 OA 
HETATM   22  O   UNL     2      -7.881   8.913  70.200  1.00  0.00    -0.080 OA 
ENDBRANCH  14  17
ENDBRANCH  11  14
ENDBRANCH   8  11
ENDBRANCH   3   8
BRANCH   7  23
HETATM   23  C   UNL     3     -12.348  13.390  64.951  1.00  0.00    -0.412 C  
HETATM   24  O   UNL     3     -12.402  12.463  66.054  1.00  0.00    -0.627 OA 
HETATM   25  H   UNL     3     -12.452  12.964  66.860  1.00  0.00     0.000 HD 
BRANCH  23  26
HETATM   26  C   UNL     3     -11.157  14.314  65.267  1.00  0.00    -0.335 C  
HETATM   27  O   UNL     3      -9.982  13.919  64.555  1.00  0.00    -0.648 OA 
HETATM   28  H   UNL     3      -9.247  14.489  64.750  1.00  0.00     0.000 HD 
BRANCH  26  29
HETATM   29  C   UNL     3     -11.343  15.839  65.107  1.00  0.00    -0.154 C  
HETATM   30  O   UNL     3     -11.643  16.219  63.755  1.00  0.00    -1.539 OA 
HETATM   31  H   UNL     3     -11.758  17.157  63.657  1.00  0.00     0.000 HD 
BRANCH  29  32
HETATM   32  C   UNL     3     -10.208  16.730  65.601  1.00  0.00    -0.236 C  
HETATM   33  C   UNL     3      -9.882  16.570  67.096  1.00  0.00    -0.255 C  
HETATM   34  O   UNL     3     -10.589  18.158  65.388  1.00  0.00    -0.636 OA 
HETATM   35  O   UNL     3     -10.515  17.439  67.828  1.00  0.00    -0.349 OA 
HETATM   36  O   UNL     3      -8.839  15.952  67.387  1.00  0.00    -0.182 OA 
HETATM   37  H   UNL     3      -9.882  18.713  65.695  1.00  0.00     0.000 HD 
ENDBRANCH  29  32
ENDBRANCH  26  29
ENDBRANCH  23  26
ENDBRANCH   7  23
TORSDOF 8
ENDMDL
MODEL      134
REMARK 921   NORMALIZED FREE ENERGY PREDICTED BY IDOCK:   -5.34 KCAL/MOL
REMARK 922        TOTAL FREE ENERGY PREDICTED BY IDOCK:   -9.92 KCAL/MOL
REMARK 923 INTER-LIGAND FREE ENERGY PREDICTED BY IDOCK:   -8.78 KCAL/MOL
REMARK 924 INTRA-LIGAND FREE ENERGY PREDICTED BY IDOCK:   -1.14 KCAL/MOL
REMARK 927      BINDING AFFINITY PREDICTED BY RF-SCORE:    0.00 PKD
ROOT
HETATM    1 CU   UNL     1      -9.621  12.072  68.962  1.00  0.00    -0.220 Cu 
HETATM    2  O   UNL     2      -8.885  18.018  68.590  1.00  0.00    -0.301 OA 
HETATM    3  C   UNL     2     -10.143  17.552  68.079  1.00  0.00    -0.332 C  
HETATM    4  H   UNL     2      -8.782  18.917  68.301  1.00  0.00     0.000 HD 
HETATM    5  O   UNL     3     -11.233   5.513  66.175  1.00  0.00    -0.774 OA 
HETATM    6  H   UNL     3     -11.291   5.841  65.285  1.00  0.00     0.000 HD 
HETATM    7  C   UNL     3     -10.541   6.490  66.979  1.00  0.00    -0.332 C  
ENDROOT
BRANCH   3   8
HETATM    8  C   UNL     2     -10.309  16.108  68.545  1.00  0.00    -0.254 C  
HETATM    9  O   UNL     2      -9.477  15.872  69.697  1.00  0.00    -0.257 OA 
HETATM   10  H   UNL     2      -9.580  14.972  69.986  1.00  0.00     0.000 HD 
BRANCH   8  11
HETATM   11  C   UNL     2     -11.781  15.756  68.841  1.00  0.00    -0.394 C  
HETATM   12  O   UNL     2     -12.234  14.914  67.777  1.00  0.00    -0.545 OA 
HETATM   13  H   UNL     2     -13.140  14.697  67.959  1.00  0.00     0.000 HD 
BRANCH  11  14
HETATM   14  C   UNL     2     -11.852  15.029  70.199  1.00  0.00    -0.314 C  
HETATM   15  H   UNL     2     -11.730  13.149  70.807  1.00  0.00     0.000 HD 
HETATM   16  O   UNL     2     -11.687  13.598  69.971  1.00  0.00    -0.284 OA 
BRANCH  14  17
HETATM   17  C   UNL     2     -13.069  15.312  71.079  1.00  0.00    -0.482 C  
HETATM   18  C   UNL     2     -12.600  15.884  72.441  1.00  0.00    -0.457 C  
HETATM   19  H   UNL     2     -14.642  14.314  71.715  1.00  0.00     0.000 HD 
HETATM   20  O   UNL     2     -13.886  14.138  71.168  1.00  0.00    -0.251 OA 
HETATM   21  O   UNL     2     -11.764  16.830  72.279  1.00  0.00    -0.375 OA 
HETATM   22  O   UNL     2     -13.121  15.381  73.456  1.00  0.00    -0.498 OA 
ENDBRANCH  14  17
ENDBRANCH  11  14
ENDBRANCH   8  11
ENDBRANCH   3   8
BRANCH   7  23
HETATM   23  C   UNL     3     -10.447   5.961  68.416  1.00  0.00    -0.237 C  
HETATM   24  O   UNL     3      -9.432   4.937  68.453  1.00  0.00    -0.125 OA 
HETATM   25  H   UNL     3      -9.374   4.609  69.343  1.00  0.00     0.000 HD 
BRANCH  23  26
HETATM   26  C   UNL     3     -10.030   6.972  69.502  1.00  0.00    -0.162 C  
HETATM   27  O   UNL     3      -8.671   7.385  69.340  1.00  0.00    -0.136 OA 
HETATM   28  H   UNL     3      -8.414   8.008  70.010  1.00  0.00     0.000 HD 
BRANCH  26  29
HETATM   29  C   UNL     3     -10.906   8.225  69.719  1.00  0.00    -0.185 C  
HETATM   30  O   UNL     3     -10.182   9.447  69.502  1.00  0.00    -0.190 OA 
HETATM   31  H   UNL     3     -10.722  10.218  69.636  1.00  0.00     0.000 HD 
BRANCH  29  32
HETATM   32  C   UNL     3     -11.627   8.341  71.058  1.00  0.00    -0.275 C  
HETATM   33  C   UNL     3     -11.026   7.474  72.178  1.00  0.00    -0.250 C  
HETATM   34  O   UNL     3     -13.044   7.904  70.881  1.00  0.00    -0.530 OA 
HETATM   35  O   UNL     3     -11.617   6.320  72.270  1.00  0.00    -0.293 OA 
HETATM   36  O   UNL     3     -10.370   8.062  73.061  1.00  0.00    -0.329 OA 
HETATM   37  H   UNL     3     -13.494   7.976  71.715  1.00  0.00     0.000 HD 
ENDBRANCH  29  32
ENDBRANCH  26  29
ENDBRANCH  23  26
ENDBRANCH   7  23
TORSDOF 8
ENDMDL
MODEL      135
REMARK 921   NORMALIZED FREE ENERGY PREDICTED BY IDOCK:   -5.32 KCAL/MOL
REMARK 922        TOTAL FREE ENERGY PREDICTED BY IDOCK:   -9.88 KCAL/MOL
REMARK 923 INTER-LIGAND FREE ENERGY PREDICTED BY IDOCK:   -8.78 KCAL/MOL
REMARK 924 INTRA-LIGAND FREE ENERGY PREDICTED BY IDOCK:   -1.11 KCAL/MOL
REMARK 927      BINDING AFFINITY PREDICTED BY RF-SCORE:    0.00 PKD
ROOT
HETATM    1 CU   UNL     1     -10.737   9.356  64.860  1.00  0.00    -0.240 Cu 
HETATM    2  O   UNL     2      -9.221   3.552  65.097  1.00  0.00    -0.139 OA 
HETATM    3  C   UNL     2      -9.001   4.263  66.323  1.00  0.00    -0.120 C  
HETATM    4  H   UNL     2      -8.766   2.721  65.171  1.00  0.00     0.000 HD 
HETATM    5  O   UNL     3      -9.426  16.482  65.795  1.00  0.00    -0.484 OA 
HETATM    6  H   UNL     3      -8.512  16.345  66.017  1.00  0.00     0.000 HD 
HETATM    7  C   UNL     3      -9.929  15.288  65.163  1.00  0.00    -0.225 C  
ENDROOT
BRANCH   3   8
HETATM    8  C   UNL     2      -9.732   5.598  66.205  1.00  0.00    -0.135 C  
HETATM    9  O   UNL     2     -11.153   5.368  66.144  1.00  0.00    -0.748 OA 
HETATM   10  H   UNL     2     -11.608   6.199  66.070  1.00  0.00     0.000 HD 
BRANCH   8  11
HETATM   11  C   UNL     2      -9.374   6.564  67.353  1.00  0.00    -0.121 C  
HETATM   12  O   UNL     2      -9.981   7.822  67.049  1.00  0.00    -0.196 OA 
HETATM   13  H   UNL     2      -9.761   8.417  67.756  1.00  0.00     0.000 HD 
BRANCH  11  14
HETATM   14  C   UNL     2      -9.919   5.985  68.674  1.00  0.00    -0.149 C  
HETATM   15  H   UNL     2     -11.657   6.005  69.619  1.00  0.00     0.000 HD 
HETATM   16  O   UNL     2     -11.321   6.362  68.805  1.00  0.00    -0.327 OA 
BRANCH  14  17
HETATM   17  C   UNL     2      -9.139   6.304  69.950  1.00  0.00    -0.144 C  
HETATM   18  C   UNL     2      -9.181   5.081  70.902  1.00  0.00    -0.146 C  
HETATM   19  H   UNL     2      -9.137   7.725  71.312  1.00  0.00     0.000 HD 
HETATM   20  O   UNL     2      -9.622   7.527  70.519  1.00  0.00    -0.168 OA 
HETATM   21  O   UNL     2      -8.881   4.008  70.286  1.00  0.00    -0.078 OA 
HETATM   22  O   UNL     2      -9.454   5.324  72.094  1.00  0.00    -0.142 OA 
ENDBRANCH  14  17
ENDBRANCH  11  14
ENDBRANCH   8  11
ENDBRANCH   3   8
BRANCH   7  23
HETATM   23  C   UNL     3     -11.405  15.510  64.805  1.00  0.00    -0.357 C  
HETATM   24  O   UNL     3     -11.460  16.300  63.599  1.00  0.00    -1.361 OA 
HETATM   25  H   UNL     3     -12.374  16.438  63.377  1.00  0.00     0.000 HD 
BRANCH  23  26
HETATM   26  C   UNL     3     -12.240  14.253  64.494  1.00  0.00    -0.455 C  
HETATM   27  O   UNL     3     -11.827  13.637  63.272  1.00  0.00    -0.719 OA 
HETATM   28  H   UNL     3     -12.343  12.862  63.081  1.00  0.00     0.000 HD 
BRANCH  26  29
HETATM   29  C   UNL     3     -12.365  13.163  65.581  1.00  0.00    -0.461 C  
HETATM   30  O   UNL     3     -12.344  13.706  66.911  1.00  0.00    -0.365 OA 
HETATM   31  H   UNL     3     -12.421  13.035  67.579  1.00  0.00     0.000 HD 
BRANCH  29  32
HETATM   32  C   UNL     3     -11.360  12.017  65.530  1.00  0.00    -0.328 C  
HETATM   33  C   UNL     3     -10.893  11.523  66.910  1.00  0.00    -0.284 C  
HETATM   34  O   UNL     3     -10.143  12.475  64.796  1.00  0.00    -0.363 OA 
HETATM   35  O   UNL     3      -9.794  12.106  67.289  1.00  0.00    -0.194 OA 
HETATM   36  O   UNL     3     -11.345  10.430  67.305  1.00  0.00    -0.327 OA 
HETATM   37  H   UNL     3      -9.517  11.762  64.764  1.00  0.00     0.000 HD 
ENDBRANCH  29  32
ENDBRANCH  26  29
ENDBRANCH  23  26
ENDBRANCH   7  23
TORSDOF 8
ENDMDL
MODEL      136
REMARK 921   NORMALIZED FREE ENERGY PREDICTED BY IDOCK:   -5.28 KCAL/MOL
REMARK 922        TOTAL FREE ENERGY PREDICTED BY IDOCK:   -9.82 KCAL/MOL
REMARK 923 INTER-LIGAND FREE ENERGY PREDICTED BY IDOCK:   -8.33 KCAL/MOL
REMARK 924 INTRA-LIGAND FREE ENERGY PREDICTED BY IDOCK:   -1.49 KCAL/MOL
REMARK 927      BINDING AFFINITY PREDICTED BY RF-SCORE:    0.00 PKD
ROOT
HETATM    1 CU   UNL     1      -8.816  14.298  67.568  1.00  0.00    -0.152 Cu 
HETATM    2  O   UNL     2      -5.935  18.664  64.622  1.00  0.00    -0.318 OA 
HETATM    3  C   UNL     2      -5.888  18.793  66.051  1.00  0.00    -0.162 C  
HETATM    4  H   UNL     2      -5.641  19.490  64.257  1.00  0.00     0.000 HD 
HETATM    5  O   UNL     3     -13.596  11.815  72.505  1.00  0.00    -0.521 OA 
HETATM    6  H   UNL     3     -13.933  12.683  72.700  1.00  0.00     0.000 HD 
HETATM    7  C   UNL     3     -12.869  11.876  71.260  1.00  0.00    -0.290 C  
ENDROOT
BRANCH   3   8
HETATM    8  C   UNL     2      -6.358  17.465  66.637  1.00  0.00    -0.214 C  
HETATM    9  O   UNL     2      -5.281  16.509  66.598  1.00  0.00    -0.351 OA 
HETATM   10  H   UNL     2      -5.574  15.682  66.963  1.00  0.00     0.000 HD 
BRANCH   8  11
HETATM   11  C   UNL     2      -6.909  17.622  68.070  1.00  0.00    -0.193 C  
HETATM   12  O   UNL     2      -6.332  18.811  68.615  1.00  0.00    -0.220 OA 
HETATM   13  H   UNL     2      -6.671  18.908  69.496  1.00  0.00     0.000 HD 
BRANCH  11  14
HETATM   14  C   UNL     2      -8.446  17.727  67.999  1.00  0.00    -0.253 C  
HETATM   15  H   UNL     2      -9.922  16.538  67.432  1.00  0.00     0.000 HD 
HETATM   16  O   UNL     2      -8.976  16.473  67.475  1.00  0.00    -0.194 OA 
BRANCH  14  17
HETATM   17  C   UNL     2      -9.030  18.928  67.254  1.00  0.00    -0.280 C  
HETATM   18  C   UNL     2     -10.232  19.496  68.051  1.00  0.00    -0.437 C  
HETATM   19  H   UNL     2      -9.686  19.308  65.438  1.00  0.00     0.000 HD 
HETATM   20  O   UNL     2      -9.323  18.562  65.900  1.00  0.00    -0.486 OA 
HETATM   21  O   UNL     2      -9.935  19.658  69.278  1.00  0.00    -0.436 OA 
HETATM   22  O   UNL     2     -11.261  19.740  67.391  1.00  0.00    -0.244 OA 
ENDBRANCH  14  17
ENDBRANCH  11  14
ENDBRANCH   8  11
ENDBRANCH   3   8
BRANCH   7  23
HETATM   23  C   UNL     3     -12.325  10.477  70.945  1.00  0.00    -0.390 C  
HETATM   24  O   UNL     3     -13.422   9.659  70.487  1.00  0.00    -0.583 OA 
HETATM   25  H   UNL     3     -13.084   8.792  70.292  1.00  0.00     0.000 HD 
BRANCH  23  26
HETATM   26  C   UNL     3     -11.265  10.379  69.830  1.00  0.00    -0.306 C  
HETATM   27  O   UNL     3     -11.349   9.133  69.134  1.00  0.00    -0.435 OA 
HETATM   28  H   UNL     3     -10.696   9.073  68.447  1.00  0.00     0.000 HD 
BRANCH  26  29
HETATM   29  C   UNL     3     -11.178  11.521  68.794  1.00  0.00    -0.249 C  
HETATM   30  O   UNL     3     -12.268  11.500  67.858  1.00  0.00    -0.586 OA 
HETATM   31  H   UNL     3     -12.214  12.202  67.221  1.00  0.00     0.000 HD 
BRANCH  29  32
HETATM   32  C   UNL     3      -9.882  11.634  67.998  1.00  0.00    -0.190 C  
HETATM   33  C   UNL     3     -10.078  11.674  66.472  1.00  0.00    -0.207 C  
HETATM   34  O   UNL     3      -9.027  10.447  68.297  1.00  0.00    -0.129 OA 
HETATM   35  O   UNL     3      -9.981  10.492  65.938  1.00  0.00    -0.229 OA 
HETATM   36  O   UNL     3      -9.922  12.775  65.908  1.00  0.00    -0.267 OA 
HETATM   37  H   UNL     3      -8.220  10.518  67.801  1.00  0.00     0.000 HD 
ENDBRANCH  29  32
ENDBRANCH  26  29
ENDBRANCH  23  26
ENDBRANCH   7  23
TORSDOF 8
ENDMDL
MODEL      137
REMARK 921   NORMALIZED FREE ENERGY PREDICTED BY IDOCK:   -5.28 KCAL/MOL
REMARK 922        TOTAL FREE ENERGY PREDICTED BY IDOCK:   -9.82 KCAL/MOL
REMARK 923 INTER-LIGAND FREE ENERGY PREDICTED BY IDOCK:   -8.00 KCAL/MOL
REMARK 924 INTRA-LIGAND FREE ENERGY PREDICTED BY IDOCK:   -1.82 KCAL/MOL
REMARK 927      BINDING AFFINITY PREDICTED BY RF-SCORE:    0.00 PKD
ROOT
HETATM    1 CU   UNL     1     -10.749  12.285  68.459  1.00  0.00    -0.184 Cu 
HETATM    2  O   UNL     2     -12.114   6.659  70.050  1.00  0.00    -0.633 OA 
HETATM    3  C   UNL     2     -11.826   7.526  71.157  1.00  0.00    -0.299 C  
HETATM    4  H   UNL     2     -12.110   5.770  70.384  1.00  0.00     0.000 HD 
HETATM    5  O   UNL     3      -6.537  18.254  68.569  1.00  0.00    -0.208 OA 
HETATM    6  H   UNL     3      -5.845  17.828  69.062  1.00  0.00     0.000 HD 
HETATM    7  C   UNL     3      -7.402  17.238  68.021  1.00  0.00    -0.192 C  
ENDROOT
BRANCH   3   8
HETATM    8  C   UNL     2     -11.833   8.955  70.622  1.00  0.00    -0.128 C  
HETATM    9  O   UNL     2     -11.543   9.875  71.693  1.00  0.00    -0.360 OA 
HETATM   10  H   UNL     2     -11.548  10.765  71.359  1.00  0.00     0.000 HD 
BRANCH   8  11
HETATM   11  C   UNL     2     -10.853   9.144  69.446  1.00  0.00    -0.151 C  
HETATM   12  O   UNL     2     -11.529   9.922  68.455  1.00  0.00    -0.512 OA 
HETATM   13  H   UNL     2     -10.926  10.038  67.731  1.00  0.00     0.000 HD 
BRANCH  11  14
HETATM   14  C   UNL     2      -9.594   9.869  69.964  1.00  0.00    -0.214 C  
HETATM   15  H   UNL     2      -8.321  11.194  69.230  1.00  0.00     0.000 HD 
HETATM   16  O   UNL     2      -9.096  10.748  68.912  1.00  0.00    -0.168 OA 
BRANCH  14  17
HETATM   17  C   UNL     2      -8.473   9.000  70.535  1.00  0.00    -0.200 C  
HETATM   18  C   UNL     2      -8.441   7.642  69.788  1.00  0.00    -0.134 C  
HETATM   19  H   UNL     2      -7.917   8.361  72.311  1.00  0.00     0.000 HD 
HETATM   20  O   UNL     2      -8.613   8.902  71.957  1.00  0.00    -0.367 OA 
HETATM   21  O   UNL     2      -8.466   7.810  68.526  1.00  0.00    -0.127 OA 
HETATM   22  O   UNL     2      -8.359   6.624  70.504  1.00  0.00    -0.126 OA 
ENDBRANCH  14  17
ENDBRANCH  11  14
ENDBRANCH   8  11
ENDBRANCH   3   8
BRANCH   7  23
HETATM   23  C   UNL     3      -8.520  17.926  67.225  1.00  0.00    -0.236 C  
HETATM   24  O   UNL     3      -8.041  18.156  65.884  1.00  0.00    -0.514 OA 
HETATM   25  H   UNL     3      -8.733  18.583  65.391  1.00  0.00     0.000 HD 
BRANCH  23  26
HETATM   26  C   UNL     3      -9.832  17.138  67.048  1.00  0.00    -0.276 C  
HETATM   27  O   UNL     3     -10.967  18.008  67.023  1.00  0.00    -0.190 OA 
HETATM   28  H   UNL     3     -11.776  17.521  66.914  1.00  0.00     0.000 HD 
BRANCH  26  29
HETATM   29  C   UNL     3      -9.943  16.145  65.871  1.00  0.00    -0.356 C  
HETATM   30  O   UNL     3     -10.809  16.620  64.829  1.00  0.00    -0.732 OA 
HETATM   31  H   UNL     3     -10.877  16.008  64.105  1.00  0.00     0.000 HD 
BRANCH  29  32
HETATM   32  C   UNL     3     -10.358  14.717  66.209  1.00  0.00    -0.294 C  
HETATM   33  C   UNL     3     -11.835  14.567  66.615  1.00  0.00    -0.366 C  
HETATM   34  O   UNL     3      -9.539  14.235  67.360  1.00  0.00    -0.207 OA 
HETATM   35  O   UNL     3     -11.994  14.626  67.904  1.00  0.00    -0.337 OA 
HETATM   36  O   UNL     3     -12.604  14.050  65.781  1.00  0.00    -0.491 OA 
HETATM   37  H   UNL     3      -9.798  13.346  67.570  1.00  0.00     0.000 HD 
ENDBRANCH  29  32
ENDBRANCH  26  29
ENDBRANCH  23  26
ENDBRANCH   7  23
TORSDOF 8
ENDMDL
MODEL      138
REMARK 921   NORMALIZED FREE ENERGY PREDICTED BY IDOCK:   -5.27 KCAL/MOL
REMARK 922        TOTAL FREE ENERGY PREDICTED BY IDOCK:   -9.81 KCAL/MOL
REMARK 923 INTER-LIGAND FREE ENERGY PREDICTED BY IDOCK:   -8.12 KCAL/MOL
REMARK 924 INTRA-LIGAND FREE ENERGY PREDICTED BY IDOCK:   -1.69 KCAL/MOL
REMARK 927      BINDING AFFINITY PREDICTED BY RF-SCORE:    0.00 PKD
ROOT
HETATM    1 CU   UNL     1     -10.941  11.245  69.419  1.00  0.00    -0.188 Cu 
HETATM    2  O   UNL     2     -11.385   7.029  73.669  1.00  0.00    -0.449 OA 
HETATM    3  C   UNL     2     -11.021   6.520  72.378  1.00  0.00    -0.246 C  
HETATM    4  H   UNL     2     -11.628   6.282  74.205  1.00  0.00     0.000 HD 
HETATM    5  O   UNL     3     -12.442  14.065  62.849  1.00  0.00    -1.028 OA 
HETATM    6  H   UNL     3     -13.082  13.394  62.642  1.00  0.00     0.000 HD 
HETATM    7  C   UNL     3     -12.198  14.044  64.270  1.00  0.00    -0.418 C  
ENDROOT
BRANCH   3   8
HETATM    8  C   UNL     2     -10.629   7.718  71.518  1.00  0.00    -0.213 C  
HETATM    9  O   UNL     2     -11.619   8.756  71.652  1.00  0.00    -0.276 OA 
HETATM   10  H   UNL     2     -11.375   9.502  71.116  1.00  0.00     0.000 HD 
BRANCH   8  11
HETATM   11  C   UNL     2      -9.221   8.247  71.860  1.00  0.00    -0.208 C  
HETATM   12  O   UNL     2      -8.517   7.183  72.505  1.00  0.00    -0.111 OA 
HETATM   13  H   UNL     2      -7.650   7.508  72.715  1.00  0.00     0.000 HD 
BRANCH  11  14
HETATM   14  C   UNL     2      -8.521   8.670  70.552  1.00  0.00    -0.150 C  
HETATM   15  H   UNL     2      -8.793  10.082  69.193  1.00  0.00     0.000 HD 
HETATM   16  O   UNL     2      -9.224   9.821  69.998  1.00  0.00    -0.222 OA 
BRANCH  14  17
HETATM   17  C   UNL     2      -8.310   7.588  69.493  1.00  0.00    -0.131 C  
HETATM   18  C   UNL     2      -6.793   7.306  69.337  1.00  0.00    -0.050 C  
HETATM   19  H   UNL     2      -8.849   7.287  67.624  1.00  0.00     0.000 HD 
HETATM   20  O   UNL     2      -8.980   7.959  68.282  1.00  0.00    -0.133 OA 
HETATM   21  O   UNL     2      -6.239   7.130  70.470  1.00  0.00    -0.031 OA 
HETATM   22  O   UNL     2      -6.362   7.254  68.168  1.00  0.00    -0.041 OA 
ENDBRANCH  14  17
ENDBRANCH  11  14
ENDBRANCH   8  11
ENDBRANCH   3   8
BRANCH   7  23
HETATM   23  C   UNL     3     -11.164  15.128  64.603  1.00  0.00    -0.343 C  
HETATM   24  O   UNL     3     -11.632  16.379  64.058  1.00  0.00    -1.447 OA 
HETATM   25  H   UNL     3     -10.992  17.050  64.265  1.00  0.00     0.000 HD 
BRANCH  23  26
HETATM   26  C   UNL     3     -10.916  15.414  66.097  1.00  0.00    -0.279 C  
HETATM   27  O   UNL     3     -11.160  14.257  66.901  1.00  0.00    -0.298 OA 
HETATM   28  H   UNL     3     -11.007  14.434  67.822  1.00  0.00     0.000 HD 
BRANCH  26  29
HETATM   29  C   UNL     3      -9.564  16.032  66.515  1.00  0.00    -0.261 C  
HETATM   30  O   UNL     3      -8.452  15.168  66.231  1.00  0.00    -0.416 OA 
HETATM   31  H   UNL     3      -7.620  15.549  66.488  1.00  0.00     0.000 HD 
BRANCH  29  32
HETATM   32  C   UNL     3      -9.434  16.498  67.961  1.00  0.00    -0.222 C  
HETATM   33  C   UNL     3      -8.393  17.610  68.177  1.00  0.00    -0.259 C  
HETATM   34  O   UNL     3      -9.016  15.340  68.805  1.00  0.00    -0.178 OA 
HETATM   35  O   UNL     3      -7.232  17.131  68.515  1.00  0.00    -0.199 OA 
HETATM   36  O   UNL     3      -8.825  18.761  68.381  1.00  0.00    -0.322 OA 
HETATM   37  H   UNL     3      -8.934  15.630  69.706  1.00  0.00     0.000 HD 
ENDBRANCH  29  32
ENDBRANCH  26  29
ENDBRANCH  23  26
ENDBRANCH   7  23
TORSDOF 8
ENDMDL
MODEL      139
REMARK 921   NORMALIZED FREE ENERGY PREDICTED BY IDOCK:   -5.24 KCAL/MOL
REMARK 922        TOTAL FREE ENERGY PREDICTED BY IDOCK:   -9.76 KCAL/MOL
REMARK 923 INTER-LIGAND FREE ENERGY PREDICTED BY IDOCK:   -9.30 KCAL/MOL
REMARK 924 INTRA-LIGAND FREE ENERGY PREDICTED BY IDOCK:   -0.47 KCAL/MOL
REMARK 927      BINDING AFFINITY PREDICTED BY RF-SCORE:    0.00 PKD
ROOT
HETATM    1 CU   UNL     1     -10.643   7.870  69.003  1.00  0.00    -0.195 Cu 
HETATM    2  O   UNL     2     -10.139   2.569  71.775  1.00  0.00    -0.160 OA 
HETATM    3  C   UNL     2      -9.704   3.685  72.565  1.00  0.00    -0.146 C  
HETATM    4  H   UNL     2      -9.831   1.782  72.209  1.00  0.00     0.000 HD 
HETATM    5  O   UNL     3      -8.051  14.308  66.719  1.00  0.00    -0.382 OA 
HETATM    6  H   UNL     3      -7.160  14.109  66.984  1.00  0.00     0.000 HD 
HETATM    7  C   UNL     3      -8.801  13.077  66.674  1.00  0.00    -0.073 C  
ENDROOT
BRANCH   3   8
HETATM    8  C   UNL     2     -10.200   4.949  71.868  1.00  0.00    -0.201 C  
HETATM    9  O   UNL     2     -10.403   4.682  70.467  1.00  0.00    -0.185 OA 
HETATM   10  H   UNL     2     -10.712   5.469  70.033  1.00  0.00     0.000 HD 
BRANCH   8  11
HETATM   11  C   UNL     2     -11.482   5.510  72.518  1.00  0.00    -0.244 C  
HETATM   12  O   UNL     2     -11.160   5.831  73.874  1.00  0.00    -0.386 OA 
HETATM   13  H   UNL     2     -11.949   6.176  74.274  1.00  0.00     0.000 HD 
BRANCH  11  14
HETATM   14  C   UNL     2     -11.926   6.762  71.736  1.00  0.00    -0.339 C  
HETATM   15  H   UNL     2     -12.100   7.252  69.827  1.00  0.00     0.000 HD 
HETATM   16  O   UNL     2     -11.827   6.480  70.309  1.00  0.00    -0.413 OA 
BRANCH  14  17
HETATM   17  C   UNL     2     -11.240   8.083  72.087  1.00  0.00    -0.319 C  
HETATM   18  C   UNL     2     -12.264   9.242  71.979  1.00  0.00    -0.348 C  
HETATM   19  H   UNL     2      -9.636   9.065  71.507  1.00  0.00     0.000 HD 
HETATM   20  O   UNL     2     -10.062   8.244  71.289  1.00  0.00    -0.186 OA 
HETATM   21  O   UNL     2     -13.343   8.962  72.594  1.00  0.00    -0.433 OA 
HETATM   22  O   UNL     2     -11.881  10.256  71.362  1.00  0.00    -0.355 OA 
ENDBRANCH  14  17
ENDBRANCH  11  14
ENDBRANCH   8  11
ENDBRANCH   3   8
BRANCH   7  23
HETATM   23  C   UNL     3     -10.239  13.398  66.246  1.00  0.00    -0.298 C  
HETATM   24  O   UNL     3     -10.924  13.984  67.372  1.00  0.00    -0.284 OA 
HETATM   25  H   UNL     3     -11.815  14.183  67.107  1.00  0.00     0.000 HD 
BRANCH  23  26
HETATM   26  C   UNL     3     -10.412  14.417  65.103  1.00  0.00    -0.415 C  
HETATM   27  O   UNL     3     -11.236  13.898  64.056  1.00  0.00    -0.588 OA 
HETATM   28  H   UNL     3     -11.343  14.527  63.352  1.00  0.00     0.000 HD 
BRANCH  26  29
HETATM   29  C   UNL     3     -10.895  15.842  65.452  1.00  0.00    -0.349 C  
HETATM   30  O   UNL     3     -11.171  16.632  64.284  1.00  0.00    -1.314 OA 
HETATM   31  H   UNL     3     -11.468  17.508  64.499  1.00  0.00     0.000 HD 
BRANCH  29  32
HETATM   32  C   UNL     3     -10.003  16.668  66.373  1.00  0.00    -0.302 C  
HETATM   33  C   UNL     3     -10.698  17.891  66.997  1.00  0.00    -0.209 C  
HETATM   34  O   UNL     3      -8.842  17.182  65.586  1.00  0.00    -0.482 OA 
HETATM   35  O   UNL     3     -10.507  18.970  66.297  1.00  0.00    -0.421 OA 
HETATM   36  O   UNL     3     -11.003  17.816  68.204  1.00  0.00    -0.271 OA 
HETATM   37  H   UNL     3      -8.287  17.697  66.159  1.00  0.00     0.000 HD 
ENDBRANCH  29  32
ENDBRANCH  26  29
ENDBRANCH  23  26
ENDBRANCH   7  23
TORSDOF 8
ENDMDL
MODEL      140
REMARK 921   NORMALIZED FREE ENERGY PREDICTED BY IDOCK:   -5.23 KCAL/MOL
REMARK 922        TOTAL FREE ENERGY PREDICTED BY IDOCK:   -9.76 KCAL/MOL
REMARK 923 INTER-LIGAND FREE ENERGY PREDICTED BY IDOCK:   -8.60 KCAL/MOL
REMARK 924 INTRA-LIGAND FREE ENERGY PREDICTED BY IDOCK:   -1.15 KCAL/MOL
REMARK 927      BINDING AFFINITY PREDICTED BY RF-SCORE:    0.00 PKD
ROOT
HETATM    1 CU   UNL     1      -9.723  10.546  68.929  1.00  0.00    -0.143 Cu 
HETATM    2  O   UNL     2      -7.440   6.837  73.061  1.00  0.00    -0.086 OA 
HETATM    3  C   UNL     2      -7.872   8.101  73.586  1.00  0.00    -0.185 C  
HETATM    4  H   UNL     2      -6.917   6.420  73.736  1.00  0.00     0.000 HD 
HETATM    5  O   UNL     3     -10.191  16.968  65.476  1.00  0.00    -0.589 OA 
HETATM    6  H   UNL     3      -9.441  17.333  65.931  1.00  0.00     0.000 HD 
HETATM    7  C   UNL     3     -10.171  15.534  65.636  1.00  0.00    -0.376 C  
ENDROOT
BRANCH   3   8
HETATM    8  C   UNL     2      -8.713   8.773  72.504  1.00  0.00     0.101 C  
HETATM    9  O   UNL     2      -7.876   9.111  71.380  1.00  0.00    -0.310 OA 
HETATM   10  H   UNL     2      -8.400   9.530  70.707  1.00  0.00     0.000 HD 
BRANCH   8  11
HETATM   11  C   UNL     2      -9.906   7.899  72.064  1.00  0.00    -0.192 C  
HETATM   12  O   UNL     2     -10.562   7.454  73.254  1.00  0.00    -0.337 OA 
HETATM   13  H   UNL     2     -11.297   6.916  72.984  1.00  0.00     0.000 HD 
BRANCH  11  14
HETATM   14  C   UNL     2     -10.847   8.751  71.189  1.00  0.00    -0.268 C  
HETATM   15  H   UNL     2     -12.524   9.759  71.481  1.00  0.00     0.000 HD 
HETATM   16  O   UNL     2     -11.944   9.234  72.020  1.00  0.00    -0.364 OA 
BRANCH  14  17
HETATM   17  C   UNL     2     -11.369   8.114  69.901  1.00  0.00     0.065 C  
HETATM   18  C   UNL     2     -11.736   6.632  70.168  1.00  0.00    -0.351 C  
HETATM   19  H   UNL     2     -10.748   7.923  68.043  1.00  0.00     0.000 HD 
HETATM   20  O   UNL     2     -10.424   8.319  68.843  1.00  0.00    -0.221 OA 
HETATM   21  O   UNL     2     -12.458   6.518  71.210  1.00  0.00    -0.283 OA 
HETATM   22  O   UNL     2     -11.320   5.805  69.333  1.00  0.00    -0.247 OA 
ENDBRANCH  14  17
ENDBRANCH  11  14
ENDBRANCH   8  11
ENDBRANCH   3   8
BRANCH   7  23
HETATM   23  C   UNL     3     -11.383  14.945  64.903  1.00  0.00    -0.413 C  
HETATM   24  O   UNL     3     -11.753  15.852  63.843  1.00  0.00    -1.111 OA 
HETATM   25  H   UNL     3     -12.504  15.486  63.389  1.00  0.00     0.000 HD 
BRANCH  23  26
HETATM   26  C   UNL     3     -11.180  13.585  64.207  1.00  0.00    -0.360 C  
HETATM   27  O   UNL     3      -9.804  13.360  63.888  1.00  0.00    -0.660 OA 
HETATM   28  H   UNL     3      -9.679  12.521  63.459  1.00  0.00     0.000 HD 
BRANCH  26  29
HETATM   29  C   UNL     3     -11.745  12.318  64.885  1.00  0.00    -0.352 C  
HETATM   30  O   UNL     3     -13.141  12.439  65.203  1.00  0.00    -0.558 OA 
HETATM   31  H   UNL     3     -13.488  11.659  65.620  1.00  0.00     0.000 HD 
BRANCH  29  32
HETATM   32  C   UNL     3     -11.024  11.821  66.134  1.00  0.00    -0.307 C  
HETATM   33  C   UNL     3      -9.991  10.711  65.868  1.00  0.00    -0.255 C  
HETATM   34  O   UNL     3     -12.032  11.260  67.082  1.00  0.00    -0.470 OA 
HETATM   35  O   UNL     3     -10.501   9.524  66.024  1.00  0.00    -0.146 OA 
HETATM   36  O   UNL     3      -8.788  11.030  65.922  1.00  0.00    -0.188 OA 
HETATM   37  H   UNL     3     -11.583  10.950  67.859  1.00  0.00     0.000 HD 
ENDBRANCH  29  32
ENDBRANCH  26  29
ENDBRANCH  23  26
ENDBRANCH   7  23
TORSDOF 8
ENDMDL
MODEL      141
REMARK 921   NORMALIZED FREE ENERGY PREDICTED BY IDOCK:   -5.22 KCAL/MOL
REMARK 922        TOTAL FREE ENERGY PREDICTED BY IDOCK:   -9.73 KCAL/MOL
REMARK 923 INTER-LIGAND FREE ENERGY PREDICTED BY IDOCK:   -8.17 KCAL/MOL
REMARK 924 INTRA-LIGAND FREE ENERGY PREDICTED BY IDOCK:   -1.56 KCAL/MOL
REMARK 927      BINDING AFFINITY PREDICTED BY RF-SCORE:    0.00 PKD
ROOT
HETATM    1 CU   UNL     1     -10.109  10.926  70.253  1.00  0.00    -0.392 Cu 
HETATM    2  O   UNL     2     -11.274  16.813  70.110  1.00  0.00    -0.446 OA 
HETATM    3  C   UNL     2     -11.128  16.215  68.814  1.00  0.00    -0.354 C  
HETATM    4  H   UNL     2     -11.246  17.755  69.988  1.00  0.00     0.000 HD 
HETATM    5  O   UNL     3      -6.270   4.991  68.405  1.00  0.00    -0.029 OA 
HETATM    6  H   UNL     3      -5.597   5.493  67.960  1.00  0.00     0.000 HD 
HETATM    7  C   UNL     3      -7.027   5.884  69.247  1.00  0.00    -0.064 C  
ENDROOT
BRANCH   3   8
HETATM    8  C   UNL     2     -11.174  14.702  69.010  1.00  0.00    -0.269 C  
HETATM    9  O   UNL     2     -12.544  14.265  69.086  1.00  0.00    -0.525 OA 
HETATM   10  H   UNL     2     -12.573  13.323  69.209  1.00  0.00     0.000 HD 
BRANCH   8  11
HETATM   11  C   UNL     2     -10.410  13.946  67.904  1.00  0.00    -0.240 C  
HETATM   12  O   UNL     2      -9.911  12.740  68.486  1.00  0.00    -0.300 OA 
HETATM   13  H   UNL     2      -9.440  12.274  67.805  1.00  0.00     0.000 HD 
BRANCH  11  14
HETATM   14  C   UNL     2     -11.383  13.648  66.746  1.00  0.00    -0.328 C  
HETATM   15  H   UNL     2     -12.704  12.233  66.335  1.00  0.00     0.000 HD 
HETATM   16  O   UNL     2     -12.104  12.417  67.048  1.00  0.00    -0.549 OA 
BRANCH  14  17
HETATM   17  C   UNL     2     -10.798  13.614  65.333  1.00  0.00    -0.301 C  
HETATM   18  C   UNL     2     -11.950  13.658  64.296  1.00  0.00    -0.445 C  
HETATM   19  H   UNL     2      -9.550  12.474  64.326  1.00  0.00     0.000 HD 
HETATM   20  O   UNL     2      -9.913  12.496  65.203  1.00  0.00    -0.263 OA 
HETATM   21  O   UNL     2     -12.775  14.589  64.564  1.00  0.00    -0.653 OA 
HETATM   22  O   UNL     2     -11.880  12.833  63.364  1.00  0.00    -0.513 OA 
ENDBRANCH  14  17
ENDBRANCH  11  14
ENDBRANCH   8  11
ENDBRANCH   3   8
BRANCH   7  23
HETATM   23  C   UNL     3      -8.113   5.073  69.966  1.00  0.00    -0.074 C  
HETATM   24  O   UNL     3      -7.778   5.016  71.368  1.00  0.00    -0.093 OA 
HETATM   25  H   UNL     3      -8.450   4.514  71.813  1.00  0.00     0.000 HD 
BRANCH  23  26
HETATM   26  C   UNL     3      -9.545   5.641  69.924  1.00  0.00    -0.161 C  
HETATM   27  O   UNL     3     -10.359   4.942  68.978  1.00  0.00    -0.148 OA 
HETATM   28  H   UNL     3     -11.242   5.292  68.953  1.00  0.00     0.000 HD 
BRANCH  26  29
HETATM   29  C   UNL     3     -10.327   5.771  71.250  1.00  0.00    -0.223 C  
HETATM   30  O   UNL     3     -10.652   4.495  71.824  1.00  0.00    -0.099 OA 
HETATM   31  H   UNL     3     -11.133   4.576  72.640  1.00  0.00     0.000 HD 
BRANCH  29  32
HETATM   32  C   UNL     3     -11.600   6.609  71.223  1.00  0.00    -0.323 C  
HETATM   33  C   UNL     3     -11.374   8.111  71.468  1.00  0.00    -0.263 C  
HETATM   34  O   UNL     3     -12.518   6.125  72.296  1.00  0.00    -0.505 OA 
HETATM   35  O   UNL     3     -11.520   8.427  72.722  1.00  0.00    -0.350 OA 
HETATM   36  O   UNL     3     -11.465   8.868  70.482  1.00  0.00    -0.258 OA 
HETATM   37  H   UNL     3     -13.312   6.647  72.280  1.00  0.00     0.000 HD 
ENDBRANCH  29  32
ENDBRANCH  26  29
ENDBRANCH  23  26
ENDBRANCH   7  23
TORSDOF 8
ENDMDL
MODEL      142
REMARK 921   NORMALIZED FREE ENERGY PREDICTED BY IDOCK:   -5.21 KCAL/MOL
REMARK 922        TOTAL FREE ENERGY PREDICTED BY IDOCK:   -9.72 KCAL/MOL
REMARK 923 INTER-LIGAND FREE ENERGY PREDICTED BY IDOCK:   -8.21 KCAL/MOL
REMARK 924 INTRA-LIGAND FREE ENERGY PREDICTED BY IDOCK:   -1.51 KCAL/MOL
REMARK 927      BINDING AFFINITY PREDICTED BY RF-SCORE:    0.00 PKD
ROOT
HETATM    1 CU   UNL     1     -10.143   9.950  68.247  1.00  0.00    -0.141 Cu 
HETATM    2  O   UNL     2      -9.040   4.502  70.514  1.00  0.00    -0.103 OA 
HETATM    3  C   UNL     2      -8.661   5.582  71.379  1.00  0.00    -0.131 C  
HETATM    4  H   UNL     2      -8.642   3.712  70.862  1.00  0.00     0.000 HD 
HETATM    5  O   UNL     3      -8.238  16.764  66.426  1.00  0.00    -0.260 OA 
HETATM    6  H   UNL     3      -7.320  16.625  66.632  1.00  0.00     0.000 HD 
HETATM    7  C   UNL     3      -8.881  15.479  66.306  1.00  0.00    -0.303 C  
ENDROOT
BRANCH   3   8
HETATM    8  C   UNL     2      -9.300   6.850  70.820  1.00  0.00    -0.161 C  
HETATM    9  O   UNL     2      -9.102   6.904  69.393  1.00  0.00    -0.141 OA 
HETATM   10  H   UNL     2      -9.499   7.694  69.046  1.00  0.00     0.000 HD 
BRANCH   8  11
HETATM   11  C   UNL     2     -10.797   6.957  71.177  1.00  0.00    -0.240 C  
HETATM   12  O   UNL     2     -10.925   6.610  72.558  1.00  0.00    -0.229 OA 
HETATM   13  H   UNL     2     -11.847   6.675  72.778  1.00  0.00     0.000 HD 
BRANCH  11  14
HETATM   14  C   UNL     2     -11.266   8.402  70.917  1.00  0.00    -0.262 C  
HETATM   15  H   UNL     2     -10.498  10.208  71.175  1.00  0.00     0.000 HD 
HETATM   16  O   UNL     2     -10.210   9.317  71.335  1.00  0.00    -0.320 OA 
BRANCH  14  17
HETATM   17  C   UNL     2     -12.618   8.813  71.501  1.00  0.00    -0.326 C  
HETATM   18  C   UNL     2     -12.899  10.298  71.157  1.00  0.00    -0.408 C  
HETATM   19  H   UNL     2     -13.496   8.757  73.261  1.00  0.00     0.000 HD 
HETATM   20  O   UNL     2     -12.656   8.501  72.898  1.00  0.00    -0.266 OA 
HETATM   21  O   UNL     2     -12.702  10.530  69.921  1.00  0.00    -0.209 OA 
HETATM   22  O   UNL     2     -13.301  11.012  72.097  1.00  0.00    -0.451 OA 
ENDBRANCH  14  17
ENDBRANCH  11  14
ENDBRANCH   8  11
ENDBRANCH   3   8
BRANCH   7  23
HETATM   23  C   UNL     3     -10.362  15.704  65.973  1.00  0.00    -0.335 C  
HETATM   24  O   UNL     3     -10.469  16.911  65.192  1.00  0.00    -0.663 OA 
HETATM   25  H   UNL     3     -11.386  17.051  64.985  1.00  0.00     0.000 HD 
BRANCH  23  26
HETATM   26  C   UNL     3     -11.054  14.620  65.124  1.00  0.00    -0.377 C  
HETATM   27  O   UNL     3     -10.141  14.002  64.214  1.00  0.00    -0.697 OA 
HETATM   28  H   UNL     3     -10.568  13.333  63.691  1.00  0.00     0.000 HD 
BRANCH  26  29
HETATM   29  C   UNL     3     -11.855  13.515  65.848  1.00  0.00    -0.372 C  
HETATM   30  O   UNL     3     -12.977  14.038  66.578  1.00  0.00    -0.372 OA 
HETATM   31  H   UNL     3     -13.469  13.358  67.024  1.00  0.00     0.000 HD 
BRANCH  29  32
HETATM   32  C   UNL     3     -11.076  12.597  66.784  1.00  0.00    -0.277 C  
HETATM   33  C   UNL     3     -10.090  11.656  66.071  1.00  0.00    -0.224 C  
HETATM   34  O   UNL     3     -12.043  11.734  67.527  1.00  0.00    -0.599 OA 
HETATM   35  O   UNL     3     -10.620  10.495  65.818  1.00  0.00    -0.176 OA 
HETATM   36  O   UNL     3      -8.877  11.930  66.161  1.00  0.00    -0.166 OA 
HETATM   37  H   UNL     3     -11.558  11.162  68.110  1.00  0.00     0.000 HD 
ENDBRANCH  29  32
ENDBRANCH  26  29
ENDBRANCH  23  26
ENDBRANCH   7  23
TORSDOF 8
ENDMDL
MODEL      143
REMARK 921   NORMALIZED FREE ENERGY PREDICTED BY IDOCK:   -5.21 KCAL/MOL
REMARK 922        TOTAL FREE ENERGY PREDICTED BY IDOCK:   -9.72 KCAL/MOL
REMARK 923 INTER-LIGAND FREE ENERGY PREDICTED BY IDOCK:   -8.04 KCAL/MOL
REMARK 924 INTRA-LIGAND FREE ENERGY PREDICTED BY IDOCK:   -1.68 KCAL/MOL
REMARK 927      BINDING AFFINITY PREDICTED BY RF-SCORE:    0.00 PKD
ROOT
HETATM    1 CU   UNL     1      -9.561   9.648  65.516  1.00  0.00    -0.160 Cu 
HETATM    2  O   UNL     2      -7.899   3.998  64.354  1.00  0.00    -0.083 OA 
HETATM    3  C   UNL     2      -7.981   4.307  65.753  1.00  0.00    -0.095 C  
HETATM    4  H   UNL     2      -7.438   3.171  64.277  1.00  0.00     0.000 HD 
HETATM    5  O   UNL     3      -8.776  16.137  68.780  1.00  0.00    -0.213 OA 
HETATM    6  H   UNL     3      -7.927  15.915  69.147  1.00  0.00     0.000 HD 
HETATM    7  C   UNL     3      -9.080  15.198  67.729  1.00  0.00    -0.179 C  
ENDROOT
BRANCH   3   8
HETATM    8  C   UNL     2      -8.722   5.635  65.877  1.00  0.00    -0.147 C  
HETATM    9  O   UNL     2      -8.929   6.199  64.567  1.00  0.00    -0.310 OA 
HETATM   10  H   UNL     2      -9.390   7.026  64.644  1.00  0.00     0.000 HD 
BRANCH   8  11
HETATM   11  C   UNL     2     -10.057   5.491  66.636  1.00  0.00    -0.209 C  
HETATM   12  O   UNL     2     -10.275   4.093  66.842  1.00  0.00    -0.271 OA 
HETATM   13  H   UNL     2     -11.096   4.004  67.310  1.00  0.00     0.000 HD 
BRANCH  11  14
HETATM   14  C   UNL     2      -9.946   6.244  67.978  1.00  0.00    -0.137 C  
HETATM   15  H   UNL     2     -11.131   6.548  69.533  1.00  0.00     0.000 HD 
HETATM   16  O   UNL     2     -11.199   6.085  68.706  1.00  0.00    -0.331 OA 
BRANCH  14  17
HETATM   17  C   UNL     2      -9.521   7.711  67.921  1.00  0.00    -0.143 C  
HETATM   18  C   UNL     2      -9.228   8.220  69.356  1.00  0.00    -0.155 C  
HETATM   19  H   UNL     2     -10.235   9.383  67.166  1.00  0.00     0.000 HD 
HETATM   20  O   UNL     2     -10.499   8.471  67.201  1.00  0.00    -0.290 OA 
HETATM   21  O   UNL     2      -8.467   7.415  69.983  1.00  0.00    -0.135 OA 
HETATM   22  O   UNL     2      -9.729   9.321  69.660  1.00  0.00    -0.167 OA 
ENDBRANCH  14  17
ENDBRANCH  11  14
ENDBRANCH   8  11
ENDBRANCH   3   8
BRANCH   7  23
HETATM   23  C   UNL     3     -10.450  15.556  67.137  1.00  0.00    -0.286 C  
HETATM   24  O   UNL     3     -10.234  16.340  65.946  1.00  0.00    -0.328 OA 
HETATM   25  H   UNL     3     -11.082  16.562  65.579  1.00  0.00     0.000 HD 
BRANCH  23  26
HETATM   26  C   UNL     3     -11.338  14.382  66.683  1.00  0.00    -0.353 C  
HETATM   27  O   UNL     3     -12.236  13.972  67.718  1.00  0.00    -0.506 OA 
HETATM   28  H   UNL     3     -12.784  13.248  67.438  1.00  0.00     0.000 HD 
BRANCH  26  29
HETATM   29  C   UNL     3     -12.132  14.523  65.366  1.00  0.00    -0.317 C  
HETATM   30  O   UNL     3     -13.522  14.198  65.523  1.00  0.00    -0.710 OA 
HETATM   31  H   UNL     3     -14.010  14.285  64.712  1.00  0.00     0.000 HD 
BRANCH  29  32
HETATM   32  C   UNL     3     -11.607  13.756  64.157  1.00  0.00    -0.331 C  
HETATM   33  C   UNL     3     -11.983  12.264  64.143  1.00  0.00    -0.432 C  
HETATM   34  O   UNL     3     -10.116  13.830  64.149  1.00  0.00    -0.729 OA 
HETATM   35  O   UNL     3     -11.054  11.523  64.672  1.00  0.00    -0.306 OA 
HETATM   36  O   UNL     3     -12.869  11.909  63.341  1.00  0.00    -0.715 OA 
HETATM   37  H   UNL     3      -9.789  13.351  63.396  1.00  0.00     0.000 HD 
ENDBRANCH  29  32
ENDBRANCH  26  29
ENDBRANCH  23  26
ENDBRANCH   7  23
TORSDOF 8
ENDMDL
MODEL      144
REMARK 921   NORMALIZED FREE ENERGY PREDICTED BY IDOCK:   -5.20 KCAL/MOL
REMARK 922        TOTAL FREE ENERGY PREDICTED BY IDOCK:   -9.71 KCAL/MOL
REMARK 923 INTER-LIGAND FREE ENERGY PREDICTED BY IDOCK:   -8.91 KCAL/MOL
REMARK 924 INTRA-LIGAND FREE ENERGY PREDICTED BY IDOCK:   -0.80 KCAL/MOL
REMARK 927      BINDING AFFINITY PREDICTED BY RF-SCORE:    0.00 PKD
ROOT
HETATM    1 CU   UNL     1      -9.557  11.744  69.670  1.00  0.00    -0.391 Cu 
HETATM    2  O   UNL     2      -9.141   7.860  74.229  1.00  0.00    -0.418 OA 
HETATM    3  C   UNL     2      -9.028   7.254  72.934  1.00  0.00    -0.134 C  
HETATM    4  H   UNL     2      -9.271   7.158  74.856  1.00  0.00     0.000 HD 
HETATM    5  O   UNL     3     -12.315  14.074  63.319  1.00  0.00    -1.133 OA 
HETATM    6  H   UNL     3     -12.977  13.393  63.290  1.00  0.00     0.000 HD 
HETATM    7  C   UNL     3     -11.802  14.157  64.664  1.00  0.00    -0.431 C  
ENDROOT
BRANCH   3   8
HETATM    8  C   UNL     2      -8.818   8.382  71.927  1.00  0.00    -0.203 C  
HETATM    9  O   UNL     2      -7.410   8.549  71.673  1.00  0.00    -0.087 OA 
HETATM   10  H   UNL     2      -7.279   9.252  71.046  1.00  0.00     0.000 HD 
BRANCH   8  11
HETATM   11  C   UNL     2      -9.595   8.147  70.616  1.00  0.00    -0.166 C  
HETATM   12  O   UNL     2      -8.882   7.153  69.876  1.00  0.00    -0.141 OA 
HETATM   13  H   UNL     2      -9.360   7.008  69.069  1.00  0.00     0.000 HD 
BRANCH  11  14
HETATM   14  C   UNL     2     -11.020   7.671  70.964  1.00  0.00    -0.248 C  
HETATM   15  H   UNL     2     -12.256   6.284  70.282  1.00  0.00     0.000 HD 
HETATM   16  O   UNL     2     -11.378   6.578  70.068  1.00  0.00    -0.352 OA 
BRANCH  14  17
HETATM   17  C   UNL     2     -12.119   8.733  71.008  1.00  0.00    -0.225 C  
HETATM   18  C   UNL     2     -11.647   9.998  70.246  1.00  0.00    -0.280 C  
HETATM   19  H   UNL     2     -13.201   9.621  72.392  1.00  0.00     0.000 HD 
HETATM   20  O   UNL     2     -12.518   8.961  72.365  1.00  0.00    -0.375 OA 
HETATM   21  O   UNL     2     -11.171   9.696  69.105  1.00  0.00    -0.149 OA 
HETATM   22  O   UNL     2     -11.832  11.087  70.824  1.00  0.00    -0.329 OA 
ENDBRANCH  14  17
ENDBRANCH  11  14
ENDBRANCH   8  11
ENDBRANCH   3   8
BRANCH   7  23
HETATM   23  C   UNL     3     -10.732  15.256  64.710  1.00  0.00    -0.317 C  
HETATM   24  O   UNL     3     -11.348  16.500  64.315  1.00  0.00    -1.249 OA 
HETATM   25  H   UNL     3     -10.685  17.181  64.344  1.00  0.00     0.000 HD 
BRANCH  23  26
HETATM   26  C   UNL     3     -10.096  15.548  66.083  1.00  0.00    -0.309 C  
HETATM   27  O   UNL     3     -10.026  16.952  66.342  1.00  0.00    -0.281 OA 
HETATM   28  H   UNL     3      -9.634  17.131  67.189  1.00  0.00     0.000 HD 
BRANCH  26  29
HETATM   29  C   UNL     3     -10.675  14.843  67.329  1.00  0.00    -0.294 C  
HETATM   30  O   UNL     3     -12.068  15.131  67.528  1.00  0.00    -0.377 OA 
HETATM   31  H   UNL     3     -12.424  14.696  68.294  1.00  0.00     0.000 HD 
BRANCH  29  32
HETATM   32  C   UNL     3      -9.957  15.078  68.654  1.00  0.00    -0.220 C  
HETATM   33  C   UNL     3      -8.434  14.861  68.596  1.00  0.00    -0.166 C  
HETATM   34  O   UNL     3     -10.494  14.125  69.670  1.00  0.00    -0.437 OA 
HETATM   35  O   UNL     3      -8.101  13.653  68.945  1.00  0.00    -0.049 OA 
HETATM   36  O   UNL     3      -7.715  15.879  68.611  1.00  0.00    -0.143 OA 
HETATM   37  H   UNL     3     -10.047  14.272  70.495  1.00  0.00     0.000 HD 
ENDBRANCH  29  32
ENDBRANCH  26  29
ENDBRANCH  23  26
ENDBRANCH   7  23
TORSDOF 8
ENDMDL
MODEL      145
REMARK 921   NORMALIZED FREE ENERGY PREDICTED BY IDOCK:   -5.19 KCAL/MOL
REMARK 922        TOTAL FREE ENERGY PREDICTED BY IDOCK:   -9.69 KCAL/MOL
REMARK 923 INTER-LIGAND FREE ENERGY PREDICTED BY IDOCK:   -7.62 KCAL/MOL
REMARK 924 INTRA-LIGAND FREE ENERGY PREDICTED BY IDOCK:   -2.07 KCAL/MOL
REMARK 927      BINDING AFFINITY PREDICTED BY RF-SCORE:    0.00 PKD
ROOT
HETATM    1 CU   UNL     1     -10.706   9.622  72.281  1.00  0.00    -0.306 Cu 
HETATM    2  O   UNL     2      -9.861   3.810  73.521  1.00  0.00    -0.109 OA 
HETATM    3  C   UNL     2     -11.239   4.179  73.364  1.00  0.00    -0.244 C  
HETATM    4  H   UNL     2      -9.847   2.944  73.912  1.00  0.00     0.000 HD 
HETATM    5  O   UNL     3     -13.807  16.144  73.391  1.00  0.00    -0.832 OA 
HETATM    6  H   UNL     3     -14.245  15.865  74.187  1.00  0.00     0.000 HD 
HETATM    7  C   UNL     3     -12.767  15.194  73.084  1.00  0.00    -0.481 C  
ENDROOT
BRANCH   3   8
HETATM    8  C   UNL     2     -11.262   5.570  72.736  1.00  0.00    -0.305 C  
HETATM    9  O   UNL     2     -11.364   6.567  73.770  1.00  0.00    -0.273 OA 
HETATM   10  H   UNL     2     -11.379   7.433  73.379  1.00  0.00     0.000 HD 
BRANCH   8  11
HETATM   11  C   UNL     2     -10.035   5.825  71.837  1.00  0.00    -0.177 C  
HETATM   12  O   UNL     2     -10.001   4.778  70.864  1.00  0.00    -0.193 OA 
HETATM   13  H   UNL     2      -9.245   4.935  70.311  1.00  0.00     0.000 HD 
BRANCH  11  14
HETATM   14  C   UNL     2     -10.190   7.206  71.169  1.00  0.00    -0.191 C  
HETATM   15  H   UNL     2     -11.693   8.438  70.796  1.00  0.00     0.000 HD 
HETATM   16  O   UNL     2     -11.597   7.587  71.207  1.00  0.00    -0.267 OA 
BRANCH  14  17
HETATM   17  C   UNL     2      -9.611   7.370  69.763  1.00  0.00    -0.163 C  
HETATM   18  C   UNL     2      -9.279   8.863  69.511  1.00  0.00    -0.150 C  
HETATM   19  H   UNL     2     -10.136   6.881  67.930  1.00  0.00     0.000 HD 
HETATM   20  O   UNL     2     -10.496   6.779  68.803  1.00  0.00    -0.185 OA 
HETATM   21  O   UNL     2      -8.614   9.356  70.479  1.00  0.00    -0.206 OA 
HETATM   22  O   UNL     2      -9.663   9.334  68.423  1.00  0.00    -0.149 OA 
ENDBRANCH  14  17
ENDBRANCH  11  14
ENDBRANCH   8  11
ENDBRANCH   3   8
BRANCH   7  23
HETATM   23  C   UNL     3     -12.060  15.644  71.798  1.00  0.00    -0.431 C  
HETATM   24  O   UNL     3     -10.697  15.173  71.847  1.00  0.00    -0.360 OA 
HETATM   25  H   UNL     3     -10.259  15.452  71.051  1.00  0.00     0.000 HD 
BRANCH  23  26
HETATM   26  C   UNL     3     -12.621  15.099  70.471  1.00  0.00    -0.380 C  
HETATM   27  O   UNL     3     -13.932  15.603  70.208  1.00  0.00    -0.419 OA 
HETATM   28  H   UNL     3     -14.278  15.267  69.389  1.00  0.00     0.000 HD 
BRANCH  26  29
HETATM   29  C   UNL     3     -11.767  15.249  69.192  1.00  0.00    -0.335 C  
HETATM   30  O   UNL     3     -12.535  15.710  68.069  1.00  0.00    -0.061 OA 
HETATM   31  H   UNL     3     -12.009  15.802  67.282  1.00  0.00     0.000 HD 
BRANCH  29  32
HETATM   32  C   UNL     3     -10.971  14.028  68.744  1.00  0.00    -0.262 C  
HETATM   33  C   UNL     3     -11.690  12.686  68.971  1.00  0.00    -0.318 C  
HETATM   34  O   UNL     3      -9.695  13.974  69.517  1.00  0.00    -0.269 OA 
HETATM   35  O   UNL     3     -11.361  12.143  70.106  1.00  0.00    -0.074 OA 
HETATM   36  O   UNL     3     -12.157  12.115  67.966  1.00  0.00    -0.478 OA 
HETATM   37  H   UNL     3      -9.199  13.213  69.238  1.00  0.00     0.000 HD 
ENDBRANCH  29  32
ENDBRANCH  26  29
ENDBRANCH  23  26
ENDBRANCH   7  23
TORSDOF 8
ENDMDL
MODEL      146
REMARK 921   NORMALIZED FREE ENERGY PREDICTED BY IDOCK:   -5.18 KCAL/MOL
REMARK 922        TOTAL FREE ENERGY PREDICTED BY IDOCK:   -9.68 KCAL/MOL
REMARK 923 INTER-LIGAND FREE ENERGY PREDICTED BY IDOCK:   -7.64 KCAL/MOL
REMARK 924 INTRA-LIGAND FREE ENERGY PREDICTED BY IDOCK:   -2.04 KCAL/MOL
REMARK 927      BINDING AFFINITY PREDICTED BY RF-SCORE:    0.00 PKD
ROOT
HETATM    1 CU   UNL     1      -9.137  13.434  67.791  1.00  0.00    -0.156 Cu 
HETATM    2  O   UNL     2      -8.812  19.132  65.929  1.00  0.00    -0.450 OA 
HETATM    3  C   UNL     2      -7.545  18.561  66.287  1.00  0.00    -0.255 C  
HETATM    4  H   UNL     2      -8.684  20.071  65.853  1.00  0.00     0.000 HD 
HETATM    5  O   UNL     3      -7.769   8.027  72.511  1.00  0.00    -0.103 OA 
HETATM    6  H   UNL     3      -7.394   8.611  73.160  1.00  0.00     0.000 HD 
HETATM    7  C   UNL     3      -8.516   8.817  71.563  1.00  0.00    -0.167 C  
ENDROOT
BRANCH   3   8
HETATM    8  C   UNL     2      -7.750  17.054  66.408  1.00  0.00    -0.315 C  
HETATM    9  O   UNL     2      -6.477  16.405  66.593  1.00  0.00    -0.277 OA 
HETATM   10  H   UNL     2      -6.605  15.466  66.668  1.00  0.00     0.000 HD 
BRANCH   8  11
HETATM   11  C   UNL     2      -8.731  16.686  67.540  1.00  0.00    -0.190 C  
HETATM   12  O   UNL     2      -8.861  17.841  68.374  1.00  0.00    -0.273 OA 
HETATM   13  H   UNL     2      -9.465  17.615  69.072  1.00  0.00     0.000 HD 
BRANCH  11  14
HETATM   14  C   UNL     2     -10.083  16.292  66.915  1.00  0.00    -0.278 C  
HETATM   15  H   UNL     2     -11.613  15.155  67.449  1.00  0.00     0.000 HD 
HETATM   16  O   UNL     2     -10.779  15.399  67.834  1.00  0.00    -0.270 OA 
BRANCH  14  17
HETATM   17  C   UNL     2     -10.056  15.716  65.498  1.00  0.00    -0.362 C  
HETATM   18  C   UNL     2     -11.231  16.306  64.678  1.00  0.00    -0.254 C  
HETATM   19  H   UNL     2     -10.004  13.928  64.678  1.00  0.00     0.000 HD 
HETATM   20  O   UNL     2     -10.021  14.286  65.558  1.00  0.00    -0.334 OA 
HETATM   21  O   UNL     2     -11.283  17.573  64.793  1.00  0.00    -0.878 OA 
HETATM   22  O   UNL     2     -11.904  15.489  64.019  1.00  0.00    -0.467 OA 
ENDBRANCH  14  17
ENDBRANCH  11  14
ENDBRANCH   8  11
ENDBRANCH   3   8
BRANCH   7  23
HETATM   23  C   UNL     3      -9.123   7.875  70.515  1.00  0.00    -0.154 C  
HETATM   24  O   UNL     3      -8.165   7.712  69.448  1.00  0.00    -0.125 OA 
HETATM   25  H   UNL     3      -8.541   7.128  68.799  1.00  0.00     0.000 HD 
BRANCH  23  26
HETATM   26  C   UNL     3      -9.450   6.441  70.976  1.00  0.00    -0.171 C  
HETATM   27  O   UNL     3     -10.357   6.440  72.082  1.00  0.00    -0.187 OA 
HETATM   28  H   UNL     3     -10.559   5.556  72.366  1.00  0.00     0.000 HD 
BRANCH  26  29
HETATM   29  C   UNL     3      -9.948   5.424  69.926  1.00  0.00    -0.224 C  
HETATM   30  O   UNL     3      -8.896   4.968  69.060  1.00  0.00    -0.091 OA 
HETATM   31  H   UNL     3      -9.203   4.342  68.414  1.00  0.00     0.000 HD 
BRANCH  29  32
HETATM   32  C   UNL     3     -11.121   5.851  69.051  1.00  0.00    -0.225 C  
HETATM   33  C   UNL     3     -10.716   6.392  67.669  1.00  0.00    -0.311 C  
HETATM   34  O   UNL     3     -11.868   6.942  69.744  1.00  0.00    -0.613 OA 
HETATM   35  O   UNL     3     -10.599   7.687  67.668  1.00  0.00    -0.241 OA 
HETATM   36  O   UNL     3     -10.915   5.650  66.687  1.00  0.00    -0.263 OA 
HETATM   37  H   UNL     3     -12.599   7.209  69.199  1.00  0.00     0.000 HD 
ENDBRANCH  29  32
ENDBRANCH  26  29
ENDBRANCH  23  26
ENDBRANCH   7  23
TORSDOF 8
ENDMDL
MODEL      147
REMARK 921   NORMALIZED FREE ENERGY PREDICTED BY IDOCK:   -5.17 KCAL/MOL
REMARK 922        TOTAL FREE ENERGY PREDICTED BY IDOCK:   -9.66 KCAL/MOL
REMARK 923 INTER-LIGAND FREE ENERGY PREDICTED BY IDOCK:   -9.50 KCAL/MOL
REMARK 924 INTRA-LIGAND FREE ENERGY PREDICTED BY IDOCK:   -0.16 KCAL/MOL
REMARK 927      BINDING AFFINITY PREDICTED BY RF-SCORE:    0.00 PKD
ROOT
HETATM    1 CU   UNL     1      -9.816  11.859  69.534  1.00  0.00    -0.387 Cu 
HETATM    2  O   UNL     2      -9.392   7.908  74.034  1.00  0.00    -0.373 OA 
HETATM    3  C   UNL     2      -9.218   7.331  72.732  1.00  0.00    -0.143 C  
HETATM    4  H   UNL     2      -9.515   7.189  74.644  1.00  0.00     0.000 HD 
HETATM    5  O   UNL     3     -12.465  14.204  63.142  1.00  0.00    -1.126 OA 
HETATM    6  H   UNL     3     -13.101  13.500  63.081  1.00  0.00     0.000 HD 
HETATM    7  C   UNL     3     -11.997  14.281  64.504  1.00  0.00    -0.462 C  
ENDROOT
BRANCH   3   8
HETATM    8  C   UNL     2      -9.020   8.485  71.753  1.00  0.00    -0.220 C  
HETATM    9  O   UNL     2      -7.616   8.643  71.467  1.00  0.00    -0.100 OA 
HETATM   10  H   UNL     2      -7.494   9.361  70.857  1.00  0.00     0.000 HD 
BRANCH   8  11
HETATM   11  C   UNL     2      -9.833   8.296  70.456  1.00  0.00    -0.183 C  
HETATM   12  O   UNL     2     -10.408   9.565  70.131  1.00  0.00    -0.218 OA 
HETATM   13  H   UNL     2     -10.908   9.449  69.333  1.00  0.00     0.000 HD 
BRANCH  11  14
HETATM   14  C   UNL     2      -8.883   7.810  69.343  1.00  0.00    -0.139 C  
HETATM   15  H   UNL     2      -7.992   8.637  67.781  1.00  0.00     0.000 HD 
HETATM   16  O   UNL     2      -8.578   8.936  68.467  1.00  0.00    -0.131 OA 
BRANCH  14  17
HETATM   17  C   UNL     2      -9.320   6.586  68.538  1.00  0.00    -0.123 C  
HETATM   18  C   UNL     2     -10.317   5.745  69.376  1.00  0.00    -0.262 C  
HETATM   19  H   UNL     2      -8.438   5.110  67.579  1.00  0.00     0.000 HD 
HETATM   20  O   UNL     2      -8.166   5.871  68.079  1.00  0.00    -0.104 OA 
HETATM   21  O   UNL     2     -11.233   6.477  69.871  1.00  0.00    -0.329 OA 
HETATM   22  O   UNL     2     -10.105   4.517  69.409  1.00  0.00    -0.193 OA 
ENDBRANCH  14  17
ENDBRANCH  11  14
ENDBRANCH   8  11
ENDBRANCH   3   8
BRANCH   7  23
HETATM   23  C   UNL     3     -10.971  15.418  64.603  1.00  0.00    -0.314 C  
HETATM   24  O   UNL     3     -11.513  16.573  63.929  1.00  0.00    -1.608 OA 
HETATM   25  H   UNL     3     -10.878  17.277  63.990  1.00  0.00     0.000 HD 
BRANCH  23  26
HETATM   26  C   UNL     3     -10.621  15.915  66.019  1.00  0.00    -0.323 C  
HETATM   27  O   UNL     3     -10.911  14.925  67.009  1.00  0.00    -0.301 OA 
HETATM   28  H   UNL     3     -10.694  15.232  67.882  1.00  0.00     0.000 HD 
BRANCH  26  29
HETATM   29  C   UNL     3      -9.203  16.472  66.275  1.00  0.00    -0.310 C  
HETATM   30  O   UNL     3      -8.493  15.730  67.280  1.00  0.00    -0.167 OA 
HETATM   31  H   UNL     3      -7.621  16.073  67.438  1.00  0.00     0.000 HD 
BRANCH  29  32
HETATM   32  C   UNL     3      -9.095  17.952  66.625  1.00  0.00    -0.267 C  
HETATM   33  C   UNL     3     -10.404  18.741  66.450  1.00  0.00    -0.439 C  
HETATM   34  O   UNL     3      -8.081  18.586  65.730  1.00  0.00    -0.490 OA 
HETATM   35  O   UNL     3     -10.480  19.304  65.280  1.00  0.00    -0.342 OA 
HETATM   36  O   UNL     3     -11.015  19.066  67.487  1.00  0.00    -0.443 OA 
HETATM   37  H   UNL     3      -8.013  19.508  65.947  1.00  0.00     0.000 HD 
ENDBRANCH  29  32
ENDBRANCH  26  29
ENDBRANCH  23  26
ENDBRANCH   7  23
TORSDOF 8
ENDMDL
MODEL      148
REMARK 921   NORMALIZED FREE ENERGY PREDICTED BY IDOCK:   -5.16 KCAL/MOL
REMARK 922        TOTAL FREE ENERGY PREDICTED BY IDOCK:   -9.65 KCAL/MOL
REMARK 923 INTER-LIGAND FREE ENERGY PREDICTED BY IDOCK:   -7.48 KCAL/MOL
REMARK 924 INTRA-LIGAND FREE ENERGY PREDICTED BY IDOCK:   -2.16 KCAL/MOL
REMARK 927      BINDING AFFINITY PREDICTED BY RF-SCORE:    0.00 PKD
ROOT
HETATM    1 CU   UNL     1     -10.320   8.854  65.363  1.00  0.00    -0.433 Cu 
HETATM    2  O   UNL     2     -12.168  14.536  64.786  1.00  0.00    -0.428 OA 
HETATM    3  C   UNL     2     -12.273  13.763  63.582  1.00  0.00    -0.256 C  
HETATM    4  H   UNL     2     -12.282  15.448  64.543  1.00  0.00     0.000 HD 
HETATM    5  O   UNL     3      -6.377   3.042  63.351  1.00  0.00    -0.021 OA 
HETATM    6  H   UNL     3      -5.896   3.524  62.688  1.00  0.00     0.000 HD 
HETATM    7  C   UNL     3      -7.006   3.987  64.240  1.00  0.00    -0.046 C  
ENDROOT
BRANCH   3   8
HETATM    8  C   UNL     2     -12.091  12.299  63.972  1.00  0.00    -0.471 C  
HETATM    9  O   UNL     2     -12.619  11.451  62.932  1.00  0.00    -0.970 OA 
HETATM   10  H   UNL     2     -12.506  10.540  63.176  1.00  0.00     0.000 HD 
BRANCH   8  11
HETATM   11  C   UNL     2     -10.619  11.953  64.276  1.00  0.00    -0.334 C  
HETATM   12  O   UNL     2      -9.810  12.844  63.504  1.00  0.00    -0.672 OA 
HETATM   13  H   UNL     2      -8.903  12.631  63.691  1.00  0.00     0.000 HD 
BRANCH  11  14
HETATM   14  C   UNL     2     -10.370  12.137  65.786  1.00  0.00    -0.258 C  
HETATM   15  H   UNL     2      -8.888  11.738  67.036  1.00  0.00     0.000 HD 
HETATM   16  O   UNL     2      -9.042  11.625  66.106  1.00  0.00    -0.213 OA 
BRANCH  14  17
HETATM   17  C   UNL     2     -11.424  11.576  66.741  1.00  0.00    -0.157 C  
HETATM   18  C   UNL     2     -11.724  12.617  67.850  1.00  0.00    -0.358 C  
HETATM   19  H   UNL     2     -11.664   9.941  67.811  1.00  0.00     0.000 HD 
HETATM   20  O   UNL     2     -11.009  10.290  67.218  1.00  0.00    -0.275 OA 
HETATM   21  O   UNL     2     -11.939  13.769  67.353  1.00  0.00    -0.379 OA 
HETATM   22  O   UNL     2     -11.748  12.181  69.018  1.00  0.00    -0.283 OA 
ENDBRANCH  14  17
ENDBRANCH  11  14
ENDBRANCH   8  11
ENDBRANCH   3   8
BRANCH   7  23
HETATM   23  C   UNL     3      -7.781   3.208  65.310  1.00  0.00    -0.081 C  
HETATM   24  O   UNL     3      -6.848   2.790  66.327  1.00  0.00    -0.046 OA 
HETATM   25  H   UNL     3      -7.328   2.308  66.991  1.00  0.00     0.000 HD 
BRANCH  23  26
HETATM   26  C   UNL     3      -8.878   3.979  66.072  1.00  0.00    -0.120 C  
HETATM   27  O   UNL     3      -9.979   3.131  66.406  1.00  0.00    -0.370 OA 
HETATM   28  H   UNL     3     -10.655   3.606  66.876  1.00  0.00     0.000 HD 
BRANCH  26  29
HETATM   29  C   UNL     3      -8.477   4.788  67.324  1.00  0.00    -0.105 C  
HETATM   30  O   UNL     3      -8.717   4.068  68.545  1.00  0.00    -0.091 OA 
HETATM   31  H   UNL     3      -8.470   4.566  69.315  1.00  0.00     0.000 HD 
BRANCH  29  32
HETATM   32  C   UNL     3      -9.086   6.177  67.475  1.00  0.00    -0.109 C  
HETATM   33  C   UNL     3      -9.952   6.356  68.734  1.00  0.00    -0.147 C  
HETATM   34  O   UNL     3      -9.965   6.448  66.299  1.00  0.00    -0.371 OA 
HETATM   35  O   UNL     3     -11.211   6.129  68.495  1.00  0.00    -0.341 OA 
HETATM   36  O   UNL     3      -9.468   7.026  69.666  1.00  0.00    -0.149 OA 
HETATM   37  H   UNL     3     -10.345   7.314  66.392  1.00  0.00     0.000 HD 
ENDBRANCH  29  32
ENDBRANCH  26  29
ENDBRANCH  23  26
ENDBRANCH   7  23
TORSDOF 8
ENDMDL
MODEL      149
REMARK 921   NORMALIZED FREE ENERGY PREDICTED BY IDOCK:   -5.16 KCAL/MOL
REMARK 922        TOTAL FREE ENERGY PREDICTED BY IDOCK:   -9.64 KCAL/MOL
REMARK 923 INTER-LIGAND FREE ENERGY PREDICTED BY IDOCK:   -8.10 KCAL/MOL
REMARK 924 INTRA-LIGAND FREE ENERGY PREDICTED BY IDOCK:   -1.54 KCAL/MOL
REMARK 927      BINDING AFFINITY PREDICTED BY RF-SCORE:    0.00 PKD
ROOT
HETATM    1 CU   UNL     1      -7.763  13.002  67.868  1.00  0.00    -0.088 Cu 
HETATM    2  O   UNL     2      -5.523  18.254  66.015  1.00  0.00    -0.146 OA 
HETATM    3  C   UNL     2      -6.938  18.120  65.816  1.00  0.00    -0.244 C  
HETATM    4  H   UNL     2      -5.241  19.010  65.512  1.00  0.00     0.000 HD 
HETATM    5  O   UNL     3     -11.652   6.884  66.957  1.00  0.00    -0.607 OA 
HETATM    6  H   UNL     3     -11.803   7.049  66.033  1.00  0.00     0.000 HD 
HETATM    7  C   UNL     3     -10.567   7.725  67.401  1.00  0.00    -0.275 C  
ENDROOT
BRANCH   3   8
HETATM    8  C   UNL     2      -7.392  16.908  66.625  1.00  0.00    -0.263 C  
HETATM    9  O   UNL     2      -6.271  16.359  67.345  1.00  0.00    -0.140 OA 
HETATM   10  H   UNL     2      -6.553  15.604  67.848  1.00  0.00     0.000 HD 
BRANCH   8  11
HETATM   11  C   UNL     2      -8.555  17.245  67.580  1.00  0.00    -0.217 C  
HETATM   12  O   UNL     2      -8.488  18.649  67.844  1.00  0.00    -0.267 OA 
HETATM   13  H   UNL     2      -9.204  18.857  68.433  1.00  0.00     0.000 HD 
BRANCH  11  14
HETATM   14  C   UNL     2      -9.883  16.866  66.895  1.00  0.00    -0.276 C  
HETATM   15  H   UNL     2     -11.709  16.406  67.503  1.00  0.00     0.000 HD 
HETATM   16  O   UNL     2     -10.890  16.639  67.925  1.00  0.00    -0.347 OA 
BRANCH  14  17
HETATM   17  C   UNL     2      -9.847  15.713  65.893  1.00  0.00    -0.350 C  
HETATM   18  C   UNL     2     -11.026  15.856  64.897  1.00  0.00    -0.411 C  
HETATM   19  H   UNL     2      -9.777  13.747  65.970  1.00  0.00     0.000 HD 
HETATM   20  O   UNL     2      -9.799  14.464  66.593  1.00  0.00    -0.260 OA 
HETATM   21  O   UNL     2     -11.090  17.037  64.426  1.00  0.00    -1.144 OA 
HETATM   22  O   UNL     2     -11.690  14.823  64.680  1.00  0.00    -0.409 OA 
ENDBRANCH  14  17
ENDBRANCH  11  14
ENDBRANCH   8  11
ENDBRANCH   3   8
BRANCH   7  23
HETATM   23  C   UNL     3     -10.323   7.460  68.892  1.00  0.00    -0.206 C  
HETATM   24  O   UNL     3      -9.329   6.422  69.008  1.00  0.00    -0.129 OA 
HETATM   25  H   UNL     3      -9.178   6.257  69.932  1.00  0.00     0.000 HD 
BRANCH  23  26
HETATM   26  C   UNL     3      -9.770   8.633  69.724  1.00  0.00    -0.176 C  
HETATM   27  O   UNL     3      -8.592   8.258  70.442  1.00  0.00    -0.128 OA 
HETATM   28  H   UNL     3      -8.251   8.982  70.955  1.00  0.00     0.000 HD 
BRANCH  26  29
HETATM   29  C   UNL     3      -9.512   9.982  69.018  1.00  0.00    -0.187 C  
HETATM   30  O   UNL     3      -8.135  10.385  69.087  1.00  0.00    -0.129 OA 
HETATM   31  H   UNL     3      -7.976  11.215  68.652  1.00  0.00     0.000 HD 
BRANCH  29  32
HETATM   32  C   UNL     3     -10.367  11.166  69.454  1.00  0.00    -0.057 C  
HETATM   33  C   UNL     3     -11.853  11.050  69.070  1.00  0.00    -0.329 C  
HETATM   34  O   UNL     3      -9.845  12.404  68.802  1.00  0.00    -0.396 OA 
HETATM   35  O   UNL     3     -12.110  11.633  67.937  1.00  0.00    -0.613 OA 
HETATM   36  O   UNL     3     -12.657  10.788  69.986  1.00  0.00    -0.308 OA 
HETATM   37  H   UNL     3     -10.378  13.142  69.074  1.00  0.00     0.000 HD 
ENDBRANCH  29  32
ENDBRANCH  26  29
ENDBRANCH  23  26
ENDBRANCH   7  23
TORSDOF 8
ENDMDL
MODEL      150
REMARK 921   NORMALIZED FREE ENERGY PREDICTED BY IDOCK:   -5.15 KCAL/MOL
REMARK 922        TOTAL FREE ENERGY PREDICTED BY IDOCK:   -9.64 KCAL/MOL
REMARK 923 INTER-LIGAND FREE ENERGY PREDICTED BY IDOCK:   -8.58 KCAL/MOL
REMARK 924 INTRA-LIGAND FREE ENERGY PREDICTED BY IDOCK:   -1.05 KCAL/MOL
REMARK 927      BINDING AFFINITY PREDICTED BY RF-SCORE:    0.00 PKD
ROOT
HETATM    1 CU   UNL     1      -9.648  15.501  70.223  1.00  0.00    -0.254 Cu 
HETATM    2  O   UNL     2      -6.809  20.573  68.721  1.00  0.00    -0.197 OA 
HETATM    3  C   UNL     2      -7.526  19.963  67.638  1.00  0.00    -0.285 C  
HETATM    4  H   UNL     2      -6.239  21.232  68.342  1.00  0.00     0.000 HD 
HETATM    5  O   UNL     3     -11.332   8.451  69.301  1.00  0.00    -0.405 OA 
HETATM    6  H   UNL     3     -10.699   8.331  68.603  1.00  0.00     0.000 HD 
HETATM    7  C   UNL     3     -11.011   9.668  70.006  1.00  0.00    -0.260 C  
ENDROOT
BRANCH   3   8
HETATM    8  C   UNL     2      -8.442  18.904  68.247  1.00  0.00    -0.330 C  
HETATM    9  O   UNL     2      -9.798  19.392  68.270  1.00  0.00    -0.356 OA 
HETATM   10  H   UNL     2     -10.368  18.733  68.649  1.00  0.00     0.000 HD 
BRANCH   8  11
HETATM   11  C   UNL     2      -8.350  17.555  67.506  1.00  0.00    -0.215 C  
HETATM   12  O   UNL     2      -7.943  16.575  68.464  1.00  0.00    -0.193 OA 
HETATM   13  H   UNL     2      -7.886  15.744  68.008  1.00  0.00     0.000 HD 
BRANCH  11  14
HETATM   14  C   UNL     2      -9.734  17.220  66.915  1.00  0.00    -0.273 C  
HETATM   15  H   UNL     2     -11.586  17.134  67.607  1.00  0.00     0.000 HD 
HETATM   16  O   UNL     2     -10.733  17.341  67.970  1.00  0.00    -0.380 OA 
BRANCH  14  17
HETATM   17  C   UNL     2      -9.872  15.890  66.173  1.00  0.00    -0.317 C  
HETATM   18  C   UNL     2     -11.177  15.898  65.336  1.00  0.00    -0.100 C  
HETATM   19  H   UNL     2      -9.844  13.978  66.639  1.00  0.00     0.000 HD 
HETATM   20  O   UNL     2      -9.758  14.804  67.100  1.00  0.00    -0.226 OA 
HETATM   21  O   UNL     2     -11.276  16.965  64.649  1.00  0.00    -0.915 OA 
HETATM   22  O   UNL     2     -11.892  14.880  65.426  1.00  0.00    -0.299 OA 
ENDBRANCH  14  17
ENDBRANCH  11  14
ENDBRANCH   8  11
ENDBRANCH   3   8
BRANCH   7  23
HETATM   23  C   UNL     3     -12.033   9.862  71.134  1.00  0.00    -0.384 C  
HETATM   24  O   UNL     3     -13.267  10.326  70.549  1.00  0.00    -0.542 OA 
HETATM   25  H   UNL     3     -13.900  10.446  71.247  1.00  0.00     0.000 HD 
BRANCH  23  26
HETATM   26  C   UNL     3     -12.424   8.608  71.940  1.00  0.00    -0.357 C  
HETATM   27  O   UNL     3     -13.106   7.651  71.125  1.00  0.00    -0.523 OA 
HETATM   28  H   UNL     3     -13.346   6.878  71.622  1.00  0.00     0.000 HD 
BRANCH  26  29
HETATM   29  C   UNL     3     -11.328   7.879  72.748  1.00  0.00    -0.393 C  
HETATM   30  O   UNL     3     -10.041   8.503  72.618  1.00  0.00    -0.282 OA 
HETATM   31  H   UNL     3      -9.367   8.054  73.115  1.00  0.00     0.000 HD 
BRANCH  29  32
HETATM   32  C   UNL     3     -11.152   6.387  72.486  1.00  0.00    -0.263 C  
HETATM   33  C   UNL     3     -10.167   5.689  73.439  1.00  0.00    -0.206 C  
HETATM   34  O   UNL     3     -10.625   6.200  71.101  1.00  0.00    -0.227 OA 
HETATM   35  O   UNL     3      -8.964   5.639  72.946  1.00  0.00    -0.125 OA 
HETATM   36  O   UNL     3     -10.654   4.955  74.322  1.00  0.00    -0.276 OA 
HETATM   37  H   UNL     3     -10.515   5.271  70.937  1.00  0.00     0.000 HD 
ENDBRANCH  29  32
ENDBRANCH  26  29
ENDBRANCH  23  26
ENDBRANCH   7  23
TORSDOF 8
ENDMDL
MODEL      151
REMARK 921   NORMALIZED FREE ENERGY PREDICTED BY IDOCK:   -5.15 KCAL/MOL
REMARK 922        TOTAL FREE ENERGY PREDICTED BY IDOCK:   -9.63 KCAL/MOL
REMARK 923 INTER-LIGAND FREE ENERGY PREDICTED BY IDOCK:   -8.31 KCAL/MOL
REMARK 924 INTRA-LIGAND FREE ENERGY PREDICTED BY IDOCK:   -1.32 KCAL/MOL
REMARK 927      BINDING AFFINITY PREDICTED BY RF-SCORE:    0.00 PKD
ROOT
HETATM    1 CU   UNL     1     -10.151  11.848  68.919  1.00  0.00    -0.186 Cu 
HETATM    2  O   UNL     2     -10.713  16.503  65.170  1.00  0.00    -0.606 OA 
HETATM    3  C   UNL     2     -11.332  15.297  64.700  1.00  0.00    -0.358 C  
HETATM    4  H   UNL     2     -10.675  17.103  64.434  1.00  0.00     0.000 HD 
HETATM    5  O   UNL     3      -8.407   4.936  70.518  1.00  0.00    -0.092 OA 
HETATM    6  H   UNL     3      -8.037   4.769  69.658  1.00  0.00     0.000 HD 
HETATM    7  C   UNL     3      -8.520   6.362  70.699  1.00  0.00    -0.135 C  
ENDROOT
BRANCH   3   8
HETATM    8  C   UNL     2     -11.393  14.334  65.883  1.00  0.00    -0.328 C  
HETATM    9  O   UNL     2     -12.693  13.715  65.938  1.00  0.00    -0.450 OA 
HETATM   10  H   UNL     2     -12.731  13.116  66.674  1.00  0.00     0.000 HD 
BRANCH   8  11
HETATM   11  C   UNL     2     -10.275  13.273  65.830  1.00  0.00    -0.293 C  
HETATM   12  O   UNL     2      -9.493  13.427  67.017  1.00  0.00    -0.230 OA 
HETATM   13  H   UNL     2      -8.804  12.774  66.985  1.00  0.00     0.000 HD 
BRANCH  11  14
HETATM   14  C   UNL     2     -10.922  11.875  65.764  1.00  0.00    -0.311 C  
HETATM   15  H   UNL     2     -10.757  10.188  66.784  1.00  0.00     0.000 HD 
HETATM   16  O   UNL     2     -10.358  11.049  66.825  1.00  0.00    -0.220 OA 
BRANCH  14  17
HETATM   17  C   UNL     2     -10.882  11.151  64.418  1.00  0.00    -0.270 C  
HETATM   18  C   UNL     2      -9.423  11.111  63.896  1.00  0.00    -0.227 C  
HETATM   19  H   UNL     2     -11.801  11.294  62.684  1.00  0.00     0.000 HD 
HETATM   20  O   UNL     2     -11.827  11.745  63.520  1.00  0.00    -0.465 OA 
HETATM   21  O   UNL     2      -8.621  10.710  64.800  1.00  0.00    -0.177 OA 
HETATM   22  O   UNL     2      -9.259  11.427  62.701  1.00  0.00    -0.361 OA 
ENDBRANCH  14  17
ENDBRANCH  11  14
ENDBRANCH   8  11
ENDBRANCH   3   8
BRANCH   7  23
HETATM   23  C   UNL     3      -9.118   6.631  72.087  1.00  0.00    -0.138 C  
HETATM   24  O   UNL     3      -8.093   6.389  73.073  1.00  0.00    -0.106 OA 
HETATM   25  H   UNL     3      -8.463   6.555  73.932  1.00  0.00     0.000 HD 
BRANCH  23  26
HETATM   26  C   UNL     3      -9.605   8.066  72.366  1.00  0.00    -0.232 C  
HETATM   27  O   UNL     3      -9.129   8.983  71.377  1.00  0.00    -0.239 OA 
HETATM   28  H   UNL     3      -9.430   9.868  71.550  1.00  0.00     0.000 HD 
BRANCH  26  29
HETATM   29  C   UNL     3     -11.116   8.304  72.577  1.00  0.00    -0.368 C  
HETATM   30  O   UNL     3     -11.828   7.093  72.877  1.00  0.00    -0.528 OA 
HETATM   31  H   UNL     3     -12.757   7.240  73.007  1.00  0.00     0.000 HD 
BRANCH  29  32
HETATM   32  C   UNL     3     -11.866   9.021  71.459  1.00  0.00    -0.345 C  
HETATM   33  C   UNL     3     -13.310   9.415  71.817  1.00  0.00    -0.415 C  
HETATM   34  O   UNL     3     -11.942   8.117  70.273  1.00  0.00    -0.466 OA 
HETATM   35  O   UNL     3     -14.168   8.512  71.442  1.00  0.00    -0.388 OA 
HETATM   36  O   UNL     3     -13.530  10.620  72.043  1.00  0.00    -0.375 OA 
HETATM   37  H   UNL     3     -12.410   8.562  69.577  1.00  0.00     0.000 HD 
ENDBRANCH  29  32
ENDBRANCH  26  29
ENDBRANCH  23  26
ENDBRANCH   7  23
TORSDOF 8
ENDMDL
MODEL      152
REMARK 921   NORMALIZED FREE ENERGY PREDICTED BY IDOCK:   -5.13 KCAL/MOL
REMARK 922        TOTAL FREE ENERGY PREDICTED BY IDOCK:   -9.61 KCAL/MOL
REMARK 923 INTER-LIGAND FREE ENERGY PREDICTED BY IDOCK:   -8.09 KCAL/MOL
REMARK 924 INTRA-LIGAND FREE ENERGY PREDICTED BY IDOCK:   -1.52 KCAL/MOL
REMARK 927      BINDING AFFINITY PREDICTED BY RF-SCORE:    0.00 PKD
ROOT
HETATM    1 CU   UNL     1     -10.709  11.306  68.316  1.00  0.00    -0.159 Cu 
HETATM    2  O   UNL     2     -10.221  16.519  65.380  1.00  0.00    -0.566 OA 
HETATM    3  C   UNL     2      -9.053  16.161  66.131  1.00  0.00    -0.347 C  
HETATM    4  H   UNL     2     -10.125  17.431  65.132  1.00  0.00     0.000 HD 
HETATM    5  O   UNL     3     -10.266   7.117  74.286  1.00  0.00    -0.439 OA 
HETATM    6  H   UNL     3     -10.088   7.853  74.860  1.00  0.00     0.000 HD 
HETATM    7  C   UNL     3     -10.797   7.622  73.044  1.00  0.00    -0.400 C  
ENDROOT
BRANCH   3   8
HETATM    8  C   UNL     2      -9.207  14.695  66.529  1.00  0.00    -0.266 C  
HETATM    9  O   UNL     2      -7.920  14.151  66.882  1.00  0.00    -0.377 OA 
HETATM   10  H   UNL     2      -8.016  13.239  67.129  1.00  0.00     0.000 HD 
BRANCH   8  11
HETATM   11  C   UNL     2     -10.224  14.503  67.672  1.00  0.00    -0.225 C  
HETATM   12  O   UNL     2     -10.349  15.762  68.339  1.00  0.00    -0.225 OA 
HETATM   13  H   UNL     2     -10.975  15.644  69.043  1.00  0.00     0.000 HD 
BRANCH  11  14
HETATM   14  C   UNL     2     -11.569  14.055  67.066  1.00  0.00    -0.371 C  
HETATM   15  H   UNL     2     -13.288  13.381  67.778  1.00  0.00     0.000 HD 
HETATM   16  O   UNL     2     -12.459  13.657  68.151  1.00  0.00    -0.078 OA 
BRANCH  14  17
HETATM   17  C   UNL     2     -11.521  12.989  65.971  1.00  0.00    -0.335 C  
HETATM   18  C   UNL     2     -12.436  13.415  64.794  1.00  0.00    -0.365 C  
HETATM   19  H   UNL     2     -11.790  11.043  65.852  1.00  0.00     0.000 HD 
HETATM   20  O   UNL     2     -11.820  11.705  66.532  1.00  0.00    -0.500 OA 
HETATM   21  O   UNL     2     -12.210  14.619  64.448  1.00  0.00    -0.487 OA 
HETATM   22  O   UNL     2     -13.201  12.537  64.350  1.00  0.00    -0.782 OA 
ENDBRANCH  14  17
ENDBRANCH  11  14
ENDBRANCH   8  11
ENDBRANCH   3   8
BRANCH   7  23
HETATM   23  C   UNL     3     -11.084   6.434  72.117  1.00  0.00    -0.263 C  
HETATM   24  O   UNL     3     -12.150   6.809  71.221  1.00  0.00    -0.343 OA 
HETATM   25  H   UNL     3     -12.328   6.073  70.647  1.00  0.00     0.000 HD 
BRANCH  23  26
HETATM   26  C   UNL     3      -9.934   5.979  71.196  1.00  0.00    -0.186 C  
HETATM   27  O   UNL     3      -8.834   5.462  71.947  1.00  0.00    -0.133 OA 
HETATM   28  H   UNL     3      -8.125   5.181  71.379  1.00  0.00     0.000 HD 
BRANCH  26  29
HETATM   29  C   UNL     3     -10.254   4.999  70.046  1.00  0.00    -0.269 C  
HETATM   30  O   UNL     3      -9.922   3.640  70.373  1.00  0.00    -0.108 OA 
HETATM   31  H   UNL     3     -10.119   3.037  69.665  1.00  0.00     0.000 HD 
BRANCH  29  32
HETATM   32  C   UNL     3      -9.649   5.312  68.682  1.00  0.00    -0.136 C  
HETATM   33  C   UNL     3     -10.327   6.479  67.942  1.00  0.00    -0.189 C  
HETATM   34  O   UNL     3      -9.778   4.108  67.809  1.00  0.00    -0.166 OA 
HETATM   35  O   UNL     3     -11.255   6.065  67.130  1.00  0.00    -0.236 OA 
HETATM   36  O   UNL     3      -9.707   7.559  67.895  1.00  0.00    -0.141 OA 
HETATM   37  H   UNL     3      -9.402   4.303  66.959  1.00  0.00     0.000 HD 
ENDBRANCH  29  32
ENDBRANCH  26  29
ENDBRANCH  23  26
ENDBRANCH   7  23
TORSDOF 8
ENDMDL
MODEL      153
REMARK 921   NORMALIZED FREE ENERGY PREDICTED BY IDOCK:   -5.13 KCAL/MOL
REMARK 922        TOTAL FREE ENERGY PREDICTED BY IDOCK:   -9.61 KCAL/MOL
REMARK 923 INTER-LIGAND FREE ENERGY PREDICTED BY IDOCK:   -7.31 KCAL/MOL
REMARK 924 INTRA-LIGAND FREE ENERGY PREDICTED BY IDOCK:   -2.30 KCAL/MOL
REMARK 927      BINDING AFFINITY PREDICTED BY RF-SCORE:    0.00 PKD
ROOT
HETATM    1 CU   UNL     1      -9.516  14.074  64.973  1.00  0.00    -0.450 Cu 
HETATM    2  O   UNL     2      -8.944   8.515  62.780  1.00  0.00    -0.413 OA 
HETATM    3  C   UNL     2      -7.878   8.909  63.656  1.00  0.00    -0.141 C  
HETATM    4  H   UNL     2      -8.660   7.725  62.334  1.00  0.00     0.000 HD 
HETATM    5  O   UNL     3      -7.068  20.811  66.388  1.00  0.00    -0.441 OA 
HETATM    6  H   UNL     3      -6.265  20.685  65.896  1.00  0.00     0.000 HD 
HETATM    7  C   UNL     3      -8.004  19.781  66.008  1.00  0.00    -0.330 C  
ENDROOT
BRANCH   3   8
HETATM    8  C   UNL     2      -8.333  10.177  64.374  1.00  0.00    -0.171 C  
HETATM    9  O   UNL     2      -8.714  11.173  63.404  1.00  0.00    -0.390 OA 
HETATM   10  H   UNL     2      -8.997  11.962  63.851  1.00  0.00     0.000 HD 
BRANCH   8  11
HETATM   11  C   UNL     2      -9.479   9.906  65.370  1.00  0.00    -0.257 C  
HETATM   12  O   UNL     2      -9.520   8.493  65.589  1.00  0.00    -0.421 OA 
HETATM   13  H   UNL     2     -10.225   8.325  66.202  1.00  0.00     0.000 HD 
BRANCH  11  14
HETATM   14  C   UNL     2      -9.187  10.666  66.679  1.00  0.00    -0.164 C  
HETATM   15  H   UNL     2      -8.564  12.485  67.151  1.00  0.00     0.000 HD 
HETATM   16  O   UNL     2      -8.744  12.016  66.345  1.00  0.00    -0.176 OA 
BRANCH  14  17
HETATM   17  C   UNL     2      -8.234  10.003  67.674  1.00  0.00    -0.114 C  
HETATM   18  C   UNL     2      -8.957   9.810  69.032  1.00  0.00    -0.154 C  
HETATM   19  H   UNL     2      -6.419  10.333  68.361  1.00  0.00     0.000 HD 
HETATM   20  O   UNL     2      -7.011  10.745  67.742  1.00  0.00    -0.075 OA 
HETATM   21  O   UNL     2     -10.101   9.276  68.873  1.00  0.00    -0.183 OA 
HETATM   22  O   UNL     2      -8.319  10.158  70.046  1.00  0.00    -0.160 OA 
ENDBRANCH  14  17
ENDBRANCH  11  14
ENDBRANCH   8  11
ENDBRANCH   3   8
BRANCH   7  23
HETATM   23  C   UNL     3      -9.301  19.984  66.803  1.00  0.00    -0.392 C  
HETATM   24  O   UNL     3     -10.402  19.992  65.871  1.00  0.00    -0.485 OA 
HETATM   25  H   UNL     3     -11.206  20.117  66.363  1.00  0.00     0.000 HD 
BRANCH  23  26
HETATM   26  C   UNL     3      -9.661  18.896  67.833  1.00  0.00    -0.327 C  
HETATM   27  O   UNL     3     -10.910  19.171  68.472  1.00  0.00    -0.272 OA 
HETATM   28  H   UNL     3     -11.132  18.500  69.107  1.00  0.00     0.000 HD 
BRANCH  26  29
HETATM   29  C   UNL     3      -9.650  17.419  67.381  1.00  0.00    -0.257 C  
HETATM   30  O   UNL     3     -10.489  17.187  66.238  1.00  0.00    -0.319 OA 
HETATM   31  H   UNL     3     -10.482  16.278  65.960  1.00  0.00     0.000 HD 
BRANCH  29  32
HETATM   32  C   UNL     3      -9.996  16.371  68.433  1.00  0.00    -0.238 C  
HETATM   33  C   UNL     3      -9.630  14.930  68.035  1.00  0.00    -0.207 C  
HETATM   34  O   UNL     3     -11.469  16.396  68.673  1.00  0.00    -0.349 OA 
HETATM   35  O   UNL     3     -10.630  14.309  67.483  1.00  0.00    -0.258 OA 
HETATM   36  O   UNL     3      -8.638  14.422  68.592  1.00  0.00    -0.171 OA 
HETATM   37  H   UNL     3     -11.685  15.743  69.328  1.00  0.00     0.000 HD 
ENDBRANCH  29  32
ENDBRANCH  26  29
ENDBRANCH  23  26
ENDBRANCH   7  23
TORSDOF 8
ENDMDL
MODEL      154
REMARK 921   NORMALIZED FREE ENERGY PREDICTED BY IDOCK:   -5.13 KCAL/MOL
REMARK 922        TOTAL FREE ENERGY PREDICTED BY IDOCK:   -9.61 KCAL/MOL
REMARK 923 INTER-LIGAND FREE ENERGY PREDICTED BY IDOCK:   -7.01 KCAL/MOL
REMARK 924 INTRA-LIGAND FREE ENERGY PREDICTED BY IDOCK:   -2.60 KCAL/MOL
REMARK 927      BINDING AFFINITY PREDICTED BY RF-SCORE:    0.00 PKD
ROOT
HETATM    1 CU   UNL     1     -10.064   9.801  64.537  1.00  0.00    -0.298 Cu 
HETATM    2  O   UNL     2     -11.439  15.600  63.811  1.00  0.00    -0.691 OA 
HETATM    3  C   UNL     2     -12.527  14.797  64.292  1.00  0.00    -0.197 C  
HETATM    4  H   UNL     2     -11.806  16.432  63.536  1.00  0.00     0.000 HD 
HETATM    5  O   UNL     3     -11.210   2.653  63.547  1.00  0.00    -0.496 OA 
HETATM    6  H   UNL     3     -11.927   2.793  62.939  1.00  0.00     0.000 HD 
HETATM    7  C   UNL     3     -10.467   3.883  63.671  1.00  0.00    -0.200 C  
ENDROOT
BRANCH   3   8
HETATM    8  C   UNL     2     -11.938  13.460  64.734  1.00  0.00    -0.390 C  
HETATM    9  O   UNL     2     -11.660  12.647  63.577  1.00  0.00    -0.465 OA 
HETATM   10  H   UNL     2     -11.293  11.815  63.852  1.00  0.00     0.000 HD 
BRANCH   8  11
HETATM   11  C   UNL     2     -10.677  13.637  65.605  1.00  0.00    -0.283 C  
HETATM   12  O   UNL     2     -10.886  14.796  66.416  1.00  0.00    -0.310 OA 
HETATM   13  H   UNL     2     -10.110  14.905  66.953  1.00  0.00     0.000 HD 
BRANCH  11  14
HETATM   14  C   UNL     2     -10.493  12.374  66.469  1.00  0.00    -0.230 C  
HETATM   15  H   UNL     2     -11.426  10.639  66.659  1.00  0.00     0.000 HD 
HETATM   16  O   UNL     2     -11.539  11.417  66.126  1.00  0.00    -0.286 OA 
BRANCH  14  17
HETATM   17  C   UNL     2     -10.399  12.571  67.983  1.00  0.00    -0.222 C  
HETATM   18  C   UNL     2      -9.704  11.342  68.622  1.00  0.00    -0.195 C  
HETATM   19  H   UNL     2     -11.636  12.997  69.453  1.00  0.00     0.000 HD 
HETATM   20  O   UNL     2     -11.695  12.874  68.512  1.00  0.00    -0.300 OA 
HETATM   21  O   UNL     2      -8.632  11.046  68.004  1.00  0.00    -0.126 OA 
HETATM   22  O   UNL     2     -10.256  10.866  69.634  1.00  0.00    -0.137 OA 
ENDBRANCH  14  17
ENDBRANCH  11  14
ENDBRANCH   8  11
ENDBRANCH   3   8
BRANCH   7  23
HETATM   23  C   UNL     3      -9.310   3.658  64.653  1.00  0.00    -0.151 C  
HETATM   24  O   UNL     3      -8.150   3.257  63.896  1.00  0.00    -0.081 OA 
HETATM   25  H   UNL     3      -7.433   3.117  64.504  1.00  0.00     0.000 HD 
BRANCH  23  26
HETATM   26  C   UNL     3      -8.847   4.879  65.472  1.00  0.00    -0.143 C  
HETATM   27  O   UNL     3      -8.841   6.069  64.681  1.00  0.00    -0.364 OA 
HETATM   28  H   UNL     3      -8.555   6.822  65.186  1.00  0.00     0.000 HD 
BRANCH  26  29
HETATM   29  C   UNL     3      -9.552   5.178  66.813  1.00  0.00    -0.151 C  
HETATM   30  O   UNL     3     -10.982   5.225  66.685  1.00  0.00    -0.474 OA 
HETATM   31  H   UNL     3     -11.416   5.409  67.510  1.00  0.00     0.000 HD 
BRANCH  29  32
HETATM   32  C   UNL     3      -9.110   6.431  67.562  1.00  0.00    -0.114 C  
HETATM   33  C   UNL     3     -10.074   7.622  67.426  1.00  0.00    -0.222 C  
HETATM   34  O   UNL     3      -7.790   6.874  67.023  1.00  0.00    -0.107 OA 
HETATM   35  O   UNL     3      -9.733   8.416  66.454  1.00  0.00    -0.233 OA 
HETATM   36  O   UNL     3     -10.778   7.898  68.417  1.00  0.00    -0.141 OA 
HETATM   37  H   UNL     3      -7.514   7.654  67.489  1.00  0.00     0.000 HD 
ENDBRANCH  29  32
ENDBRANCH  26  29
ENDBRANCH  23  26
ENDBRANCH   7  23
TORSDOF 8
ENDMDL
MODEL      155
REMARK 921   NORMALIZED FREE ENERGY PREDICTED BY IDOCK:   -5.12 KCAL/MOL
REMARK 922        TOTAL FREE ENERGY PREDICTED BY IDOCK:   -9.58 KCAL/MOL
REMARK 923 INTER-LIGAND FREE ENERGY PREDICTED BY IDOCK:   -8.45 KCAL/MOL
REMARK 924 INTRA-LIGAND FREE ENERGY PREDICTED BY IDOCK:   -1.13 KCAL/MOL
REMARK 927      BINDING AFFINITY PREDICTED BY RF-SCORE:    0.00 PKD
ROOT
HETATM    1 CU   UNL     1     -10.133  11.862  68.919  1.00  0.00    -0.186 Cu 
HETATM    2  O   UNL     2     -10.546  17.811  68.233  1.00  0.00    -0.369 OA 
HETATM    3  C   UNL     2     -10.163  17.112  67.041  1.00  0.00    -0.313 C  
HETATM    4  H   UNL     2     -10.382  18.735  68.080  1.00  0.00     0.000 HD 
HETATM    5  O   UNL     3      -6.669   5.455  68.337  1.00  0.00    -0.050 OA 
HETATM    6  H   UNL     3      -5.856   5.854  68.049  1.00  0.00     0.000 HD 
HETATM    7  C   UNL     3      -7.499   6.477  68.926  1.00  0.00    -0.095 C  
ENDROOT
BRANCH   3   8
HETATM    8  C   UNL     2     -10.428  15.628  67.286  1.00  0.00    -0.292 C  
HETATM    9  O   UNL     2     -11.777  15.449  67.758  1.00  0.00    -0.297 OA 
HETATM   10  H   UNL     2     -11.941  14.525  67.911  1.00  0.00     0.000 HD 
BRANCH   8  11
HETATM   11  C   UNL     2     -10.159  14.772  66.032  1.00  0.00    -0.308 C  
HETATM   12  O   UNL     2      -8.867  14.182  66.195  1.00  0.00    -0.460 OA 
HETATM   13  H   UNL     2      -8.701  13.654  65.423  1.00  0.00     0.000 HD 
BRANCH  11  14
HETATM   14  C   UNL     2     -11.257  13.694  65.925  1.00  0.00    -0.304 C  
HETATM   15  H   UNL     2     -12.019  12.324  67.133  1.00  0.00     0.000 HD 
HETATM   16  O   UNL     2     -11.342  12.988  67.198  1.00  0.00    -0.277 OA 
BRANCH  14  17
HETATM   17  C   UNL     2     -11.161  12.715  64.755  1.00  0.00    -0.302 C  
HETATM   18  C   UNL     2     -12.360  12.935  63.797  1.00  0.00    -0.417 C  
HETATM   19  H   UNL     2     -10.967  10.770  64.525  1.00  0.00     0.000 HD 
HETATM   20  O   UNL     2     -11.026  11.378  65.252  1.00  0.00    -0.262 OA 
HETATM   21  O   UNL     2     -12.505  14.168  63.517  1.00  0.00    -0.817 OA 
HETATM   22  O   UNL     2     -12.960  11.908  63.425  1.00  0.00    -0.730 OA 
ENDBRANCH  14  17
ENDBRANCH  11  14
ENDBRANCH   8  11
ENDBRANCH   3   8
BRANCH   7  23
HETATM   23  C   UNL     3      -8.811   5.833  69.391  1.00  0.00    -0.117 C  
HETATM   24  O   UNL     3      -8.958   6.080  70.804  1.00  0.00    -0.146 OA 
HETATM   25  H   UNL     3      -9.771   5.681  71.092  1.00  0.00     0.000 HD 
BRANCH  23  26
HETATM   26  C   UNL     3     -10.110   6.368  68.757  1.00  0.00    -0.158 C  
HETATM   27  O   UNL     3     -10.353   7.727  69.129  1.00  0.00    -0.208 OA 
HETATM   28  H   UNL     3     -11.154   8.057  68.738  1.00  0.00     0.000 HD 
BRANCH  26  29
HETATM   29  C   UNL     3     -10.298   6.230  67.231  1.00  0.00    -0.216 C  
HETATM   30  O   UNL     3     -11.552   6.766  66.780  1.00  0.00    -0.655 OA 
HETATM   31  H   UNL     3     -11.668   6.681  65.840  1.00  0.00     0.000 HD 
BRANCH  29  32
HETATM   32  C   UNL     3     -10.148   4.833  66.639  1.00  0.00    -0.245 C  
HETATM   33  C   UNL     3      -8.829   4.605  65.881  1.00  0.00    -0.124 C  
HETATM   34  O   UNL     3     -11.256   4.600  65.666  1.00  0.00    -0.854 OA 
HETATM   35  O   UNL     3      -8.955   4.833  64.606  1.00  0.00    -0.153 OA 
HETATM   36  O   UNL     3      -7.965   3.904  66.442  1.00  0.00    -0.095 OA 
HETATM   37  H   UNL     3     -11.163   3.730  65.297  1.00  0.00     0.000 HD 
ENDBRANCH  29  32
ENDBRANCH  26  29
ENDBRANCH  23  26
ENDBRANCH   7  23
TORSDOF 8
ENDMDL
MODEL      156
REMARK 921   NORMALIZED FREE ENERGY PREDICTED BY IDOCK:   -5.11 KCAL/MOL
REMARK 922        TOTAL FREE ENERGY PREDICTED BY IDOCK:   -9.57 KCAL/MOL
REMARK 923 INTER-LIGAND FREE ENERGY PREDICTED BY IDOCK:   -7.69 KCAL/MOL
REMARK 924 INTRA-LIGAND FREE ENERGY PREDICTED BY IDOCK:   -1.88 KCAL/MOL
REMARK 927      BINDING AFFINITY PREDICTED BY RF-SCORE:    0.00 PKD
ROOT
HETATM    1 CU   UNL     1     -10.727   9.267  71.759  1.00  0.00    -0.238 Cu 
HETATM    2  O   UNL     2      -9.897   3.778  74.043  1.00  0.00    -0.106 OA 
HETATM    3  C   UNL     2     -11.207   3.991  73.498  1.00  0.00    -0.232 C  
HETATM    4  H   UNL     2      -9.934   2.977  74.553  1.00  0.00     0.000 HD 
HETATM    5  O   UNL     3     -14.377  15.558  71.062  1.00  0.00    -0.821 OA 
HETATM    6  H   UNL     3     -14.988  15.348  71.759  1.00  0.00     0.000 HD 
HETATM    7  C   UNL     3     -13.240  14.677  71.168  1.00  0.00    -0.372 C  
ENDROOT
BRANCH   3   8
HETATM    8  C   UNL     2     -11.147   5.277  72.678  1.00  0.00    -0.260 C  
HETATM    9  O   UNL     2     -11.083   6.413  73.562  1.00  0.00    -0.465 OA 
HETATM   10  H   UNL     2     -11.047   7.214  73.051  1.00  0.00     0.000 HD 
BRANCH   8  11
HETATM   11  C   UNL     2      -9.969   5.281  71.682  1.00  0.00    -0.180 C  
HETATM   12  O   UNL     2     -10.400   4.573  70.518  1.00  0.00    -0.152 OA 
HETATM   13  H   UNL     2      -9.675   4.575  69.904  1.00  0.00     0.000 HD 
BRANCH  11  14
HETATM   14  C   UNL     2      -9.610   6.743  71.347  1.00  0.00    -0.167 C  
HETATM   15  H   UNL     2     -10.058   8.015  69.899  1.00  0.00     0.000 HD 
HETATM   16  O   UNL     2     -10.279   7.114  70.106  1.00  0.00    -0.191 OA 
BRANCH  14  17
HETATM   17  C   UNL     2      -8.125   7.104  71.305  1.00  0.00    -0.107 C  
HETATM   18  C   UNL     2      -7.902   8.460  72.022  1.00  0.00    -0.127 C  
HETATM   19  H   UNL     2      -6.730   7.278  69.927  1.00  0.00     0.000 HD 
HETATM   20  O   UNL     2      -7.653   7.053  69.953  1.00  0.00    -0.097 OA 
HETATM   21  O   UNL     2      -8.476   8.479  73.158  1.00  0.00    -0.365 OA 
HETATM   22  O   UNL     2      -7.188   9.287  71.422  1.00  0.00    -0.288 OA 
ENDBRANCH  14  17
ENDBRANCH  11  14
ENDBRANCH   8  11
ENDBRANCH   3   8
BRANCH   7  23
HETATM   23  C   UNL     3     -12.254  15.015  70.042  1.00  0.00    -0.328 C  
HETATM   24  O   UNL     3     -10.927  15.064  70.606  1.00  0.00    -0.445 OA 
HETATM   25  H   UNL     3     -10.316  15.274  69.909  1.00  0.00     0.000 HD 
BRANCH  23  26
HETATM   26  C   UNL     3     -12.154  14.007  68.881  1.00  0.00    -0.316 C  
HETATM   27  O   UNL     3     -12.317  14.649  67.614  1.00  0.00    -0.597 OA 
HETATM   28  H   UNL     3     -12.255  14.027  66.898  1.00  0.00     0.000 HD 
BRANCH  26  29
HETATM   29  C   UNL     3     -10.921  13.081  68.812  1.00  0.00    -0.258 C  
HETATM   30  O   UNL     3      -9.905  13.581  67.928  1.00  0.00    -0.221 OA 
HETATM   31  H   UNL     3      -9.146  13.011  67.886  1.00  0.00     0.000 HD 
BRANCH  29  32
HETATM   32  C   UNL     3     -11.172  11.620  68.455  1.00  0.00    -0.256 C  
HETATM   33  C   UNL     3      -9.897  10.762  68.365  1.00  0.00    -0.169 C  
HETATM   34  O   UNL     3     -11.834  11.557  67.118  1.00  0.00    -0.595 OA 
HETATM   35  O   UNL     3      -9.440  10.696  67.149  1.00  0.00    -0.154 OA 
HETATM   36  O   UNL     3      -9.682   9.965  69.299  1.00  0.00    -0.184 OA 
HETATM   37  H   UNL     3     -11.990  10.647  66.895  1.00  0.00     0.000 HD 
ENDBRANCH  29  32
ENDBRANCH  26  29
ENDBRANCH  23  26
ENDBRANCH   7  23
TORSDOF 8
ENDMDL
MODEL      157
REMARK 921   NORMALIZED FREE ENERGY PREDICTED BY IDOCK:   -5.10 KCAL/MOL
REMARK 922        TOTAL FREE ENERGY PREDICTED BY IDOCK:   -9.57 KCAL/MOL
REMARK 923 INTER-LIGAND FREE ENERGY PREDICTED BY IDOCK:   -8.25 KCAL/MOL
REMARK 924 INTRA-LIGAND FREE ENERGY PREDICTED BY IDOCK:   -1.32 KCAL/MOL
REMARK 927      BINDING AFFINITY PREDICTED BY RF-SCORE:    0.00 PKD
ROOT
HETATM    1 CU   UNL     1     -10.610  13.473  69.699  1.00  0.00    -0.353 Cu 
HETATM    2  O   UNL     2      -9.487  19.072  67.850  1.00  0.00    -0.295 OA 
HETATM    3  C   UNL     2      -8.518  18.108  67.414  1.00  0.00    -0.240 C  
HETATM    4  H   UNL     2      -9.116  19.932  67.689  1.00  0.00     0.000 HD 
HETATM    5  O   UNL     3      -8.757   7.155  72.868  1.00  0.00    -0.119 OA 
HETATM    6  H   UNL     3      -7.914   7.482  73.160  1.00  0.00     0.000 HD 
HETATM    7  C   UNL     3      -9.587   8.281  72.515  1.00  0.00    -0.295 C  
ENDROOT
BRANCH   3   8
HETATM    8  C   UNL     2      -9.113  16.726  67.672  1.00  0.00    -0.218 C  
HETATM    9  O   UNL     2      -9.468  16.603  69.063  1.00  0.00    -0.259 OA 
HETATM   10  H   UNL     2      -9.838  15.743  69.223  1.00  0.00     0.000 HD 
BRANCH   8  11
HETATM   11  C   UNL     2     -10.322  16.432  66.761  1.00  0.00    -0.293 C  
HETATM   12  O   UNL     2     -10.023  16.979  65.475  1.00  0.00    -0.567 OA 
HETATM   13  H   UNL     2     -10.767  16.798  64.914  1.00  0.00     0.000 HD 
BRANCH  11  14
HETATM   14  C   UNL     2     -10.524  14.905  66.686  1.00  0.00    -0.292 C  
HETATM   15  H   UNL     2      -9.701  13.415  65.676  1.00  0.00     0.000 HD 
HETATM   16  O   UNL     2      -9.577  14.356  65.723  1.00  0.00    -0.273 OA 
BRANCH  14  17
HETATM   17  C   UNL     2     -11.942  14.401  66.415  1.00  0.00    -0.385 C  
HETATM   18  C   UNL     2     -11.961  12.852  66.474  1.00  0.00    -0.377 C  
HETATM   19  H   UNL     2     -13.311  14.651  65.023  1.00  0.00     0.000 HD 
HETATM   20  O   UNL     2     -12.430  14.964  65.191  1.00  0.00    -0.172 OA 
HETATM   21  O   UNL     2     -11.379  12.424  67.522  1.00  0.00    -0.274 OA 
HETATM   22  O   UNL     2     -12.555  12.276  65.541  1.00  0.00    -0.548 OA 
ENDBRANCH  14  17
ENDBRANCH  11  14
ENDBRANCH   8  11
ENDBRANCH   3   8
BRANCH   7  23
HETATM   23  C   UNL     3     -10.949   7.753  72.045  1.00  0.00    -0.257 C  
HETATM   24  O   UNL     3     -11.941   8.135  73.020  1.00  0.00    -0.609 OA 
HETATM   25  H   UNL     3     -12.784   7.808  72.729  1.00  0.00     0.000 HD 
BRANCH  23  26
HETATM   26  C   UNL     3     -11.480   8.301  70.705  1.00  0.00    -0.252 C  
HETATM   27  O   UNL     3     -12.352   9.416  70.903  1.00  0.00    -0.392 OA 
HETATM   28  H   UNL     3     -12.679   9.753  70.076  1.00  0.00     0.000 HD 
BRANCH  26  29
HETATM   29  C   UNL     3     -10.463   8.656  69.599  1.00  0.00    -0.220 C  
HETATM   30  O   UNL     3     -11.033   9.484  68.572  1.00  0.00    -0.401 OA 
HETATM   31  H   UNL     3     -10.407   9.702  67.891  1.00  0.00     0.000 HD 
BRANCH  29  32
HETATM   32  C   UNL     3      -9.748   7.494  68.917  1.00  0.00    -0.151 C  
HETATM   33  C   UNL     3     -10.680   6.357  68.462  1.00  0.00    -0.288 C  
HETATM   34  O   UNL     3      -8.772   6.898  69.877  1.00  0.00    -0.140 OA 
HETATM   35  O   UNL     3     -10.774   5.417  69.356  1.00  0.00    -0.274 OA 
HETATM   36  O   UNL     3     -10.909   6.265  67.240  1.00  0.00    -0.301 OA 
HETATM   37  H   UNL     3      -8.327   6.174  69.453  1.00  0.00     0.000 HD 
ENDBRANCH  29  32
ENDBRANCH  26  29
ENDBRANCH  23  26
ENDBRANCH   7  23
TORSDOF 8
ENDMDL
MODEL      158
REMARK 921   NORMALIZED FREE ENERGY PREDICTED BY IDOCK:   -5.10 KCAL/MOL
REMARK 922        TOTAL FREE ENERGY PREDICTED BY IDOCK:   -9.56 KCAL/MOL
REMARK 923 INTER-LIGAND FREE ENERGY PREDICTED BY IDOCK:   -8.19 KCAL/MOL
REMARK 924 INTRA-LIGAND FREE ENERGY PREDICTED BY IDOCK:   -1.36 KCAL/MOL
REMARK 927      BINDING AFFINITY PREDICTED BY RF-SCORE:    0.00 PKD
ROOT
HETATM    1 CU   UNL     1      -7.848  13.851  67.279  1.00  0.00    -0.123 Cu 
HETATM    2  O   UNL     2      -8.235   7.954  66.228  1.00  0.00    -0.107 OA 
HETATM    3  C   UNL     2      -9.301   8.721  65.649  1.00  0.00    -0.150 C  
HETATM    4  H   UNL     2      -8.494   7.041  66.186  1.00  0.00     0.000 HD 
HETATM    5  O   UNL     3     -10.538  20.270  69.503  1.00  0.00    -0.521 OA 
HETATM    6  H   UNL     3     -11.344  19.886  69.829  1.00  0.00     0.000 HD 
HETATM    7  C   UNL     3      -9.569  19.218  69.322  1.00  0.00    -0.197 C  
ENDROOT
BRANCH   3   8
HETATM    8  C   UNL     2      -8.885  10.188  65.715  1.00  0.00    -0.158 C  
HETATM    9  O   UNL     2      -8.762  10.718  64.381  1.00  0.00    -0.273 OA 
HETATM   10  H   UNL     2      -8.503  11.631  64.422  1.00  0.00     0.000 HD 
BRANCH   8  11
HETATM   11  C   UNL     2      -9.858  11.034  66.561  1.00  0.00    -0.203 C  
HETATM   12  O   UNL     2      -9.170  11.391  67.763  1.00  0.00    -0.152 OA 
HETATM   13  H   UNL     2      -9.769  11.912  68.284  1.00  0.00     0.000 HD 
BRANCH  11  14
HETATM   14  C   UNL     2     -10.257  12.285  65.753  1.00  0.00    -0.255 C  
HETATM   15  H   UNL     2     -10.103  14.242  66.003  1.00  0.00     0.000 HD 
HETATM   16  O   UNL     2      -9.857  13.471  66.501  1.00  0.00    -0.276 OA 
BRANCH  14  17
HETATM   17  C   UNL     2     -11.713  12.385  65.296  1.00  0.00    -0.390 C  
HETATM   18  C   UNL     2     -11.761  12.871  63.824  1.00  0.00    -0.492 C  
HETATM   19  H   UNL     2     -13.361  13.250  65.936  1.00  0.00     0.000 HD 
HETATM   20  O   UNL     2     -12.457  13.188  66.220  1.00  0.00    -0.386 OA 
HETATM   21  O   UNL     2     -10.963  12.202  63.093  1.00  0.00    -0.363 OA 
HETATM   22  O   UNL     2     -12.571  13.785  63.575  1.00  0.00    -0.814 OA 
ENDBRANCH  14  17
ENDBRANCH  11  14
ENDBRANCH   8  11
ENDBRANCH   3   8
BRANCH   7  23
HETATM   23  C   UNL     3      -8.268  19.839  68.796  1.00  0.00    -0.173 C  
HETATM   24  O   UNL     3      -7.166  19.026  69.250  1.00  0.00    -0.295 OA 
HETATM   25  H   UNL     3      -6.360  19.411  68.925  1.00  0.00     0.000 HD 
BRANCH  23  26
HETATM   26  C   UNL     3      -8.102  19.911  67.265  1.00  0.00    -0.306 C  
HETATM   27  O   UNL     3      -6.807  19.464  66.856  1.00  0.00    -0.197 OA 
HETATM   28  H   UNL     3      -6.705  19.509  65.912  1.00  0.00     0.000 HD 
BRANCH  26  29
HETATM   29  C   UNL     3      -9.165  19.230  66.376  1.00  0.00    -0.352 C  
HETATM   30  O   UNL     3     -10.504  19.455  66.846  1.00  0.00    -0.402 OA 
HETATM   31  H   UNL     3     -11.157  19.036  66.299  1.00  0.00     0.000 HD 
BRANCH  29  32
HETATM   32  C   UNL     3      -9.004  17.734  66.126  1.00  0.00    -0.094 C  
HETATM   33  C   UNL     3     -10.331  16.960  66.040  1.00  0.00    -0.325 C  
HETATM   34  O   UNL     3      -8.225  17.139  67.253  1.00  0.00    -0.181 OA 
HETATM   35  O   UNL     3     -10.675  16.454  67.187  1.00  0.00    -0.307 OA 
HETATM   36  O   UNL     3     -10.699  16.590  64.908  1.00  0.00    -0.702 OA 
HETATM   37  H   UNL     3      -8.125  16.207  67.098  1.00  0.00     0.000 HD 
ENDBRANCH  29  32
ENDBRANCH  26  29
ENDBRANCH  23  26
ENDBRANCH   7  23
TORSDOF 8
ENDMDL
MODEL      159
REMARK 921   NORMALIZED FREE ENERGY PREDICTED BY IDOCK:   -5.10 KCAL/MOL
REMARK 922        TOTAL FREE ENERGY PREDICTED BY IDOCK:   -9.56 KCAL/MOL
REMARK 923 INTER-LIGAND FREE ENERGY PREDICTED BY IDOCK:   -7.72 KCAL/MOL
REMARK 924 INTRA-LIGAND FREE ENERGY PREDICTED BY IDOCK:   -1.83 KCAL/MOL
REMARK 927      BINDING AFFINITY PREDICTED BY RF-SCORE:    0.00 PKD
ROOT
HETATM    1 CU   UNL     1      -8.484  13.513  67.953  1.00  0.00    -0.124 Cu 
HETATM    2  O   UNL     2      -6.565  19.056  66.678  1.00  0.00    -0.188 OA 
HETATM    3  C   UNL     2      -7.643  18.605  65.845  1.00  0.00    -0.149 C  
HETATM    4  H   UNL     2      -6.204  19.835  66.270  1.00  0.00     0.000 HD 
HETATM    5  O   UNL     3     -10.274   6.658  66.167  1.00  0.00    -0.422 OA 
HETATM    6  H   UNL     3      -9.969   6.750  65.272  1.00  0.00     0.000 HD 
HETATM    7  C   UNL     3      -9.720   7.734  66.952  1.00  0.00    -0.216 C  
ENDROOT
BRANCH   3   8
HETATM    8  C   UNL     2      -8.223  17.354  66.500  1.00  0.00    -0.276 C  
HETATM    9  O   UNL     2      -7.355  16.917  67.563  1.00  0.00    -0.146 OA 
HETATM   10  H   UNL     2      -7.716  16.138  67.970  1.00  0.00     0.000 HD 
BRANCH   8  11
HETATM   11  C   UNL     2      -9.661  17.576  67.012  1.00  0.00    -0.268 C  
HETATM   12  O   UNL     2     -10.253  18.579  66.183  1.00  0.00    -0.395 OA 
HETATM   13  H   UNL     2     -11.138  18.716  66.498  1.00  0.00     0.000 HD 
BRANCH  11  14
HETATM   14  C   UNL     2     -10.431  16.244  66.916  1.00  0.00    -0.302 C  
HETATM   15  H   UNL     2     -10.719  14.686  68.101  1.00  0.00     0.000 HD 
HETATM   16  O   UNL     2     -10.244  15.506  68.160  1.00  0.00    -0.223 OA 
BRANCH  14  17
HETATM   17  C   UNL     2     -10.147  15.360  65.701  1.00  0.00    -0.376 C  
HETATM   18  C   UNL     2     -11.268  15.553  64.648  1.00  0.00    -0.371 C  
HETATM   19  H   UNL     2      -9.768  13.457  65.369  1.00  0.00     0.000 HD 
HETATM   20  O   UNL     2      -9.945  14.007  66.124  1.00  0.00    -0.293 OA 
HETATM   21  O   UNL     2     -11.490  16.788  64.433  1.00  0.00    -1.024 OA 
HETATM   22  O   UNL     2     -11.743  14.510  64.155  1.00  0.00    -0.315 OA 
ENDBRANCH  14  17
ENDBRANCH  11  14
ENDBRANCH   8  11
ENDBRANCH   3   8
BRANCH   7  23
HETATM   23  C   UNL     3     -10.212   7.585  68.398  1.00  0.00    -0.185 C  
HETATM   24  O   UNL     3     -11.021   8.736  68.718  1.00  0.00    -0.432 OA 
HETATM   25  H   UNL     3     -11.326   8.644  69.614  1.00  0.00     0.000 HD 
BRANCH  23  26
HETATM   26  C   UNL     3     -11.111   6.371  68.704  1.00  0.00    -0.311 C  
HETATM   27  O   UNL     3     -10.462   5.141  68.375  1.00  0.00    -0.118 OA 
HETATM   28  H   UNL     3     -11.017   4.393  68.564  1.00  0.00     0.000 HD 
BRANCH  26  29
HETATM   29  C   UNL     3     -11.726   6.246  70.115  1.00  0.00    -0.203 C  
HETATM   30  O   UNL     3     -12.567   7.361  70.451  1.00  0.00    -0.495 OA 
HETATM   31  H   UNL     3     -12.945   7.283  71.319  1.00  0.00     0.000 HD 
BRANCH  29  32
HETATM   32  C   UNL     3     -10.759   6.026  71.274  1.00  0.00    -0.263 C  
HETATM   33  C   UNL     3     -10.802   7.124  72.351  1.00  0.00    -0.246 C  
HETATM   34  O   UNL     3      -9.366   5.995  70.739  1.00  0.00    -0.152 OA 
HETATM   35  O   UNL     3      -9.910   8.047  72.141  1.00  0.00    -0.187 OA 
HETATM   36  O   UNL     3     -11.357   6.839  73.430  1.00  0.00    -0.040 OA 
HETATM   37  H   UNL     3      -8.763   5.858  71.461  1.00  0.00     0.000 HD 
ENDBRANCH  29  32
ENDBRANCH  26  29
ENDBRANCH  23  26
ENDBRANCH   7  23
TORSDOF 8
ENDMDL
MODEL      160
REMARK 921   NORMALIZED FREE ENERGY PREDICTED BY IDOCK:   -5.08 KCAL/MOL
REMARK 922        TOTAL FREE ENERGY PREDICTED BY IDOCK:   -9.54 KCAL/MOL
REMARK 923 INTER-LIGAND FREE ENERGY PREDICTED BY IDOCK:   -8.12 KCAL/MOL
REMARK 924 INTRA-LIGAND FREE ENERGY PREDICTED BY IDOCK:   -1.42 KCAL/MOL
REMARK 927      BINDING AFFINITY PREDICTED BY RF-SCORE:    0.00 PKD
ROOT
HETATM    1 CU   UNL     1     -11.415   7.980  69.236  1.00  0.00    -0.413 Cu 
HETATM    2  O   UNL     2     -10.062   3.846  73.373  1.00  0.00    -0.126 OA 
HETATM    3  C   UNL     2     -10.807   4.961  73.884  1.00  0.00    -0.289 C  
HETATM    4  H   UNL     2      -9.725   3.368  74.123  1.00  0.00     0.000 HD 
HETATM    5  O   UNL     3     -11.651  14.823  66.688  1.00  0.00    -0.360 OA 
HETATM    6  H   UNL     3     -11.139  15.171  67.410  1.00  0.00     0.000 HD 
HETATM    7  C   UNL     3     -11.485  13.391  66.658  1.00  0.00    -0.344 C  
ENDROOT
BRANCH   3   8
HETATM    8  C   UNL     2     -11.348   5.728  72.680  1.00  0.00    -0.300 C  
HETATM    9  O   UNL     2     -12.782   5.598  72.628  1.00  0.00    -0.418 OA 
HETATM   10  H   UNL     2     -13.119   6.075  71.879  1.00  0.00     0.000 HD 
BRANCH   8  11
HETATM   11  C   UNL     2     -10.924   7.211  72.694  1.00  0.00    -0.288 C  
HETATM   12  O   UNL     2     -10.311   7.461  73.961  1.00  0.00    -0.405 OA 
HETATM   13  H   UNL     2     -10.050   8.374  73.970  1.00  0.00     0.000 HD 
BRANCH  11  14
HETATM   14  C   UNL     2      -9.936   7.453  71.536  1.00  0.00    -0.181 C  
HETATM   15  H   UNL     2      -8.713   6.330  70.459  1.00  0.00     0.000 HD 
HETATM   16  O   UNL     2      -9.322   6.181  71.173  1.00  0.00    -0.162 OA 
BRANCH  14  17
HETATM   17  C   UNL     2      -8.879   8.540  71.736  1.00  0.00    -0.211 C  
HETATM   18  C   UNL     2      -8.733   9.365  70.431  1.00  0.00    -0.240 C  
HETATM   19  H   UNL     2      -7.008   8.627  72.340  1.00  0.00     0.000 HD 
HETATM   20  O   UNL     2      -7.665   7.952  72.216  1.00  0.00    -0.089 OA 
HETATM   21  O   UNL     2      -9.869   9.729  69.987  1.00  0.00    -0.227 OA 
HETATM   22  O   UNL     2      -7.567   9.577  70.045  1.00  0.00    -0.096 OA 
ENDBRANCH  14  17
ENDBRANCH  11  14
ENDBRANCH   8  11
ENDBRANCH   3   8
BRANCH   7  23
HETATM   23  C   UNL     3     -12.311  12.829  65.494  1.00  0.00    -0.434 C  
HETATM   24  O   UNL     3     -13.069  13.912  64.916  1.00  0.00    -0.704 OA 
HETATM   25  H   UNL     3     -13.581  13.563  64.195  1.00  0.00     0.000 HD 
BRANCH  23  26
HETATM   26  C   UNL     3     -11.526  12.222  64.315  1.00  0.00    -0.362 C  
HETATM   27  O   UNL     3     -11.870  12.848  63.077  1.00  0.00    -0.827 OA 
HETATM   28  H   UNL     3     -11.385  12.474  62.350  1.00  0.00     0.000 HD 
BRANCH  26  29
HETATM   29  C   UNL     3      -9.987  12.140  64.418  1.00  0.00    -0.214 C  
HETATM   30  O   UNL     3      -9.342  12.262  63.140  1.00  0.00    -0.601 OA 
HETATM   31  H   UNL     3      -8.395  12.212  63.204  1.00  0.00     0.000 HD 
BRANCH  29  32
HETATM   32  C   UNL     3      -9.405  10.918  65.120  1.00  0.00    -0.218 C  
HETATM   33  C   UNL     3      -8.366  10.146  64.287  1.00  0.00    -0.171 C  
HETATM   34  O   UNL     3     -10.512   9.965  65.427  1.00  0.00    -0.126 OA 
HETATM   35  O   UNL     3      -8.906   9.167  63.623  1.00  0.00    -0.178 OA 
HETATM   36  O   UNL     3      -7.170  10.269  64.616  1.00  0.00    -0.137 OA 
HETATM   37  H   UNL     3     -10.150   9.203  65.864  1.00  0.00     0.000 HD 
ENDBRANCH  29  32
ENDBRANCH  26  29
ENDBRANCH  23  26
ENDBRANCH   7  23
TORSDOF 8
ENDMDL
MODEL      161
REMARK 921   NORMALIZED FREE ENERGY PREDICTED BY IDOCK:   -5.07 KCAL/MOL
REMARK 922        TOTAL FREE ENERGY PREDICTED BY IDOCK:   -9.52 KCAL/MOL
REMARK 923 INTER-LIGAND FREE ENERGY PREDICTED BY IDOCK:   -7.98 KCAL/MOL
REMARK 924 INTRA-LIGAND FREE ENERGY PREDICTED BY IDOCK:   -1.53 KCAL/MOL
REMARK 927      BINDING AFFINITY PREDICTED BY RF-SCORE:    0.00 PKD
ROOT
HETATM    1 CU   UNL     1      -9.973  10.959  65.729  1.00  0.00    -0.191 Cu 
HETATM    2  O   UNL     2     -11.424  16.459  63.810  1.00  0.00    -1.590 OA 
HETATM    3  C   UNL     2     -12.553  15.650  64.171  1.00  0.00     0.466 C  
HETATM    4  H   UNL     2     -11.760  17.210  63.334  1.00  0.00     0.000 HD 
HETATM    5  O   UNL     3     -10.532   3.674  65.676  1.00  0.00    -0.370 OA 
HETATM    6  H   UNL     3     -11.102   3.665  64.915  1.00  0.00     0.000 HD 
HETATM    7  C   UNL     3      -9.894   4.965  65.756  1.00  0.00    -0.168 C  
ENDROOT
BRANCH   3   8
HETATM    8  C   UNL     2     -12.014  14.444  64.936  1.00  0.00    -0.426 C  
HETATM    9  O   UNL     2     -10.957  13.822  64.179  1.00  0.00    -0.574 OA 
HETATM   10  H   UNL     2     -10.622  13.071  64.655  1.00  0.00     0.000 HD 
BRANCH   8  11
HETATM   11  C   UNL     2     -11.536  14.817  66.354  1.00  0.00    -0.319 C  
HETATM   12  O   UNL     2     -12.342  14.082  67.277  1.00  0.00    -0.533 OA 
HETATM   13  H   UNL     2     -12.048  14.311  68.150  1.00  0.00     0.000 HD 
BRANCH  11  14
HETATM   14  C   UNL     2     -10.046  14.441  66.488  1.00  0.00    -0.276 C  
HETATM   15  H   UNL     2      -9.037  12.852  67.098  1.00  0.00     0.000 HD 
HETATM   16  O   UNL     2      -9.954  13.084  67.015  1.00  0.00    -0.234 OA 
BRANCH  14  17
HETATM   17  C   UNL     2      -9.153  15.401  67.274  1.00  0.00    -0.206 C  
HETATM   18  C   UNL     2      -8.507  16.420  66.300  1.00  0.00    -0.337 C  
HETATM   19  H   UNL     2      -7.668  15.253  68.557  1.00  0.00     0.000 HD 
HETATM   20  O   UNL     2      -8.223  14.656  68.069  1.00  0.00    -0.131 OA 
HETATM   21  O   UNL     2      -9.378  16.933  65.527  1.00  0.00    -0.472 OA 
HETATM   22  O   UNL     2      -7.282  16.610  66.438  1.00  0.00    -0.240 OA 
ENDBRANCH  14  17
ENDBRANCH  11  14
ENDBRANCH   8  11
ENDBRANCH   3   8
BRANCH   7  23
HETATM   23  C   UNL     3      -8.974   4.980  66.984  1.00  0.00    -0.112 C  
HETATM   24  O   UNL     3      -7.625   5.218  66.532  1.00  0.00    -0.086 OA 
HETATM   25  H   UNL     3      -7.055   5.227  67.293  1.00  0.00     0.000 HD 
BRANCH  23  26
HETATM   26  C   UNL     3      -9.240   6.073  68.036  1.00  0.00    -0.115 C  
HETATM   27  O   UNL     3      -9.262   7.375  67.446  1.00  0.00    -0.129 OA 
HETATM   28  H   UNL     3      -9.426   8.050  68.096  1.00  0.00     0.000 HD 
BRANCH  26  29
HETATM   29  C   UNL     3     -10.469   5.926  68.960  1.00  0.00    -0.265 C  
HETATM   30  O   UNL     3     -11.638   6.569  68.426  1.00  0.00    -0.525 OA 
HETATM   31  H   UNL     3     -12.394   6.478  68.995  1.00  0.00     0.000 HD 
BRANCH  29  32
HETATM   32  C   UNL     3     -10.306   6.381  70.406  1.00  0.00    -0.205 C  
HETATM   33  C   UNL     3     -11.631   6.542  71.172  1.00  0.00    -0.335 C  
HETATM   34  O   UNL     3      -9.630   7.712  70.420  1.00  0.00    -0.168 OA 
HETATM   35  O   UNL     3     -12.074   7.764  71.126  1.00  0.00    -0.306 OA 
HETATM   36  O   UNL     3     -11.909   5.667  72.015  1.00  0.00    -0.137 OA 
HETATM   37  H   UNL     3      -9.529   7.996  71.321  1.00  0.00     0.000 HD 
ENDBRANCH  29  32
ENDBRANCH  26  29
ENDBRANCH  23  26
ENDBRANCH   7  23
TORSDOF 8
ENDMDL
MODEL      162
REMARK 921   NORMALIZED FREE ENERGY PREDICTED BY IDOCK:   -5.07 KCAL/MOL
REMARK 922        TOTAL FREE ENERGY PREDICTED BY IDOCK:   -9.51 KCAL/MOL
REMARK 923 INTER-LIGAND FREE ENERGY PREDICTED BY IDOCK:   -7.81 KCAL/MOL
REMARK 924 INTRA-LIGAND FREE ENERGY PREDICTED BY IDOCK:   -1.70 KCAL/MOL
REMARK 927      BINDING AFFINITY PREDICTED BY RF-SCORE:    0.00 PKD
ROOT
HETATM    1 CU   UNL     1      -9.454   9.264  67.756  1.00  0.00    -0.132 Cu 
HETATM    2  O   UNL     2      -8.471  14.830  69.778  1.00  0.00    -0.424 OA 
HETATM    3  C   UNL     2      -9.131  14.779  68.505  1.00  0.00    -0.187 C  
HETATM    4  H   UNL     2      -8.181  15.726  69.906  1.00  0.00     0.000 HD 
HETATM    5  O   UNL     3      -9.127   4.013  62.686  1.00  0.00    -0.098 OA 
HETATM    6  H   UNL     3      -8.597   4.536  62.095  1.00  0.00     0.000 HD 
HETATM    7  C   UNL     3      -9.074   4.609  63.998  1.00  0.00    -0.088 C  
ENDROOT
BRANCH   3   8
HETATM    8  C   UNL     2      -9.599  13.341  68.299  1.00  0.00    -0.221 C  
HETATM    9  O   UNL     2     -10.634  13.027  69.250  1.00  0.00    -0.441 OA 
HETATM   10  H   UNL     2     -10.925  12.131  69.122  1.00  0.00     0.000 HD 
BRANCH   8  11
HETATM   11  C   UNL     2     -10.074  13.082  66.854  1.00  0.00    -0.243 C  
HETATM   12  O   UNL     2     -10.815  11.859  66.868  1.00  0.00    -0.239 OA 
HETATM   13  H   UNL     2     -11.108  11.700  65.979  1.00  0.00     0.000 HD 
BRANCH  11  14
HETATM   14  C   UNL     2     -10.954  14.265  66.404  1.00  0.00    -0.311 C  
HETATM   15  H   UNL     2     -12.646  15.086  67.020  1.00  0.00     0.000 HD 
HETATM   16  O   UNL     2     -12.104  14.357  67.297  1.00  0.00    -0.406 OA 
BRANCH  14  17
HETATM   17  C   UNL     2     -11.389  14.294  64.938  1.00  0.00    -0.372 C  
HETATM   18  C   UNL     2     -11.482  15.764  64.455  1.00  0.00    -0.289 C  
HETATM   19  H   UNL     2     -12.858  13.546  63.863  1.00  0.00     0.000 HD 
HETATM   20  O   UNL     2     -12.588  13.528  64.774  1.00  0.00    -0.583 OA 
HETATM   21  O   UNL     2     -10.436  16.418  64.768  1.00  0.00    -0.620 OA 
HETATM   22  O   UNL     2     -12.512  16.068  63.821  1.00  0.00    -0.784 OA 
ENDBRANCH  14  17
ENDBRANCH  11  14
ENDBRANCH   8  11
ENDBRANCH   3   8
BRANCH   7  23
HETATM   23  C   UNL     3      -9.930   3.765  64.952  1.00  0.00    -0.171 C  
HETATM   24  O   UNL     3      -9.625   2.375  64.719  1.00  0.00    -0.256 OA 
HETATM   25  H   UNL     3     -10.155   1.852  65.309  1.00  0.00     0.000 HD 
BRANCH  23  26
HETATM   26  C   UNL     3      -9.698   3.975  66.461  1.00  0.00    -0.191 C  
HETATM   27  O   UNL     3      -8.331   4.280  66.745  1.00  0.00    -0.101 OA 
HETATM   28  H   UNL     3      -8.189   4.409  67.676  1.00  0.00     0.000 HD 
BRANCH  26  29
HETATM   29  C   UNL     3     -10.597   4.980  67.213  1.00  0.00    -0.002 C  
HETATM   30  O   UNL     3     -11.229   5.921  66.330  1.00  0.00    -0.749 OA 
HETATM   31  H   UNL     3     -11.782   6.540  66.793  1.00  0.00     0.000 HD 
BRANCH  29  32
HETATM   32  C   UNL     3      -9.955   5.767  68.350  1.00  0.00    -0.153 C  
HETATM   33  C   UNL     3     -10.956   6.516  69.246  1.00  0.00    -0.331 C  
HETATM   34  O   UNL     3      -9.038   6.792  67.769  1.00  0.00    -0.120 OA 
HETATM   35  O   UNL     3     -11.130   7.746  68.860  1.00  0.00     0.039 OA 
HETATM   36  O   UNL     3     -11.171   6.041  70.379  1.00  0.00    -0.337 OA 
HETATM   37  H   UNL     3      -8.638   7.282  68.477  1.00  0.00     0.000 HD 
ENDBRANCH  29  32
ENDBRANCH  26  29
ENDBRANCH  23  26
ENDBRANCH   7  23
TORSDOF 8
ENDMDL
MODEL      163
REMARK 921   NORMALIZED FREE ENERGY PREDICTED BY IDOCK:   -5.05 KCAL/MOL
REMARK 922        TOTAL FREE ENERGY PREDICTED BY IDOCK:   -9.49 KCAL/MOL
REMARK 923 INTER-LIGAND FREE ENERGY PREDICTED BY IDOCK:   -7.53 KCAL/MOL
REMARK 924 INTRA-LIGAND FREE ENERGY PREDICTED BY IDOCK:   -1.96 KCAL/MOL
REMARK 927      BINDING AFFINITY PREDICTED BY RF-SCORE:    0.00 PKD
ROOT
HETATM    1 CU   UNL     1      -9.509  10.224  69.312  1.00  0.00    -0.143 Cu 
HETATM    2  O   UNL     2      -6.959   4.805  68.911  1.00  0.00    -0.050 OA 
HETATM    3  C   UNL     2      -8.389   4.787  68.795  1.00  0.00    -0.082 C  
HETATM    4  H   UNL     2      -6.678   3.906  69.043  1.00  0.00     0.000 HD 
HETATM    5  O   UNL     3     -14.337  14.974  72.054  1.00  0.00    -0.488 OA 
HETATM    6  H   UNL     3     -14.645  14.366  72.717  1.00  0.00     0.000 HD 
HETATM    7  C   UNL     3     -13.076  14.493  71.544  1.00  0.00    -0.343 C  
ENDROOT
BRANCH   3   8
HETATM    8  C   UNL     2      -8.840   6.230  68.582  1.00  0.00    -0.119 C  
HETATM    9  O   UNL     2      -8.475   6.660  67.256  1.00  0.00    -0.119 OA 
HETATM   10  H   UNL     2      -8.755   7.559  67.124  1.00  0.00     0.000 HD 
BRANCH   8  11
HETATM   11  C   UNL     2     -10.351   6.412  68.829  1.00  0.00    -0.198 C  
HETATM   12  O   UNL     2     -10.820   5.220  69.464  1.00  0.00    -0.202 OA 
HETATM   13  H   UNL     2     -11.751   5.332  69.616  1.00  0.00     0.000 HD 
BRANCH  11  14
HETATM   14  C   UNL     2     -10.560   7.646  69.730  1.00  0.00    -0.244 C  
HETATM   15  H   UNL     2      -9.436   8.698  70.973  1.00  0.00     0.000 HD 
HETATM   16  O   UNL     2      -9.307   7.938  70.418  1.00  0.00    -0.158 OA 
BRANCH  14  17
HETATM   17  C   UNL     2     -11.732   7.603  70.710  1.00  0.00    -0.239 C  
HETATM   18  C   UNL     2     -11.984   9.024  71.277  1.00  0.00    -0.312 C  
HETATM   19  H   UNL     2     -12.229   6.567  72.309  1.00  0.00     0.000 HD 
HETATM   20  O   UNL     2     -11.500   6.593  71.699  1.00  0.00    -0.260 OA 
HETATM   21  O   UNL     2     -12.033   9.890  70.344  1.00  0.00    -0.256 OA 
HETATM   22  O   UNL     2     -12.135   9.103  72.512  1.00  0.00    -0.235 OA 
ENDBRANCH  14  17
ENDBRANCH  11  14
ENDBRANCH   8  11
ENDBRANCH   3   8
BRANCH   7  23
HETATM   23  C   UNL     3     -12.578  15.473  70.473  1.00  0.00    -0.416 C  
HETATM   24  O   UNL     3     -11.691  16.418  71.106  1.00  0.00    -0.610 OA 
HETATM   25  H   UNL     3     -11.383  17.026  70.443  1.00  0.00     0.000 HD 
BRANCH  23  26
HETATM   26  C   UNL     3     -11.759  14.876  69.313  1.00  0.00    -0.316 C  
HETATM   27  O   UNL     3     -12.605  14.374  68.276  1.00  0.00    -0.519 OA 
HETATM   28  H   UNL     3     -12.099  14.006  67.561  1.00  0.00     0.000 HD 
BRANCH  26  29
HETATM   29  C   UNL     3     -10.649  15.739  68.673  1.00  0.00    -0.250 C  
HETATM   30  O   UNL     3     -11.104  17.059  68.335  1.00  0.00    -0.320 OA 
HETATM   31  H   UNL     3     -10.421  17.589  67.941  1.00  0.00     0.000 HD 
BRANCH  29  32
HETATM   32  C   UNL     3      -9.943  15.162  67.451  1.00  0.00    -0.226 C  
HETATM   33  C   UNL     3     -10.435  15.730  66.108  1.00  0.00    -0.317 C  
HETATM   34  O   UNL     3     -10.176  13.687  67.411  1.00  0.00    -0.238 OA 
HETATM   35  O   UNL     3     -11.366  14.992  65.579  1.00  0.00    -0.347 OA 
HETATM   36  O   UNL     3      -9.686  16.538  65.525  1.00  0.00    -0.524 OA 
HETATM   37  H   UNL     3      -9.736  13.328  66.649  1.00  0.00     0.000 HD 
ENDBRANCH  29  32
ENDBRANCH  26  29
ENDBRANCH  23  26
ENDBRANCH   7  23
TORSDOF 8
ENDMDL
MODEL      164
REMARK 921   NORMALIZED FREE ENERGY PREDICTED BY IDOCK:   -5.05 KCAL/MOL
REMARK 922        TOTAL FREE ENERGY PREDICTED BY IDOCK:   -9.48 KCAL/MOL
REMARK 923 INTER-LIGAND FREE ENERGY PREDICTED BY IDOCK:   -8.19 KCAL/MOL
REMARK 924 INTRA-LIGAND FREE ENERGY PREDICTED BY IDOCK:   -1.30 KCAL/MOL
REMARK 927      BINDING AFFINITY PREDICTED BY RF-SCORE:    0.00 PKD
ROOT
HETATM    1 CU   UNL     1      -9.823  12.523  69.109  1.00  0.00    -0.320 Cu 
HETATM    2  O   UNL     2     -10.869  16.892  65.127  1.00  0.00    -0.602 OA 
HETATM    3  C   UNL     2     -11.116  15.572  64.624  1.00  0.00    -0.359 C  
HETATM    4  H   UNL     2     -10.860  17.479  64.380  1.00  0.00     0.000 HD 
HETATM    5  O   UNL     3      -6.797   6.220  71.231  1.00  0.00    -0.063 OA 
HETATM    6  H   UNL     3      -6.273   6.139  70.442  1.00  0.00     0.000 HD 
HETATM    7  C   UNL     3      -7.261   7.582  71.335  1.00  0.00    -0.070 C  
ENDROOT
BRANCH   3   8
HETATM    8  C   UNL     2     -11.131  14.629  65.824  1.00  0.00    -0.331 C  
HETATM    9  O   UNL     2     -12.337  14.834  66.586  1.00  0.00    -0.325 OA 
HETATM   10  H   UNL     2     -12.346  14.247  67.334  1.00  0.00     0.000 HD 
BRANCH   8  11
HETATM   11  C   UNL     2     -10.982  13.151  65.408  1.00  0.00    -0.279 C  
HETATM   12  O   UNL     2      -9.982  13.101  64.387  1.00  0.00    -0.615 OA 
HETATM   13  H   UNL     2      -9.890  12.191  64.131  1.00  0.00     0.000 HD 
BRANCH  11  14
HETATM   14  C   UNL     2     -10.561  12.330  66.644  1.00  0.00    -0.229 C  
HETATM   15  H   UNL     2      -8.985  12.277  67.839  1.00  0.00     0.000 HD 
HETATM   16  O   UNL     2      -9.244  12.782  67.078  1.00  0.00    -0.207 OA 
BRANCH  14  17
HETATM   17  C   UNL     2     -10.609  10.807  66.519  1.00  0.00    -0.218 C  
HETATM   18  C   UNL     2     -10.929  10.185  67.902  1.00  0.00    -0.277 C  
HETATM   19  H   UNL     2      -9.432   9.387  65.833  1.00  0.00     0.000 HD 
HETATM   20  O   UNL     2      -9.402  10.333  65.910  1.00  0.00    -0.164 OA 
HETATM   21  O   UNL     2     -11.927  10.758  68.445  1.00  0.00    -0.508 OA 
HETATM   22  O   UNL     2     -10.214   9.224  68.250  1.00  0.00    -0.185 OA 
ENDBRANCH  14  17
ENDBRANCH  11  14
ENDBRANCH   8  11
ENDBRANCH   3   8
BRANCH   7  23
HETATM   23  C   UNL     3      -8.106   7.713  72.608  1.00  0.00    -0.118 C  
HETATM   24  O   UNL     3      -7.373   8.518  73.554  1.00  0.00    -0.298 OA 
HETATM   25  H   UNL     3      -7.896   8.600  74.343  1.00  0.00     0.000 HD 
BRANCH  23  26
HETATM   26  C   UNL     3      -9.471   8.415  72.466  1.00  0.00    -0.289 C  
HETATM   27  O   UNL     3      -9.697   8.857  71.125  1.00  0.00    -0.223 OA 
HETATM   28  H   UNL     3     -10.539   9.289  71.037  1.00  0.00     0.000 HD 
BRANCH  26  29
HETATM   29  C   UNL     3     -10.734   7.679  72.964  1.00  0.00    -0.391 C  
HETATM   30  O   UNL     3     -10.632   7.279  74.340  1.00  0.00    -0.464 OA 
HETATM   31  H   UNL     3     -11.409   6.826  74.646  1.00  0.00     0.000 HD 
BRANCH  29  32
HETATM   32  C   UNL     3     -11.192   6.467  72.159  1.00  0.00    -0.279 C  
HETATM   33  C   UNL     3     -12.142   6.802  70.996  1.00  0.00    -0.372 C  
HETATM   34  O   UNL     3     -11.925   5.535  73.066  1.00  0.00    -0.554 OA 
HETATM   35  O   UNL     3     -13.391   6.700  71.343  1.00  0.00    -0.142 OA 
HETATM   36  O   UNL     3     -11.669   6.748  69.843  1.00  0.00    -0.306 OA 
HETATM   37  H   UNL     3     -12.210   4.780  72.564  1.00  0.00     0.000 HD 
ENDBRANCH  29  32
ENDBRANCH  26  29
ENDBRANCH  23  26
ENDBRANCH   7  23
TORSDOF 8
ENDMDL
MODEL      165
REMARK 921   NORMALIZED FREE ENERGY PREDICTED BY IDOCK:   -5.04 KCAL/MOL
REMARK 922        TOTAL FREE ENERGY PREDICTED BY IDOCK:   -9.48 KCAL/MOL
REMARK 923 INTER-LIGAND FREE ENERGY PREDICTED BY IDOCK:   -8.68 KCAL/MOL
REMARK 924 INTRA-LIGAND FREE ENERGY PREDICTED BY IDOCK:   -0.80 KCAL/MOL
REMARK 927      BINDING AFFINITY PREDICTED BY RF-SCORE:    0.00 PKD
ROOT
HETATM    1 CU   UNL     1      -8.891  14.954  69.227  1.00  0.00    -0.158 Cu 
HETATM    2  O   UNL     2      -8.012  20.685  67.672  1.00  0.00    -0.270 OA 
HETATM    3  C   UNL     2      -9.361  20.231  67.492  1.00  0.00    -0.383 C  
HETATM    4  H   UNL     2      -7.932  21.513  67.213  1.00  0.00     0.000 HD 
HETATM    5  O   UNL     3     -11.261   8.152  67.999  1.00  0.00    -0.319 OA 
HETATM    6  H   UNL     3     -11.477   8.330  67.091  1.00  0.00     0.000 HD 
HETATM    7  C   UNL     3     -10.390   9.199  68.475  1.00  0.00    -0.207 C  
ENDROOT
BRANCH   3   8
HETATM    8  C   UNL     2      -9.490  18.901  68.230  1.00  0.00    -0.348 C  
HETATM    9  O   UNL     2     -10.714  18.248  67.841  1.00  0.00    -0.397 OA 
HETATM   10  H   UNL     2     -10.794  17.420  68.301  1.00  0.00     0.000 HD 
BRANCH   8  11
HETATM   11  C   UNL     2      -8.272  17.984  67.997  1.00  0.00    -0.259 C  
HETATM   12  O   UNL     2      -8.254  17.031  69.063  1.00  0.00    -0.225 OA 
HETATM   13  H   UNL     2      -7.504  16.466  68.920  1.00  0.00     0.000 HD 
BRANCH  11  14
HETATM   14  C   UNL     2      -8.429  17.290  66.629  1.00  0.00    -0.260 C  
HETATM   15  H   UNL     2      -8.095  17.787  64.743  1.00  0.00     0.000 HD 
HETATM   16  O   UNL     2      -7.998  18.214  65.586  1.00  0.00    -0.502 OA 
BRANCH  14  17
HETATM   17  C   UNL     2      -9.797  16.690  66.305  1.00  0.00    -0.310 C  
HETATM   18  C   UNL     2      -9.647  15.167  66.056  1.00  0.00    -0.330 C  
HETATM   19  H   UNL     2     -11.254  17.044  65.029  1.00  0.00     0.000 HD 
HETATM   20  O   UNL     2     -10.404  17.418  65.230  1.00  0.00    -0.616 OA 
HETATM   21  O   UNL     2      -8.971  14.614  66.982  1.00  0.00    -0.215 OA 
HETATM   22  O   UNL     2     -10.223  14.717  65.046  1.00  0.00    -0.401 OA 
ENDBRANCH  14  17
ENDBRANCH  11  14
ENDBRANCH   8  11
ENDBRANCH   3   8
BRANCH   7  23
HETATM   23  C   UNL     3     -10.041   8.913  69.942  1.00  0.00    -0.195 C  
HETATM   24  O   UNL     3      -9.009   9.836  70.346  1.00  0.00    -0.309 OA 
HETATM   25  H   UNL     3      -8.793   9.659  71.255  1.00  0.00     0.000 HD 
BRANCH  23  26
HETATM   26  C   UNL     3     -11.170   9.103  70.974  1.00  0.00    -0.312 C  
HETATM   27  O   UNL     3     -12.435   9.299  70.337  1.00  0.00    -0.473 OA 
HETATM   28  H   UNL     3     -13.131   9.416  70.974  1.00  0.00     0.000 HD 
BRANCH  26  29
HETATM   29  C   UNL     3     -11.334   8.049  72.090  1.00  0.00    -0.328 C  
HETATM   30  O   UNL     3     -10.096   7.754  72.755  1.00  0.00    -0.231 OA 
HETATM   31  H   UNL     3     -10.197   7.105  73.442  1.00  0.00     0.000 HD 
BRANCH  29  32
HETATM   32  C   UNL     3     -11.982   6.725  71.701  1.00  0.00    -0.347 C  
HETATM   33  C   UNL     3     -11.222   5.480  72.192  1.00  0.00    -0.183 C  
HETATM   34  O   UNL     3     -12.045   6.638  70.212  1.00  0.00    -0.570 OA 
HETATM   35  O   UNL     3     -10.398   5.027  71.293  1.00  0.00    -0.217 OA 
HETATM   36  O   UNL     3     -11.716   4.854  73.150  1.00  0.00    -0.315 OA 
HETATM   37  H   UNL     3     -12.448   5.813  69.969  1.00  0.00     0.000 HD 
ENDBRANCH  29  32
ENDBRANCH  26  29
ENDBRANCH  23  26
ENDBRANCH   7  23
TORSDOF 8
ENDMDL
MODEL      166
REMARK 921   NORMALIZED FREE ENERGY PREDICTED BY IDOCK:   -5.04 KCAL/MOL
REMARK 922        TOTAL FREE ENERGY PREDICTED BY IDOCK:   -9.47 KCAL/MOL
REMARK 923 INTER-LIGAND FREE ENERGY PREDICTED BY IDOCK:   -7.73 KCAL/MOL
REMARK 924 INTRA-LIGAND FREE ENERGY PREDICTED BY IDOCK:   -1.74 KCAL/MOL
REMARK 927      BINDING AFFINITY PREDICTED BY RF-SCORE:    0.00 PKD
ROOT
HETATM    1 CU   UNL     1      -9.591  11.214  69.193  1.00  0.00    -0.171 Cu 
HETATM    2  O   UNL     2      -8.278   8.677  74.473  1.00  0.00    -0.411 OA 
HETATM    3  C   UNL     2      -8.043   7.826  73.341  1.00  0.00    -0.161 C  
HETATM    4  H   UNL     2      -8.242   8.127  75.247  1.00  0.00     0.000 HD 
HETATM    5  O   UNL     3     -12.852  11.356  62.656  1.00  0.00    -0.774 OA 
HETATM    6  H   UNL     3     -13.345  10.560  62.820  1.00  0.00     0.000 HD 
HETATM    7  C   UNL     3     -12.360  11.857  63.916  1.00  0.00    -0.383 C  
ENDROOT
BRANCH   3   8
HETATM    8  C   UNL     2      -8.099   8.708  72.097  1.00  0.00    -0.046 C  
HETATM    9  O   UNL     2      -6.762   9.056  71.689  1.00  0.00    -0.158 OA 
HETATM   10  H   UNL     2      -6.797   9.606  70.914  1.00  0.00     0.000 HD 
BRANCH   8  11
HETATM   11  C   UNL     2      -8.876   8.042  70.943  1.00  0.00    -0.139 C  
HETATM   12  O   UNL     2      -9.574   9.080  70.251  1.00  0.00    -0.174 OA 
HETATM   13  H   UNL     2     -10.052   8.670  69.540  1.00  0.00     0.000 HD 
BRANCH  11  14
HETATM   14  C   UNL     2      -7.871   7.328  70.017  1.00  0.00    -0.111 C  
HETATM   15  H   UNL     2      -7.051   7.710  68.257  1.00  0.00     0.000 HD 
HETATM   16  O   UNL     2      -7.670   8.148  68.828  1.00  0.00    -0.103 OA 
BRANCH  14  17
HETATM   17  C   UNL     2      -8.175   5.877  69.643  1.00  0.00    -0.110 C  
HETATM   18  C   UNL     2      -6.969   4.981  70.028  1.00  0.00    -0.049 C  
HETATM   19  H   UNL     2      -8.753   4.902  68.034  1.00  0.00     0.000 HD 
HETATM   20  O   UNL     2      -8.565   5.804  68.267  1.00  0.00    -0.112 OA 
HETATM   21  O   UNL     2      -6.588   5.210  71.220  1.00  0.00    -0.036 OA 
HETATM   22  O   UNL     2      -6.590   4.171  69.159  1.00  0.00    -0.038 OA 
ENDBRANCH  14  17
ENDBRANCH  11  14
ENDBRANCH   8  11
ENDBRANCH   3   8
BRANCH   7  23
HETATM   23  C   UNL     3     -11.564  13.142  63.651  1.00  0.00    -0.390 C  
HETATM   24  O   UNL     3     -12.474  14.140  63.145  1.00  0.00    -1.126 OA 
HETATM   25  H   UNL     3     -11.981  14.935  62.981  1.00  0.00     0.000 HD 
BRANCH  23  26
HETATM   26  C   UNL     3     -10.888  13.803  64.868  1.00  0.00    -0.391 C  
HETATM   27  O   UNL     3     -10.525  15.159  64.595  1.00  0.00    -0.535 OA 
HETATM   28  H   UNL     3     -10.109  15.566  65.346  1.00  0.00     0.000 HD 
BRANCH  26  29
HETATM   29  C   UNL     3     -11.611  13.749  66.232  1.00  0.00    -0.350 C  
HETATM   30  O   UNL     3     -12.860  14.458  66.222  1.00  0.00    -0.441 OA 
HETATM   31  H   UNL     3     -13.304  14.425  67.062  1.00  0.00     0.000 HD 
BRANCH  29  32
HETATM   32  C   UNL     3     -10.821  14.212  67.452  1.00  0.00    -0.287 C  
HETATM   33  C   UNL     3     -11.410  15.447  68.155  1.00  0.00    -0.348 C  
HETATM   34  O   UNL     3      -9.438  14.573  67.021  1.00  0.00    -0.222 OA 
HETATM   35  O   UNL     3     -10.872  16.552  67.729  1.00  0.00    -0.341 OA 
HETATM   36  O   UNL     3     -11.992  15.258  69.241  1.00  0.00    -0.320 OA 
HETATM   37  H   UNL     3      -8.945  14.862  67.781  1.00  0.00     0.000 HD 
ENDBRANCH  29  32
ENDBRANCH  26  29
ENDBRANCH  23  26
ENDBRANCH   7  23
TORSDOF 8
ENDMDL
MODEL      167
REMARK 921   NORMALIZED FREE ENERGY PREDICTED BY IDOCK:   -5.04 KCAL/MOL
REMARK 922        TOTAL FREE ENERGY PREDICTED BY IDOCK:   -9.47 KCAL/MOL
REMARK 923 INTER-LIGAND FREE ENERGY PREDICTED BY IDOCK:   -7.69 KCAL/MOL
REMARK 924 INTRA-LIGAND FREE ENERGY PREDICTED BY IDOCK:   -1.78 KCAL/MOL
REMARK 927      BINDING AFFINITY PREDICTED BY RF-SCORE:    0.00 PKD
ROOT
HETATM    1 CU   UNL     1      -9.009  13.860  65.564  1.00  0.00    -0.451 Cu 
HETATM    2  O   UNL     2      -8.463   8.112  63.920  1.00  0.00    -0.377 OA 
HETATM    3  C   UNL     2      -8.309   8.334  65.330  1.00  0.00    -0.166 C  
HETATM    4  H   UNL     2      -8.158   7.230  63.741  1.00  0.00     0.000 HD 
HETATM    5  O   UNL     3      -6.749  19.909  68.983  1.00  0.00    -0.310 OA 
HETATM    6  H   UNL     3      -5.908  19.533  69.217  1.00  0.00     0.000 HD 
HETATM    7  C   UNL     3      -7.339  19.103  67.943  1.00  0.00    -0.250 C  
ENDROOT
BRANCH   3   8
HETATM    8  C   UNL     2      -8.800   9.750  65.617  1.00  0.00    -0.154 C  
HETATM    9  O   UNL     2     -10.103   9.940  65.033  1.00  0.00    -0.356 OA 
HETATM   10  H   UNL     2     -10.408  10.822  65.212  1.00  0.00     0.000 HD 
BRANCH   8  11
HETATM   11  C   UNL     2      -8.816  10.067  67.127  1.00  0.00    -0.135 C  
HETATM   12  O   UNL     2      -8.982  11.481  67.258  1.00  0.00    -0.156 OA 
HETATM   13  H   UNL     2      -8.992  11.677  68.187  1.00  0.00     0.000 HD 
BRANCH  11  14
HETATM   14  C   UNL     2      -9.986   9.304  67.780  1.00  0.00    -0.190 C  
HETATM   15  H   UNL     2     -11.876   9.704  68.206  1.00  0.00     0.000 HD 
HETATM   16  O   UNL     2     -11.155  10.174  67.804  1.00  0.00    -0.295 OA 
BRANCH  14  17
HETATM   17  C   UNL     2      -9.732   8.680  69.153  1.00  0.00    -0.173 C  
HETATM   18  C   UNL     2     -10.809   7.602  69.438  1.00  0.00    -0.127 C  
HETATM   19  H   UNL     2      -9.477   9.323  70.995  1.00  0.00     0.000 HD 
HETATM   20  O   UNL     2      -9.634   9.711  70.142  1.00  0.00    -0.228 OA 
HETATM   21  O   UNL     2     -10.940   6.810  68.451  1.00  0.00    -0.228 OA 
HETATM   22  O   UNL     2     -11.342   7.645  70.565  1.00  0.00    -0.274 OA 
ENDBRANCH  14  17
ENDBRANCH  11  14
ENDBRANCH   8  11
ENDBRANCH   3   8
BRANCH   7  23
HETATM   23  C   UNL     3      -8.696  19.710  67.565  1.00  0.00    -0.312 C  
HETATM   24  O   UNL     3      -8.633  20.132  66.187  1.00  0.00    -0.517 OA 
HETATM   25  H   UNL     3      -9.474  20.508  65.954  1.00  0.00     0.000 HD 
BRANCH  23  26
HETATM   26  C   UNL     3      -9.919  18.775  67.638  1.00  0.00    -0.345 C  
HETATM   27  O   UNL     3     -11.115  19.442  67.227  1.00  0.00    -0.458 OA 
HETATM   28  H   UNL     3     -11.869  18.864  67.272  1.00  0.00     0.000 HD 
BRANCH  26  29
HETATM   29  C   UNL     3      -9.845  17.407  66.925  1.00  0.00    -0.289 C  
HETATM   30  O   UNL     3     -10.166  17.495  65.528  1.00  0.00    -0.608 OA 
HETATM   31  H   UNL     3     -10.120  16.653  65.090  1.00  0.00     0.000 HD 
BRANCH  29  32
HETATM   32  C   UNL     3     -10.669  16.270  67.522  1.00  0.00    -0.300 C  
HETATM   33  C   UNL     3      -9.943  15.470  68.618  1.00  0.00    -0.208 C  
HETATM   34  O   UNL     3     -11.017  15.306  66.436  1.00  0.00    -0.320 OA 
HETATM   35  O   UNL     3      -9.345  14.419  68.138  1.00  0.00    -0.191 OA 
HETATM   36  O   UNL     3     -10.302  15.665  69.795  1.00  0.00    -0.270 OA 
HETATM   37  H   UNL     3     -11.530  14.598  66.808  1.00  0.00     0.000 HD 
ENDBRANCH  29  32
ENDBRANCH  26  29
ENDBRANCH  23  26
ENDBRANCH   7  23
TORSDOF 8
ENDMDL
MODEL      168
REMARK 921   NORMALIZED FREE ENERGY PREDICTED BY IDOCK:   -5.03 KCAL/MOL
REMARK 922        TOTAL FREE ENERGY PREDICTED BY IDOCK:   -9.46 KCAL/MOL
REMARK 923 INTER-LIGAND FREE ENERGY PREDICTED BY IDOCK:   -6.89 KCAL/MOL
REMARK 924 INTRA-LIGAND FREE ENERGY PREDICTED BY IDOCK:   -2.57 KCAL/MOL
REMARK 927      BINDING AFFINITY PREDICTED BY RF-SCORE:    0.00 PKD
ROOT
HETATM    1 CU   UNL     1      -8.891  10.998  68.652  1.00  0.00    -0.117 Cu 
HETATM    2  O   UNL     2      -5.418   6.358  67.087  1.00  0.00    -0.011 OA 
HETATM    3  C   UNL     2      -6.818   6.049  67.137  1.00  0.00    -0.063 C  
HETATM    4  H   UNL     2      -4.951   5.532  67.039  1.00  0.00     0.000 HD 
HETATM    5  O   UNL     3     -14.096  14.186  72.668  1.00  0.00    -0.617 OA 
HETATM    6  H   UNL     3     -14.179  13.443  73.256  1.00  0.00     0.000 HD 
HETATM    7  C   UNL     3     -12.855  14.061  71.944  1.00  0.00    -0.335 C  
ENDROOT
BRANCH   3   8
HETATM    8  C   UNL     2      -7.569   7.376  67.214  1.00  0.00    -0.108 C  
HETATM    9  O   UNL     2      -7.560   8.013  65.922  1.00  0.00    -0.081 OA 
HETATM   10  H   UNL     2      -8.027   8.839  65.970  1.00  0.00     0.000 HD 
BRANCH   8  11
HETATM   11  C   UNL     2      -9.009   7.203  67.738  1.00  0.00    -0.122 C  
HETATM   12  O   UNL     2      -9.081   5.914  68.353  1.00  0.00    -0.116 OA 
HETATM   13  H   UNL     2      -9.968   5.807  68.675  1.00  0.00     0.000 HD 
BRANCH  11  14
HETATM   14  C   UNL     2      -9.304   8.325  68.754  1.00  0.00    -0.143 C  
HETATM   15  H   UNL     2      -8.233   9.410  70.016  1.00  0.00     0.000 HD 
HETATM   16  O   UNL     2      -8.052   8.718  69.390  1.00  0.00    -0.102 OA 
BRANCH  14  17
HETATM   17  C   UNL     2     -10.392   8.057  69.793  1.00  0.00    -0.219 C  
HETATM   18  C   UNL     2     -10.823   9.395  70.448  1.00  0.00    -0.269 C  
HETATM   19  H   UNL     2     -10.623   6.886  71.359  1.00  0.00     0.000 HD 
HETATM   20  O   UNL     2      -9.946   7.052  70.713  1.00  0.00    -0.189 OA 
HETATM   21  O   UNL     2     -11.062  10.282  69.567  1.00  0.00    -0.234 OA 
HETATM   22  O   UNL     2     -10.907   9.394  71.692  1.00  0.00    -0.368 OA 
ENDBRANCH  14  17
ENDBRANCH  11  14
ENDBRANCH   8  11
ENDBRANCH   3   8
BRANCH   7  23
HETATM   23  C   UNL     3     -12.722  15.259  70.995  1.00  0.00    -0.424 C  
HETATM   24  O   UNL     3     -11.549  16.007  71.377  1.00  0.00    -0.417 OA 
HETATM   25  H   UNL     3     -11.466  16.749  70.790  1.00  0.00     0.000 HD 
BRANCH  23  26
HETATM   26  C   UNL     3     -12.520  14.942  69.501  1.00  0.00    -0.088 C  
HETATM   27  O   UNL     3     -12.024  16.076  68.786  1.00  0.00    -0.446 OA 
HETATM   28  H   UNL     3     -11.899  15.880  67.864  1.00  0.00     0.000 HD 
BRANCH  26  29
HETATM   29  C   UNL     3     -11.678  13.706  69.116  1.00  0.00    -0.329 C  
HETATM   30  O   UNL     3     -10.291  13.857  69.456  1.00  0.00    -0.423 OA 
HETATM   31  H   UNL     3      -9.773  13.097  69.219  1.00  0.00     0.000 HD 
BRANCH  29  32
HETATM   32  C   UNL     3     -11.755  13.241  67.665  1.00  0.00    -0.366 C  
HETATM   33  C   UNL     3     -10.388  13.093  66.975  1.00  0.00    -0.249 C  
HETATM   34  O   UNL     3     -12.535  14.242  66.879  1.00  0.00    -0.581 OA 
HETATM   35  O   UNL     3     -10.052  14.169  66.325  1.00  0.00    -0.281 OA 
HETATM   36  O   UNL     3      -9.968  11.934  66.789  1.00  0.00    -0.193 OA 
HETATM   37  H   UNL     3     -12.583  13.953  65.975  1.00  0.00     0.000 HD 
ENDBRANCH  29  32
ENDBRANCH  26  29
ENDBRANCH  23  26
ENDBRANCH   7  23
TORSDOF 8
ENDMDL
MODEL      169
REMARK 921   NORMALIZED FREE ENERGY PREDICTED BY IDOCK:   -5.03 KCAL/MOL
REMARK 922        TOTAL FREE ENERGY PREDICTED BY IDOCK:   -9.46 KCAL/MOL
REMARK 923 INTER-LIGAND FREE ENERGY PREDICTED BY IDOCK:   -7.82 KCAL/MOL
REMARK 924 INTRA-LIGAND FREE ENERGY PREDICTED BY IDOCK:   -1.64 KCAL/MOL
REMARK 927      BINDING AFFINITY PREDICTED BY RF-SCORE:    0.00 PKD
ROOT
HETATM    1 CU   UNL     1      -9.933  10.083  64.740  1.00  0.00    -0.234 Cu 
HETATM    2  O   UNL     2     -11.113  15.913  63.925  1.00  0.00    -0.775 OA 
HETATM    3  C   UNL     2     -12.225  15.156  64.423  1.00  0.00    -0.275 C  
HETATM    4  H   UNL     2     -11.452  16.753  63.638  1.00  0.00     0.000 HD 
HETATM    5  O   UNL     3     -11.327   2.964  63.872  1.00  0.00    -0.568 OA 
HETATM    6  H   UNL     3     -12.042   3.119  63.264  1.00  0.00     0.000 HD 
HETATM    7  C   UNL     3     -10.543   4.170  63.972  1.00  0.00    -0.072 C  
ENDROOT
BRANCH   3   8
HETATM    8  C   UNL     2     -11.680  13.807  64.885  1.00  0.00    -0.363 C  
HETATM    9  O   UNL     2     -10.241  13.813  64.804  1.00  0.00    -0.520 OA 
HETATM   10  H   UNL     2      -9.902  12.973  65.090  1.00  0.00     0.000 HD 
BRANCH   8  11
HETATM   11  C   UNL     2     -12.155  13.440  66.305  1.00  0.00    -0.422 C  
HETATM   12  O   UNL     2     -12.122  12.014  66.405  1.00  0.00    -0.610 OA 
HETATM   13  H   UNL     2     -12.414  11.788  67.279  1.00  0.00     0.000 HD 
BRANCH  11  14
HETATM   14  C   UNL     2     -11.205  14.095  67.329  1.00  0.00    -0.316 C  
HETATM   15  H   UNL     2      -9.475  13.617  68.162  1.00  0.00     0.000 HD 
HETATM   16  O   UNL     2     -10.060  13.214  67.532  1.00  0.00    -0.218 OA 
BRANCH  14  17
HETATM   17  C   UNL     2     -11.811  14.531  68.663  1.00  0.00    -0.320 C  
HETATM   18  C   UNL     2     -11.163  15.866  69.113  1.00  0.00    -0.334 C  
HETATM   19  H   UNL     2     -12.086  13.734  70.442  1.00  0.00     0.000 HD 
HETATM   20  O   UNL     2     -11.710  13.463  69.612  1.00  0.00    -0.294 OA 
HETATM   21  O   UNL     2     -11.159  16.717  68.167  1.00  0.00    -0.361 OA 
HETATM   22  O   UNL     2     -10.791  15.921  70.302  1.00  0.00    -0.316 OA 
ENDBRANCH  14  17
ENDBRANCH  11  14
ENDBRANCH   8  11
ENDBRANCH   3   8
BRANCH   7  23
HETATM   23  C   UNL     3      -9.389   3.921  64.953  1.00  0.00    -0.158 C  
HETATM   24  O   UNL     3      -8.204   4.548  64.421  1.00  0.00    -0.099 OA 
HETATM   25  H   UNL     3      -7.489   4.393  65.029  1.00  0.00     0.000 HD 
BRANCH  23  26
HETATM   26  C   UNL     3      -9.545   4.504  66.370  1.00  0.00    -0.189 C  
HETATM   27  O   UNL     3      -8.337   4.380  67.125  1.00  0.00    -0.101 OA 
HETATM   28  H   UNL     3      -8.434   4.740  67.999  1.00  0.00     0.000 HD 
BRANCH  26  29
HETATM   29  C   UNL     3     -10.076   5.947  66.520  1.00  0.00    -0.156 C  
HETATM   30  O   UNL     3      -9.089   6.935  66.184  1.00  0.00    -0.194 OA 
HETATM   31  H   UNL     3      -9.416   7.822  66.276  1.00  0.00     0.000 HD 
BRANCH  29  32
HETATM   32  C   UNL     3     -10.676   6.327  67.870  1.00  0.00    -0.305 C  
HETATM   33  C   UNL     3     -10.025   7.556  68.527  1.00  0.00    -0.168 C  
HETATM   34  O   UNL     3     -10.500   5.184  68.814  1.00  0.00    -0.148 OA 
HETATM   35  O   UNL     3      -9.076   7.223  69.351  1.00  0.00    -0.143 OA 
HETATM   36  O   UNL     3     -10.677   8.619  68.514  1.00  0.00    -0.158 OA 
HETATM   37  H   UNL     3     -10.873   5.420  69.655  1.00  0.00     0.000 HD 
ENDBRANCH  29  32
ENDBRANCH  26  29
ENDBRANCH  23  26
ENDBRANCH   7  23
TORSDOF 8
ENDMDL
MODEL      170
REMARK 921   NORMALIZED FREE ENERGY PREDICTED BY IDOCK:   -5.02 KCAL/MOL
REMARK 922        TOTAL FREE ENERGY PREDICTED BY IDOCK:   -9.44 KCAL/MOL
REMARK 923 INTER-LIGAND FREE ENERGY PREDICTED BY IDOCK:   -8.48 KCAL/MOL
REMARK 924 INTRA-LIGAND FREE ENERGY PREDICTED BY IDOCK:   -0.96 KCAL/MOL
REMARK 927      BINDING AFFINITY PREDICTED BY RF-SCORE:    0.00 PKD
ROOT
HETATM    1 CU   UNL     1      -8.656  14.578  68.883  1.00  0.00    -0.138 Cu 
HETATM    2  O   UNL     2      -5.292  18.880  66.389  1.00  0.00    -0.147 OA 
HETATM    3  C   UNL     2      -6.168  18.215  65.467  1.00  0.00    -0.219 C  
HETATM    4  H   UNL     2      -4.671  19.381  65.873  1.00  0.00     0.000 HD 
HETATM    5  O   UNL     3     -11.333   7.791  69.264  1.00  0.00    -0.421 OA 
HETATM    6  H   UNL     3     -10.779   7.470  68.561  1.00  0.00     0.000 HD 
HETATM    7  C   UNL     3     -10.798   9.045  69.734  1.00  0.00    -0.205 C  
ENDROOT
BRANCH   3   8
HETATM    8  C   UNL     2      -7.166  17.411  66.296  1.00  0.00    -0.311 C  
HETATM    9  O   UNL     2      -6.529  16.223  66.803  1.00  0.00    -0.280 OA 
HETATM   10  H   UNL     2      -7.150  15.722  67.319  1.00  0.00     0.000 HD 
BRANCH   8  11
HETATM   11  C   UNL     2      -7.780  18.244  67.440  1.00  0.00    -0.218 C  
HETATM   12  O   UNL     2      -7.995  19.563  66.932  1.00  0.00    -0.259 OA 
HETATM   13  H   UNL     2      -8.373  20.076  67.636  1.00  0.00     0.000 HD 
BRANCH  11  14
HETATM   14  C   UNL     2      -9.106  17.588  67.873  1.00  0.00    -0.261 C  
HETATM   15  H   UNL     2     -10.030  15.879  67.495  1.00  0.00     0.000 HD 
HETATM   16  O   UNL     2      -9.213  16.284  67.229  1.00  0.00    -0.205 OA 
BRANCH  14  17
HETATM   17  C   UNL     2     -10.384  18.405  67.683  1.00  0.00    -0.405 C  
HETATM   18  C   UNL     2     -10.520  18.812  66.193  1.00  0.00    -0.446 C  
HETATM   19  H   UNL     2     -11.197  20.005  68.491  1.00  0.00     0.000 HD 
HETATM   20  O   UNL     2     -10.403  19.497  68.610  1.00  0.00    -0.404 OA 
HETATM   21  O   UNL     2     -10.346  17.812  65.425  1.00  0.00    -0.602 OA 
HETATM   22  O   UNL     2     -10.808  20.006  65.975  1.00  0.00    -0.358 OA 
ENDBRANCH  14  17
ENDBRANCH  11  14
ENDBRANCH   8  11
ENDBRANCH   3   8
BRANCH   7  23
HETATM   23  C   UNL     3     -11.693   9.562  70.868  1.00  0.00    -0.317 C  
HETATM   24  O   UNL     3     -12.824  10.235  70.277  1.00  0.00    -0.551 OA 
HETATM   25  H   UNL     3     -13.378  10.556  70.979  1.00  0.00     0.000 HD 
BRANCH  23  26
HETATM   26  C   UNL     3     -12.306   8.504  71.805  1.00  0.00    -0.338 C  
HETATM   27  O   UNL     3     -13.103   7.562  71.083  1.00  0.00    -0.524 OA 
HETATM   28  H   UNL     3     -13.481   6.910  71.662  1.00  0.00     0.000 HD 
BRANCH  26  29
HETATM   29  C   UNL     3     -11.370   7.732  72.760  1.00  0.00    -0.389 C  
HETATM   30  O   UNL     3     -10.045   8.288  72.800  1.00  0.00    -0.294 OA 
HETATM   31  H   UNL     3      -9.469   7.813  73.388  1.00  0.00     0.000 HD 
BRANCH  29  32
HETATM   32  C   UNL     3     -11.239   6.230  72.536  1.00  0.00    -0.279 C  
HETATM   33  C   UNL     3     -10.406   5.501  73.605  1.00  0.00    -0.237 C  
HETATM   34  O   UNL     3     -10.565   5.995  71.224  1.00  0.00    -0.227 OA 
HETATM   35  O   UNL     3      -9.159   5.385  73.255  1.00  0.00    -0.127 OA 
HETATM   36  O   UNL     3     -11.027   4.806  74.433  1.00  0.00    -0.321 OA 
HETATM   37  H   UNL     3     -10.483   5.059  71.084  1.00  0.00     0.000 HD 
ENDBRANCH  29  32
ENDBRANCH  26  29
ENDBRANCH  23  26
ENDBRANCH   7  23
TORSDOF 8
ENDMDL
MODEL      171
REMARK 921   NORMALIZED FREE ENERGY PREDICTED BY IDOCK:   -5.02 KCAL/MOL
REMARK 922        TOTAL FREE ENERGY PREDICTED BY IDOCK:   -9.44 KCAL/MOL
REMARK 923 INTER-LIGAND FREE ENERGY PREDICTED BY IDOCK:   -7.17 KCAL/MOL
REMARK 924 INTRA-LIGAND FREE ENERGY PREDICTED BY IDOCK:   -2.27 KCAL/MOL
REMARK 927      BINDING AFFINITY PREDICTED BY RF-SCORE:    0.00 PKD
ROOT
HETATM    1 CU   UNL     1     -10.324  10.762  68.866  1.00  0.00    -0.152 Cu 
HETATM    2  O   UNL     2     -10.469   5.527  71.801  1.00  0.00    -0.215 OA 
HETATM    3  C   UNL     2     -11.258   6.560  72.410  1.00  0.00    -0.275 C  
HETATM    4  H   UNL     2     -10.392   4.825  72.436  1.00  0.00     0.000 HD 
HETATM    5  O   UNL     3      -9.394  17.998  68.478  1.00  0.00    -0.293 OA 
HETATM    6  H   UNL     3      -9.089  18.066  69.376  1.00  0.00     0.000 HD 
HETATM    7  C   UNL     3      -9.317  16.617  68.071  1.00  0.00    -0.227 C  
ENDROOT
BRANCH   3   8
HETATM    8  C   UNL     2     -11.384   7.689  71.390  1.00  0.00    -0.258 C  
HETATM    9  O   UNL     2     -12.321   8.672  71.869  1.00  0.00    -0.310 OA 
HETATM   10  H   UNL     2     -12.400   9.375  71.233  1.00  0.00     0.000 HD 
BRANCH   8  11
HETATM   11  C   UNL     2     -10.022   8.333  71.060  1.00  0.00    -0.187 C  
HETATM   12  O   UNL     2      -9.068   7.792  71.977  1.00  0.00    -0.126 OA 
HETATM   13  H   UNL     2      -8.229   8.189  71.775  1.00  0.00     0.000 HD 
BRANCH  11  14
HETATM   14  C   UNL     2      -9.653   7.991  69.602  1.00  0.00    -0.168 C  
HETATM   15  H   UNL     2      -9.643   6.354  68.491  1.00  0.00     0.000 HD 
HETATM   16  O   UNL     2      -9.870   6.565  69.389  1.00  0.00    -0.145 OA 
BRANCH  14  17
HETATM   17  C   UNL     2      -8.269   8.419  69.114  1.00  0.00    -0.120 C  
HETATM   18  C   UNL     2      -8.202   8.290  67.571  1.00  0.00    -0.122 C  
HETATM   19  H   UNL     2      -6.399   7.956  69.519  1.00  0.00     0.000 HD 
HETATM   20  O   UNL     2      -7.259   7.690  69.823  1.00  0.00    -0.074 OA 
HETATM   21  O   UNL     2      -9.211   8.837  67.020  1.00  0.00    -0.135 OA 
HETATM   22  O   UNL     2      -7.190   7.727  67.111  1.00  0.00    -0.085 OA 
ENDBRANCH  14  17
ENDBRANCH  11  14
ENDBRANCH   8  11
ENDBRANCH   3   8
BRANCH   7  23
HETATM   23  C   UNL     3      -9.810  16.508  66.621  1.00  0.00    -0.268 C  
HETATM   24  O   UNL     3      -8.667  16.618  65.748  1.00  0.00    -0.482 OA 
HETATM   25  H   UNL     3      -8.972  16.551  64.851  1.00  0.00     0.000 HD 
BRANCH  23  26
HETATM   26  C   UNL     3     -10.492  15.186  66.218  1.00  0.00    -0.307 C  
HETATM   27  O   UNL     3     -10.774  15.148  64.817  1.00  0.00    -0.523 OA 
HETATM   28  H   UNL     3     -11.194  14.332  64.568  1.00  0.00     0.000 HD 
BRANCH  26  29
HETATM   29  C   UNL     3      -9.821  13.856  66.625  1.00  0.00    -0.284 C  
HETATM   30  O   UNL     3      -8.393  13.890  66.472  1.00  0.00    -0.386 OA 
HETATM   31  H   UNL     3      -7.981  13.071  66.722  1.00  0.00     0.000 HD 
BRANCH  29  32
HETATM   32  C   UNL     3     -10.333  12.588  65.949  1.00  0.00    -0.263 C  
HETATM   33  C   UNL     3     -11.823  12.296  66.198  1.00  0.00    -0.329 C  
HETATM   34  O   UNL     3      -9.566  11.420  66.474  1.00  0.00    -0.189 OA 
HETATM   35  O   UNL     3     -12.000  11.499  67.211  1.00  0.00    -0.605 OA 
HETATM   36  O   UNL     3     -12.608  12.504  65.253  1.00  0.00    -0.645 OA 
HETATM   37  H   UNL     3      -9.884  10.630  66.053  1.00  0.00     0.000 HD 
ENDBRANCH  29  32
ENDBRANCH  26  29
ENDBRANCH  23  26
ENDBRANCH   7  23
TORSDOF 8
ENDMDL
MODEL      172
REMARK 921   NORMALIZED FREE ENERGY PREDICTED BY IDOCK:   -5.01 KCAL/MOL
REMARK 922        TOTAL FREE ENERGY PREDICTED BY IDOCK:   -9.43 KCAL/MOL
REMARK 923 INTER-LIGAND FREE ENERGY PREDICTED BY IDOCK:   -8.21 KCAL/MOL
REMARK 924 INTRA-LIGAND FREE ENERGY PREDICTED BY IDOCK:   -1.22 KCAL/MOL
REMARK 927      BINDING AFFINITY PREDICTED BY RF-SCORE:    0.00 PKD
ROOT
HETATM    1 CU   UNL     1      -9.007  10.831  67.922  1.00  0.00    -0.126 Cu 
HETATM    2  O   UNL     2      -6.125   6.512  70.935  1.00  0.00    -0.030 OA 
HETATM    3  C   UNL     2      -6.388   7.690  71.711  1.00  0.00    -0.039 C  
HETATM    4  H   UNL     2      -5.499   5.990  71.423  1.00  0.00     0.000 HD 
HETATM    5  O   UNL     3      -9.856  17.704  65.591  1.00  0.00    -0.536 OA 
HETATM    6  H   UNL     3      -9.015  17.985  65.933  1.00  0.00     0.000 HD 
HETATM    7  C   UNL     3      -9.870  16.263  65.537  1.00  0.00    -0.108 C  
ENDROOT
BRANCH   3   8
HETATM    8  C   UNL     2      -7.394   8.528  70.928  1.00  0.00    -0.068 C  
HETATM    9  O   UNL     2      -7.672   7.896  69.663  1.00  0.00    -0.098 OA 
HETATM   10  H   UNL     2      -8.298   8.418  69.175  1.00  0.00     0.000 HD 
BRANCH   8  11
HETATM   11  C   UNL     2      -8.693   8.775  71.722  1.00  0.00    -0.153 C  
HETATM   12  O   UNL     2      -9.370   9.867  71.094  1.00  0.00    -0.251 OA 
HETATM   13  H   UNL     2     -10.169  10.019  71.583  1.00  0.00     0.000 HD 
BRANCH  11  14
HETATM   14  C   UNL     2      -9.547   7.491  71.685  1.00  0.00    -0.150 C  
HETATM   15  H   UNL     2     -10.869   6.706  70.439  1.00  0.00     0.000 HD 
HETATM   16  O   UNL     2     -10.343   7.497  70.462  1.00  0.00    -0.210 OA 
BRANCH  14  17
HETATM   17  C   UNL     2     -10.414   7.194  72.908  1.00  0.00    -0.266 C  
HETATM   18  C   UNL     2     -10.719   5.675  72.969  1.00  0.00    -0.255 C  
HETATM   19  H   UNL     2     -12.109   7.856  73.659  1.00  0.00     0.000 HD 
HETATM   20  O   UNL     2     -11.570   8.041  72.899  1.00  0.00    -0.397 OA 
HETATM   21  O   UNL     2      -9.658   4.987  72.824  1.00  0.00    -0.141 OA 
HETATM   22  O   UNL     2     -11.907   5.363  73.183  1.00  0.00    -0.180 OA 
ENDBRANCH  14  17
ENDBRANCH  11  14
ENDBRANCH   8  11
ENDBRANCH   3   8
BRANCH   7  23
HETATM   23  C   UNL     3     -11.227  15.808  64.986  1.00  0.00    -0.308 C  
HETATM   24  O   UNL     3     -11.449  16.477  63.727  1.00  0.00    -1.615 OA 
HETATM   25  H   UNL     3     -12.290  16.196  63.385  1.00  0.00     0.000 HD 
BRANCH  23  26
HETATM   26  C   UNL     3     -11.381  14.308  64.669  1.00  0.00    -0.373 C  
HETATM   27  O   UNL     3     -10.213  13.783  64.033  1.00  0.00    -0.652 OA 
HETATM   28  H   UNL     3     -10.308  12.858  63.838  1.00  0.00     0.000 HD 
BRANCH  26  29
HETATM   29  C   UNL     3     -11.796  13.352  65.809  1.00  0.00    -0.377 C  
HETATM   30  O   UNL     3     -12.521  14.022  66.853  1.00  0.00    -0.529 OA 
HETATM   31  H   UNL     3     -12.776  13.434  67.554  1.00  0.00     0.000 HD 
BRANCH  29  32
HETATM   32  C   UNL     3     -10.688  12.533  66.463  1.00  0.00    -0.240 C  
HETATM   33  C   UNL     3     -10.998  11.030  66.580  1.00  0.00    -0.190 C  
HETATM   34  O   UNL     3     -10.466  13.042  67.849  1.00  0.00    -0.219 OA 
HETATM   35  O   UNL     3     -11.524  10.730  67.732  1.00  0.00    -0.460 OA 
HETATM   36  O   UNL     3     -10.402  10.264  65.798  1.00  0.00    -0.239 OA 
HETATM   37  H   UNL     3      -9.777  12.531  68.256  1.00  0.00     0.000 HD 
ENDBRANCH  29  32
ENDBRANCH  26  29
ENDBRANCH  23  26
ENDBRANCH   7  23
TORSDOF 8
ENDMDL
MODEL      173
REMARK 921   NORMALIZED FREE ENERGY PREDICTED BY IDOCK:   -5.01 KCAL/MOL
REMARK 922        TOTAL FREE ENERGY PREDICTED BY IDOCK:   -9.42 KCAL/MOL
REMARK 923 INTER-LIGAND FREE ENERGY PREDICTED BY IDOCK:   -8.93 KCAL/MOL
REMARK 924 INTRA-LIGAND FREE ENERGY PREDICTED BY IDOCK:   -0.49 KCAL/MOL
REMARK 927      BINDING AFFINITY PREDICTED BY RF-SCORE:    0.00 PKD
ROOT
HETATM    1 CU   UNL     1      -9.498  11.261  69.035  1.00  0.00    -0.166 Cu 
HETATM    2  O   UNL     2      -7.940   8.596  74.183  1.00  0.00    -0.391 OA 
HETATM    3  C   UNL     2      -7.637   7.825  73.012  1.00  0.00    -0.111 C  
HETATM    4  H   UNL     2      -7.852   8.015  74.930  1.00  0.00     0.000 HD 
HETATM    5  O   UNL     3     -12.795  11.433  62.517  1.00  0.00    -0.582 OA 
HETATM    6  H   UNL     3     -13.216  10.590  62.643  1.00  0.00     0.000 HD 
HETATM    7  C   UNL     3     -12.342  11.915  63.799  1.00  0.00    -0.434 C  
ENDROOT
BRANCH   3   8
HETATM    8  C   UNL     2      -7.777   8.758  71.812  1.00  0.00    -0.041 C  
HETATM    9  O   UNL     2      -6.591   8.682  70.998  1.00  0.00    -0.042 OA 
HETATM   10  H   UNL     2      -6.678   9.263  70.251  1.00  0.00     0.000 HD 
BRANCH   8  11
HETATM   11  C   UNL     2      -9.041   8.456  70.981  1.00  0.00    -0.165 C  
HETATM   12  O   UNL     2      -8.607   7.873  69.750  1.00  0.00    -0.130 OA 
HETATM   13  H   UNL     2      -9.385   7.687  69.239  1.00  0.00     0.000 HD 
BRANCH  11  14
HETATM   14  C   UNL     2      -9.935   7.482  71.777  1.00  0.00    -0.171 C  
HETATM   15  H   UNL     2     -10.606   5.640  71.513  1.00  0.00     0.000 HD 
HETATM   16  O   UNL     2     -10.056   6.240  71.023  1.00  0.00    -0.181 OA 
BRANCH  14  17
HETATM   17  C   UNL     2     -11.305   7.997  72.220  1.00  0.00    -0.353 C  
HETATM   18  C   UNL     2     -12.362   6.879  72.030  1.00  0.00    -0.269 C  
HETATM   19  H   UNL     2     -12.452   9.546  71.824  1.00  0.00     0.000 HD 
HETATM   20  O   UNL     2     -11.601   9.226  71.548  1.00  0.00    -0.329 OA 
HETATM   21  O   UNL     2     -11.962   5.778  72.528  1.00  0.00    -0.275 OA 
HETATM   22  O   UNL     2     -13.425   7.219  71.475  1.00  0.00    -0.385 OA 
ENDBRANCH  14  17
ENDBRANCH  11  14
ENDBRANCH   8  11
ENDBRANCH   3   8
BRANCH   7  23
HETATM   23  C   UNL     3     -11.662  13.276  63.596  1.00  0.00    -0.394 C  
HETATM   24  O   UNL     3     -12.658  14.211  63.134  1.00  0.00    -1.058 OA 
HETATM   25  H   UNL     3     -12.238  15.054  63.009  1.00  0.00     0.000 HD 
BRANCH  23  26
HETATM   26  C   UNL     3     -11.047  13.936  64.845  1.00  0.00    -0.369 C  
HETATM   27  O   UNL     3      -9.623  13.804  64.861  1.00  0.00    -0.526 OA 
HETATM   28  H   UNL     3      -9.244  14.211  65.631  1.00  0.00     0.000 HD 
BRANCH  26  29
HETATM   29  C   UNL     3     -11.411  15.404  65.158  1.00  0.00    -0.281 C  
HETATM   30  O   UNL     3     -10.899  16.320  64.177  1.00  0.00    -1.006 OA 
HETATM   31  H   UNL     3     -11.123  17.223  64.371  1.00  0.00     0.000 HD 
BRANCH  29  32
HETATM   32  C   UNL     3     -11.027  15.933  66.536  1.00  0.00    -0.121 C  
HETATM   33  C   UNL     3     -10.128  17.182  66.506  1.00  0.00    -0.310 C  
HETATM   34  O   UNL     3     -10.274  14.871  67.267  1.00  0.00    -0.239 OA 
HETATM   35  O   UNL     3      -8.866  16.874  66.574  1.00  0.00    -0.235 OA 
HETATM   36  O   UNL     3     -10.659  18.271  66.800  1.00  0.00    -0.370 OA 
HETATM   37  H   UNL     3     -10.034  15.201  68.125  1.00  0.00     0.000 HD 
ENDBRANCH  29  32
ENDBRANCH  26  29
ENDBRANCH  23  26
ENDBRANCH   7  23
TORSDOF 8
ENDMDL
MODEL      174
REMARK 921   NORMALIZED FREE ENERGY PREDICTED BY IDOCK:   -5.00 KCAL/MOL
REMARK 922        TOTAL FREE ENERGY PREDICTED BY IDOCK:   -9.41 KCAL/MOL
REMARK 923 INTER-LIGAND FREE ENERGY PREDICTED BY IDOCK:   -6.85 KCAL/MOL
REMARK 924 INTRA-LIGAND FREE ENERGY PREDICTED BY IDOCK:   -2.56 KCAL/MOL
REMARK 927      BINDING AFFINITY PREDICTED BY RF-SCORE:    0.00 PKD
ROOT
HETATM    1 CU   UNL     1     -10.037   8.121  66.689  1.00  0.00    -0.164 Cu 
HETATM    2  O   UNL     2      -8.478   2.357  67.305  1.00  0.00    -0.084 OA 
HETATM    3  C   UNL     2      -7.862   3.012  66.187  1.00  0.00    -0.081 C  
HETATM    4  H   UNL     2      -8.338   1.424  67.195  1.00  0.00     0.000 HD 
HETATM    5  O   UNL     3     -12.500  13.839  62.864  1.00  0.00    -1.009 OA 
HETATM    6  H   UNL     3     -12.713  13.311  62.102  1.00  0.00     0.000 HD 
HETATM    7  C   UNL     3     -12.330  12.961  63.995  1.00  0.00    -0.380 C  
ENDROOT
BRANCH   3   8
HETATM    8  C   UNL     2      -8.088   4.511  66.365  1.00  0.00    -0.103 C  
HETATM    9  O   UNL     2      -7.172   5.242  65.526  1.00  0.00    -0.066 OA 
HETATM   10  H   UNL     2      -7.312   6.175  65.637  1.00  0.00     0.000 HD 
BRANCH   8  11
HETATM   11  C   UNL     2      -9.548   4.920  66.083  1.00  0.00    -0.175 C  
HETATM   12  O   UNL     2     -10.200   3.784  65.510  1.00  0.00    -0.408 OA 
HETATM   13  H   UNL     2     -11.099   4.035  65.336  1.00  0.00     0.000 HD 
BRANCH  11  14
HETATM   14  C   UNL     2     -10.211   5.335  67.411  1.00  0.00    -0.191 C  
HETATM   15  H   UNL     2     -11.681   6.549  67.942  1.00  0.00     0.000 HD 
HETATM   16  O   UNL     2     -11.273   6.293  67.123  1.00  0.00    -0.334 OA 
BRANCH  14  17
HETATM   17  C   UNL     2      -9.291   5.847  68.520  1.00  0.00    -0.120 C  
HETATM   18  C   UNL     2      -9.584   5.074  69.832  1.00  0.00    -0.176 C  
HETATM   19  H   UNL     2      -8.830   7.589  69.312  1.00  0.00     0.000 HD 
HETATM   20  O   UNL     2      -9.402   7.271  68.623  1.00  0.00    -0.140 OA 
HETATM   21  O   UNL     2      -9.613   3.818  69.630  1.00  0.00    -0.188 OA 
HETATM   22  O   UNL     2      -9.704   5.768  70.861  1.00  0.00    -0.167 OA 
ENDBRANCH  14  17
ENDBRANCH  11  14
ENDBRANCH   8  11
ENDBRANCH   3   8
BRANCH   7  23
HETATM   23  C   UNL     3     -11.986  13.812  65.225  1.00  0.00    -0.374 C  
HETATM   24  O   UNL     3     -13.185  14.492  65.651  1.00  0.00    -0.482 OA 
HETATM   25  H   UNL     3     -12.972  15.019  66.413  1.00  0.00     0.000 HD 
BRANCH  23  26
HETATM   26  C   UNL     3     -11.492  13.058  66.475  1.00  0.00    -0.340 C  
HETATM   27  O   UNL     3     -12.273  11.886  66.723  1.00  0.00    -0.489 OA 
HETATM   28  H   UNL     3     -11.968  11.421  67.494  1.00  0.00     0.000 HD 
BRANCH  26  29
HETATM   29  C   UNL     3      -9.996  12.686  66.570  1.00  0.00    -0.251 C  
HETATM   30  O   UNL     3      -9.240  13.156  65.443  1.00  0.00    -0.296 OA 
HETATM   31  H   UNL     3      -8.319  12.927  65.501  1.00  0.00     0.000 HD 
BRANCH  29  32
HETATM   32  C   UNL     3      -9.661  11.213  66.775  1.00  0.00    -0.193 C  
HETATM   33  C   UNL     3      -8.159  10.922  66.936  1.00  0.00    -0.137 C  
HETATM   34  O   UNL     3     -10.129  10.442  65.585  1.00  0.00    -0.259 OA 
HETATM   35  O   UNL     3      -7.599  10.609  65.804  1.00  0.00    -0.149 OA 
HETATM   36  O   UNL     3      -7.753  10.647  68.082  1.00  0.00    -0.096 OA 
HETATM   37  H   UNL     3      -9.920   9.524  65.712  1.00  0.00     0.000 HD 
ENDBRANCH  29  32
ENDBRANCH  26  29
ENDBRANCH  23  26
ENDBRANCH   7  23
TORSDOF 8
ENDMDL
MODEL      175
REMARK 921   NORMALIZED FREE ENERGY PREDICTED BY IDOCK:   -4.98 KCAL/MOL
REMARK 922        TOTAL FREE ENERGY PREDICTED BY IDOCK:   -9.38 KCAL/MOL
REMARK 923 INTER-LIGAND FREE ENERGY PREDICTED BY IDOCK:   -7.99 KCAL/MOL
REMARK 924 INTRA-LIGAND FREE ENERGY PREDICTED BY IDOCK:   -1.39 KCAL/MOL
REMARK 927      BINDING AFFINITY PREDICTED BY RF-SCORE:    0.00 PKD
ROOT
HETATM    1 CU   UNL     1     -10.419  11.966  69.599  1.00  0.00    -0.353 Cu 
HETATM    2  O   UNL     2      -9.713  17.887  68.901  1.00  0.00    -0.313 OA 
HETATM    3  C   UNL     2     -10.745  17.321  68.081  1.00  0.00    -0.363 C  
HETATM    4  H   UNL     2      -9.543  18.762  68.572  1.00  0.00     0.000 HD 
HETATM    5  O   UNL     3     -10.983   5.125  67.095  1.00  0.00    -0.225 OA 
HETATM    6  H   UNL     3     -10.772   5.373  66.202  1.00  0.00     0.000 HD 
HETATM    7  C   UNL     3     -10.588   6.199  67.973  1.00  0.00    -0.268 C  
ENDROOT
BRANCH   3   8
HETATM    8  C   UNL     2     -11.020  15.916  68.610  1.00  0.00    -0.320 C  
HETATM    9  O   UNL     2     -12.420  15.608  68.464  1.00  0.00    -0.415 OA 
HETATM   10  H   UNL     2     -12.591  14.734  68.794  1.00  0.00     0.000 HD 
BRANCH   8  11
HETATM   11  C   UNL     2     -10.142  14.851  67.920  1.00  0.00    -0.227 C  
HETATM   12  O   UNL     2      -9.477  14.121  68.954  1.00  0.00    -0.352 OA 
HETATM   13  H   UNL     2      -8.937  13.465  68.530  1.00  0.00     0.000 HD 
BRANCH  11  14
HETATM   14  C   UNL     2     -11.051  13.930  67.081  1.00  0.00    -0.300 C  
HETATM   15  H   UNL     2     -11.293  11.975  66.886  1.00  0.00     0.000 HD 
HETATM   16  O   UNL     2     -10.734  12.543  67.403  1.00  0.00    -0.223 OA 
BRANCH  14  17
HETATM   17  C   UNL     2     -11.068  14.156  65.569  1.00  0.00    -0.310 C  
HETATM   18  C   UNL     2     -12.425  13.679  64.991  1.00  0.00    -0.414 C  
HETATM   19  H   UNL     2      -9.925  13.691  64.036  1.00  0.00     0.000 HD 
HETATM   20  O   UNL     2      -9.914  13.550  64.976  1.00  0.00    -0.266 OA 
HETATM   21  O   UNL     2     -13.401  14.145  65.663  1.00  0.00    -0.602 OA 
HETATM   22  O   UNL     2     -12.366  12.970  63.967  1.00  0.00    -0.519 OA 
ENDBRANCH  14  17
ENDBRANCH  11  14
ENDBRANCH   8  11
ENDBRANCH   3   8
BRANCH   7  23
HETATM   23  C   UNL     3     -10.928   5.799  69.415  1.00  0.00    -0.282 C  
HETATM   24  O   UNL     3     -10.191   4.602  69.736  1.00  0.00    -0.234 OA 
HETATM   25  H   UNL     3     -10.402   4.354  70.629  1.00  0.00     0.000 HD 
BRANCH  23  26
HETATM   26  C   UNL     3     -10.552   6.805  70.521  1.00  0.00    -0.225 C  
HETATM   27  O   UNL     3      -9.165   6.719  70.857  1.00  0.00    -0.156 OA 
HETATM   28  H   UNL     3      -8.933   7.340  71.539  1.00  0.00     0.000 HD 
BRANCH  26  29
HETATM   29  C   UNL     3     -10.924   8.290  70.325  1.00  0.00    -0.232 C  
HETATM   30  O   UNL     3     -12.331   8.532  70.487  1.00  0.00    -0.480 OA 
HETATM   31  H   UNL     3     -12.560   9.446  70.366  1.00  0.00     0.000 HD 
BRANCH  29  32
HETATM   32  C   UNL     3     -10.485   8.948  69.021  1.00  0.00    -0.214 C  
HETATM   33  C   UNL     3      -8.986   9.289  68.958  1.00  0.00    -0.140 C  
HETATM   34  O   UNL     3     -11.231  10.230  68.853  1.00  0.00    -0.282 OA 
HETATM   35  O   UNL     3      -8.748  10.511  69.335  1.00  0.00    -0.152 OA 
HETATM   36  O   UNL     3      -8.269   8.565  68.239  1.00  0.00    -0.120 OA 
HETATM   37  H   UNL     3     -10.958  10.640  68.040  1.00  0.00     0.000 HD 
ENDBRANCH  29  32
ENDBRANCH  26  29
ENDBRANCH  23  26
ENDBRANCH   7  23
TORSDOF 8
ENDMDL
MODEL      176
REMARK 921   NORMALIZED FREE ENERGY PREDICTED BY IDOCK:   -4.96 KCAL/MOL
REMARK 922        TOTAL FREE ENERGY PREDICTED BY IDOCK:   -9.35 KCAL/MOL
REMARK 923 INTER-LIGAND FREE ENERGY PREDICTED BY IDOCK:   -7.93 KCAL/MOL
REMARK 924 INTRA-LIGAND FREE ENERGY PREDICTED BY IDOCK:   -1.42 KCAL/MOL
REMARK 927      BINDING AFFINITY PREDICTED BY RF-SCORE:    0.00 PKD
ROOT
HETATM    1 CU   UNL     1     -11.401   9.478  69.478  1.00  0.00    -0.228 Cu 
HETATM    2  O   UNL     2     -10.775   4.710  73.071  1.00  0.00    -0.203 OA 
HETATM    3  C   UNL     2      -9.858   4.734  71.968  1.00  0.00    -0.176 C  
HETATM    4  H   UNL     2     -10.737   3.837  73.446  1.00  0.00     0.000 HD 
HETATM    5  O   UNL     3     -12.236  12.666  62.957  1.00  0.00    -0.641 OA 
HETATM    6  H   UNL     3     -12.352  11.839  62.503  1.00  0.00     0.000 HD 
HETATM    7  C   UNL     3     -12.424  12.442  64.369  1.00  0.00    -0.433 C  
ENDROOT
BRANCH   3   8
HETATM    8  C   UNL     2      -9.917   6.135  71.365  1.00  0.00    -0.187 C  
HETATM    9  O   UNL     2      -8.597   6.543  70.956  1.00  0.00    -0.132 OA 
HETATM   10  H   UNL     2      -8.634   7.415  70.582  1.00  0.00     0.000 HD 
BRANCH   8  11
HETATM   11  C   UNL     2     -10.915   6.225  70.193  1.00  0.00    -0.347 C  
HETATM   12  O   UNL     2     -11.719   7.387  70.413  1.00  0.00    -0.445 OA 
HETATM   13  H   UNL     2     -12.334   7.443  69.692  1.00  0.00     0.000 HD 
BRANCH  11  14
HETATM   14  C   UNL     2     -10.121   6.336  68.875  1.00  0.00    -0.168 C  
HETATM   15  H   UNL     2      -9.305   7.807  67.833  1.00  0.00     0.000 HD 
HETATM   16  O   UNL     2      -9.794   7.738  68.645  1.00  0.00    -0.161 OA 
BRANCH  14  17
HETATM   17  C   UNL     2     -10.742   5.701  67.631  1.00  0.00    -0.176 C  
HETATM   18  C   UNL     2      -9.748   4.681  67.020  1.00  0.00    -0.195 C  
HETATM   19  H   UNL     2     -11.567   6.332  65.959  1.00  0.00     0.000 HD 
HETATM   20  O   UNL     2     -11.181   6.727  66.732  1.00  0.00    -0.312 OA 
HETATM   21  O   UNL     2      -9.290   3.895  67.910  1.00  0.00    -0.151 OA 
HETATM   22  O   UNL     2      -9.579   4.752  65.786  1.00  0.00    -0.160 OA 
ENDBRANCH  14  17
ENDBRANCH  11  14
ENDBRANCH   8  11
ENDBRANCH   3   8
BRANCH   7  23
HETATM   23  C   UNL     3     -12.237  13.777  65.103  1.00  0.00    -0.431 C  
HETATM   24  O   UNL     3     -13.472  14.098  65.775  1.00  0.00    -0.670 OA 
HETATM   25  H   UNL     3     -13.357  14.925  66.229  1.00  0.00     0.000 HD 
BRANCH  23  26
HETATM   26  C   UNL     3     -11.163  13.818  66.207  1.00  0.00    -0.306 C  
HETATM   27  O   UNL     3     -11.691  13.400  67.469  1.00  0.00    -0.325 OA 
HETATM   28  H   UNL     3     -11.028  13.425  68.149  1.00  0.00     0.000 HD 
BRANCH  26  29
HETATM   29  C   UNL     3      -9.825  13.086  65.963  1.00  0.00    -0.255 C  
HETATM   30  O   UNL     3      -9.632  12.739  64.582  1.00  0.00    -0.507 OA 
HETATM   31  H   UNL     3      -8.809  12.288  64.432  1.00  0.00     0.000 HD 
BRANCH  29  32
HETATM   32  C   UNL     3      -9.555  11.840  66.799  1.00  0.00    -0.200 C  
HETATM   33  C   UNL     3     -10.561  10.697  66.575  1.00  0.00    -0.193 C  
HETATM   34  O   UNL     3      -9.626  12.206  68.245  1.00  0.00    -0.206 OA 
HETATM   35  O   UNL     3     -11.535  10.730  67.437  1.00  0.00    -0.467 OA 
HETATM   36  O   UNL     3     -10.167   9.716  65.915  1.00  0.00    -0.259 OA 
HETATM   37  H   UNL     3      -9.458  11.430  68.767  1.00  0.00     0.000 HD 
ENDBRANCH  29  32
ENDBRANCH  26  29
ENDBRANCH  23  26
ENDBRANCH   7  23
TORSDOF 8
ENDMDL
MODEL      177
REMARK 921   NORMALIZED FREE ENERGY PREDICTED BY IDOCK:   -4.94 KCAL/MOL
REMARK 922        TOTAL FREE ENERGY PREDICTED BY IDOCK:   -9.33 KCAL/MOL
REMARK 923 INTER-LIGAND FREE ENERGY PREDICTED BY IDOCK:   -7.42 KCAL/MOL
REMARK 924 INTRA-LIGAND FREE ENERGY PREDICTED BY IDOCK:   -1.91 KCAL/MOL
REMARK 927      BINDING AFFINITY PREDICTED BY RF-SCORE:    0.00 PKD
ROOT
HETATM    1 CU   UNL     1      -8.771  14.348  65.610  1.00  0.00    -0.452 Cu 
HETATM    2  O   UNL     2      -8.676   8.700  63.578  1.00  0.00    -0.421 OA 
HETATM    3  C   UNL     2      -8.419   8.819  64.984  1.00  0.00    -0.175 C  
HETATM    4  H   UNL     2      -8.436   7.816  63.324  1.00  0.00     0.000 HD 
HETATM    5  O   UNL     3      -5.940  20.022  69.240  1.00  0.00    -0.257 OA 
HETATM    6  H   UNL     3      -5.110  19.585  69.393  1.00  0.00     0.000 HD 
HETATM    7  C   UNL     3      -6.642  19.320  68.194  1.00  0.00    -0.237 C  
ENDROOT
BRANCH   3   8
HETATM    8  C   UNL     2      -8.805  10.238  65.393  1.00  0.00    -0.172 C  
HETATM    9  O   UNL     2      -9.138  11.006  64.220  1.00  0.00    -0.289 OA 
HETATM   10  H   UNL     2      -9.377  11.890  64.474  1.00  0.00     0.000 HD 
BRANCH   8  11
HETATM   11  C   UNL     2      -9.958  10.258  66.416  1.00  0.00    -0.229 C  
HETATM   12  O   UNL     2     -10.320   8.899  66.669  1.00  0.00    -0.271 OA 
HETATM   13  H   UNL     2     -11.031   8.911  67.299  1.00  0.00     0.000 HD 
BRANCH  11  14
HETATM   14  C   UNL     2      -9.467  10.955  67.701  1.00  0.00    -0.159 C  
HETATM   15  H   UNL     2      -9.908  10.848  69.627  1.00  0.00     0.000 HD 
HETATM   16  O   UNL     2     -10.210  10.419  68.836  1.00  0.00    -0.183 OA 
BRANCH  14  17
HETATM   17  C   UNL     2      -9.472  12.484  67.711  1.00  0.00    -0.197 C  
HETATM   18  C   UNL     2      -8.057  13.003  68.076  1.00  0.00    -0.157 C  
HETATM   19  H   UNL     2     -10.527  13.910  68.563  1.00  0.00     0.000 HD 
HETATM   20  O   UNL     2     -10.525  12.960  68.557  1.00  0.00    -0.247 OA 
HETATM   21  O   UNL     2      -7.161  12.425  67.380  1.00  0.00    -0.132 OA 
HETATM   22  O   UNL     2      -8.009  13.904  68.937  1.00  0.00    -0.101 OA 
ENDBRANCH  14  17
ENDBRANCH  11  14
ENDBRANCH   8  11
ENDBRANCH   3   8
BRANCH   7  23
HETATM   23  C   UNL     3      -7.982  20.026  67.948  1.00  0.00    -0.271 C  
HETATM   24  O   UNL     3      -7.907  20.705  66.678  1.00  0.00    -0.506 OA 
HETATM   25  H   UNL     3      -8.737  21.142  66.525  1.00  0.00     0.000 HD 
BRANCH  23  26
HETATM   26  C   UNL     3      -9.230  19.127  67.843  1.00  0.00    -0.308 C  
HETATM   27  O   UNL     3     -10.431  19.902  67.785  1.00  0.00    -0.407 OA 
HETATM   28  H   UNL     3     -11.200  19.347  67.720  1.00  0.00     0.000 HD 
BRANCH  26  29
HETATM   29  C   UNL     3      -9.277  18.056  66.732  1.00  0.00    -0.280 C  
HETATM   30  O   UNL     3     -10.323  18.298  65.777  1.00  0.00    -0.594 OA 
HETATM   31  H   UNL     3     -10.351  17.638  65.094  1.00  0.00     0.000 HD 
BRANCH  29  32
HETATM   32  C   UNL     3      -9.380  16.601  67.178  1.00  0.00    -0.228 C  
HETATM   33  C   UNL     3     -10.813  16.039  67.178  1.00  0.00    -0.239 C  
HETATM   34  O   UNL     3      -8.867  16.488  68.576  1.00  0.00    -0.209 OA 
HETATM   35  O   UNL     3     -11.379  16.151  68.344  1.00  0.00    -0.366 OA 
HETATM   36  O   UNL     3     -11.112  15.246  66.264  1.00  0.00    -0.330 OA 
HETATM   37  H   UNL     3      -8.932  15.582  68.854  1.00  0.00     0.000 HD 
ENDBRANCH  29  32
ENDBRANCH  26  29
ENDBRANCH  23  26
ENDBRANCH   7  23
TORSDOF 8
ENDMDL
MODEL      178
REMARK 921   NORMALIZED FREE ENERGY PREDICTED BY IDOCK:   -4.94 KCAL/MOL
REMARK 922        TOTAL FREE ENERGY PREDICTED BY IDOCK:   -9.33 KCAL/MOL
REMARK 923 INTER-LIGAND FREE ENERGY PREDICTED BY IDOCK:   -7.74 KCAL/MOL
REMARK 924 INTRA-LIGAND FREE ENERGY PREDICTED BY IDOCK:   -1.58 KCAL/MOL
REMARK 927      BINDING AFFINITY PREDICTED BY RF-SCORE:    0.00 PKD
ROOT
HETATM    1 CU   UNL     1     -10.955  11.053  70.214  1.00  0.00    -0.243 Cu 
HETATM    2  O   UNL     2     -12.369  15.280  74.235  1.00  0.00    -0.622 OA 
HETATM    3  C   UNL     2     -12.559  15.684  72.871  1.00  0.00    -0.446 C  
HETATM    4  H   UNL     2     -12.416  16.066  74.768  1.00  0.00     0.000 HD 
HETATM    5  O   UNL     3      -7.520   8.620  64.242  1.00  0.00    -0.101 OA 
HETATM    6  H   UNL     3      -7.019   9.420  64.134  1.00  0.00     0.000 HD 
HETATM    7  C   UNL     3      -8.054   8.592  65.581  1.00  0.00    -0.110 C  
ENDROOT
BRANCH   3   8
HETATM    8  C   UNL     2     -12.483  14.423  72.015  1.00  0.00    -0.287 C  
HETATM    9  O   UNL     2     -13.294  13.388  72.604  1.00  0.00    -0.531 OA 
HETATM   10  H   UNL     2     -13.246  12.602  72.071  1.00  0.00     0.000 HD 
BRANCH   8  11
HETATM   11  C   UNL     2     -12.895  14.685  70.552  1.00  0.00    -0.317 C  
HETATM   12  O   UNL     2     -13.822  15.773  70.564  1.00  0.00    -0.710 OA 
HETATM   13  H   UNL     2     -14.075  15.935  69.663  1.00  0.00     0.000 HD 
BRANCH  11  14
HETATM   14  C   UNL     2     -11.632  15.034  69.738  1.00  0.00    -0.304 C  
HETATM   15  H   UNL     2     -11.194  16.290  68.273  1.00  0.00     0.000 HD 
HETATM   16  O   UNL     2     -11.971  16.075  68.775  1.00  0.00    -0.340 OA 
BRANCH  14  17
HETATM   17  C   UNL     2     -10.895  13.876  69.064  1.00  0.00    -0.225 C  
HETATM   18  C   UNL     2      -9.527  14.376  68.531  1.00  0.00    -0.212 C  
HETATM   19  H   UNL     2     -11.282  12.552  67.660  1.00  0.00     0.000 HD 
HETATM   20  O   UNL     2     -11.741  13.271  68.079  1.00  0.00    -0.318 OA 
HETATM   21  O   UNL     2      -8.897  15.031  69.422  1.00  0.00    -0.192 OA 
HETATM   22  O   UNL     2      -9.239  14.042  67.365  1.00  0.00    -0.199 OA 
ENDBRANCH  14  17
ENDBRANCH  11  14
ENDBRANCH   8  11
ENDBRANCH   3   8
BRANCH   7  23
HETATM   23  C   UNL     3      -8.864   7.301  65.756  1.00  0.00    -0.066 C  
HETATM   24  O   UNL     3      -7.947   6.236  66.082  1.00  0.00    -0.105 OA 
HETATM   25  H   UNL     3      -8.449   5.435  66.190  1.00  0.00     0.000 HD 
BRANCH  23  26
HETATM   26  C   UNL     3      -9.908   7.285  66.889  1.00  0.00    -0.214 C  
HETATM   27  O   UNL     3     -10.929   6.313  66.648  1.00  0.00    -0.583 OA 
HETATM   28  H   UNL     3     -11.573   6.303  67.348  1.00  0.00     0.000 HD 
BRANCH  26  29
HETATM   29  C   UNL     3      -9.415   7.135  68.345  1.00  0.00    -0.138 C  
HETATM   30  O   UNL     3      -9.299   5.761  68.749  1.00  0.00    -0.117 OA 
HETATM   31  H   UNL     3      -8.995   5.670  69.645  1.00  0.00     0.000 HD 
BRANCH  29  32
HETATM   32  C   UNL     3     -10.205   7.872  69.422  1.00  0.00    -0.206 C  
HETATM   33  C   UNL     3     -10.918   6.950  70.426  1.00  0.00    -0.274 C  
HETATM   34  O   UNL     3     -11.260   8.699  68.765  1.00  0.00    -0.394 OA 
HETATM   35  O   UNL     3     -12.147   6.708  70.077  1.00  0.00    -0.280 OA 
HETATM   36  O   UNL     3     -10.425   6.864  71.568  1.00  0.00    -0.211 OA 
HETATM   37  H   UNL     3     -11.752   9.158  69.435  1.00  0.00     0.000 HD 
ENDBRANCH  29  32
ENDBRANCH  26  29
ENDBRANCH  23  26
ENDBRANCH   7  23
TORSDOF 8
ENDMDL
MODEL      179
REMARK 921   NORMALIZED FREE ENERGY PREDICTED BY IDOCK:   -4.94 KCAL/MOL
REMARK 922        TOTAL FREE ENERGY PREDICTED BY IDOCK:   -9.32 KCAL/MOL
REMARK 923 INTER-LIGAND FREE ENERGY PREDICTED BY IDOCK:   -7.39 KCAL/MOL
REMARK 924 INTRA-LIGAND FREE ENERGY PREDICTED BY IDOCK:   -1.93 KCAL/MOL
REMARK 927      BINDING AFFINITY PREDICTED BY RF-SCORE:    0.00 PKD
ROOT
HETATM    1 CU   UNL     1     -10.843   8.511  69.497  1.00  0.00    -0.215 Cu 
HETATM    2  O   UNL     2      -8.941   4.836  73.846  1.00  0.00    -0.113 OA 
HETATM    3  C   UNL     2      -9.701   5.957  74.320  1.00  0.00    -0.204 C  
HETATM    4  H   UNL     2      -8.520   4.444  74.602  1.00  0.00     0.000 HD 
HETATM    5  O   UNL     3     -11.649  15.078  66.396  1.00  0.00    -0.294 OA 
HETATM    6  H   UNL     3     -11.100  15.513  67.039  1.00  0.00     0.000 HD 
HETATM    7  C   UNL     3     -11.410  13.658  66.476  1.00  0.00    -0.319 C  
ENDROOT
BRANCH   3   8
HETATM    8  C   UNL     2     -10.378   6.586  73.105  1.00  0.00    -0.231 C  
HETATM    9  O   UNL     2     -11.456   7.437  73.538  1.00  0.00    -0.582 OA 
HETATM   10  H   UNL     2     -11.878   7.829  72.782  1.00  0.00     0.000 HD 
BRANCH   8  11
HETATM   11  C   UNL     2      -9.382   7.360  72.217  1.00  0.00    -0.142 C  
HETATM   12  O   UNL     2      -8.188   7.541  72.982  1.00  0.00    -0.104 OA 
HETATM   13  H   UNL     2      -7.575   8.017  72.436  1.00  0.00     0.000 HD 
BRANCH  11  14
HETATM   14  C   UNL     2      -9.111   6.534  70.943  1.00  0.00    -0.154 C  
HETATM   15  H   UNL     2      -8.631   6.941  69.067  1.00  0.00     0.000 HD 
HETATM   16  O   UNL     2      -8.798   7.449  69.851  1.00  0.00    -0.140 OA 
BRANCH  14  17
HETATM   17  C   UNL     2     -10.178   5.521  70.527  1.00  0.00    -0.242 C  
HETATM   18  C   UNL     2      -9.512   4.146  70.265  1.00  0.00    -0.181 C  
HETATM   19  H   UNL     2     -11.601   5.412  69.171  1.00  0.00     0.000 HD 
HETATM   20  O   UNL     2     -10.937   6.042  69.430  1.00  0.00    -0.332 OA 
HETATM   21  O   UNL     2      -8.738   3.820  71.222  1.00  0.00    -0.078 OA 
HETATM   22  O   UNL     2      -9.849   3.565  69.215  1.00  0.00    -0.060 OA 
ENDBRANCH  14  17
ENDBRANCH  11  14
ENDBRANCH   8  11
ENDBRANCH   3   8
BRANCH   7  23
HETATM   23  C   UNL     3     -12.297  12.955  65.440  1.00  0.00    -0.485 C  
HETATM   24  O   UNL     3     -13.074  13.960  64.757  1.00  0.00    -0.640 OA 
HETATM   25  H   UNL     3     -13.623  13.525  64.115  1.00  0.00     0.000 HD 
BRANCH  23  26
HETATM   26  C   UNL     3     -11.575  12.183  64.318  1.00  0.00    -0.370 C  
HETATM   27  O   UNL     3     -11.865  12.733  63.031  1.00  0.00    -0.780 OA 
HETATM   28  H   UNL     3     -11.419  12.257  62.340  1.00  0.00     0.000 HD 
BRANCH  26  29
HETATM   29  C   UNL     3     -10.050  11.969  64.434  1.00  0.00    -0.271 C  
HETATM   30  O   UNL     3      -9.317  12.669  63.415  1.00  0.00    -0.338 OA 
HETATM   31  H   UNL     3      -8.379  12.538  63.487  1.00  0.00     0.000 HD 
BRANCH  29  32
HETATM   32  C   UNL     3      -9.553  10.527  64.458  1.00  0.00    -0.302 C  
HETATM   33  C   UNL     3      -8.027  10.386  64.599  1.00  0.00    -0.092 C  
HETATM   34  O   UNL     3      -9.936   9.864  63.176  1.00  0.00    -0.465 OA 
HETATM   35  O   UNL     3      -7.440  10.281  63.443  1.00  0.00    -0.147 OA 
HETATM   36  O   UNL     3      -7.591  10.017  65.706  1.00  0.00    -0.109 OA 
HETATM   37  H   UNL     3      -9.626   8.966  63.191  1.00  0.00     0.000 HD 
ENDBRANCH  29  32
ENDBRANCH  26  29
ENDBRANCH  23  26
ENDBRANCH   7  23
TORSDOF 8
ENDMDL
MODEL      180
REMARK 921   NORMALIZED FREE ENERGY PREDICTED BY IDOCK:   -4.94 KCAL/MOL
REMARK 922        TOTAL FREE ENERGY PREDICTED BY IDOCK:   -9.32 KCAL/MOL
REMARK 923 INTER-LIGAND FREE ENERGY PREDICTED BY IDOCK:   -7.77 KCAL/MOL
REMARK 924 INTRA-LIGAND FREE ENERGY PREDICTED BY IDOCK:   -1.55 KCAL/MOL
REMARK 927      BINDING AFFINITY PREDICTED BY RF-SCORE:    0.00 PKD
ROOT
HETATM    1 CU   UNL     1     -10.802  10.258  68.955  1.00  0.00    -0.170 Cu 
HETATM    2  O   UNL     2     -11.569  15.218  72.248  1.00  0.00    -0.429 OA 
HETATM    3  C   UNL     2     -11.162  15.472  70.896  1.00  0.00    -0.371 C  
HETATM    4  H   UNL     2     -11.461  16.030  72.729  1.00  0.00     0.000 HD 
HETATM    5  O   UNL     3      -6.982   5.926  64.481  1.00  0.00    -0.049 OA 
HETATM    6  H   UNL     3      -6.197   6.459  64.540  1.00  0.00     0.000 HD 
HETATM    7  C   UNL     3      -7.861   6.283  65.566  1.00  0.00    -0.101 C  
ENDROOT
BRANCH   3   8
HETATM    8  C   UNL     2     -11.337  14.168  70.122  1.00  0.00    -0.087 C  
HETATM    9  O   UNL     2     -11.807  13.137  71.011  1.00  0.00    -0.396 OA 
HETATM   10  H   UNL     2     -11.915  12.325  70.529  1.00  0.00     0.000 HD 
BRANCH   8  11
HETATM   11  C   UNL     2     -12.278  14.329  68.911  1.00  0.00    -0.205 C  
HETATM   12  O   UNL     2     -12.339  15.725  68.608  1.00  0.00    -0.500 OA 
HETATM   13  H   UNL     2     -12.919  15.825  67.863  1.00  0.00     0.000 HD 
BRANCH  11  14
HETATM   14  C   UNL     2     -11.704  13.524  67.728  1.00  0.00    -0.359 C  
HETATM   15  H   UNL     2     -10.147  12.336  67.447  1.00  0.00     0.000 HD 
HETATM   16  O   UNL     2     -10.501  12.832  68.175  1.00  0.00    -0.222 OA 
BRANCH  14  17
HETATM   17  C   UNL     2     -11.453  14.283  66.424  1.00  0.00    -0.355 C  
HETATM   18  C   UNL     2     -11.607  13.314  65.224  1.00  0.00    -0.310 C  
HETATM   19  H   UNL     2     -10.037  15.431  65.683  1.00  0.00     0.000 HD 
HETATM   20  O   UNL     2     -10.192  14.960  66.493  1.00  0.00    -0.262 OA 
HETATM   21  O   UNL     2     -12.685  12.641  65.311  1.00  0.00    -0.652 OA 
HETATM   22  O   UNL     2     -10.707  13.361  64.362  1.00  0.00    -0.396 OA 
ENDBRANCH  14  17
ENDBRANCH  11  14
ENDBRANCH   8  11
ENDBRANCH   3   8
BRANCH   7  23
HETATM   23  C   UNL     3      -9.128   5.422  65.471  1.00  0.00    -0.118 C  
HETATM   24  O   UNL     3      -8.823   4.261  64.672  1.00  0.00    -0.129 OA 
HETATM   25  H   UNL     3      -9.608   3.728  64.613  1.00  0.00     0.000 HD 
BRANCH  23  26
HETATM   26  C   UNL     3      -9.685   4.859  66.793  1.00  0.00    -0.181 C  
HETATM   27  O   UNL     3      -8.635   4.493  67.691  1.00  0.00    -0.103 OA 
HETATM   28  H   UNL     3      -8.979   4.145  68.507  1.00  0.00     0.000 HD 
BRANCH  26  29
HETATM   29  C   UNL     3     -10.731   5.691  67.567  1.00  0.00    -0.187 C  
HETATM   30  O   UNL     3     -11.412   6.637  66.728  1.00  0.00    -0.776 OA 
HETATM   31  H   UNL     3     -12.056   7.149  67.204  1.00  0.00     0.000 HD 
BRANCH  29  32
HETATM   32  C   UNL     3     -10.245   6.432  68.808  1.00  0.00    -0.177 C  
HETATM   33  C   UNL     3     -10.884   5.952  70.122  1.00  0.00    -0.332 C  
HETATM   34  O   UNL     3     -10.578   7.881  68.665  1.00  0.00    -0.298 OA 
HETATM   35  O   UNL     3     -11.927   6.660  70.443  1.00  0.00    -0.396 OA 
HETATM   36  O   UNL     3     -10.173   5.264  70.881  1.00  0.00    -0.211 OA 
HETATM   37  H   UNL     3     -10.276   8.343  69.438  1.00  0.00     0.000 HD 
ENDBRANCH  29  32
ENDBRANCH  26  29
ENDBRANCH  23  26
ENDBRANCH   7  23
TORSDOF 8
ENDMDL
MODEL      181
REMARK 921   NORMALIZED FREE ENERGY PREDICTED BY IDOCK:   -4.93 KCAL/MOL
REMARK 922        TOTAL FREE ENERGY PREDICTED BY IDOCK:   -9.31 KCAL/MOL
REMARK 923 INTER-LIGAND FREE ENERGY PREDICTED BY IDOCK:   -8.47 KCAL/MOL
REMARK 924 INTRA-LIGAND FREE ENERGY PREDICTED BY IDOCK:   -0.84 KCAL/MOL
REMARK 927      BINDING AFFINITY PREDICTED BY RF-SCORE:    0.00 PKD
ROOT
HETATM    1 CU   UNL     1     -11.214  11.241  66.719  1.00  0.00    -0.231 Cu 
HETATM    2  O   UNL     2     -11.607  16.385  63.650  1.00  0.00    -1.514 OA 
HETATM    3  C   UNL     2     -11.021  16.525  64.952  1.00  0.00    -0.209 C  
HETATM    4  H   UNL     2     -11.813  17.259  63.340  1.00  0.00     0.000 HD 
HETATM    5  O   UNL     3     -12.256   7.078  72.633  1.00  0.00    -0.491 OA 
HETATM    6  H   UNL     3     -12.769   7.741  73.081  1.00  0.00     0.000 HD 
HETATM    7  C   UNL     3     -12.189   7.419  71.233  1.00  0.00    -0.341 C  
ENDROOT
BRANCH   3   8
HETATM    8  C   UNL     2     -10.691  15.120  65.449  1.00  0.00    -0.381 C  
HETATM    9  O   UNL     2      -9.264  14.978  65.585  1.00  0.00    -0.462 OA 
HETATM   10  H   UNL     2      -9.058  14.103  65.894  1.00  0.00     0.000 HD 
BRANCH   8  11
HETATM   11  C   UNL     2     -11.411  14.784  66.771  1.00  0.00    -0.338 C  
HETATM   12  O   UNL     2     -12.067  13.527  66.585  1.00  0.00    -0.399 OA 
HETATM   13  H   UNL     2     -12.511  13.320  67.399  1.00  0.00     0.000 HD 
BRANCH  11  14
HETATM   14  C   UNL     2     -10.363  14.707  67.900  1.00  0.00    -0.237 C  
HETATM   15  H   UNL     2      -9.227  13.288  68.683  1.00  0.00     0.000 HD 
HETATM   16  O   UNL     2      -9.873  13.336  67.988  1.00  0.00    -0.217 OA 
BRANCH  14  17
HETATM   17  C   UNL     2     -10.776  15.235  69.273  1.00  0.00    -0.252 C  
HETATM   18  C   UNL     2     -12.055  14.498  69.747  1.00  0.00    -0.331 C  
HETATM   19  H   UNL     2     -11.142  16.991  70.084  1.00  0.00     0.000 HD 
HETATM   20  O   UNL     2     -10.885  16.663  69.230  1.00  0.00    -0.324 OA 
HETATM   21  O   UNL     2     -11.934  13.238  69.618  1.00  0.00    -0.308 OA 
HETATM   22  O   UNL     2     -12.965  15.218  70.205  1.00  0.00    -0.303 OA 
ENDBRANCH  14  17
ENDBRANCH  11  14
ENDBRANCH   8  11
ENDBRANCH   3   8
BRANCH   7  23
HETATM   23  C   UNL     3     -11.360   6.349  70.510  1.00  0.00    -0.375 C  
HETATM   24  O   UNL     3     -11.706   6.382  69.110  1.00  0.00    -0.583 OA 
HETATM   25  H   UNL     3     -11.193   5.719  68.662  1.00  0.00     0.000 HD 
BRANCH  23  26
HETATM   26  C   UNL     3      -9.829   6.516  70.544  1.00  0.00    -0.179 C  
HETATM   27  O   UNL     3      -9.387   7.495  69.600  1.00  0.00    -0.154 OA 
HETATM   28  H   UNL     3      -8.442   7.598  69.622  1.00  0.00     0.000 HD 
BRANCH  26  29
HETATM   29  C   UNL     3      -9.147   6.794  71.902  1.00  0.00    -0.142 C  
HETATM   30  O   UNL     3      -7.910   7.510  71.761  1.00  0.00    -0.084 OA 
HETATM   31  H   UNL     3      -7.491   7.681  72.596  1.00  0.00     0.000 HD 
BRANCH  29  32
HETATM   32  C   UNL     3      -8.890   5.593  72.806  1.00  0.00    -0.122 C  
HETATM   33  C   UNL     3      -8.704   4.264  72.053  1.00  0.00    -0.108 C  
HETATM   34  O   UNL     3     -10.059   5.417  73.718  1.00  0.00    -0.172 OA 
HETATM   35  O   UNL     3      -9.819   3.602  71.951  1.00  0.00    -0.159 OA 
HETATM   36  O   UNL     3      -7.546   3.810  71.980  1.00  0.00    -0.055 OA 
HETATM   37  H   UNL     3      -9.899   4.669  74.281  1.00  0.00     0.000 HD 
ENDBRANCH  29  32
ENDBRANCH  26  29
ENDBRANCH  23  26
ENDBRANCH   7  23
TORSDOF 8
ENDMDL
MODEL      182
REMARK 921   NORMALIZED FREE ENERGY PREDICTED BY IDOCK:   -4.93 KCAL/MOL
REMARK 922        TOTAL FREE ENERGY PREDICTED BY IDOCK:   -9.31 KCAL/MOL
REMARK 923 INTER-LIGAND FREE ENERGY PREDICTED BY IDOCK:   -7.94 KCAL/MOL
REMARK 924 INTRA-LIGAND FREE ENERGY PREDICTED BY IDOCK:   -1.37 KCAL/MOL
REMARK 927      BINDING AFFINITY PREDICTED BY RF-SCORE:    0.00 PKD
ROOT
HETATM    1 CU   UNL     1      -7.608  12.077  68.939  1.00  0.00    -0.095 Cu 
HETATM    2  O   UNL     2      -5.490   7.729  72.495  1.00  0.00    -0.036 OA 
HETATM    3  C   UNL     2      -6.886   8.005  72.678  1.00  0.00    -0.083 C  
HETATM    4  H   UNL     2      -5.213   7.192  73.228  1.00  0.00     0.000 HD 
HETATM    5  O   UNL     3     -11.197  18.319  67.698  1.00  0.00    -0.090 OA 
HETATM    6  H   UNL     3     -11.307  18.507  68.623  1.00  0.00     0.000 HD 
HETATM    7  C   UNL     3     -10.171  17.316  67.554  1.00  0.00    -0.328 C  
ENDROOT
BRANCH   3   8
HETATM    8  C   UNL     2      -7.332   8.868  71.500  1.00  0.00    -0.052 C  
HETATM    9  O   UNL     2      -6.480   8.615  70.366  1.00  0.00    -0.034 OA 
HETATM   10  H   UNL     2      -6.757   9.153  69.633  1.00  0.00     0.000 HD 
BRANCH   8  11
HETATM   11  C   UNL     2      -8.815   8.646  71.142  1.00  0.00    -0.199 C  
HETATM   12  O   UNL     2      -8.981   9.039  69.777  1.00  0.00    -0.140 OA 
HETATM   13  H   UNL     2      -9.895   8.903  69.556  1.00  0.00     0.000 HD 
BRANCH  11  14
HETATM   14  C   UNL     2      -9.154   7.155  71.340  1.00  0.00    -0.143 C  
HETATM   15  H   UNL     2      -8.774   5.475  70.366  1.00  0.00     0.000 HD 
HETATM   16  O   UNL     2      -8.566   6.393  70.244  1.00  0.00    -0.132 OA 
BRANCH  14  17
HETATM   17  C   UNL     2     -10.627   6.795  71.536  1.00  0.00    -0.219 C  
HETATM   18  C   UNL     2     -10.876   6.425  73.020  1.00  0.00    -0.259 C  
HETATM   19  H   UNL     2     -11.923   5.562  70.713  1.00  0.00     0.000 HD 
HETATM   20  O   UNL     2     -11.008   5.786  70.592  1.00  0.00    -0.288 OA 
HETATM   21  O   UNL     2     -10.380   7.298  73.802  1.00  0.00    -0.360 OA 
HETATM   22  O   UNL     2     -11.536   5.386  73.223  1.00  0.00    -0.268 OA 
ENDBRANCH  14  17
ENDBRANCH  11  14
ENDBRANCH   8  11
ENDBRANCH   3   8
BRANCH   7  23
HETATM   23  C   UNL     3      -9.993  17.012  66.060  1.00  0.00    -0.269 C  
HETATM   24  O   UNL     3      -8.677  16.454  65.869  1.00  0.00    -0.425 OA 
HETATM   25  H   UNL     3      -8.566  16.265  64.944  1.00  0.00     0.000 HD 
BRANCH  23  26
HETATM   26  C   UNL     3     -10.955  15.978  65.443  1.00  0.00    -0.253 C  
HETATM   27  O   UNL     3     -11.393  16.380  64.142  1.00  0.00    -1.302 OA 
HETATM   28  H   UNL     3     -11.986  15.743  63.762  1.00  0.00     0.000 HD 
BRANCH  26  29
HETATM   29  C   UNL     3     -10.511  14.501  65.382  1.00  0.00    -0.380 C  
HETATM   30  O   UNL     3      -9.797  14.190  64.174  1.00  0.00    -0.396 OA 
HETATM   31  H   UNL     3      -9.523  13.281  64.137  1.00  0.00     0.000 HD 
BRANCH  29  32
HETATM   32  C   UNL     3     -11.595  13.444  65.567  1.00  0.00    -0.325 C  
HETATM   33  C   UNL     3     -11.799  12.526  64.349  1.00  0.00    -0.386 C  
HETATM   34  O   UNL     3     -12.897  14.129  65.820  1.00  0.00    -0.502 OA 
HETATM   35  O   UNL     3     -12.741  12.961  63.565  1.00  0.00    -0.709 OA 
HETATM   36  O   UNL     3     -11.365  11.361  64.437  1.00  0.00    -0.266 OA 
HETATM   37  H   UNL     3     -13.573  13.471  65.935  1.00  0.00     0.000 HD 
ENDBRANCH  29  32
ENDBRANCH  26  29
ENDBRANCH  23  26
ENDBRANCH   7  23
TORSDOF 8
ENDMDL
MODEL      183
REMARK 921   NORMALIZED FREE ENERGY PREDICTED BY IDOCK:   -4.93 KCAL/MOL
REMARK 922        TOTAL FREE ENERGY PREDICTED BY IDOCK:   -9.31 KCAL/MOL
REMARK 923 INTER-LIGAND FREE ENERGY PREDICTED BY IDOCK:   -8.08 KCAL/MOL
REMARK 924 INTRA-LIGAND FREE ENERGY PREDICTED BY IDOCK:   -1.23 KCAL/MOL
REMARK 927      BINDING AFFINITY PREDICTED BY RF-SCORE:    0.00 PKD
ROOT
HETATM    1 CU   UNL     1      -8.912   8.743  66.832  1.00  0.00    -0.116 Cu 
HETATM    2  O   UNL     2      -7.142   3.692  69.552  1.00  0.00    -0.041 OA 
HETATM    3  C   UNL     2      -8.472   3.632  69.018  1.00  0.00    -0.073 C  
HETATM    4  H   UNL     2      -7.038   2.944  70.128  1.00  0.00     0.000 HD 
HETATM    5  O   UNL     3     -13.589  14.238  65.685  1.00  0.00    -0.633 OA 
HETATM    6  H   UNL     3     -14.151  13.988  66.410  1.00  0.00     0.000 HD 
HETATM    7  C   UNL     3     -12.318  13.575  65.842  1.00  0.00    -0.456 C  
ENDROOT
BRANCH   3   8
HETATM    8  C   UNL     2      -8.639   4.834  68.091  1.00  0.00    -0.102 C  
HETATM    9  O   UNL     2      -9.669   4.559  67.122  1.00  0.00    -0.175 OA 
HETATM   10  H   UNL     2      -9.772   5.307  66.545  1.00  0.00     0.000 HD 
BRANCH   8  11
HETATM   11  C   UNL     2      -8.938   6.133  68.867  1.00  0.00    -0.124 C  
HETATM   12  O   UNL     2      -9.555   7.039  67.949  1.00  0.00    -0.124 OA 
HETATM   13  H   UNL     2      -9.739   7.839  68.426  1.00  0.00     0.000 HD 
BRANCH  11  14
HETATM   14  C   UNL     2      -9.878   5.801  70.043  1.00  0.00    -0.180 C  
HETATM   15  H   UNL     2     -11.825   5.521  70.264  1.00  0.00     0.000 HD 
HETATM   16  O   UNL     2     -11.245   5.726  69.540  1.00  0.00    -0.343 OA 
BRANCH  14  17
HETATM   17  C   UNL     2      -9.793   6.697  71.280  1.00  0.00    -0.177 C  
HETATM   18  C   UNL     2     -10.828   6.225  72.332  1.00  0.00    -0.243 C  
HETATM   19  H   UNL     2      -9.859   8.627  71.660  1.00  0.00     0.000 HD 
HETATM   20  O   UNL     2      -9.912   8.070  70.891  1.00  0.00    -0.185 OA 
HETATM   21  O   UNL     2     -10.758   4.967  72.516  1.00  0.00    -0.210 OA 
HETATM   22  O   UNL     2     -11.525   7.118  72.854  1.00  0.00    -0.248 OA 
ENDBRANCH  14  17
ENDBRANCH  11  14
ENDBRANCH   8  11
ENDBRANCH   3   8
BRANCH   7  23
HETATM   23  C   UNL     3     -11.411  13.978  64.671  1.00  0.00    -0.375 C  
HETATM   24  O   UNL     3     -12.230  14.108  63.491  1.00  0.00    -1.007 OA 
HETATM   25  H   UNL     3     -11.668  14.358  62.766  1.00  0.00     0.000 HD 
BRANCH  23  26
HETATM   26  C   UNL     3     -10.676  15.327  64.795  1.00  0.00    -0.317 C  
HETATM   27  O   UNL     3     -11.408  16.382  64.165  1.00  0.00    -1.302 OA 
HETATM   28  H   UNL     3     -10.955  17.214  64.242  1.00  0.00     0.000 HD 
BRANCH  26  29
HETATM   29  C   UNL     3     -10.232  15.800  66.196  1.00  0.00    -0.315 C  
HETATM   30  O   UNL     3     -11.336  16.229  67.009  1.00  0.00     0.043 OA 
HETATM   31  H   UNL     3     -11.063  16.519  67.871  1.00  0.00     0.000 HD 
BRANCH  29  32
HETATM   32  C   UNL     3      -9.162  16.885  66.253  1.00  0.00    -0.267 C  
HETATM   33  C   UNL     3      -8.719  17.262  67.678  1.00  0.00    -0.219 C  
HETATM   34  O   UNL     3      -9.699  18.126  65.621  1.00  0.00    -0.442 OA 
HETATM   35  O   UNL     3      -9.385  18.279  68.141  1.00  0.00    -0.279 OA 
HETATM   36  O   UNL     3      -7.601  16.856  68.052  1.00  0.00    -0.170 OA 
HETATM   37  H   UNL     3      -9.033  18.802  65.657  1.00  0.00     0.000 HD 
ENDBRANCH  29  32
ENDBRANCH  26  29
ENDBRANCH  23  26
ENDBRANCH   7  23
TORSDOF 8
ENDMDL
MODEL      184
REMARK 921   NORMALIZED FREE ENERGY PREDICTED BY IDOCK:   -4.93 KCAL/MOL
REMARK 922        TOTAL FREE ENERGY PREDICTED BY IDOCK:   -9.30 KCAL/MOL
REMARK 923 INTER-LIGAND FREE ENERGY PREDICTED BY IDOCK:   -7.87 KCAL/MOL
REMARK 924 INTRA-LIGAND FREE ENERGY PREDICTED BY IDOCK:   -1.44 KCAL/MOL
REMARK 927      BINDING AFFINITY PREDICTED BY RF-SCORE:    0.00 PKD
ROOT
HETATM    1 CU   UNL     1      -9.156  11.554  68.154  1.00  0.00    -0.136 Cu 
HETATM    2  O   UNL     2      -8.480   6.217  70.818  1.00  0.00    -0.131 OA 
HETATM    3  C   UNL     2      -9.653   6.932  71.233  1.00  0.00    -0.165 C  
HETATM    4  H   UNL     2      -8.355   5.504  71.434  1.00  0.00     0.000 HD 
HETATM    5  O   UNL     3     -10.286  18.772  68.205  1.00  0.00    -0.364 OA 
HETATM    6  H   UNL     3     -10.235  18.832  69.153  1.00  0.00     0.000 HD 
HETATM    7  C   UNL     3      -9.720  17.511  67.795  1.00  0.00    -0.274 C  
ENDROOT
BRANCH   3   8
HETATM    8  C   UNL     2      -9.853   8.077  70.244  1.00  0.00    -0.184 C  
HETATM    9  O   UNL     2      -8.770   9.020  70.369  1.00  0.00    -0.160 OA 
HETATM   10  H   UNL     2      -8.896   9.733  69.754  1.00  0.00     0.000 HD 
BRANCH   8  11
HETATM   11  C   UNL     2      -9.989   7.578  68.791  1.00  0.00    -0.172 C  
HETATM   12  O   UNL     2     -11.330   7.108  68.631  1.00  0.00    -0.467 OA 
HETATM   13  H   UNL     2     -11.415   6.801  67.737  1.00  0.00     0.000 HD 
BRANCH  11  14
HETATM   14  C   UNL     2      -9.689   8.750  67.835  1.00  0.00    -0.157 C  
HETATM   15  H   UNL     2     -10.583  10.448  67.351  1.00  0.00     0.000 HD 
HETATM   16  O   UNL     2     -10.768   9.725  67.940  1.00  0.00    -0.245 OA 
BRANCH  14  17
HETATM   17  C   UNL     2      -9.398   8.402  66.375  1.00  0.00    -0.214 C  
HETATM   18  C   UNL     2      -7.870   8.233  66.178  1.00  0.00    -0.098 C  
HETATM   19  H   UNL     2      -9.831   9.154  64.608  1.00  0.00     0.000 HD 
HETATM   20  O   UNL     2     -10.012   9.370  65.515  1.00  0.00    -0.281 OA 
HETATM   21  O   UNL     2      -7.373   7.473  67.070  1.00  0.00    -0.089 OA 
HETATM   22  O   UNL     2      -7.377   8.811  65.190  1.00  0.00    -0.086 OA 
ENDBRANCH  14  17
ENDBRANCH  11  14
ENDBRANCH   8  11
ENDBRANCH   3   8
BRANCH   7  23
HETATM   23  C   UNL     3      -9.802  17.414  66.266  1.00  0.00    -0.279 C  
HETATM   24  O   UNL     3      -8.710  18.173  65.707  1.00  0.00    -0.466 OA 
HETATM   25  H   UNL     3      -8.761  18.113  64.760  1.00  0.00     0.000 HD 
BRANCH  23  26
HETATM   26  C   UNL     3      -9.663  16.008  65.651  1.00  0.00    -0.238 C  
HETATM   27  O   UNL     3      -8.655  15.242  66.315  1.00  0.00    -0.426 OA 
HETATM   28  H   UNL     3      -8.569  14.375  65.936  1.00  0.00     0.000 HD 
BRANCH  26  29
HETATM   29  C   UNL     3     -10.931  15.137  65.506  1.00  0.00    -0.365 C  
HETATM   30  O   UNL     3     -11.505  14.784  66.774  1.00  0.00    -0.351 OA 
HETATM   31  H   UNL     3     -12.285  14.249  66.684  1.00  0.00     0.000 HD 
BRANCH  29  32
HETATM   32  C   UNL     3     -10.803  13.861  64.680  1.00  0.00    -0.408 C  
HETATM   33  C   UNL     3     -12.090  13.022  64.609  1.00  0.00    -0.409 C  
HETATM   34  O   UNL     3      -9.752  12.995  65.292  1.00  0.00    -0.482 OA 
HETATM   35  O   UNL     3     -12.122  12.100  65.526  1.00  0.00    -0.517 OA 
HETATM   36  O   UNL     3     -12.724  13.044  63.536  1.00  0.00    -0.708 OA 
HETATM   37  H   UNL     3      -9.672  12.200  64.778  1.00  0.00     0.000 HD 
ENDBRANCH  29  32
ENDBRANCH  26  29
ENDBRANCH  23  26
ENDBRANCH   7  23
TORSDOF 8
ENDMDL
MODEL      185
REMARK 921   NORMALIZED FREE ENERGY PREDICTED BY IDOCK:   -4.93 KCAL/MOL
REMARK 922        TOTAL FREE ENERGY PREDICTED BY IDOCK:   -9.30 KCAL/MOL
REMARK 923 INTER-LIGAND FREE ENERGY PREDICTED BY IDOCK:   -7.54 KCAL/MOL
REMARK 924 INTRA-LIGAND FREE ENERGY PREDICTED BY IDOCK:   -1.76 KCAL/MOL
REMARK 927      BINDING AFFINITY PREDICTED BY RF-SCORE:    0.00 PKD
ROOT
HETATM    1 CU   UNL     1     -10.804  10.762  66.434  1.00  0.00    -0.224 Cu 
HETATM    2  O   UNL     2     -10.731   4.760  66.329  1.00  0.00    -0.404 OA 
HETATM    3  C   UNL     2      -9.876   5.337  67.326  1.00  0.00    -0.161 C  
HETATM    4  H   UNL     2     -10.494   3.843  66.255  1.00  0.00     0.000 HD 
HETATM    5  O   UNL     3      -7.592  17.325  66.408  1.00  0.00    -0.257 OA 
HETATM    6  H   UNL     3      -6.727  16.965  66.250  1.00  0.00     0.000 HD 
HETATM    7  C   UNL     3      -8.572  16.315  66.093  1.00  0.00    -0.307 C  
ENDROOT
BRANCH   3   8
HETATM    8  C   UNL     2     -10.256   6.810  67.446  1.00  0.00    -0.197 C  
HETATM    9  O   UNL     2     -11.526   6.930  68.118  1.00  0.00    -0.529 OA 
HETATM   10  H   UNL     2     -11.763   7.847  68.192  1.00  0.00     0.000 HD 
BRANCH   8  11
HETATM   11  C   UNL     2      -9.170   7.638  68.162  1.00  0.00    -0.138 C  
HETATM   12  O   UNL     2      -7.905   7.088  67.784  1.00  0.00    -0.110 OA 
HETATM   13  H   UNL     2      -7.236   7.597  68.225  1.00  0.00     0.000 HD 
BRANCH  11  14
HETATM   14  C   UNL     2      -9.295   9.109  67.717  1.00  0.00    -0.136 C  
HETATM   15  H   UNL     2      -9.435  10.058  65.986  1.00  0.00     0.000 HD 
HETATM   16  O   UNL     2      -9.357   9.152  66.260  1.00  0.00    -0.180 OA 
BRANCH  14  17
HETATM   17  C   UNL     2      -8.256  10.092  68.255  1.00  0.00    -0.110 C  
HETATM   18  C   UNL     2      -8.811  11.536  68.159  1.00  0.00    -0.165 C  
HETATM   19  H   UNL     2      -6.357  10.495  67.927  1.00  0.00     0.000 HD 
HETATM   20  O   UNL     2      -7.003   9.883  67.592  1.00  0.00    -0.084 OA 
HETATM   21  O   UNL     2      -9.988  11.609  68.639  1.00  0.00    -0.209 OA 
HETATM   22  O   UNL     2      -8.039  12.390  67.681  1.00  0.00    -0.145 OA 
ENDBRANCH  14  17
ENDBRANCH  11  14
ENDBRANCH   8  11
ENDBRANCH   3   8
BRANCH   7  23
HETATM   23  C   UNL     3      -9.970  16.895  66.347  1.00  0.00    -0.309 C  
HETATM   24  O   UNL     3     -10.608  17.107  65.071  1.00  0.00    -0.704 OA 
HETATM   25  H   UNL     3     -11.474  17.467  65.229  1.00  0.00     0.000 HD 
BRANCH  23  26
HETATM   26  C   UNL     3     -10.953  16.014  67.141  1.00  0.00    -0.183 C  
HETATM   27  O   UNL     3     -10.568  14.637  67.108  1.00  0.00    -0.275 OA 
HETATM   28  H   UNL     3     -11.175  14.094  67.598  1.00  0.00     0.000 HD 
BRANCH  26  29
HETATM   29  C   UNL     3     -11.280  16.402  68.600  1.00  0.00    -0.332 C  
HETATM   30  O   UNL     3     -10.213  17.130  69.228  1.00  0.00    -0.293 OA 
HETATM   31  H   UNL     3     -10.414  17.369  70.125  1.00  0.00     0.000 HD 
BRANCH  29  32
HETATM   32  C   UNL     3     -11.692  15.274  69.540  1.00  0.00    -0.339 C  
HETATM   33  C   UNL     3     -12.427  15.744  70.808  1.00  0.00    -0.374 C  
HETATM   34  O   UNL     3     -10.466  14.551  69.991  1.00  0.00    -0.438 OA 
HETATM   35  O   UNL     3     -11.613  15.913  71.808  1.00  0.00    -0.417 OA 
HETATM   36  O   UNL     3     -13.657  15.546  70.857  1.00  0.00    -0.520 OA 
HETATM   37  H   UNL     3     -10.722  13.848  70.577  1.00  0.00     0.000 HD 
ENDBRANCH  29  32
ENDBRANCH  26  29
ENDBRANCH  23  26
ENDBRANCH   7  23
TORSDOF 8
ENDMDL
MODEL      186
REMARK 921   NORMALIZED FREE ENERGY PREDICTED BY IDOCK:   -4.92 KCAL/MOL
REMARK 922        TOTAL FREE ENERGY PREDICTED BY IDOCK:   -9.30 KCAL/MOL
REMARK 923 INTER-LIGAND FREE ENERGY PREDICTED BY IDOCK:   -7.82 KCAL/MOL
REMARK 924 INTRA-LIGAND FREE ENERGY PREDICTED BY IDOCK:   -1.47 KCAL/MOL
REMARK 927      BINDING AFFINITY PREDICTED BY RF-SCORE:    0.00 PKD
ROOT
HETATM    1 CU   UNL     1     -10.599  12.648  67.539  1.00  0.00    -0.205 Cu 
HETATM    2  O   UNL     2     -10.164  18.632  67.335  1.00  0.00    -0.343 OA 
HETATM    3  C   UNL     2     -10.143  18.001  66.046  1.00  0.00    -0.266 C  
HETATM    4  H   UNL     2      -9.885  19.532  67.209  1.00  0.00     0.000 HD 
HETATM    5  O   UNL     3      -8.410   5.888  65.839  1.00  0.00    -0.123 OA 
HETATM    6  H   UNL     3      -7.616   6.190  65.413  1.00  0.00     0.000 HD 
HETATM    7  C   UNL     3      -8.929   6.960  66.652  1.00  0.00    -0.145 C  
ENDROOT
BRANCH   3   8
HETATM    8  C   UNL     2     -10.592  16.556  66.247  1.00  0.00    -0.223 C  
HETATM    9  O   UNL     2     -10.926  16.340  67.632  1.00  0.00    -0.315 OA 
HETATM   10  H   UNL     2     -11.205  15.440  67.757  1.00  0.00     0.000 HD 
BRANCH   8  11
HETATM   11  C   UNL     2     -11.769  16.176  65.326  1.00  0.00     0.544 C  
HETATM   12  O   UNL     2     -11.456  16.666  64.020  1.00  0.00    -1.523 OA 
HETATM   13  H   UNL     2     -12.181  16.433  63.453  1.00  0.00     0.000 HD 
BRANCH  11  14
HETATM   14  C   UNL     2     -11.923  14.642  65.327  1.00  0.00    -0.302 C  
HETATM   15  H   UNL     2     -12.288  13.256  66.691  1.00  0.00     0.000 HD 
HETATM   16  O   UNL     2     -12.193  14.201  66.691  1.00  0.00    -0.448 OA 
BRANCH  14  17
HETATM   17  C   UNL     2     -10.794  13.827  64.696  1.00  0.00    -0.406 C  
HETATM   18  C   UNL     2     -11.396  12.662  63.870  1.00  0.00    -0.441 C  
HETATM   19  H   UNL     2      -9.159  12.923  65.314  1.00  0.00     0.000 HD 
HETATM   20  O   UNL     2      -9.860  13.430  65.707  1.00  0.00    -0.266 OA 
HETATM   21  O   UNL     2     -12.321  13.074  63.099  1.00  0.00    -0.650 OA 
HETATM   22  O   UNL     2     -10.880  11.541  64.046  1.00  0.00    -0.340 OA 
ENDBRANCH  14  17
ENDBRANCH  11  14
ENDBRANCH   8  11
ENDBRANCH   3   8
BRANCH   7  23
HETATM   23  C   UNL     3     -10.211   6.473  67.340  1.00  0.00    -0.177 C  
HETATM   24  O   UNL     3     -10.088   5.054  67.568  1.00  0.00    -0.174 OA 
HETATM   25  H   UNL     3     -10.883   4.752  67.994  1.00  0.00     0.000 HD 
BRANCH  23  26
HETATM   26  C   UNL     3     -10.526   7.071  68.725  1.00  0.00    -0.206 C  
HETATM   27  O   UNL     3     -11.788   6.616  69.219  1.00  0.00    -0.629 OA 
HETATM   28  H   UNL     3     -11.982   6.985  70.073  1.00  0.00     0.000 HD 
BRANCH  26  29
HETATM   29  C   UNL     3      -9.474   6.929  69.846  1.00  0.00    -0.156 C  
HETATM   30  O   UNL     3      -8.749   5.692  69.767  1.00  0.00    -0.121 OA 
HETATM   31  H   UNL     3      -8.101   5.604  70.457  1.00  0.00     0.000 HD 
BRANCH  29  32
HETATM   32  C   UNL     3      -9.966   7.090  71.281  1.00  0.00    -0.189 C  
HETATM   33  C   UNL     3      -8.843   7.224  72.324  1.00  0.00    -0.127 C  
HETATM   34  O   UNL     3     -10.766   5.886  71.654  1.00  0.00    -0.236 OA 
HETATM   35  O   UNL     3      -8.528   6.077  72.850  1.00  0.00    -0.118 OA 
HETATM   36  O   UNL     3      -8.647   8.357  72.805  1.00  0.00    -0.236 OA 
HETATM   37  H   UNL     3     -11.072   5.986  72.547  1.00  0.00     0.000 HD 
ENDBRANCH  29  32
ENDBRANCH  26  29
ENDBRANCH  23  26
ENDBRANCH   7  23
TORSDOF 8
ENDMDL
MODEL      187
REMARK 921   NORMALIZED FREE ENERGY PREDICTED BY IDOCK:   -4.91 KCAL/MOL
REMARK 922        TOTAL FREE ENERGY PREDICTED BY IDOCK:   -9.28 KCAL/MOL
REMARK 923 INTER-LIGAND FREE ENERGY PREDICTED BY IDOCK:   -7.10 KCAL/MOL
REMARK 924 INTRA-LIGAND FREE ENERGY PREDICTED BY IDOCK:   -2.18 KCAL/MOL
REMARK 927      BINDING AFFINITY PREDICTED BY RF-SCORE:    0.00 PKD
ROOT
HETATM    1 CU   UNL     1     -10.024  10.543  70.900  1.00  0.00    -0.338 Cu 
HETATM    2  O   UNL     2      -8.545   5.799  74.268  1.00  0.00    -0.112 OA 
HETATM    3  C   UNL     2      -7.818   5.888  73.034  1.00  0.00    -0.103 C  
HETATM    4  H   UNL     2      -8.395   4.928  74.618  1.00  0.00     0.000 HD 
HETATM    5  O   UNL     3     -12.079  13.716  64.647  1.00  0.00    -0.380 OA 
HETATM    6  H   UNL     3     -12.214  12.887  64.203  1.00  0.00     0.000 HD 
HETATM    7  C   UNL     3     -12.025  13.472  66.067  1.00  0.00    -0.409 C  
ENDROOT
BRANCH   3   8
HETATM    8  C   UNL     2      -8.058   7.287  72.472  1.00  0.00    -0.099 C  
HETATM    9  O   UNL     2      -7.269   7.473  71.280  1.00  0.00    -0.061 OA 
HETATM   10  H   UNL     2      -7.418   8.344  70.931  1.00  0.00     0.000 HD 
BRANCH   8  11
HETATM   11  C   UNL     2      -9.551   7.559  72.198  1.00  0.00    -0.152 C  
HETATM   12  O   UNL     2      -9.821   8.897  72.624  1.00  0.00    -0.109 OA 
HETATM   13  H   UNL     2     -10.740   9.064  72.456  1.00  0.00     0.000 HD 
BRANCH  11  14
HETATM   14  C   UNL     2      -9.815   7.389  70.688  1.00  0.00    -0.179 C  
HETATM   15  H   UNL     2     -10.779   8.412  69.295  1.00  0.00     0.000 HD 
HETATM   16  O   UNL     2     -10.616   8.516  70.225  1.00  0.00    -0.216 OA 
BRANCH  14  17
HETATM   17  C   UNL     2     -10.416   6.059  70.231  1.00  0.00    -0.242 C  
HETATM   18  C   UNL     2      -9.611   5.517  69.022  1.00  0.00    -0.136 C  
HETATM   19  H   UNL     2     -12.193   5.391  69.712  1.00  0.00     0.000 HD 
HETATM   20  O   UNL     2     -11.820   6.218  69.997  1.00  0.00    -0.351 OA 
HETATM   21  O   UNL     2      -8.359   5.544  69.253  1.00  0.00    -0.100 OA 
HETATM   22  O   UNL     2     -10.283   5.112  68.053  1.00  0.00    -0.164 OA 
ENDBRANCH  14  17
ENDBRANCH  11  14
ENDBRANCH   8  11
ENDBRANCH   3   8
BRANCH   7  23
HETATM   23  C   UNL     3     -11.806  14.811  66.784  1.00  0.00    -0.257 C  
HETATM   24  O   UNL     3     -12.136  14.634  68.177  1.00  0.00    -0.533 OA 
HETATM   25  H   UNL     3     -12.000  15.463  68.622  1.00  0.00     0.000 HD 
BRANCH  23  26
HETATM   26  C   UNL     3     -10.370  15.371  66.785  1.00  0.00    -0.279 C  
HETATM   27  O   UNL     3      -9.684  15.057  65.570  1.00  0.00    -0.360 OA 
HETATM   28  H   UNL     3      -8.799  15.403  65.571  1.00  0.00     0.000 HD 
BRANCH  26  29
HETATM   29  C   UNL     3     -10.163  16.869  67.099  1.00  0.00    -0.297 C  
HETATM   30  O   UNL     3     -11.260  17.434  67.835  1.00  0.00    -0.152 OA 
HETATM   31  H   UNL     3     -11.132  18.355  68.028  1.00  0.00     0.000 HD 
BRANCH  29  32
HETATM   32  C   UNL     3      -9.871  17.789  65.918  1.00  0.00    -0.063 C  
HETATM   33  C   UNL     3      -9.729  19.274  66.294  1.00  0.00    -0.374 C  
HETATM   34  O   UNL     3     -10.996  17.692  64.942  1.00  0.00    -0.886 OA 
HETATM   35  O   UNL     3     -10.852  19.918  66.166  1.00  0.00    -0.397 OA 
HETATM   36  O   UNL     3      -8.578  19.752  66.294  1.00  0.00    -0.351 OA 
HETATM   37  H   UNL     3     -10.815  18.265  64.206  1.00  0.00     0.000 HD 
ENDBRANCH  29  32
ENDBRANCH  26  29
ENDBRANCH  23  26
ENDBRANCH   7  23
TORSDOF 8
ENDMDL
MODEL      188
REMARK 921   NORMALIZED FREE ENERGY PREDICTED BY IDOCK:   -4.91 KCAL/MOL
REMARK 922        TOTAL FREE ENERGY PREDICTED BY IDOCK:   -9.28 KCAL/MOL
REMARK 923 INTER-LIGAND FREE ENERGY PREDICTED BY IDOCK:   -7.52 KCAL/MOL
REMARK 924 INTRA-LIGAND FREE ENERGY PREDICTED BY IDOCK:   -1.76 KCAL/MOL
REMARK 927      BINDING AFFINITY PREDICTED BY RF-SCORE:    0.00 PKD
ROOT
HETATM    1 CU   UNL     1      -8.765  10.753  70.112  1.00  0.00    -0.356 Cu 
HETATM    2  O   UNL     2      -8.262   6.077  73.844  1.00  0.00    -0.111 OA 
HETATM    3  C   UNL     2      -9.208   7.068  74.273  1.00  0.00    -0.225 C  
HETATM    4  H   UNL     2      -8.106   5.502  74.584  1.00  0.00     0.000 HD 
HETATM    5  O   UNL     3      -8.857  17.897  68.584  1.00  0.00    -0.297 OA 
HETATM    6  H   UNL     3      -8.594  18.148  69.462  1.00  0.00     0.000 HD 
HETATM    7  C   UNL     3      -8.572  16.495  68.403  1.00  0.00    -0.213 C  
ENDROOT
BRANCH   3   8
HETATM    8  C   UNL     2      -9.460   7.992  73.084  1.00  0.00    -0.280 C  
HETATM    9  O   UNL     2      -8.299   8.011  72.231  1.00  0.00    -0.119 OA 
HETATM   10  H   UNL     2      -8.455   8.587  71.492  1.00  0.00     0.000 HD 
BRANCH   8  11
HETATM   11  C   UNL     2     -10.724   7.596  72.293  1.00  0.00    -0.260 C  
HETATM   12  O   UNL     2     -11.851   8.045  73.050  1.00  0.00    -0.587 OA 
HETATM   13  H   UNL     2     -12.629   7.802  72.563  1.00  0.00     0.000 HD 
BRANCH  11  14
HETATM   14  C   UNL     2     -10.673   8.273  70.909  1.00  0.00    -0.218 C  
HETATM   15  H   UNL     2     -11.834   9.515  69.896  1.00  0.00     0.000 HD 
HETATM   16  O   UNL     2     -11.865   9.098  70.749  1.00  0.00    -0.281 OA 
BRANCH  14  17
HETATM   17  C   UNL     2     -10.461   7.367  69.696  1.00  0.00    -0.232 C  
HETATM   18  C   UNL     2     -10.221   8.237  68.436  1.00  0.00    -0.209 C  
HETATM   19  H   UNL     2     -11.415   5.876  68.836  1.00  0.00     0.000 HD 
HETATM   20  O   UNL     2     -11.547   6.439  69.590  1.00  0.00    -0.417 OA 
HETATM   21  O   UNL     2      -9.345   9.134  68.656  1.00  0.00    -0.136 OA 
HETATM   22  O   UNL     2     -10.868   7.918  67.419  1.00  0.00    -0.237 OA 
ENDBRANCH  14  17
ENDBRANCH  11  14
ENDBRANCH   8  11
ENDBRANCH   3   8
BRANCH   7  23
HETATM   23  C   UNL     3      -8.997  16.090  66.985  1.00  0.00    -0.214 C  
HETATM   24  O   UNL     3      -7.809  15.769  66.234  1.00  0.00    -0.231 OA 
HETATM   25  H   UNL     3      -8.072  15.518  65.355  1.00  0.00     0.000 HD 
BRANCH  23  26
HETATM   26  C   UNL     3      -9.896  14.845  66.859  1.00  0.00    -0.240 C  
HETATM   27  O   UNL     3      -9.231  13.787  66.164  1.00  0.00    -0.478 OA 
HETATM   28  H   UNL     3      -9.785  13.018  66.086  1.00  0.00     0.000 HD 
BRANCH  26  29
HETATM   29  C   UNL     3     -10.542  14.268  68.138  1.00  0.00    -0.245 C  
HETATM   30  O   UNL     3      -9.689  13.327  68.809  1.00  0.00    -0.398 OA 
HETATM   31  H   UNL     3     -10.087  12.973  69.596  1.00  0.00     0.000 HD 
BRANCH  29  32
HETATM   32  C   UNL     3     -11.918  13.628  67.990  1.00  0.00    -0.350 C  
HETATM   33  C   UNL     3     -12.022  12.210  68.578  1.00  0.00    -0.217 C  
HETATM   34  O   UNL     3     -12.246  13.523  66.537  1.00  0.00    -0.407 OA 
HETATM   35  O   UNL     3     -11.802  11.294  67.681  1.00  0.00    -0.614 OA 
HETATM   36  O   UNL     3     -12.644  12.085  69.651  1.00  0.00     0.047 OA 
HETATM   37  H   UNL     3     -13.103  13.124  66.444  1.00  0.00     0.000 HD 
ENDBRANCH  29  32
ENDBRANCH  26  29
ENDBRANCH  23  26
ENDBRANCH   7  23
TORSDOF 8
ENDMDL
MODEL      189
REMARK 921   NORMALIZED FREE ENERGY PREDICTED BY IDOCK:   -4.90 KCAL/MOL
REMARK 922        TOTAL FREE ENERGY PREDICTED BY IDOCK:   -9.27 KCAL/MOL
REMARK 923 INTER-LIGAND FREE ENERGY PREDICTED BY IDOCK:   -7.13 KCAL/MOL
REMARK 924 INTRA-LIGAND FREE ENERGY PREDICTED BY IDOCK:   -2.15 KCAL/MOL
REMARK 927      BINDING AFFINITY PREDICTED BY RF-SCORE:    0.00 PKD
ROOT
HETATM    1 CU   UNL     1      -9.986  11.242  67.863  1.00  0.00    -0.158 Cu 
HETATM    2  O   UNL     2     -12.390  14.700  63.585  1.00  0.00    -1.060 OA 
HETATM    3  C   UNL     2     -12.269  13.318  63.219  1.00  0.00    -0.313 C  
HETATM    4  H   UNL     2     -12.578  15.184  62.789  1.00  0.00     0.000 HD 
HETATM    5  O   UNL     3      -5.205   6.299  70.333  1.00  0.00    -0.013 OA 
HETATM    6  H   UNL     3      -4.711   6.286  69.521  1.00  0.00     0.000 HD 
HETATM    7  C   UNL     3      -6.034   7.479  70.345  1.00  0.00    -0.027 C  
ENDROOT
BRANCH   3   8
HETATM    8  C   UNL     2     -11.968  12.540  64.498  1.00  0.00    -0.404 C  
HETATM    9  O   UNL     2     -11.981  11.126  64.219  1.00  0.00     0.073 OA 
HETATM   10  H   UNL     2     -11.793  10.642  65.015  1.00  0.00     0.000 HD 
BRANCH   8  11
HETATM   11  C   UNL     2     -10.632  12.967  65.140  1.00  0.00    -0.312 C  
HETATM   12  O   UNL     2      -9.892  13.674  64.142  1.00  0.00    -0.693 OA 
HETATM   13  H   UNL     2      -9.070  13.938  64.537  1.00  0.00     0.000 HD 
BRANCH  11  14
HETATM   14  C   UNL     2     -10.934  13.867  66.355  1.00  0.00    -0.303 C  
HETATM   15  H   UNL     2     -12.566  14.579  67.220  1.00  0.00     0.000 HD 
HETATM   16  O   UNL     2     -12.379  14.024  66.472  1.00  0.00    -0.457 OA 
BRANCH  14  17
HETATM   17  C   UNL     2     -10.224  15.220  66.415  1.00  0.00    -0.277 C  
HETATM   18  C   UNL     2     -10.297  15.778  67.860  1.00  0.00    -0.261 C  
HETATM   19  H   UNL     2     -10.312  16.930  65.444  1.00  0.00     0.000 HD 
HETATM   20  O   UNL     2     -10.753  16.089  65.406  1.00  0.00    -0.380 OA 
HETATM   21  O   UNL     2      -9.950  14.898  68.711  1.00  0.00    -0.215 OA 
HETATM   22  O   UNL     2     -10.633  16.974  67.969  1.00  0.00    -0.346 OA 
ENDBRANCH  14  17
ENDBRANCH  11  14
ENDBRANCH   8  11
ENDBRANCH   3   8
BRANCH   7  23
HETATM   23  C   UNL     3      -6.832   7.501  71.655  1.00  0.00    -0.053 C  
HETATM   24  O   UNL     3      -6.121   8.326  72.601  1.00  0.00    -0.057 OA 
HETATM   25  H   UNL     3      -6.615   8.340  73.413  1.00  0.00     0.000 HD 
BRANCH  23  26
HETATM   26  C   UNL     3      -8.251   8.101  71.594  1.00  0.00    -0.126 C  
HETATM   27  O   UNL     3      -8.522   8.924  72.731  1.00  0.00    -0.380 OA 
HETATM   28  H   UNL     3      -9.397   9.294  72.693  1.00  0.00     0.000 HD 
BRANCH  26  29
HETATM   29  C   UNL     3      -8.676   8.860  70.319  1.00  0.00    -0.169 C  
HETATM   30  O   UNL     3      -8.947  10.249  70.570  1.00  0.00    -0.240 OA 
HETATM   31  H   UNL     3      -9.209  10.716  69.785  1.00  0.00     0.000 HD 
BRANCH  29  32
HETATM   32  C   UNL     3      -9.853   8.290  69.534  1.00  0.00    -0.181 C  
HETATM   33  C   UNL     3      -9.512   7.883  68.090  1.00  0.00    -0.147 C  
HETATM   34  O   UNL     3     -10.925   9.325  69.453  1.00  0.00    -0.347 OA 
HETATM   35  O   UNL     3      -9.763   8.837  67.243  1.00  0.00    -0.162 OA 
HETATM   36  O   UNL     3      -9.421   6.663  67.851  1.00  0.00    -0.120 OA 
HETATM   37  H   UNL     3     -11.658   8.970  68.964  1.00  0.00     0.000 HD 
ENDBRANCH  29  32
ENDBRANCH  26  29
ENDBRANCH  23  26
ENDBRANCH   7  23
TORSDOF 8
ENDMDL
MODEL      190
REMARK 921   NORMALIZED FREE ENERGY PREDICTED BY IDOCK:   -4.90 KCAL/MOL
REMARK 922        TOTAL FREE ENERGY PREDICTED BY IDOCK:   -9.27 KCAL/MOL
REMARK 923 INTER-LIGAND FREE ENERGY PREDICTED BY IDOCK:   -8.49 KCAL/MOL
REMARK 924 INTRA-LIGAND FREE ENERGY PREDICTED BY IDOCK:   -0.78 KCAL/MOL
REMARK 927      BINDING AFFINITY PREDICTED BY RF-SCORE:    0.00 PKD
ROOT
HETATM    1 CU   UNL     1      -8.176  10.984  69.993  1.00  0.00    -0.343 Cu 
HETATM    2  O   UNL     2      -7.357   6.676  74.093  1.00  0.00    -0.094 OA 
HETATM    3  C   UNL     2      -8.387   7.616  74.432  1.00  0.00    -0.223 C  
HETATM    4  H   UNL     2      -7.167   6.175  74.878  1.00  0.00     0.000 HD 
HETATM    5  O   UNL     3      -8.820  17.952  67.895  1.00  0.00    -0.250 OA 
HETATM    6  H   UNL     3      -8.592  18.293  68.753  1.00  0.00     0.000 HD 
HETATM    7  C   UNL     3      -8.420  16.569  67.830  1.00  0.00    -0.175 C  
ENDROOT
BRANCH   3   8
HETATM    8  C   UNL     2      -8.693   8.420  73.171  1.00  0.00    -0.144 C  
HETATM    9  O   UNL     2      -7.461   8.817  72.538  1.00  0.00    -0.335 OA 
HETATM   10  H   UNL     2      -7.652   9.318  71.754  1.00  0.00     0.000 HD 
BRANCH   8  11
HETATM   11  C   UNL     2      -9.597   7.645  72.190  1.00  0.00    -0.160 C  
HETATM   12  O   UNL     2     -10.863   7.472  72.831  1.00  0.00    -0.307 OA 
HETATM   13  H   UNL     2     -11.419   6.995  72.227  1.00  0.00     0.000 HD 
BRANCH  11  14
HETATM   14  C   UNL     2      -9.734   8.465  70.891  1.00  0.00    -0.174 C  
HETATM   15  H   UNL     2     -11.234   9.227  69.849  1.00  0.00     0.000 HD 
HETATM   16  O   UNL     2     -11.149   8.722  70.649  1.00  0.00    -0.237 OA 
BRANCH  14  17
HETATM   17  C   UNL     2      -9.050   7.912  69.641  1.00  0.00    -0.153 C  
HETATM   18  C   UNL     2      -8.678   6.425  69.870  1.00  0.00    -0.142 C  
HETATM   19  H   UNL     2      -7.529   8.414  68.497  1.00  0.00     0.000 HD 
HETATM   20  O   UNL     2      -7.954   8.758  69.274  1.00  0.00    -0.104 OA 
HETATM   21  O   UNL     2      -9.665   5.770  70.335  1.00  0.00    -0.166 OA 
HETATM   22  O   UNL     2      -7.522   6.092  69.542  1.00  0.00    -0.087 OA 
ENDBRANCH  14  17
ENDBRANCH  11  14
ENDBRANCH   8  11
ENDBRANCH   3   8
BRANCH   7  23
HETATM   23  C   UNL     3      -8.789  16.019  66.445  1.00  0.00    -0.328 C  
HETATM   24  O   UNL     3      -8.556  14.596  66.449  1.00  0.00    -0.448 OA 
HETATM   25  H   UNL     3      -8.784  14.255  65.592  1.00  0.00     0.000 HD 
BRANCH  23  26
HETATM   26  C   UNL     3     -10.256  16.179  66.003  1.00  0.00    -0.356 C  
HETATM   27  O   UNL     3     -10.691  17.537  66.110  1.00  0.00    -0.243 OA 
HETATM   28  H   UNL     3     -11.596  17.635  65.837  1.00  0.00     0.000 HD 
BRANCH  26  29
HETATM   29  C   UNL     3     -10.674  15.633  64.620  1.00  0.00    -0.137 C  
HETATM   30  O   UNL     3     -11.551  16.527  63.916  1.00  0.00    -1.598 OA 
HETATM   31  H   UNL     3     -11.807  16.190  63.066  1.00  0.00     0.000 HD 
BRANCH  29  32
HETATM   32  C   UNL     3     -11.300  14.242  64.587  1.00  0.00    -0.373 C  
HETATM   33  C   UNL     3     -12.197  13.923  65.796  1.00  0.00    -0.460 C  
HETATM   34  O   UNL     3     -10.209  13.223  64.572  1.00  0.00    -0.530 OA 
HETATM   35  O   UNL     3     -11.544  13.307  66.737  1.00  0.00    -0.330 OA 
HETATM   36  O   UNL     3     -13.429  13.924  65.605  1.00  0.00    -0.590 OA 
HETATM   37  H   UNL     3     -10.599  12.357  64.551  1.00  0.00     0.000 HD 
ENDBRANCH  29  32
ENDBRANCH  26  29
ENDBRANCH  23  26
ENDBRANCH   7  23
TORSDOF 8
ENDMDL
MODEL      191
REMARK 921   NORMALIZED FREE ENERGY PREDICTED BY IDOCK:   -4.90 KCAL/MOL
REMARK 922        TOTAL FREE ENERGY PREDICTED BY IDOCK:   -9.26 KCAL/MOL
REMARK 923 INTER-LIGAND FREE ENERGY PREDICTED BY IDOCK:   -7.49 KCAL/MOL
REMARK 924 INTRA-LIGAND FREE ENERGY PREDICTED BY IDOCK:   -1.77 KCAL/MOL
REMARK 927      BINDING AFFINITY PREDICTED BY RF-SCORE:    0.00 PKD
ROOT
HETATM    1 CU   UNL     1     -11.472  11.414  66.897  1.00  0.00    -0.254 Cu 
HETATM    2  O   UNL     2     -11.655  16.445  63.627  1.00  0.00    -1.514 OA 
HETATM    3  C   UNL     2     -10.880  16.558  64.830  1.00  0.00    -0.204 C  
HETATM    4  H   UNL     2     -11.792  17.327  63.300  1.00  0.00     0.000 HD 
HETATM    5  O   UNL     3     -12.185   7.648  73.117  1.00  0.00    -0.409 OA 
HETATM    6  H   UNL     3     -12.546   8.388  73.592  1.00  0.00     0.000 HD 
HETATM    7  C   UNL     3     -12.272   7.924  71.704  1.00  0.00    -0.308 C  
ENDROOT
BRANCH   3   8
HETATM    8  C   UNL     2     -10.659  15.142  65.356  1.00  0.00    -0.391 C  
HETATM    9  O   UNL     2     -10.756  14.201  64.269  1.00  0.00    -0.596 OA 
HETATM   10  H   UNL     2     -10.619  13.320  64.597  1.00  0.00     0.000 HD 
BRANCH   8  11
HETATM   11  C   UNL     2      -9.314  14.998  66.097  1.00  0.00    -0.292 C  
HETATM   12  O   UNL     2      -9.253  16.048  67.067  1.00  0.00    -0.202 OA 
HETATM   13  H   UNL     2      -8.425  15.959  67.523  1.00  0.00     0.000 HD 
BRANCH  11  14
HETATM   14  C   UNL     2      -9.266  13.612  66.770  1.00  0.00    -0.241 C  
HETATM   15  H   UNL     2     -10.278  12.698  68.204  1.00  0.00     0.000 HD 
HETATM   16  O   UNL     2     -10.307  13.552  67.790  1.00  0.00    -0.234 OA 
BRANCH  14  17
HETATM   17  C   UNL     2      -7.919  13.153  67.328  1.00  0.00    -0.133 C  
HETATM   18  C   UNL     2      -7.841  11.605  67.283  1.00  0.00    -0.157 C  
HETATM   19  H   UNL     2      -6.872  13.443  68.969  1.00  0.00     0.000 HD 
HETATM   20  O   UNL     2      -7.709  13.729  68.623  1.00  0.00    -0.134 OA 
HETATM   21  O   UNL     2      -8.183  11.160  66.140  1.00  0.00    -0.169 OA 
HETATM   22  O   UNL     2      -7.433  11.046  68.320  1.00  0.00    -0.084 OA 
ENDBRANCH  14  17
ENDBRANCH  11  14
ENDBRANCH   8  11
ENDBRANCH   3   8
BRANCH   7  23
HETATM   23  C   UNL     3     -11.689   6.729  70.938  1.00  0.00    -0.372 C  
HETATM   24  O   UNL     3     -11.642   7.073  69.538  1.00  0.00    -0.540 OA 
HETATM   25  H   UNL     3     -11.281   6.333  69.063  1.00  0.00     0.000 HD 
BRANCH  23  26
HETATM   26  C   UNL     3     -10.248   6.313  71.293  1.00  0.00    -0.200 C  
HETATM   27  O   UNL     3      -9.768   5.288  70.419  1.00  0.00    -0.169 OA 
HETATM   28  H   UNL     3      -8.879   5.031  70.638  1.00  0.00     0.000 HD 
BRANCH  26  29
HETATM   29  C   UNL     3      -9.170   7.412  71.408  1.00  0.00    -0.141 C  
HETATM   30  O   UNL     3      -8.712   7.870  70.125  1.00  0.00    -0.133 OA 
HETATM   31  H   UNL     3      -8.048   8.547  70.196  1.00  0.00     0.000 HD 
BRANCH  29  32
HETATM   32  C   UNL     3      -7.942   7.091  72.254  1.00  0.00    -0.092 C  
HETATM   33  C   UNL     3      -6.878   8.203  72.273  1.00  0.00    -0.083 C  
HETATM   34  O   UNL     3      -7.285   5.868  71.705  1.00  0.00    -0.082 OA 
HETATM   35  O   UNL     3      -5.964   8.017  71.367  1.00  0.00    -0.034 OA 
HETATM   36  O   UNL     3      -6.786   8.882  73.314  1.00  0.00    -0.324 OA 
HETATM   37  H   UNL     3      -6.520   5.668  72.231  1.00  0.00     0.000 HD 
ENDBRANCH  29  32
ENDBRANCH  26  29
ENDBRANCH  23  26
ENDBRANCH   7  23
TORSDOF 8
ENDMDL
MODEL      192
REMARK 921   NORMALIZED FREE ENERGY PREDICTED BY IDOCK:   -4.89 KCAL/MOL
REMARK 922        TOTAL FREE ENERGY PREDICTED BY IDOCK:   -9.25 KCAL/MOL
REMARK 923 INTER-LIGAND FREE ENERGY PREDICTED BY IDOCK:   -8.06 KCAL/MOL
REMARK 924 INTRA-LIGAND FREE ENERGY PREDICTED BY IDOCK:   -1.19 KCAL/MOL
REMARK 927      BINDING AFFINITY PREDICTED BY RF-SCORE:    0.00 PKD
ROOT
HETATM    1 CU   UNL     1      -9.821  12.492  68.425  1.00  0.00    -0.183 Cu 
HETATM    2  O   UNL     2      -8.642   7.154  70.907  1.00  0.00    -0.135 OA 
HETATM    3  C   UNL     2      -9.510   7.985  71.692  1.00  0.00    -0.164 C  
HETATM    4  H   UNL     2      -8.357   6.442  71.467  1.00  0.00     0.000 HD 
HETATM    5  O   UNL     3     -10.240  19.785  68.534  1.00  0.00    -0.440 OA 
HETATM    6  H   UNL     3      -9.832  19.854  69.389  1.00  0.00     0.000 HD 
HETATM    7  C   UNL     3      -9.977  18.469  68.005  1.00  0.00    -0.355 C  
ENDROOT
BRANCH   3   8
HETATM    8  C   UNL     2      -9.970   9.129  70.794  1.00  0.00    -0.269 C  
HETATM    9  O   UNL     2      -9.214   9.116  69.567  1.00  0.00    -0.149 OA 
HETATM   10  H   UNL     2      -9.500   9.829  69.008  1.00  0.00     0.000 HD 
BRANCH   8  11
HETATM   11  C   UNL     2     -11.486   9.078  70.512  1.00  0.00    -0.212 C  
HETATM   12  O   UNL     2     -12.057   8.164  71.451  1.00  0.00    -0.289 OA 
HETATM   13  H   UNL     2     -12.991   8.132  71.278  1.00  0.00     0.000 HD 
BRANCH  11  14
HETATM   14  C   UNL     2     -12.069  10.495  70.685  1.00  0.00    -0.356 C  
HETATM   15  H   UNL     2     -13.884  11.274  70.810  1.00  0.00     0.000 HD 
HETATM   16  O   UNL     2     -13.524  10.401  70.704  1.00  0.00    -0.197 OA 
BRANCH  14  17
HETATM   17  C   UNL     2     -11.597  11.568  69.703  1.00  0.00    -0.333 C  
HETATM   18  C   UNL     2     -12.227  12.932  70.085  1.00  0.00    -0.266 C  
HETATM   19  H   UNL     2     -11.561  11.808  67.750  1.00  0.00     0.000 HD 
HETATM   20  O   UNL     2     -11.854  11.142  68.359  1.00  0.00    -0.495 OA 
HETATM   21  O   UNL     2     -12.084  13.173  71.327  1.00  0.00    -0.119 OA 
HETATM   22  O   UNL     2     -12.727  13.586  69.149  1.00  0.00     0.200 OA 
ENDBRANCH  14  17
ENDBRANCH  11  14
ENDBRANCH   8  11
ENDBRANCH   3   8
BRANCH   7  23
HETATM   23  C   UNL     3     -10.635  18.358  66.624  1.00  0.00    -0.325 C  
HETATM   24  O   UNL     3     -10.115  19.415  65.791  1.00  0.00    -0.438 OA 
HETATM   25  H   UNL     3     -10.523  19.346  64.935  1.00  0.00     0.000 HD 
BRANCH  23  26
HETATM   26  C   UNL     3     -10.371  17.063  65.831  1.00  0.00    -0.298 C  
HETATM   27  O   UNL     3      -8.974  16.770  65.756  1.00  0.00    -0.508 OA 
HETATM   28  H   UNL     3      -8.811  15.971  65.267  1.00  0.00     0.000 HD 
BRANCH  26  29
HETATM   29  C   UNL     3     -11.126  15.780  66.242  1.00  0.00    -0.073 C  
HETATM   30  O   UNL     3     -10.864  15.399  67.603  1.00  0.00    -0.289 OA 
HETATM   31  H   UNL     3     -11.328  14.609  67.855  1.00  0.00     0.000 HD 
BRANCH  29  32
HETATM   32  C   UNL     3     -10.924  14.548  65.366  1.00  0.00    -0.342 C  
HETATM   33  C   UNL     3     -12.228  13.939  64.822  1.00  0.00    -0.415 C  
HETATM   34  O   UNL     3     -10.251  13.488  66.173  1.00  0.00    -0.288 OA 
HETATM   35  O   UNL     3     -12.675  12.985  65.585  1.00  0.00    -0.506 OA 
HETATM   36  O   UNL     3     -12.481  14.124  63.616  1.00  0.00    -0.819 OA 
HETATM   37  H   UNL     3     -10.125  12.720  65.628  1.00  0.00     0.000 HD 
ENDBRANCH  29  32
ENDBRANCH  26  29
ENDBRANCH  23  26
ENDBRANCH   7  23
TORSDOF 8
ENDMDL
MODEL      193
REMARK 921   NORMALIZED FREE ENERGY PREDICTED BY IDOCK:   -4.88 KCAL/MOL
REMARK 922        TOTAL FREE ENERGY PREDICTED BY IDOCK:   -9.23 KCAL/MOL
REMARK 923 INTER-LIGAND FREE ENERGY PREDICTED BY IDOCK:   -8.49 KCAL/MOL
REMARK 924 INTRA-LIGAND FREE ENERGY PREDICTED BY IDOCK:   -0.74 KCAL/MOL
REMARK 927      BINDING AFFINITY PREDICTED BY RF-SCORE:    0.00 PKD
ROOT
HETATM    1 CU   UNL     1      -8.739  14.127  65.745  1.00  0.00    -0.438 Cu 
HETATM    2  O   UNL     2      -9.279   8.150  65.568  1.00  0.00    -0.401 OA 
HETATM    3  C   UNL     2      -9.554   8.724  66.854  1.00  0.00    -0.190 C  
HETATM    4  H   UNL     2      -9.187   7.213  65.694  1.00  0.00     0.000 HD 
HETATM    5  O   UNL     3      -6.190  20.364  68.569  1.00  0.00    -0.285 OA 
HETATM    6  H   UNL     3      -5.615  19.920  69.182  1.00  0.00     0.000 HD 
HETATM    7  C   UNL     3      -6.592  19.423  67.553  1.00  0.00    -0.208 C  
ENDROOT
BRANCH   3   8
HETATM    8  C   UNL     2      -9.702  10.229  66.652  1.00  0.00    -0.185 C  
HETATM    9  O   UNL     2     -10.879  10.499  65.865  1.00  0.00    -0.065 OA 
HETATM   10  H   UNL     2     -10.970  11.437  65.739  1.00  0.00     0.000 HD 
BRANCH   8  11
HETATM   11  C   UNL     2      -9.740  10.998  67.989  1.00  0.00    -0.172 C  
HETATM   12  O   UNL     2      -9.542  12.381  67.685  1.00  0.00    -0.184 OA 
HETATM   13  H   UNL     2      -9.565  12.854  68.508  1.00  0.00     0.000 HD 
BRANCH  11  14
HETATM   14  C   UNL     2     -11.109  10.761  68.656  1.00  0.00    -0.259 C  
HETATM   15  H   UNL     2     -12.975  11.316  68.296  1.00  0.00     0.000 HD 
HETATM   16  O   UNL     2     -12.131  11.462  67.886  1.00  0.00    -0.646 OA 
BRANCH  14  17
HETATM   17  C   UNL     2     -11.224  11.083  70.147  1.00  0.00    -0.183 C  
HETATM   18  C   UNL     2     -11.825   9.865  70.894  1.00  0.00    -0.356 C  
HETATM   19  H   UNL     2     -12.012  12.511  71.249  1.00  0.00     0.000 HD 
HETATM   20  O   UNL     2     -11.940  12.311  70.323  1.00  0.00    -0.344 OA 
HETATM   21  O   UNL     2     -11.228   8.788  70.572  1.00  0.00    -0.255 OA 
HETATM   22  O   UNL     2     -12.744  10.115  71.699  1.00  0.00    -0.380 OA 
ENDBRANCH  14  17
ENDBRANCH  11  14
ENDBRANCH   8  11
ENDBRANCH   3   8
BRANCH   7  23
HETATM   23  C   UNL     3      -7.519  20.140  66.563  1.00  0.00    -0.277 C  
HETATM   24  O   UNL     3      -7.619  19.332  65.373  1.00  0.00    -0.403 OA 
HETATM   25  H   UNL     3      -8.193  19.776  64.760  1.00  0.00     0.000 HD 
BRANCH  23  26
HETATM   26  C   UNL     3      -8.976  20.363  67.014  1.00  0.00    -0.305 C  
HETATM   27  O   UNL     3      -9.832  20.641  65.903  1.00  0.00    -0.589 OA 
HETATM   28  H   UNL     3     -10.731  20.778  66.182  1.00  0.00     0.000 HD 
BRANCH  26  29
HETATM   29  C   UNL     3      -9.646  19.291  67.901  1.00  0.00    -0.333 C  
HETATM   30  O   UNL     3      -8.738  18.721  68.857  1.00  0.00    -0.295 OA 
HETATM   31  H   UNL     3      -9.151  18.061  69.402  1.00  0.00     0.000 HD 
BRANCH  29  32
HETATM   32  C   UNL     3     -10.351  18.144  67.185  1.00  0.00    -0.379 C  
HETATM   33  C   UNL     3     -10.131  16.764  67.831  1.00  0.00    -0.284 C  
HETATM   34  O   UNL     3      -9.835  18.058  65.787  1.00  0.00    -0.539 OA 
HETATM   35  O   UNL     3      -9.134  16.127  67.289  1.00  0.00    -0.199 OA 
HETATM   36  O   UNL     3     -11.084  16.276  68.468  1.00  0.00    -0.337 OA 
HETATM   37  H   UNL     3     -10.274  17.343  65.341  1.00  0.00     0.000 HD 
ENDBRANCH  29  32
ENDBRANCH  26  29
ENDBRANCH  23  26
ENDBRANCH   7  23
TORSDOF 8
ENDMDL
MODEL      194
REMARK 921   NORMALIZED FREE ENERGY PREDICTED BY IDOCK:   -4.88 KCAL/MOL
REMARK 922        TOTAL FREE ENERGY PREDICTED BY IDOCK:   -9.23 KCAL/MOL
REMARK 923 INTER-LIGAND FREE ENERGY PREDICTED BY IDOCK:   -7.10 KCAL/MOL
REMARK 924 INTRA-LIGAND FREE ENERGY PREDICTED BY IDOCK:   -2.13 KCAL/MOL
REMARK 927      BINDING AFFINITY PREDICTED BY RF-SCORE:    0.00 PKD
ROOT
HETATM    1 CU   UNL     1      -9.346  10.551  70.348  1.00  0.00    -0.349 Cu 
HETATM    2  O   UNL     2      -9.763   5.354  73.324  1.00  0.00    -0.148 OA 
HETATM    3  C   UNL     2     -11.026   5.991  73.081  1.00  0.00    -0.239 C  
HETATM    4  H   UNL     2      -9.914   4.669  73.965  1.00  0.00     0.000 HD 
HETATM    5  O   UNL     3     -10.732  17.665  69.420  1.00  0.00    -0.369 OA 
HETATM    6  H   UNL     3     -11.147  17.754  70.270  1.00  0.00     0.000 HD 
HETATM    7  C   UNL     3      -9.974  16.438  69.407  1.00  0.00    -0.214 C  
ENDROOT
BRANCH   3   8
HETATM    8  C   UNL     2     -10.783   7.091  72.051  1.00  0.00    -0.215 C  
HETATM    9  O   UNL     2      -9.466   7.647  72.236  1.00  0.00    -0.147 OA 
HETATM   10  H   UNL     2      -9.316   8.332  71.595  1.00  0.00     0.000 HD 
BRANCH   8  11
HETATM   11  C   UNL     2     -10.976   6.590  70.605  1.00  0.00    -0.287 C  
HETATM   12  O   UNL     2     -12.364   6.732  70.293  1.00  0.00    -0.604 OA 
HETATM   13  H   UNL     2     -12.483   6.424  69.402  1.00  0.00     0.000 HD 
BRANCH  11  14
HETATM   14  C   UNL     2     -10.100   7.443  69.665  1.00  0.00    -0.186 C  
HETATM   15  H   UNL     2     -10.149   9.300  68.982  1.00  0.00     0.000 HD 
HETATM   16  O   UNL     2     -10.688   8.774  69.560  1.00  0.00    -0.228 OA 
BRANCH  14  17
HETATM   17  C   UNL     2      -9.791   6.865  68.284  1.00  0.00    -0.138 C  
HETATM   18  C   UNL     2      -8.981   7.899  67.461  1.00  0.00    -0.127 C  
HETATM   19  H   UNL     2     -10.810   6.058  66.806  1.00  0.00     0.000 HD 
HETATM   20  O   UNL     2     -11.002   6.417  67.664  1.00  0.00    -0.310 OA 
HETATM   21  O   UNL     2      -8.004   8.360  68.134  1.00  0.00    -0.115 OA 
HETATM   22  O   UNL     2      -9.367   8.091  66.291  1.00  0.00    -0.195 OA 
ENDBRANCH  14  17
ENDBRANCH  11  14
ENDBRANCH   8  11
ENDBRANCH   3   8
BRANCH   7  23
HETATM   23  C   UNL     3      -9.303  16.293  68.035  1.00  0.00    -0.214 C  
HETATM   24  O   UNL     3      -7.878  16.203  68.237  1.00  0.00    -0.146 OA 
HETATM   25  H   UNL     3      -7.463  16.113  67.387  1.00  0.00     0.000 HD 
BRANCH  23  26
HETATM   26  C   UNL     3      -9.667  15.041  67.213  1.00  0.00    -0.220 C  
HETATM   27  O   UNL     3      -8.842  14.917  66.052  1.00  0.00    -0.467 OA 
HETATM   28  H   UNL     3      -9.067  14.145  65.546  1.00  0.00     0.000 HD 
BRANCH  26  29
HETATM   29  C   UNL     3      -9.718  13.676  67.933  1.00  0.00    -0.234 C  
HETATM   30  O   UNL     3      -8.629  13.497  68.853  1.00  0.00    -0.364 OA 
HETATM   31  H   UNL     3      -8.661  12.657  69.295  1.00  0.00     0.000 HD 
BRANCH  29  32
HETATM   32  C   UNL     3      -9.795  12.433  67.054  1.00  0.00    -0.211 C  
HETATM   33  C   UNL     3     -11.180  12.183  66.430  1.00  0.00    -0.331 C  
HETATM   34  O   UNL     3      -9.468  11.235  67.883  1.00  0.00    -0.169 OA 
HETATM   35  O   UNL     3     -11.902  11.380  67.155  1.00  0.00    -0.566 OA 
HETATM   36  O   UNL     3     -11.307  12.426  65.214  1.00  0.00    -0.310 OA 
HETATM   37  H   UNL     3      -9.516  10.460  67.335  1.00  0.00     0.000 HD 
ENDBRANCH  29  32
ENDBRANCH  26  29
ENDBRANCH  23  26
ENDBRANCH   7  23
TORSDOF 8
ENDMDL
MODEL      195
REMARK 921   NORMALIZED FREE ENERGY PREDICTED BY IDOCK:   -4.85 KCAL/MOL
REMARK 922        TOTAL FREE ENERGY PREDICTED BY IDOCK:   -9.20 KCAL/MOL
REMARK 923 INTER-LIGAND FREE ENERGY PREDICTED BY IDOCK:   -7.70 KCAL/MOL
REMARK 924 INTRA-LIGAND FREE ENERGY PREDICTED BY IDOCK:   -1.49 KCAL/MOL
REMARK 927      BINDING AFFINITY PREDICTED BY RF-SCORE:    0.00 PKD
ROOT
HETATM    1 CU   UNL     1      -8.692  14.120  65.654  1.00  0.00    -0.444 Cu 
HETATM    2  O   UNL     2      -7.185   8.397  64.649  1.00  0.00    -0.078 OA 
HETATM    3  C   UNL     2      -8.296   8.560  65.542  1.00  0.00    -0.156 C  
HETATM    4  H   UNL     2      -6.900   7.493  64.720  1.00  0.00     0.000 HD 
HETATM    5  O   UNL     3     -10.227  19.795  69.992  1.00  0.00    -0.460 OA 
HETATM    6  H   UNL     3      -9.995  19.326  70.786  1.00  0.00     0.000 HD 
HETATM    7  C   UNL     3      -9.676  19.086  68.864  1.00  0.00    -0.385 C  
ENDROOT
BRANCH   3   8
HETATM    8  C   UNL     2      -8.755  10.011  65.428  1.00  0.00    -0.159 C  
HETATM    9  O   UNL     2     -10.043  10.063  64.783  1.00  0.00    -0.359 OA 
HETATM   10  H   UNL     2     -10.328  10.967  64.712  1.00  0.00     0.000 HD 
BRANCH   8  11
HETATM   11  C   UNL     2      -8.790  10.722  66.796  1.00  0.00    -0.142 C  
HETATM   12  O   UNL     2      -7.728  11.680  66.799  1.00  0.00    -0.187 OA 
HETATM   13  H   UNL     2      -7.749  12.118  67.641  1.00  0.00     0.000 HD 
BRANCH  11  14
HETATM   14  C   UNL     2     -10.161  11.407  66.963  1.00  0.00    -0.213 C  
HETATM   15  H   UNL     2     -11.123  12.888  66.070  1.00  0.00     0.000 HD 
HETATM   16  O   UNL     2     -10.278  12.467  65.968  1.00  0.00    -0.236 OA 
BRANCH  14  17
HETATM   17  C   UNL     2     -10.521  11.917  68.358  1.00  0.00    -0.217 C  
HETATM   18  C   UNL     2     -11.458  10.897  69.056  1.00  0.00    -0.302 C  
HETATM   19  H   UNL     2     -11.266  13.565  69.135  1.00  0.00     0.000 HD 
HETATM   20  O   UNL     2     -11.042  13.248  68.268  1.00  0.00    -0.243 OA 
HETATM   21  O   UNL     2     -10.997   9.714  68.967  1.00  0.00    -0.208 OA 
HETATM   22  O   UNL     2     -12.466  11.372  69.615  1.00  0.00    -0.199 OA 
ENDBRANCH  14  17
ENDBRANCH  11  14
ENDBRANCH   8  11
ENDBRANCH   3   8
BRANCH   7  23
HETATM   23  C   UNL     3     -10.050  19.844  67.583  1.00  0.00    -0.427 C  
HETATM   24  O   UNL     3      -9.460  21.158  67.650  1.00  0.00    -0.330 OA 
HETATM   25  H   UNL     3      -9.691  21.628  66.856  1.00  0.00     0.000 HD 
BRANCH  23  26
HETATM   26  C   UNL     3      -9.544  19.250  66.253  1.00  0.00    -0.362 C  
HETATM   27  O   UNL     3      -9.155  20.275  65.336  1.00  0.00    -0.391 OA 
HETATM   28  H   UNL     3      -8.843  19.908  64.516  1.00  0.00     0.000 HD 
BRANCH  26  29
HETATM   29  C   UNL     3      -8.435  18.177  66.299  1.00  0.00    -0.185 C  
HETATM   30  O   UNL     3      -7.341  18.478  65.417  1.00  0.00    -0.516 OA 
HETATM   31  H   UNL     3      -6.658  17.818  65.445  1.00  0.00     0.000 HD 
BRANCH  29  32
HETATM   32  C   UNL     3      -8.857  16.734  66.043  1.00  0.00    -0.183 C  
HETATM   33  C   UNL     3     -10.356  16.557  65.747  1.00  0.00    -0.341 C  
HETATM   34  O   UNL     3      -8.553  15.921  67.257  1.00  0.00    -0.168 OA 
HETATM   35  O   UNL     3     -11.034  16.276  66.821  1.00  0.00    -0.194 OA 
HETATM   36  O   UNL     3     -10.678  16.322  64.566  1.00  0.00    -0.619 OA 
HETATM   37  H   UNL     3      -8.815  15.022  67.098  1.00  0.00     0.000 HD 
ENDBRANCH  29  32
ENDBRANCH  26  29
ENDBRANCH  23  26
ENDBRANCH   7  23
TORSDOF 8
ENDMDL
MODEL      196
REMARK 921   NORMALIZED FREE ENERGY PREDICTED BY IDOCK:   -4.84 KCAL/MOL
REMARK 922        TOTAL FREE ENERGY PREDICTED BY IDOCK:   -9.18 KCAL/MOL
REMARK 923 INTER-LIGAND FREE ENERGY PREDICTED BY IDOCK:   -7.63 KCAL/MOL
REMARK 924 INTRA-LIGAND FREE ENERGY PREDICTED BY IDOCK:   -1.56 KCAL/MOL
REMARK 927      BINDING AFFINITY PREDICTED BY RF-SCORE:    0.00 PKD
ROOT
HETATM    1 CU   UNL     1     -10.490  13.399  69.802  1.00  0.00    -0.415 Cu 
HETATM    2  O   UNL     2     -10.300  19.344  68.993  1.00  0.00    -0.562 OA 
HETATM    3  C   UNL     2      -9.282  18.626  68.282  1.00  0.00    -0.322 C  
HETATM    4  H   UNL     2     -10.061  20.264  68.970  1.00  0.00     0.000 HD 
HETATM    5  O   UNL     3      -7.496   6.944  71.461  1.00  0.00    -0.084 OA 
HETATM    6  H   UNL     3      -6.669   7.330  71.727  1.00  0.00     0.000 HD 
HETATM    7  C   UNL     3      -8.495   7.983  71.421  1.00  0.00    -0.121 C  
ENDROOT
BRANCH   3   8
HETATM    8  C   UNL     2      -9.667  17.149  68.319  1.00  0.00    -0.280 C  
HETATM    9  O   UNL     2     -10.956  16.999  68.944  1.00  0.00    -0.269 OA 
HETATM   10  H   UNL     2     -11.195  16.080  68.968  1.00  0.00     0.000 HD 
BRANCH   8  11
HETATM   11  C   UNL     2      -9.652  16.506  66.917  1.00  0.00    -0.243 C  
HETATM   12  O   UNL     2      -8.958  17.406  66.049  1.00  0.00    -0.493 OA 
HETATM   13  H   UNL     2      -8.948  17.010  65.186  1.00  0.00     0.000 HD 
BRANCH  11  14
HETATM   14  C   UNL     2      -8.932  15.145  67.004  1.00  0.00    -0.234 C  
HETATM   15  H   UNL     2      -9.492  13.255  67.169  1.00  0.00     0.000 HD 
HETATM   16  O   UNL     2      -9.935  14.093  67.115  1.00  0.00    -0.248 OA 
BRANCH  14  17
HETATM   17  C   UNL     2      -7.852  14.995  68.077  1.00  0.00    -0.125 C  
HETATM   18  C   UNL     2      -6.457  15.230  67.443  1.00  0.00    -0.046 C  
HETATM   19  H   UNL     2      -7.335  13.644  69.411  1.00  0.00     0.000 HD 
HETATM   20  O   UNL     2      -8.006  13.737  68.745  1.00  0.00    -0.124 OA 
HETATM   21  O   UNL     2      -6.443  16.294  66.744  1.00  0.00    -0.280 OA 
HETATM   22  O   UNL     2      -5.577  14.396  67.731  1.00  0.00    -0.253 OA 
ENDBRANCH  14  17
ENDBRANCH  11  14
ENDBRANCH   8  11
ENDBRANCH   3   8
BRANCH   7  23
HETATM   23  C   UNL     3      -9.830   7.360  70.993  1.00  0.00    -0.179 C  
HETATM   24  O   UNL     3      -9.613   5.955  70.747  1.00  0.00    -0.165 OA 
HETATM   25  H   UNL     3     -10.440   5.569  70.482  1.00  0.00     0.000 HD 
BRANCH  23  26
HETATM   26  C   UNL     3     -10.980   7.410  72.018  1.00  0.00    -0.236 C  
HETATM   27  O   UNL     3     -10.523   7.094  73.335  1.00  0.00    -0.298 OA 
HETATM   28  H   UNL     3     -11.233   7.125  73.967  1.00  0.00     0.000 HD 
BRANCH  26  29
HETATM   29  C   UNL     3     -11.851   8.683  72.087  1.00  0.00    -0.377 C  
HETATM   30  O   UNL     3     -13.031   8.500  72.886  1.00  0.00    -0.667 OA 
HETATM   31  H   UNL     3     -13.567   9.283  72.929  1.00  0.00     0.000 HD 
BRANCH  29  32
HETATM   32  C   UNL     3     -12.278   9.303  70.761  1.00  0.00    -0.134 C  
HETATM   33  C   UNL     3     -11.521  10.590  70.391  1.00  0.00    -0.341 C  
HETATM   34  O   UNL     3     -13.727   9.656  70.838  1.00  0.00    -0.545 OA 
HETATM   35  O   UNL     3     -12.155  11.657  70.780  1.00  0.00    -0.364 OA 
HETATM   36  O   UNL     3     -10.663  10.506  69.491  1.00  0.00    -0.225 OA 
HETATM   37  H   UNL     3     -13.993  10.043  70.012  1.00  0.00     0.000 HD 
ENDBRANCH  29  32
ENDBRANCH  26  29
ENDBRANCH  23  26
ENDBRANCH   7  23
TORSDOF 8
ENDMDL
MODEL      197
REMARK 921   NORMALIZED FREE ENERGY PREDICTED BY IDOCK:   -4.83 KCAL/MOL
REMARK 922        TOTAL FREE ENERGY PREDICTED BY IDOCK:   -9.17 KCAL/MOL
REMARK 923 INTER-LIGAND FREE ENERGY PREDICTED BY IDOCK:   -8.00 KCAL/MOL
REMARK 924 INTRA-LIGAND FREE ENERGY PREDICTED BY IDOCK:   -1.17 KCAL/MOL
REMARK 927      BINDING AFFINITY PREDICTED BY RF-SCORE:    0.00 PKD
ROOT
HETATM    1 CU   UNL     1      -9.166  14.383  64.857  1.00  0.00    -0.488 Cu 
HETATM    2  O   UNL     2      -8.920   8.738  62.829  1.00  0.00    -0.433 OA 
HETATM    3  C   UNL     2      -8.642   8.868  64.231  1.00  0.00    -0.109 C  
HETATM    4  H   UNL     2      -8.656   7.862  62.572  1.00  0.00     0.000 HD 
HETATM    5  O   UNL     3      -6.459  20.154  68.427  1.00  0.00    -0.276 OA 
HETATM    6  H   UNL     3      -5.612  19.745  68.565  1.00  0.00     0.000 HD 
HETATM    7  C   UNL     3      -7.156  19.428  67.395  1.00  0.00    -0.208 C  
ENDROOT
BRANCH   3   8
HETATM    8  C   UNL     2      -9.067  10.274  64.645  1.00  0.00    -0.228 C  
HETATM    9  O   UNL     2     -10.483  10.435  64.432  1.00  0.00    -0.324 OA 
HETATM   10  H   UNL     2     -10.747  11.310  64.689  1.00  0.00     0.000 HD 
BRANCH   8  11
HETATM   11  C   UNL     2      -8.684  10.595  66.104  1.00  0.00    -0.170 C  
HETATM   12  O   UNL     2      -8.464  12.005  66.181  1.00  0.00    -0.392 OA 
HETATM   13  H   UNL     2      -8.228  12.203  67.080  1.00  0.00     0.000 HD 
BRANCH  11  14
HETATM   14  C   UNL     2      -9.840  10.157  67.026  1.00  0.00    -0.191 C  
HETATM   15  H   UNL     2     -11.330   8.859  66.910  1.00  0.00     0.000 HD 
HETATM   16  O   UNL     2     -10.617   9.129  66.343  1.00  0.00    -0.144 OA 
BRANCH  14  17
HETATM   17  C   UNL     2     -10.746  11.258  67.580  1.00  0.00    -0.232 C  
HETATM   18  C   UNL     2     -11.418  10.765  68.887  1.00  0.00    -0.293 C  
HETATM   19  H   UNL     2     -12.217  12.378  66.907  1.00  0.00     0.000 HD 
HETATM   20  O   UNL     2     -11.655  11.694  66.562  1.00  0.00    -0.473 OA 
HETATM   21  O   UNL     2     -10.563  10.256  69.681  1.00  0.00    -0.224 OA 
HETATM   22  O   UNL     2     -12.645  10.966  68.982  1.00  0.00    -0.350 OA 
ENDBRANCH  14  17
ENDBRANCH  11  14
ENDBRANCH   8  11
ENDBRANCH   3   8
BRANCH   7  23
HETATM   23  C   UNL     3      -8.523  20.088  67.173  1.00  0.00    -0.334 C  
HETATM   24  O   UNL     3      -8.609  20.490  65.790  1.00  0.00    -0.497 OA 
HETATM   25  H   UNL     3      -9.456  20.899  65.652  1.00  0.00     0.000 HD 
BRANCH  23  26
HETATM   26  C   UNL     3      -9.765  19.207  67.408  1.00  0.00    -0.320 C  
HETATM   27  O   UNL     3     -10.954  19.836  66.923  1.00  0.00    -0.433 OA 
HETATM   28  H   UNL     3     -11.720  19.292  67.068  1.00  0.00     0.000 HD 
BRANCH  26  29
HETATM   29  C   UNL     3      -9.739  17.746  66.909  1.00  0.00    -0.300 C  
HETATM   30  O   UNL     3     -10.624  17.527  65.799  1.00  0.00    -0.473 OA 
HETATM   31  H   UNL     3     -10.607  16.627  65.492  1.00  0.00     0.000 HD 
BRANCH  29  32
HETATM   32  C   UNL     3     -10.008  16.657  67.942  1.00  0.00    -0.254 C  
HETATM   33  C   UNL     3     -10.640  15.379  67.364  1.00  0.00    -0.289 C  
HETATM   34  O   UNL     3     -10.957  17.188  68.965  1.00  0.00    -0.279 OA 
HETATM   35  O   UNL     3     -11.938  15.396  67.447  1.00  0.00    -0.049 OA 
HETATM   36  O   UNL     3      -9.902  14.380  67.256  1.00  0.00    -0.240 OA 
HETATM   37  H   UNL     3     -11.126  16.510  69.609  1.00  0.00     0.000 HD 
ENDBRANCH  29  32
ENDBRANCH  26  29
ENDBRANCH  23  26
ENDBRANCH   7  23
TORSDOF 8
ENDMDL
MODEL      198
REMARK 921   NORMALIZED FREE ENERGY PREDICTED BY IDOCK:   -4.82 KCAL/MOL
REMARK 922        TOTAL FREE ENERGY PREDICTED BY IDOCK:   -9.15 KCAL/MOL
REMARK 923 INTER-LIGAND FREE ENERGY PREDICTED BY IDOCK:   -8.38 KCAL/MOL
REMARK 924 INTRA-LIGAND FREE ENERGY PREDICTED BY IDOCK:   -0.77 KCAL/MOL
REMARK 927      BINDING AFFINITY PREDICTED BY RF-SCORE:    0.00 PKD
ROOT
HETATM    1 CU   UNL     1      -9.133  10.206  66.560  1.00  0.00    -0.133 Cu 
HETATM    2  O   UNL     2      -6.275   5.187  68.195  1.00  0.00    -0.032 OA 
HETATM    3  C   UNL     2      -6.350   6.179  69.229  1.00  0.00    -0.041 C  
HETATM    4  H   UNL     2      -5.640   4.538  68.476  1.00  0.00     0.000 HD 
HETATM    5  O   UNL     3      -9.694  17.457  65.853  1.00  0.00    -0.507 OA 
HETATM    6  H   UNL     3      -8.799  17.612  66.132  1.00  0.00     0.000 HD 
HETATM    7  C   UNL     3      -9.830  16.065  65.500  1.00  0.00    -0.189 C  
ENDROOT
BRANCH   3   8
HETATM    8  C   UNL     2      -7.371   7.221  68.778  1.00  0.00    -0.096 C  
HETATM    9  O   UNL     2      -8.690   6.640  68.781  1.00  0.00    -0.127 OA 
HETATM   10  H   UNL     2      -9.325   7.289  68.500  1.00  0.00     0.000 HD 
BRANCH   8  11
HETATM   11  C   UNL     2      -7.324   8.498  69.642  1.00  0.00    -0.060 C  
HETATM   12  O   UNL     2      -8.183   9.457  69.022  1.00  0.00    -0.102 OA 
HETATM   13  H   UNL     2      -8.155  10.243  69.554  1.00  0.00     0.000 HD 
BRANCH  11  14
HETATM   14  C   UNL     2      -7.807   8.150  71.065  1.00  0.00    -0.090 C  
HETATM   15  H   UNL     2      -8.155   6.483  72.074  1.00  0.00     0.000 HD 
HETATM   16  O   UNL     2      -7.857   6.698  71.198  1.00  0.00    -0.099 OA 
BRANCH  14  17
HETATM   17  C   UNL     2      -9.111   8.794  71.536  1.00  0.00    -0.252 C  
HETATM   18  C   UNL     2      -9.425   8.328  72.981  1.00  0.00    -0.228 C  
HETATM   19  H   UNL     2     -10.959   8.940  70.875  1.00  0.00     0.000 HD 
HETATM   20  O   UNL     2     -10.148   8.540  70.582  1.00  0.00    -0.185 OA 
HETATM   21  O   UNL     2      -8.407   8.449  73.735  1.00  0.00    -0.319 OA 
HETATM   22  O   UNL     2     -10.595   7.954  73.193  1.00  0.00    -0.359 OA 
ENDBRANCH  14  17
ENDBRANCH  11  14
ENDBRANCH   8  11
ENDBRANCH   3   8
BRANCH   7  23
HETATM   23  C   UNL     3     -11.275  15.815  65.049  1.00  0.00    -0.308 C  
HETATM   24  O   UNL     3     -11.455  16.428  63.756  1.00  0.00    -1.590 OA 
HETATM   25  H   UNL     3     -12.350  16.273  63.476  1.00  0.00     0.000 HD 
BRANCH  23  26
HETATM   26  C   UNL     3     -11.696  14.345  64.854  1.00  0.00    -0.408 C  
HETATM   27  O   UNL     3     -10.708  13.608  64.130  1.00  0.00    -0.565 OA 
HETATM   28  H   UNL     3     -10.969  12.702  64.010  1.00  0.00     0.000 HD 
BRANCH  26  29
HETATM   29  C   UNL     3     -12.115  13.527  66.095  1.00  0.00    -0.436 C  
HETATM   30  O   UNL     3     -12.374  14.356  67.239  1.00  0.00    -0.617 OA 
HETATM   31  H   UNL     3     -12.632  13.852  68.002  1.00  0.00     0.000 HD 
BRANCH  29  32
HETATM   32  C   UNL     3     -11.179  12.406  66.533  1.00  0.00    -0.319 C  
HETATM   33  C   UNL     3     -11.419  11.906  67.968  1.00  0.00    -0.323 C  
HETATM   34  O   UNL     3      -9.772  12.903  66.474  1.00  0.00    -0.246 OA 
HETATM   35  O   UNL     3     -10.653  12.511  68.829  1.00  0.00    -0.224 OA 
HETATM   36  O   UNL     3     -11.975  10.798  68.098  1.00  0.00    -0.527 OA 
HETATM   37  H   UNL     3      -9.188  12.205  66.747  1.00  0.00     0.000 HD 
ENDBRANCH  29  32
ENDBRANCH  26  29
ENDBRANCH  23  26
ENDBRANCH   7  23
TORSDOF 8
ENDMDL
MODEL      199
REMARK 921   NORMALIZED FREE ENERGY PREDICTED BY IDOCK:   -4.82 KCAL/MOL
REMARK 922        TOTAL FREE ENERGY PREDICTED BY IDOCK:   -9.15 KCAL/MOL
REMARK 923 INTER-LIGAND FREE ENERGY PREDICTED BY IDOCK:   -6.99 KCAL/MOL
REMARK 924 INTRA-LIGAND FREE ENERGY PREDICTED BY IDOCK:   -2.16 KCAL/MOL
REMARK 927      BINDING AFFINITY PREDICTED BY RF-SCORE:    0.00 PKD
ROOT
HETATM    1 CU   UNL     1     -11.375  10.832  70.114  1.00  0.00    -0.204 Cu 
HETATM    2  O   UNL     2     -12.363   5.524  72.739  1.00  0.00    -0.486 OA 
HETATM    3  C   UNL     2     -11.129   5.595  72.011  1.00  0.00    -0.230 C  
HETATM    4  H   UNL     2     -12.521   4.608  72.933  1.00  0.00     0.000 HD 
HETATM    5  O   UNL     3      -9.716  15.075  64.402  1.00  0.00    -0.146 OA 
HETATM    6  H   UNL     3      -9.734  14.352  63.786  1.00  0.00     0.000 HD 
HETATM    7  C   UNL     3     -10.385  14.663  65.611  1.00  0.00    -0.351 C  
ENDROOT
BRANCH   3   8
HETATM    8  C   UNL     2     -10.874   7.068  71.701  1.00  0.00    -0.223 C  
HETATM    9  O   UNL     2      -9.456   7.312  71.639  1.00  0.00    -0.152 OA 
HETATM   10  H   UNL     2      -9.297   8.229  71.446  1.00  0.00     0.000 HD 
BRANCH   8  11
HETATM   11  C   UNL     2     -11.573   7.520  70.402  1.00  0.00    -0.149 C  
HETATM   12  O   UNL     2     -12.335   8.688  70.719  1.00  0.00    -0.488 OA 
HETATM   13  H   UNL     2     -12.765   8.967  69.920  1.00  0.00     0.000 HD 
BRANCH  11  14
HETATM   14  C   UNL     2     -10.496   7.825  69.342  1.00  0.00    -0.220 C  
HETATM   15  H   UNL     2     -10.146   9.292  68.060  1.00  0.00     0.000 HD 
HETATM   16  O   UNL     2     -10.809   9.103  68.713  1.00  0.00    -0.171 OA 
BRANCH  14  17
HETATM   17  C   UNL     2     -10.223   6.746  68.294  1.00  0.00    -0.175 C  
HETATM   18  C   UNL     2      -8.694   6.608  68.079  1.00  0.00    -0.117 C  
HETATM   19  H   UNL     2     -10.806   6.352  66.456  1.00  0.00     0.000 HD 
HETATM   20  O   UNL     2     -10.975   7.023  67.107  1.00  0.00    -0.357 OA 
HETATM   21  O   UNL     2      -8.080   6.513  69.190  1.00  0.00    -0.109 OA 
HETATM   22  O   UNL     2      -8.308   6.573  66.894  1.00  0.00    -0.112 OA 
ENDBRANCH  14  17
ENDBRANCH  11  14
ENDBRANCH   8  11
ENDBRANCH   3   8
BRANCH   7  23
HETATM   23  C   UNL     3     -10.356  15.830  66.607  1.00  0.00    -0.291 C  
HETATM   24  O   UNL     3     -11.320  15.560  67.646  1.00  0.00    -0.324 OA 
HETATM   25  H   UNL     3     -11.302  16.283  68.262  1.00  0.00     0.000 HD 
BRANCH  23  26
HETATM   26  C   UNL     3      -9.029  16.075  67.351  1.00  0.00    -0.191 C  
HETATM   27  O   UNL     3      -7.901  15.801  66.516  1.00  0.00    -0.233 OA 
HETATM   28  H   UNL     3      -7.083  15.952  66.975  1.00  0.00     0.000 HD 
BRANCH  26  29
HETATM   29  C   UNL     3      -8.813  17.437  68.046  1.00  0.00    -0.252 C  
HETATM   30  O   UNL     3     -10.042  18.154  68.246  1.00  0.00    -0.345 OA 
HETATM   31  H   UNL     3      -9.908  18.992  68.674  1.00  0.00     0.000 HD 
BRANCH  29  32
HETATM   32  C   UNL     3      -7.815  18.392  67.400  1.00  0.00    -0.234 C  
HETATM   33  C   UNL     3      -7.835  19.816  67.982  1.00  0.00    -0.307 C  
HETATM   34  O   UNL     3      -8.134  18.511  65.946  1.00  0.00    -0.492 OA 
HETATM   35  O   UNL     3      -8.614  20.608  67.306  1.00  0.00    -0.334 OA 
HETATM   36  O   UNL     3      -6.887  20.140  68.723  1.00  0.00    -0.301 OA 
HETATM   37  H   UNL     3      -7.513  19.107  65.543  1.00  0.00     0.000 HD 
ENDBRANCH  29  32
ENDBRANCH  26  29
ENDBRANCH  23  26
ENDBRANCH   7  23
TORSDOF 8
ENDMDL
MODEL      200
REMARK 921   NORMALIZED FREE ENERGY PREDICTED BY IDOCK:   -4.81 KCAL/MOL
REMARK 922        TOTAL FREE ENERGY PREDICTED BY IDOCK:   -9.14 KCAL/MOL
REMARK 923 INTER-LIGAND FREE ENERGY PREDICTED BY IDOCK:   -6.92 KCAL/MOL
REMARK 924 INTRA-LIGAND FREE ENERGY PREDICTED BY IDOCK:   -2.22 KCAL/MOL
REMARK 927      BINDING AFFINITY PREDICTED BY RF-SCORE:    0.00 PKD
ROOT
HETATM    1 CU   UNL     1      -8.579  11.585  68.058  1.00  0.00    -0.116 Cu 
HETATM    2  O   UNL     2      -6.904  17.350  68.017  1.00  0.00    -0.173 OA 
HETATM    3  C   UNL     2      -7.021  16.766  66.711  1.00  0.00    -0.234 C  
HETATM    4  H   UNL     2      -6.444  18.174  67.914  1.00  0.00     0.000 HD 
HETATM    5  O   UNL     3      -7.858   4.570  66.146  1.00  0.00    -0.094 OA 
HETATM    6  H   UNL     3      -7.020   4.712  65.720  1.00  0.00     0.000 HD 
HETATM    7  C   UNL     3      -8.138   5.702  66.994  1.00  0.00    -0.102 C  
ENDROOT
BRANCH   3   8
HETATM    8  C   UNL     2      -7.761  15.441  66.876  1.00  0.00    -0.124 C  
HETATM    9  O   UNL     2      -6.924  14.503  67.580  1.00  0.00    -0.179 OA 
HETATM   10  H   UNL     2      -7.385  13.678  67.682  1.00  0.00     0.000 HD 
BRANCH   8  11
HETATM   11  C   UNL     2      -9.119  15.615  67.586  1.00  0.00    -0.192 C  
HETATM   12  O   UNL     2      -9.683  16.844  67.120  1.00  0.00    -0.242 OA 
HETATM   13  H   UNL     2     -10.519  16.951  67.557  1.00  0.00     0.000 HD 
BRANCH  11  14
HETATM   14  C   UNL     2     -10.020  14.416  67.230  1.00  0.00    -0.247 C  
HETATM   15  H   UNL     2     -10.422  12.657  68.043  1.00  0.00     0.000 HD 
HETATM   16  O   UNL     2      -9.867  13.396  68.262  1.00  0.00    -0.228 OA 
BRANCH  14  17
HETATM   17  C   UNL     2      -9.864  13.816  65.833  1.00  0.00    -0.260 C  
HETATM   18  C   UNL     2     -11.122  14.142  64.987  1.00  0.00    -0.370 C  
HETATM   19  H   UNL     2      -9.457  12.049  65.068  1.00  0.00     0.000 HD 
HETATM   20  O   UNL     2      -9.553  12.421  65.936  1.00  0.00    -0.244 OA 
HETATM   21  O   UNL     2     -11.419  15.378  65.063  1.00  0.00    -0.335 OA 
HETATM   22  O   UNL     2     -11.615  13.192  64.349  1.00  0.00    -0.343 OA 
ENDBRANCH  14  17
ENDBRANCH  11  14
ENDBRANCH   8  11
ENDBRANCH   3   8
BRANCH   7  23
HETATM   23  C   UNL     3      -9.491   5.473  67.681  1.00  0.00    -0.118 C  
HETATM   24  O   UNL     3      -9.242   4.958  69.005  1.00  0.00    -0.106 OA 
HETATM   25  H   UNL     3     -10.080   4.816  69.431  1.00  0.00     0.000 HD 
BRANCH  23  26
HETATM   26  C   UNL     3     -10.377   6.715  67.900  1.00  0.00    -0.189 C  
HETATM   27  O   UNL     3     -11.604   6.619  67.172  1.00  0.00    -0.749 OA 
HETATM   28  H   UNL     3     -12.150   7.385  67.307  1.00  0.00     0.000 HD 
BRANCH  26  29
HETATM   29  C   UNL     3     -10.692   7.151  69.347  1.00  0.00    -0.231 C  
HETATM   30  O   UNL     3     -11.906   6.566  69.847  1.00  0.00    -0.609 OA 
HETATM   31  H   UNL     3     -12.099   6.834  70.737  1.00  0.00     0.000 HD 
BRANCH  29  32
HETATM   32  C   UNL     3     -10.751   8.650  69.621  1.00  0.00    -0.200 C  
HETATM   33  C   UNL     3      -9.596   9.180  70.490  1.00  0.00    -0.243 C  
HETATM   34  O   UNL     3     -12.019   8.958  70.347  1.00  0.00    -0.477 OA 
HETATM   35  O   UNL     3      -9.912   9.215  71.751  1.00  0.00    -0.320 OA 
HETATM   36  O   UNL     3      -8.708   9.838  69.914  1.00  0.00    -0.192 OA 
HETATM   37  H   UNL     3     -12.055   9.892  70.518  1.00  0.00     0.000 HD 
ENDBRANCH  29  32
ENDBRANCH  26  29
ENDBRANCH  23  26
ENDBRANCH   7  23
TORSDOF 8
ENDMDL
MODEL      201
REMARK 921   NORMALIZED FREE ENERGY PREDICTED BY IDOCK:   -4.81 KCAL/MOL
REMARK 922        TOTAL FREE ENERGY PREDICTED BY IDOCK:   -9.13 KCAL/MOL
REMARK 923 INTER-LIGAND FREE ENERGY PREDICTED BY IDOCK:   -7.46 KCAL/MOL
REMARK 924 INTRA-LIGAND FREE ENERGY PREDICTED BY IDOCK:   -1.67 KCAL/MOL
REMARK 927      BINDING AFFINITY PREDICTED BY RF-SCORE:    0.00 PKD
ROOT
HETATM    1 CU   UNL     1     -10.655  11.909  68.756  1.00  0.00    -0.177 Cu 
HETATM    2  O   UNL     2     -10.474  17.780  67.518  1.00  0.00    -0.355 OA 
HETATM    3  C   UNL     2      -9.547  16.994  66.755  1.00  0.00    -0.264 C  
HETATM    4  H   UNL     2     -10.226  18.691  67.405  1.00  0.00     0.000 HD 
HETATM    5  O   UNL     3      -7.588   5.522  70.539  1.00  0.00    -0.080 OA 
HETATM    6  H   UNL     3      -6.733   5.908  70.687  1.00  0.00     0.000 HD 
HETATM    7  C   UNL     3      -8.572   6.576  70.532  1.00  0.00    -0.143 C  
ENDROOT
BRANCH   3   8
HETATM    8  C   UNL     2      -9.945  15.531  66.935  1.00  0.00    -0.247 C  
HETATM    9  O   UNL     2      -9.218  14.712  65.999  1.00  0.00    -0.479 OA 
HETATM   10  H   UNL     2      -9.466  13.802  66.112  1.00  0.00     0.000 HD 
BRANCH   8  11
HETATM   11  C   UNL     2      -9.733  15.043  68.383  1.00  0.00    -0.216 C  
HETATM   12  O   UNL     2      -9.107  16.110  69.100  1.00  0.00    -0.243 OA 
HETATM   13  H   UNL     2      -8.977  15.810  69.991  1.00  0.00     0.000 HD 
BRANCH  11  14
HETATM   14  C   UNL     2     -11.105  14.689  68.991  1.00  0.00    -0.259 C  
HETATM   15  H   UNL     2     -12.994  15.070  68.542  1.00  0.00     0.000 HD 
HETATM   16  O   UNL     2     -12.149  15.288  68.168  1.00  0.00    -0.176 OA 
BRANCH  14  17
HETATM   17  C   UNL     2     -11.316  15.009  70.471  1.00  0.00    -0.276 C  
HETATM   18  C   UNL     2     -12.467  14.135  71.031  1.00  0.00    -0.367 C  
HETATM   19  H   UNL     2     -11.626  16.620  71.560  1.00  0.00     0.000 HD 
HETATM   20  O   UNL     2     -11.495  16.421  70.640  1.00  0.00    -0.347 OA 
HETATM   21  O   UNL     2     -12.312  12.912  70.714  1.00  0.00    -0.368 OA 
HETATM   22  O   UNL     2     -13.323  14.729  71.716  1.00  0.00    -0.313 OA 
ENDBRANCH  14  17
ENDBRANCH  11  14
ENDBRANCH   8  11
ENDBRANCH   3   8
BRANCH   7  23
HETATM   23  C   UNL     3      -9.953   5.953  70.291  1.00  0.00    -0.192 C  
HETATM   24  O   UNL     3     -10.555   5.684  71.574  1.00  0.00    -0.230 OA 
HETATM   25  H   UNL     3     -11.410   5.298  71.425  1.00  0.00     0.000 HD 
BRANCH  23  26
HETATM   26  C   UNL     3     -10.985   6.820  69.544  1.00  0.00    -0.279 C  
HETATM   27  O   UNL     3     -12.318   6.543  69.980  1.00  0.00    -0.437 OA 
HETATM   28  H   UNL     3     -12.954   7.078  69.519  1.00  0.00     0.000 HD 
BRANCH  26  29
HETATM   29  C   UNL     3     -10.781   8.351  69.516  1.00  0.00    -0.175 C  
HETATM   30  O   UNL     3      -9.739   8.751  68.611  1.00  0.00    -0.157 OA 
HETATM   31  H   UNL     3      -9.613   9.693  68.594  1.00  0.00     0.000 HD 
BRANCH  29  32
HETATM   32  C   UNL     3     -10.528   9.039  70.853  1.00  0.00    -0.254 C  
HETATM   33  C   UNL     3     -11.673   8.888  71.869  1.00  0.00    -0.369 C  
HETATM   34  O   UNL     3     -10.347  10.502  70.615  1.00  0.00    -0.271 OA 
HETATM   35  O   UNL     3     -12.502   9.890  71.821  1.00  0.00    -0.382 OA 
HETATM   36  O   UNL     3     -11.489   8.103  72.820  1.00  0.00    -0.408 OA 
HETATM   37  H   UNL     3     -10.189  10.931  71.447  1.00  0.00     0.000 HD 
ENDBRANCH  29  32
ENDBRANCH  26  29
ENDBRANCH  23  26
ENDBRANCH   7  23
TORSDOF 8
ENDMDL
MODEL      202
REMARK 921   NORMALIZED FREE ENERGY PREDICTED BY IDOCK:   -4.81 KCAL/MOL
REMARK 922        TOTAL FREE ENERGY PREDICTED BY IDOCK:   -9.13 KCAL/MOL
REMARK 923 INTER-LIGAND FREE ENERGY PREDICTED BY IDOCK:   -7.49 KCAL/MOL
REMARK 924 INTRA-LIGAND FREE ENERGY PREDICTED BY IDOCK:   -1.64 KCAL/MOL
REMARK 927      BINDING AFFINITY PREDICTED BY RF-SCORE:    0.00 PKD
ROOT
HETATM    1 CU   UNL     1      -9.557  15.267  70.297  1.00  0.00    -0.246 Cu 
HETATM    2  O   UNL     2      -6.512  20.284  69.033  1.00  0.00    -0.312 OA 
HETATM    3  C   UNL     2      -7.120  19.666  67.890  1.00  0.00    -0.266 C  
HETATM    4  H   UNL     2      -5.897  20.931  68.707  1.00  0.00     0.000 HD 
HETATM    5  O   UNL     3     -11.226   8.224  69.299  1.00  0.00    -0.431 OA 
HETATM    6  H   UNL     3     -10.525   8.087  68.672  1.00  0.00     0.000 HD 
HETATM    7  C   UNL     3     -10.965   9.447  70.017  1.00  0.00    -0.239 C  
ENDROOT
BRANCH   3   8
HETATM    8  C   UNL     2      -8.108  18.627  68.413  1.00  0.00    -0.333 C  
HETATM    9  O   UNL     2      -9.389  19.247  68.639  1.00  0.00    -0.361 OA 
HETATM   10  H   UNL     2     -10.004  18.601  68.965  1.00  0.00     0.000 HD 
BRANCH   8  11
HETATM   11  C   UNL     2      -8.237  17.415  67.468  1.00  0.00    -0.201 C  
HETATM   12  O   UNL     2      -7.154  17.490  66.538  1.00  0.00    -0.201 OA 
HETATM   13  H   UNL     2      -7.232  16.744  65.956  1.00  0.00     0.000 HD 
BRANCH  11  14
HETATM   14  C   UNL     2      -8.164  16.124  68.308  1.00  0.00    -0.162 C  
HETATM   15  H   UNL     2      -7.355  15.602  70.036  1.00  0.00     0.000 HD 
HETATM   16  O   UNL     2      -7.399  16.397  69.519  1.00  0.00    -0.209 OA 
BRANCH  14  17
HETATM   17  C   UNL     2      -7.657  14.863  67.607  1.00  0.00    -0.182 C  
HETATM   18  C   UNL     2      -8.065  13.614  68.430  1.00  0.00    -0.146 C  
HETATM   19  H   UNL     2      -5.938  14.200  66.915  1.00  0.00     0.000 HD 
HETATM   20  O   UNL     2      -6.253  14.983  67.350  1.00  0.00    -0.324 OA 
HETATM   21  O   UNL     2      -9.298  13.653  68.744  1.00  0.00    -0.106 OA 
HETATM   22  O   UNL     2      -7.170  12.768  68.623  1.00  0.00    -0.101 OA 
ENDBRANCH  14  17
ENDBRANCH  11  14
ENDBRANCH   8  11
ENDBRANCH   3   8
BRANCH   7  23
HETATM   23  C   UNL     3     -12.097   9.669  71.029  1.00  0.00    -0.337 C  
HETATM   24  O   UNL     3     -13.250  10.157  70.314  1.00  0.00    -0.571 OA 
HETATM   25  H   UNL     3     -13.951  10.295  70.941  1.00  0.00     0.000 HD 
BRANCH  23  26
HETATM   26  C   UNL     3     -12.599   8.428  71.792  1.00  0.00    -0.342 C  
HETATM   27  O   UNL     3     -13.256   7.506  70.919  1.00  0.00    -0.588 OA 
HETATM   28  H   UNL     3     -13.565   6.740  71.390  1.00  0.00     0.000 HD 
BRANCH  26  29
HETATM   29  C   UNL     3     -11.599   7.649  72.674  1.00  0.00    -0.317 C  
HETATM   30  O   UNL     3     -10.304   8.269  72.716  1.00  0.00    -0.318 OA 
HETATM   31  H   UNL     3      -9.689   7.790  73.259  1.00  0.00     0.000 HD 
BRANCH  29  32
HETATM   32  C   UNL     3     -11.400   6.172  72.355  1.00  0.00    -0.296 C  
HETATM   33  C   UNL     3     -10.521   5.418  73.369  1.00  0.00    -0.235 C  
HETATM   34  O   UNL     3     -10.731   6.052  71.025  1.00  0.00    -0.240 OA 
HETATM   35  O   UNL     3      -9.274   5.385  73.002  1.00  0.00    -0.134 OA 
HETATM   36  O   UNL     3     -11.099   4.644  74.157  1.00  0.00    -0.290 OA 
HETATM   37  H   UNL     3     -10.606   5.132  70.826  1.00  0.00     0.000 HD 
ENDBRANCH  29  32
ENDBRANCH  26  29
ENDBRANCH  23  26
ENDBRANCH   7  23
TORSDOF 8
ENDMDL
MODEL      203
REMARK 921   NORMALIZED FREE ENERGY PREDICTED BY IDOCK:   -4.80 KCAL/MOL
REMARK 922        TOTAL FREE ENERGY PREDICTED BY IDOCK:   -9.12 KCAL/MOL
REMARK 923 INTER-LIGAND FREE ENERGY PREDICTED BY IDOCK:   -8.07 KCAL/MOL
REMARK 924 INTRA-LIGAND FREE ENERGY PREDICTED BY IDOCK:   -1.06 KCAL/MOL
REMARK 927      BINDING AFFINITY PREDICTED BY RF-SCORE:    0.00 PKD
ROOT
HETATM    1 CU   UNL     1      -9.886  13.655  69.433  1.00  0.00    -0.368 Cu 
HETATM    2  O   UNL     2      -7.748  18.866  67.356  1.00  0.00    -0.230 OA 
HETATM    3  C   UNL     2      -8.672  18.219  66.468  1.00  0.00    -0.274 C  
HETATM    4  H   UNL     2      -7.320  19.554  66.859  1.00  0.00     0.000 HD 
HETATM    5  O   UNL     3     -11.383   6.527  68.859  1.00  0.00    -0.537 OA 
HETATM    6  H   UNL     3     -10.929   6.439  68.028  1.00  0.00     0.000 HD 
HETATM    7  C   UNL     3     -10.965   7.759  69.481  1.00  0.00    -0.084 C  
ENDROOT
BRANCH   3   8
HETATM    8  C   UNL     2      -9.361  17.115  67.266  1.00  0.00    -0.242 C  
HETATM    9  O   UNL     2      -9.702  17.605  68.577  1.00  0.00    -0.298 OA 
HETATM   10  H   UNL     2     -10.131  16.918  69.074  1.00  0.00     0.000 HD 
BRANCH   8  11
HETATM   11  C   UNL     2     -10.604  16.559  66.540  1.00  0.00    -0.217 C  
HETATM   12  O   UNL     2     -10.556  17.042  65.195  1.00  0.00    -0.688 OA 
HETATM   13  H   UNL     2     -11.321  16.700  64.748  1.00  0.00     0.000 HD 
BRANCH  11  14
HETATM   14  C   UNL     2     -10.553  15.018  66.584  1.00  0.00    -0.301 C  
HETATM   15  H   UNL     2      -9.307  13.623  65.938  1.00  0.00     0.000 HD 
HETATM   16  O   UNL     2      -9.339  14.572  65.911  1.00  0.00    -0.231 OA 
BRANCH  14  17
HETATM   17  C   UNL     2     -11.780  14.265  66.068  1.00  0.00    -0.379 C  
HETATM   18  C   UNL     2     -11.896  12.903  66.800  1.00  0.00    -0.385 C  
HETATM   19  H   UNL     2     -12.491  13.711  64.319  1.00  0.00     0.000 HD 
HETATM   20  O   UNL     2     -11.729  14.179  64.639  1.00  0.00    -0.377 OA 
HETATM   21  O   UNL     2     -11.786  13.047  68.060  1.00  0.00    -0.319 OA 
HETATM   22  O   UNL     2     -12.112  11.910  66.078  1.00  0.00    -0.500 OA 
ENDBRANCH  14  17
ENDBRANCH  11  14
ENDBRANCH   8  11
ENDBRANCH   3   8
BRANCH   7  23
HETATM   23  C   UNL     3     -11.696   7.901  70.822  1.00  0.00    -0.218 C  
HETATM   24  O   UNL     3     -12.973   7.239  70.711  1.00  0.00    -0.604 OA 
HETATM   25  H   UNL     3     -13.426   7.327  71.541  1.00  0.00     0.000 HD 
BRANCH  23  26
HETATM   26  C   UNL     3     -11.023   7.259  72.051  1.00  0.00    -0.238 C  
HETATM   27  O   UNL     3     -11.989   6.715  72.954  1.00  0.00    -0.462 OA 
HETATM   28  H   UNL     3     -11.573   6.319  73.712  1.00  0.00     0.000 HD 
BRANCH  26  29
HETATM   29  C   UNL     3      -9.914   6.210  71.821  1.00  0.00    -0.172 C  
HETATM   30  O   UNL     3     -10.360   4.870  72.081  1.00  0.00    -0.194 OA 
HETATM   31  H   UNL     3      -9.677   4.225  71.940  1.00  0.00     0.000 HD 
BRANCH  29  32
HETATM   32  C   UNL     3      -8.600   6.417  72.567  1.00  0.00    -0.123 C  
HETATM   33  C   UNL     3      -7.864   7.719  72.202  1.00  0.00    -0.106 C  
HETATM   34  O   UNL     3      -7.678   5.289  72.242  1.00  0.00    -0.097 OA 
HETATM   35  O   UNL     3      -6.984   7.533  71.263  1.00  0.00    -0.050 OA 
HETATM   36  O   UNL     3      -7.894   8.642  73.040  1.00  0.00    -0.373 OA 
HETATM   37  H   UNL     3      -6.859   5.418  72.706  1.00  0.00     0.000 HD 
ENDBRANCH  29  32
ENDBRANCH  26  29
ENDBRANCH  23  26
ENDBRANCH   7  23
TORSDOF 8
ENDMDL
MODEL      204
REMARK 921   NORMALIZED FREE ENERGY PREDICTED BY IDOCK:   -4.80 KCAL/MOL
REMARK 922        TOTAL FREE ENERGY PREDICTED BY IDOCK:   -9.12 KCAL/MOL
REMARK 923 INTER-LIGAND FREE ENERGY PREDICTED BY IDOCK:   -7.37 KCAL/MOL
REMARK 924 INTRA-LIGAND FREE ENERGY PREDICTED BY IDOCK:   -1.75 KCAL/MOL
REMARK 927      BINDING AFFINITY PREDICTED BY RF-SCORE:    0.00 PKD
ROOT
HETATM    1 CU   UNL     1      -9.595  10.384  67.595  1.00  0.00    -0.140 Cu 
HETATM    2  O   UNL     2      -9.115  16.310  66.765  1.00  0.00    -0.204 OA 
HETATM    3  C   UNL     2      -9.915  15.644  65.776  1.00  0.00    -0.359 C  
HETATM    4  H   UNL     2      -8.932  17.182  66.435  1.00  0.00     0.000 HD 
HETATM    5  O   UNL     3      -9.204   3.434  65.375  1.00  0.00    -0.143 OA 
HETATM    6  H   UNL     3      -8.825   3.663  64.534  1.00  0.00     0.000 HD 
HETATM    7  C   UNL     3      -9.069   4.563  66.261  1.00  0.00    -0.123 C  
ENDROOT
BRANCH   3   8
HETATM    8  C   UNL     2     -10.209  14.244  66.306  1.00  0.00    -0.301 C  
HETATM    9  O   UNL     2      -9.023  13.431  66.213  1.00  0.00    -0.459 OA 
HETATM   10  H   UNL     2      -9.207  12.559  66.543  1.00  0.00     0.000 HD 
BRANCH   8  11
HETATM   11  C   UNL     2     -10.755  14.267  67.749  1.00  0.00    -0.251 C  
HETATM   12  O   UNL     2     -11.923  15.092  67.743  1.00  0.00    -0.445 OA 
HETATM   13  H   UNL     2     -12.259  15.107  68.631  1.00  0.00     0.000 HD 
BRANCH  11  14
HETATM   14  C   UNL     2     -11.091  12.824  68.174  1.00  0.00    -0.256 C  
HETATM   15  H   UNL     2     -12.317  11.408  67.535  1.00  0.00     0.000 HD 
HETATM   16  O   UNL     2     -12.109  12.297  67.273  1.00  0.00    -0.548 OA 
BRANCH  14  17
HETATM   17  C   UNL     2     -11.477  12.599  69.636  1.00  0.00    -0.182 C  
HETATM   18  C   UNL     2     -11.794  11.099  69.863  1.00  0.00    -0.363 C  
HETATM   19  H   UNL     2     -12.769  13.359  70.911  1.00  0.00     0.000 HD 
HETATM   20  O   UNL     2     -12.529  13.499  70.003  1.00  0.00    -0.268 OA 
HETATM   21  O   UNL     2     -10.880  10.357  69.379  1.00  0.00    -0.215 OA 
HETATM   22  O   UNL     2     -12.839  10.849  70.496  1.00  0.00    -0.300 OA 
ENDBRANCH  14  17
ENDBRANCH  11  14
ENDBRANCH   8  11
ENDBRANCH   3   8
BRANCH   7  23
HETATM   23  C   UNL     3      -9.681   4.194  67.619  1.00  0.00    -0.122 C  
HETATM   24  O   UNL     3      -8.958   3.062  68.145  1.00  0.00    -0.112 OA 
HETATM   25  H   UNL     3      -9.338   2.833  68.986  1.00  0.00     0.000 HD 
BRANCH  23  26
HETATM   26  C   UNL     3      -9.607   5.262  68.727  1.00  0.00    -0.137 C  
HETATM   27  O   UNL     3      -8.667   6.289  68.404  1.00  0.00    -0.117 OA 
HETATM   28  H   UNL     3      -8.621   6.947  69.088  1.00  0.00     0.000 HD 
BRANCH  26  29
HETATM   29  C   UNL     3     -10.919   5.923  69.204  1.00  0.00    -0.312 C  
HETATM   30  O   UNL     3     -11.609   6.604  68.143  1.00  0.00    -0.543 OA 
HETATM   31  H   UNL     3     -12.416   7.011  68.437  1.00  0.00     0.000 HD 
BRANCH  29  32
HETATM   32  C   UNL     3     -10.821   6.880  70.387  1.00  0.00    -0.261 C  
HETATM   33  C   UNL     3     -10.824   6.189  71.761  1.00  0.00    -0.255 C  
HETATM   34  O   UNL     3     -11.997   7.800  70.360  1.00  0.00    -0.485 OA 
HETATM   35  O   UNL     3     -12.019   6.118  72.269  1.00  0.00    -0.318 OA 
HETATM   36  O   UNL     3      -9.738   6.135  72.372  1.00  0.00    -0.159 OA 
HETATM   37  H   UNL     3     -11.936   8.397  71.097  1.00  0.00     0.000 HD 
ENDBRANCH  29  32
ENDBRANCH  26  29
ENDBRANCH  23  26
ENDBRANCH   7  23
TORSDOF 8
ENDMDL
MODEL      205
REMARK 921   NORMALIZED FREE ENERGY PREDICTED BY IDOCK:   -4.80 KCAL/MOL
REMARK 922        TOTAL FREE ENERGY PREDICTED BY IDOCK:   -9.12 KCAL/MOL
REMARK 923 INTER-LIGAND FREE ENERGY PREDICTED BY IDOCK:   -7.90 KCAL/MOL
REMARK 924 INTRA-LIGAND FREE ENERGY PREDICTED BY IDOCK:   -1.22 KCAL/MOL
REMARK 927      BINDING AFFINITY PREDICTED BY RF-SCORE:    0.00 PKD
ROOT
HETATM    1 CU   UNL     1      -9.465  11.185  69.720  1.00  0.00    -0.363 Cu 
HETATM    2  O   UNL     2      -7.850   7.914  74.487  1.00  0.00    -0.186 OA 
HETATM    3  C   UNL     2      -7.396   7.383  73.234  1.00  0.00    -0.074 C  
HETATM    4  H   UNL     2      -7.728   7.233  75.139  1.00  0.00     0.000 HD 
HETATM    5  O   UNL     3     -12.427  12.037  63.095  1.00  0.00    -0.747 OA 
HETATM    6  H   UNL     3     -12.746  11.142  63.059  1.00  0.00     0.000 HD 
HETATM    7  C   UNL     3     -12.101  12.352  64.464  1.00  0.00    -0.417 C  
ENDROOT
BRANCH   3   8
HETATM    8  C   UNL     2      -7.590   8.476  72.187  1.00  0.00    -0.077 C  
HETATM    9  O   UNL     2      -6.518   8.422  71.225  1.00  0.00    -0.042 OA 
HETATM   10  H   UNL     2      -6.638   9.103  70.574  1.00  0.00     0.000 HD 
BRANCH   8  11
HETATM   11  C   UNL     2      -8.964   8.383  71.492  1.00  0.00    -0.194 C  
HETATM   12  O   UNL     2      -9.505   9.705  71.452  1.00  0.00    -0.291 OA 
HETATM   13  H   UNL     2     -10.351   9.648  71.024  1.00  0.00     0.000 HD 
BRANCH  11  14
HETATM   14  C   UNL     2      -8.762   7.817  70.072  1.00  0.00    -0.141 C  
HETATM   15  H   UNL     2      -8.742   8.564  68.239  1.00  0.00     0.000 HD 
HETATM   16  O   UNL     2      -8.866   8.912  69.114  1.00  0.00    -0.133 OA 
BRANCH  14  17
HETATM   17  C   UNL     2      -9.643   6.637  69.660  1.00  0.00    -0.151 C  
HETATM   18  C   UNL     2      -9.226   6.149  68.248  1.00  0.00    -0.114 C  
HETATM   19  H   UNL     2     -11.571   6.261  69.534  1.00  0.00     0.000 HD 
HETATM   20  O   UNL     2     -11.024   6.995  69.790  1.00  0.00    -0.245 OA 
HETATM   21  O   UNL     2      -7.966   5.994  68.169  1.00  0.00    -0.107 OA 
HETATM   22  O   UNL     2     -10.155   5.950  67.441  1.00  0.00    -0.138 OA 
ENDBRANCH  14  17
ENDBRANCH  11  14
ENDBRANCH   8  11
ENDBRANCH   3   8
BRANCH   7  23
HETATM   23  C   UNL     3     -11.586  13.796  64.523  1.00  0.00    -0.392 C  
HETATM   24  O   UNL     3     -12.328  14.578  63.564  1.00  0.00    -1.081 OA 
HETATM   25  H   UNL     3     -12.008  15.472  63.600  1.00  0.00     0.000 HD 
BRANCH  23  26
HETATM   26  C   UNL     3     -11.759  14.541  65.861  1.00  0.00    -0.345 C  
HETATM   27  O   UNL     3     -12.865  14.027  66.608  1.00  0.00    -0.431 OA 
HETATM   28  H   UNL     3     -12.971  14.487  67.433  1.00  0.00     0.000 HD 
BRANCH  26  29
HETATM   29  C   UNL     3     -10.540  14.664  66.800  1.00  0.00    -0.288 C  
HETATM   30  O   UNL     3     -10.875  14.406  68.174  1.00  0.00    -0.236 OA 
HETATM   31  H   UNL     3     -10.124  14.481  68.751  1.00  0.00     0.000 HD 
BRANCH  29  32
HETATM   32  C   UNL     3      -9.756  15.971  66.749  1.00  0.00    -0.239 C  
HETATM   33  C   UNL     3     -10.625  17.222  66.531  1.00  0.00    -0.178 C  
HETATM   34  O   UNL     3      -8.789  15.909  65.614  1.00  0.00    -0.270 OA 
HETATM   35  O   UNL     3     -10.710  17.542  65.273  1.00  0.00    -0.656 OA 
HETATM   36  O   UNL     3     -10.809  17.965  67.515  1.00  0.00    -0.364 OA 
HETATM   37  H   UNL     3      -8.301  16.723  65.581  1.00  0.00     0.000 HD 
ENDBRANCH  29  32
ENDBRANCH  26  29
ENDBRANCH  23  26
ENDBRANCH   7  23
TORSDOF 8
ENDMDL
MODEL      206
REMARK 921   NORMALIZED FREE ENERGY PREDICTED BY IDOCK:   -4.78 KCAL/MOL
REMARK 922        TOTAL FREE ENERGY PREDICTED BY IDOCK:   -9.09 KCAL/MOL
REMARK 923 INTER-LIGAND FREE ENERGY PREDICTED BY IDOCK:   -7.85 KCAL/MOL
REMARK 924 INTRA-LIGAND FREE ENERGY PREDICTED BY IDOCK:   -1.24 KCAL/MOL
REMARK 927      BINDING AFFINITY PREDICTED BY RF-SCORE:    0.00 PKD
ROOT
HETATM    1 CU   UNL     1      -9.071  12.723  69.181  1.00  0.00    -0.338 Cu 
HETATM    2  O   UNL     2      -8.168  18.465  67.679  1.00  0.00    -0.249 OA 
HETATM    3  C   UNL     2      -8.949  17.728  66.727  1.00  0.00    -0.259 C  
HETATM    4  H   UNL     2      -7.911  19.278  67.260  1.00  0.00     0.000 HD 
HETATM    5  O   UNL     3      -8.993   5.541  67.841  1.00  0.00    -0.109 OA 
HETATM    6  H   UNL     3      -8.551   5.643  67.006  1.00  0.00     0.000 HD 
HETATM    7  C   UNL     3      -8.839   6.763  68.593  1.00  0.00    -0.123 C  
ENDROOT
BRANCH   3   8
HETATM    8  C   UNL     2      -9.363  16.422  67.401  1.00  0.00    -0.221 C  
HETATM    9  O   UNL     2     -10.798  16.371  67.518  1.00  0.00    -0.315 OA 
HETATM   10  H   UNL     2     -11.055  15.558  67.938  1.00  0.00     0.000 HD 
BRANCH   8  11
HETATM   11  C   UNL     2      -8.822  15.184  66.657  1.00  0.00    -0.286 C  
HETATM   12  O   UNL     2      -8.140  14.379  67.622  1.00  0.00    -0.149 OA 
HETATM   13  H   UNL     2      -7.807  13.616  67.164  1.00  0.00     0.000 HD 
BRANCH  11  14
HETATM   14  C   UNL     2     -10.009  14.425  66.032  1.00  0.00    -0.317 C  
HETATM   15  H   UNL     2     -11.389  14.827  64.672  1.00  0.00     0.000 HD 
HETATM   16  O   UNL     2     -10.657  15.294  65.057  1.00  0.00    -0.405 OA 
BRANCH  14  17
HETATM   17  C   UNL     2     -11.030  13.814  66.993  1.00  0.00    -0.290 C  
HETATM   18  C   UNL     2     -10.908  12.269  66.961  1.00  0.00    -0.250 C  
HETATM   19  H   UNL     2     -12.971  13.942  67.294  1.00  0.00     0.000 HD 
HETATM   20  O   UNL     2     -12.336  14.322  66.697  1.00  0.00    -0.446 OA 
HETATM   21  O   UNL     2      -9.696  11.900  67.084  1.00  0.00    -0.183 OA 
HETATM   22  O   UNL     2     -11.979  11.637  66.864  1.00  0.00    -0.567 OA 
ENDBRANCH  14  17
ENDBRANCH  11  14
ENDBRANCH   8  11
ENDBRANCH   3   8
BRANCH   7  23
HETATM   23  C   UNL     3      -9.552   6.598  69.941  1.00  0.00    -0.155 C  
HETATM   24  O   UNL     3      -8.547   6.462  70.968  1.00  0.00    -0.129 OA 
HETATM   25  H   UNL     3      -8.989   6.360  71.803  1.00  0.00     0.000 HD 
BRANCH  23  26
HETATM   26  C   UNL     3     -10.436   7.772  70.406  1.00  0.00    -0.221 C  
HETATM   27  O   UNL     3     -11.170   8.339  69.318  1.00  0.00    -0.431 OA 
HETATM   28  H   UNL     3     -11.716   9.062  69.605  1.00  0.00     0.000 HD 
BRANCH  26  29
HETATM   29  C   UNL     3     -11.402   7.544  71.589  1.00  0.00    -0.252 C  
HETATM   30  O   UNL     3     -11.310   6.215  72.128  1.00  0.00    -0.270 OA 
HETATM   31  H   UNL     3     -11.904   6.076  72.856  1.00  0.00     0.000 HD 
BRANCH  29  32
HETATM   32  C   UNL     3     -12.877   7.848  71.348  1.00  0.00    -0.280 C  
HETATM   33  C   UNL     3     -13.300   9.276  71.734  1.00  0.00    -0.409 C  
HETATM   34  O   UNL     3     -13.702   6.912  72.167  1.00  0.00    -0.550 OA 
HETATM   35  O   UNL     3     -13.769   9.333  72.946  1.00  0.00    -0.327 OA 
HETATM   36  O   UNL     3     -13.508  10.079  70.803  1.00  0.00    -0.316 OA 
HETATM   37  H   UNL     3     -14.621   7.102  72.016  1.00  0.00     0.000 HD 
ENDBRANCH  29  32
ENDBRANCH  26  29
ENDBRANCH  23  26
ENDBRANCH   7  23
TORSDOF 8
ENDMDL
MODEL      207
REMARK 921   NORMALIZED FREE ENERGY PREDICTED BY IDOCK:   -4.77 KCAL/MOL
REMARK 922        TOTAL FREE ENERGY PREDICTED BY IDOCK:   -9.08 KCAL/MOL
REMARK 923 INTER-LIGAND FREE ENERGY PREDICTED BY IDOCK:   -6.91 KCAL/MOL
REMARK 924 INTRA-LIGAND FREE ENERGY PREDICTED BY IDOCK:   -2.17 KCAL/MOL
REMARK 927      BINDING AFFINITY PREDICTED BY RF-SCORE:    0.00 PKD
ROOT
HETATM    1 CU   UNL     1     -10.640   8.351  68.961  1.00  0.00    -0.197 Cu 
HETATM    2  O   UNL     2     -10.269   3.152  71.939  1.00  0.00    -0.127 OA 
HETATM    3  C   UNL     2      -9.353   3.262  70.840  1.00  0.00    -0.150 C  
HETATM    4  H   UNL     2     -10.278   2.239  72.204  1.00  0.00     0.000 HD 
HETATM    5  O   UNL     3     -11.309  12.354  62.886  1.00  0.00    -0.636 OA 
HETATM    6  H   UNL     3     -11.470  11.597  62.335  1.00  0.00     0.000 HD 
HETATM    7  C   UNL     3     -11.507  11.970  64.262  1.00  0.00    -0.361 C  
ENDROOT
BRANCH   3   8
HETATM    8  C   UNL     2      -9.337   4.727  70.414  1.00  0.00    -0.151 C  
HETATM    9  O   UNL     2     -10.229   4.918  69.298  1.00  0.00    -0.207 OA 
HETATM   10  H   UNL     2     -10.219   5.830  69.033  1.00  0.00     0.000 HD 
BRANCH   8  11
HETATM   11  C   UNL     2      -9.691   5.677  71.576  1.00  0.00    -0.161 C  
HETATM   12  O   UNL     2      -8.571   5.690  72.465  1.00  0.00    -0.124 OA 
HETATM   13  H   UNL     2      -8.789   6.275  73.181  1.00  0.00     0.000 HD 
BRANCH  11  14
HETATM   14  C   UNL     2      -9.966   7.082  71.001  1.00  0.00    -0.188 C  
HETATM   15  H   UNL     2      -9.031   8.314  69.768  1.00  0.00     0.000 HD 
HETATM   16  O   UNL     2      -8.862   7.449  70.122  1.00  0.00    -0.146 OA 
BRANCH  14  17
HETATM   17  C   UNL     2     -10.272   8.197  72.001  1.00  0.00    -0.249 C  
HETATM   18  C   UNL     2     -11.707   8.731  71.757  1.00  0.00    -0.346 C  
HETATM   19  H   UNL     2      -9.433   9.885  72.567  1.00  0.00     0.000 HD 
HETATM   20  O   UNL     2      -9.242   9.192  71.946  1.00  0.00    -0.354 OA 
HETATM   21  O   UNL     2     -12.544   7.776  71.672  1.00  0.00    -0.314 OA 
HETATM   22  O   UNL     2     -11.832   9.971  71.720  1.00  0.00    -0.323 OA 
ENDBRANCH  14  17
ENDBRANCH  11  14
ENDBRANCH   8  11
ENDBRANCH   3   8
BRANCH   7  23
HETATM   23  C   UNL     3     -11.247  13.193  65.152  1.00  0.00    -0.294 C  
HETATM   24  O   UNL     3     -12.401  13.388  65.995  1.00  0.00    -0.430 OA 
HETATM   25  H   UNL     3     -12.241  14.145  66.547  1.00  0.00     0.000 HD 
BRANCH  23  26
HETATM   26  C   UNL     3     -10.056  13.103  66.125  1.00  0.00    -0.291 C  
HETATM   27  O   UNL     3      -9.258  14.289  66.088  1.00  0.00    -0.479 OA 
HETATM   28  H   UNL     3      -8.523  14.233  66.688  1.00  0.00     0.000 HD 
BRANCH  26  29
HETATM   29  C   UNL     3     -10.333  12.737  67.599  1.00  0.00    -0.221 C  
HETATM   30  O   UNL     3      -9.929  13.773  68.509  1.00  0.00    -0.230 OA 
HETATM   31  H   UNL     3     -10.100  13.548  69.416  1.00  0.00     0.000 HD 
BRANCH  29  32
HETATM   32  C   UNL     3      -9.754  11.420  68.106  1.00  0.00    -0.192 C  
HETATM   33  C   UNL     3      -9.590  10.342  67.021  1.00  0.00    -0.166 C  
HETATM   34  O   UNL     3     -10.670  10.859  69.143  1.00  0.00    -0.203 OA 
HETATM   35  O   UNL     3     -10.621   9.550  66.961  1.00  0.00    -0.248 OA 
HETATM   36  O   UNL     3      -8.432  10.108  66.623  1.00  0.00    -0.125 OA 
HETATM   37  H   UNL     3     -10.310  10.039  69.459  1.00  0.00     0.000 HD 
ENDBRANCH  29  32
ENDBRANCH  26  29
ENDBRANCH  23  26
ENDBRANCH   7  23
TORSDOF 8
ENDMDL
MODEL      208
REMARK 921   NORMALIZED FREE ENERGY PREDICTED BY IDOCK:   -4.74 KCAL/MOL
REMARK 922        TOTAL FREE ENERGY PREDICTED BY IDOCK:   -9.03 KCAL/MOL
REMARK 923 INTER-LIGAND FREE ENERGY PREDICTED BY IDOCK:   -6.65 KCAL/MOL
REMARK 924 INTRA-LIGAND FREE ENERGY PREDICTED BY IDOCK:   -2.38 KCAL/MOL
REMARK 927      BINDING AFFINITY PREDICTED BY RF-SCORE:    0.00 PKD
ROOT
HETATM    1 CU   UNL     1      -8.959  10.143  68.327  1.00  0.00    -0.112 Cu 
HETATM    2  O   UNL     2      -7.675   4.344  69.197  1.00  0.00    -0.055 OA 
HETATM    3  C   UNL     2      -7.811   5.100  70.409  1.00  0.00    -0.075 C  
HETATM    4  H   UNL     2      -7.276   3.514  69.430  1.00  0.00     0.000 HD 
HETATM    5  O   UNL     3      -7.859  17.293  69.357  1.00  0.00    -0.009 OA 
HETATM    6  H   UNL     3      -7.052  17.158  69.841  1.00  0.00     0.000 HD 
HETATM    7  C   UNL     3      -8.176  16.078  68.647  1.00  0.00    -0.193 C  
ENDROOT
BRANCH   3   8
HETATM    8  C   UNL     2      -8.453   6.434  70.037  1.00  0.00    -0.135 C  
HETATM    9  O   UNL     2      -7.645   7.101  69.048  1.00  0.00    -0.096 OA 
HETATM   10  H   UNL     2      -8.044   7.932  68.816  1.00  0.00     0.000 HD 
BRANCH   8  11
HETATM   11  C   UNL     2      -9.906   6.266  69.545  1.00  0.00    -0.154 C  
HETATM   12  O   UNL     2     -10.555   5.370  70.450  1.00  0.00    -0.280 OA 
HETATM   13  H   UNL     2     -11.449   5.266  70.148  1.00  0.00     0.000 HD 
BRANCH  11  14
HETATM   14  C   UNL     2     -10.589   7.648  69.539  1.00  0.00    -0.227 C  
HETATM   15  H   UNL     2     -10.526   9.254  68.383  1.00  0.00     0.000 HD 
HETATM   16  O   UNL     2     -10.105   8.402  68.388  1.00  0.00    -0.186 OA 
BRANCH  14  17
HETATM   17  C   UNL     2     -10.497   8.477  70.820  1.00  0.00    -0.200 C  
HETATM   18  C   UNL     2     -11.919   8.693  71.399  1.00  0.00    -0.304 C  
HETATM   19  H   UNL     2      -9.704  10.195  71.364  1.00  0.00     0.000 HD 
HETATM   20  O   UNL     2      -9.761   9.680  70.567  1.00  0.00    -0.259 OA 
HETATM   21  O   UNL     2     -12.564   7.597  71.456  1.00  0.00    -0.322 OA 
HETATM   22  O   UNL     2     -12.198   9.858  71.746  1.00  0.00    -0.389 OA 
ENDBRANCH  14  17
ENDBRANCH  11  14
ENDBRANCH   8  11
ENDBRANCH   3   8
BRANCH   7  23
HETATM   23  C   UNL     3      -9.478  16.295  67.866  1.00  0.00    -0.218 C  
HETATM   24  O   UNL     3      -9.291  17.421  66.984  1.00  0.00    -0.248 OA 
HETATM   25  H   UNL     3     -10.098  17.555  66.500  1.00  0.00     0.000 HD 
BRANCH  23  26
HETATM   26  C   UNL     3      -9.937  15.145  66.949  1.00  0.00    -0.239 C  
HETATM   27  O   UNL     3      -8.834  14.340  66.524  1.00  0.00    -0.430 OA 
HETATM   28  H   UNL     3      -9.118  13.631  65.958  1.00  0.00     0.000 HD 
BRANCH  26  29
HETATM   29  C   UNL     3     -11.068  14.215  67.440  1.00  0.00    -0.306 C  
HETATM   30  O   UNL     3     -11.896  14.836  68.437  1.00  0.00    -0.383 OA 
HETATM   31  H   UNL     3     -12.592  14.263  68.739  1.00  0.00     0.000 HD 
BRANCH  29  32
HETATM   32  C   UNL     3     -10.657  12.843  67.964  1.00  0.00    -0.227 C  
HETATM   33  C   UNL     3     -11.794  12.058  68.642  1.00  0.00    -0.311 C  
HETATM   34  O   UNL     3      -9.581  13.018  68.983  1.00  0.00    -0.387 OA 
HETATM   35  O   UNL     3     -11.811  12.241  69.929  1.00  0.00    -0.321 OA 
HETATM   36  O   UNL     3     -12.283  11.104  68.006  1.00  0.00    -0.584 OA 
HETATM   37  H   UNL     3      -9.325  12.164  69.309  1.00  0.00     0.000 HD 
ENDBRANCH  29  32
ENDBRANCH  26  29
ENDBRANCH  23  26
ENDBRANCH   7  23
TORSDOF 8
ENDMDL
MODEL      209
REMARK 921   NORMALIZED FREE ENERGY PREDICTED BY IDOCK:   -4.74 KCAL/MOL
REMARK 922        TOTAL FREE ENERGY PREDICTED BY IDOCK:   -9.03 KCAL/MOL
REMARK 923 INTER-LIGAND FREE ENERGY PREDICTED BY IDOCK:   -8.22 KCAL/MOL
REMARK 924 INTRA-LIGAND FREE ENERGY PREDICTED BY IDOCK:   -0.81 KCAL/MOL
REMARK 927      BINDING AFFINITY PREDICTED BY RF-SCORE:    0.00 PKD
ROOT
HETATM    1 CU   UNL     1     -10.728  11.541  67.049  1.00  0.00    -0.198 Cu 
HETATM    2  O   UNL     2     -11.473  16.494  63.740  1.00  0.00    -1.615 OA 
HETATM    3  C   UNL     2     -11.176  16.753  65.119  1.00  0.00     0.076 C  
HETATM    4  H   UNL     2     -11.773  17.312  63.361  1.00  0.00     0.000 HD 
HETATM    5  O   UNL     3     -12.076   7.309  72.851  1.00  0.00    -0.519 OA 
HETATM    6  H   UNL     3     -12.776   7.869  73.169  1.00  0.00     0.000 HD 
HETATM    7  C   UNL     3     -11.813   7.644  71.473  1.00  0.00    -0.295 C  
ENDROOT
BRANCH   3   8
HETATM    8  C   UNL     2     -10.693  15.439  65.729  1.00  0.00    -0.351 C  
HETATM    9  O   UNL     2      -9.963  14.686  64.741  1.00  0.00    -0.465 OA 
HETATM   10  H   UNL     2      -9.664  13.868  65.120  1.00  0.00     0.000 HD 
BRANCH   8  11
HETATM   11  C   UNL     2      -9.844  15.660  66.997  1.00  0.00    -0.233 C  
HETATM   12  O   UNL     2      -8.808  14.676  66.987  1.00  0.00    -0.216 OA 
HETATM   13  H   UNL     2      -8.285  14.812  67.768  1.00  0.00     0.000 HD 
BRANCH  11  14
HETATM   14  C   UNL     2      -9.261  17.087  66.959  1.00  0.00    -0.236 C  
HETATM   15  H   UNL     2      -7.956  18.054  65.829  1.00  0.00     0.000 HD 
HETATM   16  O   UNL     2      -8.315  17.175  65.853  1.00  0.00    -0.527 OA 
BRANCH  14  17
HETATM   17  C   UNL     2      -8.650  17.626  68.253  1.00  0.00    -0.268 C  
HETATM   18  C   UNL     2      -8.525  19.169  68.163  1.00  0.00    -0.320 C  
HETATM   19  H   UNL     2      -7.045  17.273  69.337  1.00  0.00     0.000 HD 
HETATM   20  O   UNL     2      -7.425  16.938  68.533  1.00  0.00    -0.195 OA 
HETATM   21  O   UNL     2      -9.614  19.696  67.767  1.00  0.00    -0.325 OA 
HETATM   22  O   UNL     2      -7.431  19.651  68.515  1.00  0.00    -0.320 OA 
ENDBRANCH  14  17
ENDBRANCH  11  14
ENDBRANCH   8  11
ENDBRANCH   3   8
BRANCH   7  23
HETATM   23  C   UNL     3     -10.683   6.742  70.959  1.00  0.00    -0.231 C  
HETATM   24  O   UNL     3     -10.279   5.870  72.035  1.00  0.00    -0.190 OA 
HETATM   25  H   UNL     3      -9.580   5.311  71.717  1.00  0.00     0.000 HD 
BRANCH  23  26
HETATM   26  C   UNL     3     -11.027   5.797  69.791  1.00  0.00    -0.327 C  
HETATM   27  O   UNL     3     -11.720   6.484  68.746  1.00  0.00    -0.533 OA 
HETATM   28  H   UNL     3     -11.931   5.901  68.026  1.00  0.00     0.000 HD 
BRANCH  26  29
HETATM   29  C   UNL     3      -9.893   4.957  69.164  1.00  0.00    -0.193 C  
HETATM   30  O   UNL     3      -8.701   4.955  69.966  1.00  0.00    -0.091 OA 
HETATM   31  H   UNL     3      -8.003   4.438  69.580  1.00  0.00     0.000 HD 
BRANCH  29  32
HETATM   32  C   UNL     3      -9.491   5.296  67.732  1.00  0.00    -0.124 C  
HETATM   33  C   UNL     3     -10.183   4.435  66.661  1.00  0.00    -0.089 C  
HETATM   34  O   UNL     3      -8.021   5.082  67.581  1.00  0.00    -0.094 OA 
HETATM   35  O   UNL     3      -9.464   3.403  66.327  1.00  0.00    -0.173 OA 
HETATM   36  O   UNL     3     -11.085   4.976  65.993  1.00  0.00    -0.166 OA 
HETATM   37  H   UNL     3      -7.771   5.293  66.689  1.00  0.00     0.000 HD 
ENDBRANCH  29  32
ENDBRANCH  26  29
ENDBRANCH  23  26
ENDBRANCH   7  23
TORSDOF 8
ENDMDL
MODEL      210
REMARK 921   NORMALIZED FREE ENERGY PREDICTED BY IDOCK:   -4.73 KCAL/MOL
REMARK 922        TOTAL FREE ENERGY PREDICTED BY IDOCK:   -9.02 KCAL/MOL
REMARK 923 INTER-LIGAND FREE ENERGY PREDICTED BY IDOCK:   -7.75 KCAL/MOL
REMARK 924 INTRA-LIGAND FREE ENERGY PREDICTED BY IDOCK:   -1.27 KCAL/MOL
REMARK 927      BINDING AFFINITY PREDICTED BY RF-SCORE:    0.00 PKD
ROOT
HETATM    1 CU   UNL     1     -10.049  14.111  67.431  1.00  0.00    -0.219 Cu 
HETATM    2  O   UNL     2     -10.692  19.667  65.253  1.00  0.00    -0.390 OA 
HETATM    3  C   UNL     2     -10.600  19.608  66.684  1.00  0.00    -0.487 C  
HETATM    4  H   UNL     2     -10.995  20.540  65.029  1.00  0.00     0.000 HD 
HETATM    5  O   UNL     3     -11.859   8.593  71.865  1.00  0.00    -0.304 OA 
HETATM    6  H   UNL     3     -12.633   9.036  72.196  1.00  0.00     0.000 HD 
HETATM    7  C   UNL     3     -11.438   9.250  70.652  1.00  0.00    -0.274 C  
ENDROOT
BRANCH   3   8
HETATM    8  C   UNL     2     -10.112  18.207  67.044  1.00  0.00    -0.351 C  
HETATM    9  O   UNL     2      -9.319  17.678  65.964  1.00  0.00    -0.494 OA 
HETATM   10  H   UNL     2      -9.015  16.806  66.189  1.00  0.00     0.000 HD 
BRANCH   8  11
HETATM   11  C   UNL     2      -9.328  18.186  68.372  1.00  0.00    -0.309 C  
HETATM   12  O   UNL     2      -9.492  16.882  68.936  1.00  0.00    -0.259 OA 
HETATM   13  H   UNL     2      -9.009  16.868  69.753  1.00  0.00     0.000 HD 
BRANCH  11  14
HETATM   14  C   UNL     2      -7.845  18.486  68.076  1.00  0.00    -0.274 C  
HETATM   15  H   UNL     2      -6.195  17.412  67.880  1.00  0.00     0.000 HD 
HETATM   16  O   UNL     2      -7.108  17.228  68.063  1.00  0.00    -0.173 OA 
BRANCH  14  17
HETATM   17  C   UNL     2      -7.153  19.523  68.961  1.00  0.00    -0.364 C  
HETATM   18  C   UNL     2      -6.669  20.708  68.087  1.00  0.00    -0.256 C  
HETATM   19  H   UNL     2      -5.700  19.535  70.288  1.00  0.00     0.000 HD 
HETATM   20  O   UNL     2      -6.130  18.890  69.738  1.00  0.00    -0.260 OA 
HETATM   21  O   UNL     2      -7.595  21.121  67.318  1.00  0.00    -0.383 OA 
HETATM   22  O   UNL     2      -5.500  21.094  68.286  1.00  0.00    -0.305 OA 
ENDBRANCH  14  17
ENDBRANCH  11  14
ENDBRANCH   8  11
ENDBRANCH   3   8
BRANCH   7  23
HETATM   23  C   UNL     3     -10.190   8.536  70.119  1.00  0.00    -0.195 C  
HETATM   24  O   UNL     3     -10.292   7.137  70.457  1.00  0.00    -0.199 OA 
HETATM   25  H   UNL     3      -9.519   6.695  70.127  1.00  0.00     0.000 HD 
BRANCH  23  26
HETATM   26  C   UNL     3      -9.975   8.560  68.593  1.00  0.00    -0.184 C  
HETATM   27  O   UNL     3     -11.110   8.044  67.895  1.00  0.00    -0.470 OA 
HETATM   28  H   UNL     3     -10.978   8.059  66.954  1.00  0.00     0.000 HD 
BRANCH  26  29
HETATM   29  C   UNL     3      -9.546   9.887  67.930  1.00  0.00    -0.138 C  
HETATM   30  O   UNL     3      -9.185  10.892  68.891  1.00  0.00    -0.184 OA 
HETATM   31  H   UNL     3      -8.921  11.708  68.482  1.00  0.00     0.000 HD 
BRANCH  29  32
HETATM   32  C   UNL     3     -10.525  10.515  66.943  1.00  0.00    -0.246 C  
HETATM   33  C   UNL     3      -9.893  10.933  65.604  1.00  0.00    -0.241 C  
HETATM   34  O   UNL     3     -11.102  11.748  67.556  1.00  0.00    -0.239 OA 
HETATM   35  O   UNL     3      -9.522  12.180  65.609  1.00  0.00    -0.209 OA 
HETATM   36  O   UNL     3     -10.142  10.222  64.611  1.00  0.00    -0.345 OA 
HETATM   37  H   UNL     3     -11.712  12.140  66.942  1.00  0.00     0.000 HD 
ENDBRANCH  29  32
ENDBRANCH  26  29
ENDBRANCH  23  26
ENDBRANCH   7  23
TORSDOF 8
ENDMDL
MODEL      211
REMARK 921   NORMALIZED FREE ENERGY PREDICTED BY IDOCK:   -4.70 KCAL/MOL
REMARK 922        TOTAL FREE ENERGY PREDICTED BY IDOCK:   -8.97 KCAL/MOL
REMARK 923 INTER-LIGAND FREE ENERGY PREDICTED BY IDOCK:   -7.31 KCAL/MOL
REMARK 924 INTRA-LIGAND FREE ENERGY PREDICTED BY IDOCK:   -1.65 KCAL/MOL
REMARK 927      BINDING AFFINITY PREDICTED BY RF-SCORE:    0.00 PKD
ROOT
HETATM    1 CU   UNL     1     -11.470  11.427  66.899  1.00  0.00    -0.254 Cu 
HETATM    2  O   UNL     2     -11.852  16.423  63.593  1.00  0.00    -1.406 OA 
HETATM    3  C   UNL     2     -11.081  16.575  64.794  1.00  0.00    -0.186 C  
HETATM    4  H   UNL     2     -12.024  17.296  63.260  1.00  0.00     0.000 HD 
HETATM    5  O   UNL     3     -12.026   7.683  73.149  1.00  0.00    -0.596 OA 
HETATM    6  H   UNL     3     -12.414   8.412  73.619  1.00  0.00     0.000 HD 
HETATM    7  C   UNL     3     -12.126   7.944  71.734  1.00  0.00    -0.303 C  
ENDROOT
BRANCH   3   8
HETATM    8  C   UNL     2     -10.804  15.173  65.330  1.00  0.00    -0.400 C  
HETATM    9  O   UNL     2     -10.805  14.229  64.241  1.00  0.00    -0.602 OA 
HETATM   10  H   UNL     2     -10.633  13.356  64.574  1.00  0.00     0.000 HD 
BRANCH   8  11
HETATM   11  C   UNL     2      -9.484  15.101  66.125  1.00  0.00    -0.319 C  
HETATM   12  O   UNL     2      -9.481  16.204  67.035  1.00  0.00    -0.216 OA 
HETATM   13  H   UNL     2      -8.669  16.160  67.525  1.00  0.00     0.000 HD 
BRANCH  11  14
HETATM   14  C   UNL     2      -9.432  13.755  66.876  1.00  0.00    -0.262 C  
HETATM   15  H   UNL     2     -10.488  12.892  68.310  1.00  0.00     0.000 HD 
HETATM   16  O   UNL     2     -10.520  13.721  67.847  1.00  0.00    -0.239 OA 
BRANCH  14  17
HETATM   17  C   UNL     2      -8.102  13.368  67.522  1.00  0.00    -0.181 C  
HETATM   18  C   UNL     2      -7.999  11.823  67.609  1.00  0.00    -0.143 C  
HETATM   19  H   UNL     2      -7.126  13.811  69.173  1.00  0.00     0.000 HD 
HETATM   20  O   UNL     2      -7.953  14.052  68.772  1.00  0.00    -0.136 OA 
HETATM   21  O   UNL     2      -8.289  11.280  66.494  1.00  0.00    -0.162 OA 
HETATM   22  O   UNL     2      -7.625  11.359  68.704  1.00  0.00    -0.116 OA 
ENDBRANCH  14  17
ENDBRANCH  11  14
ENDBRANCH   8  11
ENDBRANCH   3   8
BRANCH   7  23
HETATM   23  C   UNL     3     -11.499   6.767  70.975  1.00  0.00    -0.324 C  
HETATM   24  O   UNL     3     -12.108   6.699  69.669  1.00  0.00    -0.615 OA 
HETATM   25  H   UNL     3     -11.719   5.969  69.199  1.00  0.00     0.000 HD 
BRANCH  23  26
HETATM   26  C   UNL     3      -9.984   6.845  70.702  1.00  0.00    -0.186 C  
HETATM   27  O   UNL     3      -9.329   7.720  71.624  1.00  0.00    -0.136 OA 
HETATM   28  H   UNL     3      -8.395   7.768  71.456  1.00  0.00     0.000 HD 
BRANCH  26  29
HETATM   29  C   UNL     3      -9.182   5.529  70.613  1.00  0.00    -0.150 C  
HETATM   30  O   UNL     3      -8.890   4.972  71.905  1.00  0.00    -0.127 OA 
HETATM   31  H   UNL     3      -8.396   4.162  71.849  1.00  0.00     0.000 HD 
BRANCH  29  32
HETATM   32  C   UNL     3      -7.882   5.563  69.816  1.00  0.00    -0.082 C  
HETATM   33  C   UNL     3      -7.112   4.231  69.802  1.00  0.00    -0.049 C  
HETATM   34  O   UNL     3      -6.974   6.585  70.418  1.00  0.00    -0.060 OA 
HETATM   35  O   UNL     3      -6.215   4.178  70.742  1.00  0.00    -0.017 OA 
HETATM   36  O   UNL     3      -7.144   3.568  68.747  1.00  0.00    -0.049 OA 
HETATM   37  H   UNL     3      -6.165   6.606  69.922  1.00  0.00     0.000 HD 
ENDBRANCH  29  32
ENDBRANCH  26  29
ENDBRANCH  23  26
ENDBRANCH   7  23
TORSDOF 8
ENDMDL
MODEL      212
REMARK 921   NORMALIZED FREE ENERGY PREDICTED BY IDOCK:   -4.68 KCAL/MOL
REMARK 922        TOTAL FREE ENERGY PREDICTED BY IDOCK:   -8.95 KCAL/MOL
REMARK 923 INTER-LIGAND FREE ENERGY PREDICTED BY IDOCK:   -7.76 KCAL/MOL
REMARK 924 INTRA-LIGAND FREE ENERGY PREDICTED BY IDOCK:   -1.19 KCAL/MOL
REMARK 927      BINDING AFFINITY PREDICTED BY RF-SCORE:    0.00 PKD
ROOT
HETATM    1 CU   UNL     1     -10.459   8.383  68.851  1.00  0.00    -0.187 Cu 
HETATM    2  O   UNL     2      -8.546   3.723  72.115  1.00  0.00    -0.092 OA 
HETATM    3  C   UNL     2      -7.490   4.531  71.577  1.00  0.00    -0.069 C  
HETATM    4  H   UNL     2      -8.150   2.918  72.428  1.00  0.00     0.000 HD 
HETATM    5  O   UNL     3     -10.544  12.541  62.843  1.00  0.00    -0.466 OA 
HETATM    6  H   UNL     3      -9.984  11.949  62.355  1.00  0.00     0.000 HD 
HETATM    7  C   UNL     3     -11.065  11.838  63.990  1.00  0.00    -0.390 C  
ENDROOT
BRANCH   3   8
HETATM    8  C   UNL     2      -8.126   5.825  71.076  1.00  0.00    -0.120 C  
HETATM    9  O   UNL     2      -9.128   5.521  70.087  1.00  0.00    -0.132 OA 
HETATM   10  H   UNL     2      -9.524   6.327  69.774  1.00  0.00     0.000 HD 
BRANCH   8  11
HETATM   11  C   UNL     2      -8.717   6.668  72.224  1.00  0.00    -0.132 C  
HETATM   12  O   UNL     2      -7.679   7.535  72.687  1.00  0.00    -0.088 OA 
HETATM   13  H   UNL     2      -8.042   8.054  73.394  1.00  0.00     0.000 HD 
BRANCH  11  14
HETATM   14  C   UNL     2      -9.916   7.472  71.681  1.00  0.00    -0.175 C  
HETATM   15  H   UNL     2     -10.404   9.386  71.570  1.00  0.00     0.000 HD 
HETATM   16  O   UNL     2      -9.666   8.891  71.905  1.00  0.00    -0.307 OA 
BRANCH  14  17
HETATM   17  C   UNL     2     -11.306   7.071  72.176  1.00  0.00    -0.265 C  
HETATM   18  C   UNL     2     -12.306   7.103  70.991  1.00  0.00    -0.334 C  
HETATM   19  H   UNL     2     -12.538   7.635  73.604  1.00  0.00     0.000 HD 
HETATM   20  O   UNL     2     -11.674   7.884  73.297  1.00  0.00    -0.201 OA 
HETATM   21  O   UNL     2     -11.842   6.481  69.982  1.00  0.00    -0.404 OA 
HETATM   22  O   UNL     2     -13.391   7.677  71.206  1.00  0.00    -0.302 OA 
ENDBRANCH  14  17
ENDBRANCH  11  14
ENDBRANCH   8  11
ENDBRANCH   3   8
BRANCH   7  23
HETATM   23  C   UNL     3     -11.969  12.795  64.779  1.00  0.00    -0.402 C  
HETATM   24  O   UNL     3     -13.338  12.388  64.578  1.00  0.00    -0.800 OA 
HETATM   25  H   UNL     3     -13.898  12.980  65.067  1.00  0.00     0.000 HD 
BRANCH  23  26
HETATM   26  C   UNL     3     -11.783  12.822  66.308  1.00  0.00    -0.402 C  
HETATM   27  O   UNL     3     -11.660  11.503  66.846  1.00  0.00    -0.503 OA 
HETATM   28  H   UNL     3     -11.546  11.520  67.789  1.00  0.00     0.000 HD 
BRANCH  26  29
HETATM   29  C   UNL     3     -10.662  13.705  66.900  1.00  0.00    -0.275 C  
HETATM   30  O   UNL     3      -9.350  13.206  66.595  1.00  0.00    -0.246 OA 
HETATM   31  H   UNL     3      -8.661  13.750  66.959  1.00  0.00     0.000 HD 
BRANCH  29  32
HETATM   32  C   UNL     3     -10.719  13.983  68.398  1.00  0.00    -0.251 C  
HETATM   33  C   UNL     3     -11.014  15.449  68.759  1.00  0.00    -0.264 C  
HETATM   34  O   UNL     3      -9.396  13.643  69.002  1.00  0.00    -0.396 OA 
HETATM   35  O   UNL     3      -9.923  16.132  68.951  1.00  0.00    -0.212 OA 
HETATM   36  O   UNL     3     -12.156  15.710  69.186  1.00  0.00    -0.344 OA 
HETATM   37  H   UNL     3      -9.431  13.816  69.935  1.00  0.00     0.000 HD 
ENDBRANCH  29  32
ENDBRANCH  26  29
ENDBRANCH  23  26
ENDBRANCH   7  23
TORSDOF 8
ENDMDL
MODEL      213
REMARK 921   NORMALIZED FREE ENERGY PREDICTED BY IDOCK:   -4.66 KCAL/MOL
REMARK 922        TOTAL FREE ENERGY PREDICTED BY IDOCK:   -8.92 KCAL/MOL
REMARK 923 INTER-LIGAND FREE ENERGY PREDICTED BY IDOCK:   -7.39 KCAL/MOL
REMARK 924 INTRA-LIGAND FREE ENERGY PREDICTED BY IDOCK:   -1.53 KCAL/MOL
REMARK 927      BINDING AFFINITY PREDICTED BY RF-SCORE:    0.00 PKD
ROOT
HETATM    1 CU   UNL     1     -10.981  14.138  70.127  1.00  0.00    -0.276 Cu 
HETATM    2  O   UNL     2     -10.386  20.044  69.235  1.00  0.00    -0.611 OA 
HETATM    3  C   UNL     2      -9.370  19.253  68.603  1.00  0.00    -0.392 C  
HETATM    4  H   UNL     2     -10.091  20.947  69.212  1.00  0.00     0.000 HD 
HETATM    5  O   UNL     3      -8.490   7.553  72.082  1.00  0.00    -0.106 OA 
HETATM    6  H   UNL     3      -7.660   7.895  72.394  1.00  0.00     0.000 HD 
HETATM    7  C   UNL     3      -9.421   8.648  71.961  1.00  0.00    -0.300 C  
ENDROOT
BRANCH   3   8
HETATM    8  C   UNL     2      -9.843  17.802  68.639  1.00  0.00    -0.359 C  
HETATM    9  O   UNL     2     -10.862  17.650  69.647  1.00  0.00    -0.235 OA 
HETATM   10  H   UNL     2     -11.156  16.747  69.670  1.00  0.00     0.000 HD 
BRANCH   8  11
HETATM   11  C   UNL     2     -10.345  17.317  67.264  1.00  0.00    -0.331 C  
HETATM   12  O   UNL     2      -9.799  18.200  66.281  1.00  0.00    -0.358 OA 
HETATM   13  H   UNL     2     -10.108  17.902  65.434  1.00  0.00     0.000 HD 
BRANCH  11  14
HETATM   14  C   UNL     2      -9.863  15.869  67.045  1.00  0.00    -0.232 C  
HETATM   15  H   UNL     2     -10.728  14.094  66.906  1.00  0.00     0.000 HD 
HETATM   16  O   UNL     2     -11.025  14.986  67.041  1.00  0.00    -0.307 OA 
BRANCH  14  17
HETATM   17  C   UNL     2      -8.775  15.346  67.983  1.00  0.00    -0.160 C  
HETATM   18  C   UNL     2      -7.424  15.286  67.225  1.00  0.00    -0.202 C  
HETATM   19  H   UNL     2      -8.517  13.782  69.149  1.00  0.00     0.000 HD 
HETATM   20  O   UNL     2      -9.193  14.107  68.566  1.00  0.00    -0.200 OA 
HETATM   21  O   UNL     2      -7.192  16.377  66.611  1.00  0.00    -0.219 OA 
HETATM   22  O   UNL     2      -6.769  14.234  67.354  1.00  0.00    -0.259 OA 
ENDBRANCH  14  17
ENDBRANCH  11  14
ENDBRANCH   8  11
ENDBRANCH   3   8
BRANCH   7  23
HETATM   23  C   UNL     3     -10.761   8.096  71.458  1.00  0.00    -0.233 C  
HETATM   24  O   UNL     3     -11.605   7.850  72.602  1.00  0.00    -0.393 OA 
HETATM   25  H   UNL     3     -12.435   7.508  72.290  1.00  0.00     0.000 HD 
BRANCH  23  26
HETATM   26  C   UNL     3     -11.592   9.017  70.543  1.00  0.00    -0.175 C  
HETATM   27  O   UNL     3     -12.283  10.018  71.294  1.00  0.00    -0.342 OA 
HETATM   28  H   UNL     3     -12.795  10.586  70.730  1.00  0.00     0.000 HD 
BRANCH  26  29
HETATM   29  C   UNL     3     -10.891   9.692  69.344  1.00  0.00    -0.217 C  
HETATM   30  O   UNL     3     -11.786  10.509  68.571  1.00  0.00    -0.682 OA 
HETATM   31  H   UNL     3     -11.355  10.924  67.834  1.00  0.00     0.000 HD 
BRANCH  29  32
HETATM   32  C   UNL     3     -10.140   8.782  68.379  1.00  0.00    -0.190 C  
HETATM   33  C   UNL     3      -8.608   8.913  68.447  1.00  0.00    -0.134 C  
HETATM   34  O   UNL     3     -10.544   9.121  66.982  1.00  0.00    -0.253 OA 
HETATM   35  O   UNL     3      -8.153   9.760  67.571  1.00  0.00    -0.112 OA 
HETATM   36  O   UNL     3      -7.983   7.988  69.002  1.00  0.00    -0.110 OA 
HETATM   37  H   UNL     3     -10.076   8.554  66.381  1.00  0.00     0.000 HD 
ENDBRANCH  29  32
ENDBRANCH  26  29
ENDBRANCH  23  26
ENDBRANCH   7  23
TORSDOF 8
ENDMDL
MODEL      214
REMARK 921   NORMALIZED FREE ENERGY PREDICTED BY IDOCK:   -4.65 KCAL/MOL
REMARK 922        TOTAL FREE ENERGY PREDICTED BY IDOCK:   -8.90 KCAL/MOL
REMARK 923 INTER-LIGAND FREE ENERGY PREDICTED BY IDOCK:   -7.34 KCAL/MOL
REMARK 924 INTRA-LIGAND FREE ENERGY PREDICTED BY IDOCK:   -1.56 KCAL/MOL
REMARK 927      BINDING AFFINITY PREDICTED BY RF-SCORE:    0.00 PKD
ROOT
HETATM    1 CU   UNL     1      -8.791  13.741  65.589  1.00  0.00    -0.431 Cu 
HETATM    2  O   UNL     2      -8.372   7.898  64.274  1.00  0.00    -0.334 OA 
HETATM    3  C   UNL     2      -7.918   8.234  65.593  1.00  0.00    -0.113 C  
HETATM    4  H   UNL     2      -8.076   7.014  64.094  1.00  0.00     0.000 HD 
HETATM    5  O   UNL     3      -6.095  20.099  67.975  1.00  0.00    -0.221 OA 
HETATM    6  H   UNL     3      -5.208  19.765  68.039  1.00  0.00     0.000 HD 
HETATM    7  C   UNL     3      -6.866  19.198  67.154  1.00  0.00    -0.198 C  
ENDROOT
BRANCH   3   8
HETATM    8  C   UNL     2      -8.394   9.655  65.884  1.00  0.00    -0.120 C  
HETATM    9  O   UNL     2      -8.116  10.500  64.751  1.00  0.00    -0.249 OA 
HETATM   10  H   UNL     2      -8.412  11.385  64.932  1.00  0.00     0.000 HD 
BRANCH   8  11
HETATM   11  C   UNL     2      -9.889   9.705  66.260  1.00  0.00    -0.256 C  
HETATM   12  O   UNL     2     -10.400   8.376  66.129  1.00  0.00    -0.387 OA 
HETATM   13  H   UNL     2     -11.321   8.406  66.360  1.00  0.00     0.000 HD 
BRANCH  11  14
HETATM   14  C   UNL     2     -10.017  10.213  67.710  1.00  0.00    -0.168 C  
HETATM   15  H   UNL     2      -8.771  10.901  69.085  1.00  0.00     0.000 HD 
HETATM   16  O   UNL     2      -8.692  10.587  68.192  1.00  0.00    -0.125 OA 
BRANCH  14  17
HETATM   17  C   UNL     2     -10.732   9.302  68.708  1.00  0.00    -0.154 C  
HETATM   18  C   UNL     2     -11.227  10.143  69.913  1.00  0.00    -0.287 C  
HETATM   19  H   UNL     2     -10.327   7.634  69.672  1.00  0.00     0.000 HD 
HETATM   20  O   UNL     2      -9.883   8.200  69.051  1.00  0.00    -0.168 OA 
HETATM   21  O   UNL     2     -11.847  11.184  69.524  1.00  0.00    -0.295 OA 
HETATM   22  O   UNL     2     -10.988   9.674  71.044  1.00  0.00    -0.315 OA 
ENDBRANCH  14  17
ENDBRANCH  11  14
ENDBRANCH   8  11
ENDBRANCH   3   8
BRANCH   7  23
HETATM   23  C   UNL     3      -8.299  19.736  67.050  1.00  0.00    -0.309 C  
HETATM   24  O   UNL     3      -8.553  20.078  65.672  1.00  0.00    -0.475 OA 
HETATM   25  H   UNL     3      -9.440  20.411  65.608  1.00  0.00     0.000 HD 
BRANCH  23  26
HETATM   26  C   UNL     3      -9.434  18.767  67.434  1.00  0.00    -0.297 C  
HETATM   27  O   UNL     3     -10.717  19.385  67.306  1.00  0.00    -0.459 OA 
HETATM   28  H   UNL     3     -11.417  18.787  67.543  1.00  0.00     0.000 HD 
BRANCH  26  29
HETATM   29  C   UNL     3      -9.481  17.381  66.756  1.00  0.00    -0.273 C  
HETATM   30  O   UNL     3      -8.525  17.256  65.691  1.00  0.00    -0.475 OA 
HETATM   31  H   UNL     3      -8.554  16.402  65.274  1.00  0.00     0.000 HD 
BRANCH  29  32
HETATM   32  C   UNL     3     -10.833  16.916  66.226  1.00  0.00     0.026 C  
HETATM   33  C   UNL     3     -10.826  15.495  65.634  1.00  0.00    -0.346 C  
HETATM   34  O   UNL     3     -11.267  17.840  65.136  1.00  0.00    -0.375 OA 
HETATM   35  O   UNL     3     -10.633  15.505  64.347  1.00  0.00    -0.194 OA 
HETATM   36  O   UNL     3     -11.357  14.595  66.312  1.00  0.00    -0.340 OA 
HETATM   37  H   UNL     3     -12.109  17.550  64.805  1.00  0.00     0.000 HD 
ENDBRANCH  29  32
ENDBRANCH  26  29
ENDBRANCH  23  26
ENDBRANCH   7  23
TORSDOF 8
ENDMDL
MODEL      215
REMARK 921   NORMALIZED FREE ENERGY PREDICTED BY IDOCK:   -4.64 KCAL/MOL
REMARK 922        TOTAL FREE ENERGY PREDICTED BY IDOCK:   -8.89 KCAL/MOL
REMARK 923 INTER-LIGAND FREE ENERGY PREDICTED BY IDOCK:   -7.45 KCAL/MOL
REMARK 924 INTRA-LIGAND FREE ENERGY PREDICTED BY IDOCK:   -1.45 KCAL/MOL
REMARK 927      BINDING AFFINITY PREDICTED BY RF-SCORE:    0.00 PKD
ROOT
HETATM    1 CU   UNL     1      -9.001  13.618  68.979  1.00  0.00    -0.228 Cu 
HETATM    2  O   UNL     2      -9.433   7.829  70.508  1.00  0.00    -0.163 OA 
HETATM    3  C   UNL     2     -10.696   8.464  70.262  1.00  0.00    -0.234 C  
HETATM    4  H   UNL     2      -9.615   7.001  70.936  1.00  0.00     0.000 HD 
HETATM    5  O   UNL     3     -10.729  20.686  69.643  1.00  0.00    -0.379 OA 
HETATM    6  H   UNL     3     -11.250  20.545  70.426  1.00  0.00     0.000 HD 
HETATM    7  C   UNL     3      -9.896  19.528  69.432  1.00  0.00    -0.176 C  
ENDROOT
BRANCH   3   8
HETATM    8  C   UNL     2     -10.403   9.795  69.575  1.00  0.00    -0.230 C  
HETATM    9  O   UNL     2      -9.164   9.701  68.846  1.00  0.00    -0.140 OA 
HETATM   10  H   UNL     2      -8.981  10.530  68.418  1.00  0.00     0.000 HD 
BRANCH   8  11
HETATM   11  C   UNL     2     -11.556  10.243  68.654  1.00  0.00    -0.025 C  
HETATM   12  O   UNL     2     -12.705  10.437  69.483  1.00  0.00    -0.663 OA 
HETATM   13  H   UNL     2     -13.416  10.713  68.917  1.00  0.00     0.000 HD 
BRANCH  11  14
HETATM   14  C   UNL     2     -11.147  11.553  67.950  1.00  0.00    -0.256 C  
HETATM   15  H   UNL     2      -9.467  12.575  67.727  1.00  0.00     0.000 HD 
HETATM   16  O   UNL     2      -9.720  11.768  68.160  1.00  0.00    -0.180 OA 
BRANCH  14  17
HETATM   17  C   UNL     2     -11.951  12.808  68.289  1.00  0.00    -0.229 C  
HETATM   18  C   UNL     2     -11.965  13.759  67.065  1.00  0.00    -0.413 C  
HETATM   19  H   UNL     2     -11.952  14.171  69.709  1.00  0.00     0.000 HD 
HETATM   20  O   UNL     2     -11.452  13.390  69.499  1.00  0.00    -0.271 OA 
HETATM   21  O   UNL     2     -12.277  13.135  66.001  1.00  0.00    -0.426 OA 
HETATM   22  O   UNL     2     -11.717  14.958  67.300  1.00  0.00    -0.362 OA 
ENDBRANCH  14  17
ENDBRANCH  11  14
ENDBRANCH   8  11
ENDBRANCH   3   8
BRANCH   7  23
HETATM   23  C   UNL     3      -9.056  19.755  68.168  1.00  0.00    -0.314 C  
HETATM   24  O   UNL     3      -7.663  19.712  68.541  1.00  0.00    -0.336 OA 
HETATM   25  H   UNL     3      -7.143  19.853  67.758  1.00  0.00     0.000 HD 
BRANCH  23  26
HETATM   26  C   UNL     3      -9.198  18.712  67.043  1.00  0.00    -0.291 C  
HETATM   27  O   UNL     3      -9.436  19.333  65.778  1.00  0.00    -0.391 OA 
HETATM   28  H   UNL     3      -9.523  18.689  65.084  1.00  0.00     0.000 HD 
BRANCH  26  29
HETATM   29  C   UNL     3      -8.087  17.653  66.875  1.00  0.00    -0.224 C  
HETATM   30  O   UNL     3      -7.682  17.493  65.506  1.00  0.00    -0.383 OA 
HETATM   31  H   UNL     3      -6.998  16.841  65.403  1.00  0.00     0.000 HD 
BRANCH  29  32
HETATM   32  C   UNL     3      -8.362  16.265  67.445  1.00  0.00    -0.169 C  
HETATM   33  C   UNL     3      -7.153  15.616  68.140  1.00  0.00    -0.118 C  
HETATM   34  O   UNL     3      -8.763  15.357  66.330  1.00  0.00    -0.376 OA 
HETATM   35  O   UNL     3      -6.480  14.851  67.332  1.00  0.00    -0.295 OA 
HETATM   36  O   UNL     3      -7.171  15.571  69.386  1.00  0.00    -0.175 OA 
HETATM   37  H   UNL     3      -8.934  14.492  66.684  1.00  0.00     0.000 HD 
ENDBRANCH  29  32
ENDBRANCH  26  29
ENDBRANCH  23  26
ENDBRANCH   7  23
TORSDOF 8
ENDMDL
MODEL      216
REMARK 921   NORMALIZED FREE ENERGY PREDICTED BY IDOCK:   -4.64 KCAL/MOL
REMARK 922        TOTAL FREE ENERGY PREDICTED BY IDOCK:   -8.89 KCAL/MOL
REMARK 923 INTER-LIGAND FREE ENERGY PREDICTED BY IDOCK:   -8.26 KCAL/MOL
REMARK 924 INTRA-LIGAND FREE ENERGY PREDICTED BY IDOCK:   -0.63 KCAL/MOL
REMARK 927      BINDING AFFINITY PREDICTED BY RF-SCORE:    0.00 PKD
ROOT
HETATM    1 CU   UNL     1      -8.945   7.911  67.934  1.00  0.00    -0.123 Cu 
HETATM    2  O   UNL     2      -7.279   2.771  70.550  1.00  0.00    -0.033 OA 
HETATM    3  C   UNL     2      -7.162   2.763  69.120  1.00  0.00    -0.044 C  
HETATM    4  H   UNL     2      -7.196   1.870  70.842  1.00  0.00     0.000 HD 
HETATM    5  O   UNL     3     -12.724  11.820  63.053  1.00  0.00    -0.852 OA 
HETATM    6  H   UNL     3     -13.225  11.069  62.754  1.00  0.00     0.000 HD 
HETATM    7  C   UNL     3     -12.117  11.489  64.318  1.00  0.00     0.109 C  
ENDROOT
BRANCH   3   8
HETATM    8  C   UNL     2      -7.294   4.210  68.651  1.00  0.00    -0.055 C  
HETATM    9  O   UNL     2      -6.618   4.374  67.389  1.00  0.00    -0.044 OA 
HETATM   10  H   UNL     2      -6.700   5.274  67.098  1.00  0.00     0.000 HD 
BRANCH   8  11
HETATM   11  C   UNL     2      -8.766   4.660  68.554  1.00  0.00    -0.098 C  
HETATM   12  O   UNL     2      -9.576   3.515  68.834  1.00  0.00    -0.165 OA 
HETATM   13  H   UNL     2     -10.482   3.792  68.775  1.00  0.00     0.000 HD 
BRANCH  11  14
HETATM   14  C   UNL     2      -9.009   5.782  69.584  1.00  0.00    -0.128 C  
HETATM   15  H   UNL     2      -8.081   6.444  71.201  1.00  0.00     0.000 HD 
HETATM   16  O   UNL     2      -7.932   5.753  70.567  1.00  0.00    -0.101 OA 
BRANCH  14  17
HETATM   17  C   UNL     2     -10.377   5.821  70.264  1.00  0.00    -0.252 C  
HETATM   18  C   UNL     2     -10.697   7.274  70.699  1.00  0.00    -0.235 C  
HETATM   19  H   UNL     2     -11.272   4.878  71.742  1.00  0.00     0.000 HD 
HETATM   20  O   UNL     2     -10.421   4.853  71.319  1.00  0.00    -0.185 OA 
HETATM   21  O   UNL     2     -10.494   8.095  69.747  1.00  0.00    -0.220 OA 
HETATM   22  O   UNL     2     -11.128   7.416  71.861  1.00  0.00    -0.233 OA 
ENDBRANCH  14  17
ENDBRANCH  11  14
ENDBRANCH   8  11
ENDBRANCH   3   8
BRANCH   7  23
HETATM   23  C   UNL     3     -11.308  12.700  64.802  1.00  0.00    -0.312 C  
HETATM   24  O   UNL     3      -9.909  12.350  64.764  1.00  0.00    -0.433 OA 
HETATM   25  H   UNL     3      -9.407  13.100  65.064  1.00  0.00     0.000 HD 
BRANCH  23  26
HETATM   26  C   UNL     3     -11.417  13.987  63.963  1.00  0.00    -0.096 C  
HETATM   27  O   UNL     3     -12.531  13.938  63.068  1.00  0.00    -1.099 OA 
HETATM   28  H   UNL     3     -12.598  14.732  62.550  1.00  0.00     0.000 HD 
BRANCH  26  29
HETATM   29  C   UNL     3     -11.430  15.347  64.695  1.00  0.00    -0.337 C  
HETATM   30  O   UNL     3     -11.587  16.456  63.796  1.00  0.00    -1.605 OA 
HETATM   31  H   UNL     3     -11.595  17.292  64.247  1.00  0.00     0.000 HD 
BRANCH  29  32
HETATM   32  C   UNL     3     -10.249  15.651  65.610  1.00  0.00    -0.375 C  
HETATM   33  C   UNL     3     -10.533  15.426  67.106  1.00  0.00    -0.290 C  
HETATM   34  O   UNL     3      -9.873  17.087  65.450  1.00  0.00    -0.531 OA 
HETATM   35  O   UNL     3     -10.920  16.517  67.698  1.00  0.00    -0.301 OA 
HETATM   36  O   UNL     3     -10.025  14.417  67.634  1.00  0.00    -0.222 OA 
HETATM   37  H   UNL     3      -9.137  17.277  66.020  1.00  0.00     0.000 HD 
ENDBRANCH  29  32
ENDBRANCH  26  29
ENDBRANCH  23  26
ENDBRANCH   7  23
TORSDOF 8
ENDMDL
MODEL      217
REMARK 921   NORMALIZED FREE ENERGY PREDICTED BY IDOCK:   -4.64 KCAL/MOL
REMARK 922        TOTAL FREE ENERGY PREDICTED BY IDOCK:   -8.89 KCAL/MOL
REMARK 923 INTER-LIGAND FREE ENERGY PREDICTED BY IDOCK:   -7.89 KCAL/MOL
REMARK 924 INTRA-LIGAND FREE ENERGY PREDICTED BY IDOCK:   -0.99 KCAL/MOL
REMARK 927      BINDING AFFINITY PREDICTED BY RF-SCORE:    0.00 PKD
ROOT
HETATM    1 CU   UNL     1      -7.908  10.379  68.504  1.00  0.00    -0.085 Cu 
HETATM    2  O   UNL     2      -6.726   5.239  71.371  1.00  0.00    -0.044 OA 
HETATM    3  C   UNL     2      -7.807   5.991  71.942  1.00  0.00    -0.106 C  
HETATM    4  H   UNL     2      -6.487   4.570  72.003  1.00  0.00     0.000 HD 
HETATM    5  O   UNL     3      -9.045  17.591  68.247  1.00  0.00    -0.258 OA 
HETATM    6  H   UNL     3      -8.822  17.718  69.162  1.00  0.00     0.000 HD 
HETATM    7  C   UNL     3      -8.558  16.300  67.831  1.00  0.00    -0.173 C  
ENDROOT
BRANCH   3   8
HETATM    8  C   UNL     2      -8.191   7.065  70.928  1.00  0.00    -0.121 C  
HETATM    9  O   UNL     2      -7.015   7.506  70.221  1.00  0.00    -0.053 OA 
HETATM   10  H   UNL     2      -7.255   8.175  69.589  1.00  0.00     0.000 HD 
BRANCH   8  11
HETATM   11  C   UNL     2      -9.279   6.580  69.948  1.00  0.00    -0.149 C  
HETATM   12  O   UNL     2     -10.482   6.414  70.703  1.00  0.00    -0.205 OA 
HETATM   13  H   UNL     2     -11.152   6.116  70.101  1.00  0.00     0.000 HD 
BRANCH  11  14
HETATM   14  C   UNL     2      -9.456   7.640  68.842  1.00  0.00    -0.149 C  
HETATM   15  H   UNL     2      -8.244   8.724  67.713  1.00  0.00     0.000 HD 
HETATM   16  O   UNL     2      -8.136   8.071  68.395  1.00  0.00    -0.119 OA 
BRANCH  14  17
HETATM   17  C   UNL     2     -10.351   8.838  69.159  1.00  0.00    -0.217 C  
HETATM   18  C   UNL     2     -10.554   9.686  67.877  1.00  0.00    -0.255 C  
HETATM   19  H   UNL     2     -10.375  10.301  70.476  1.00  0.00     0.000 HD 
HETATM   20  O   UNL     2      -9.819   9.556  70.279  1.00  0.00    -0.228 OA 
HETATM   21  O   UNL     2     -10.885   8.955  66.890  1.00  0.00    -0.162 OA 
HETATM   22  O   UNL     2     -10.407  10.918  68.006  1.00  0.00    -0.174 OA 
ENDBRANCH  14  17
ENDBRANCH  11  14
ENDBRANCH   8  11
ENDBRANCH   3   8
BRANCH   7  23
HETATM   23  C   UNL     3      -8.919  16.095  66.353  1.00  0.00    -0.318 C  
HETATM   24  O   UNL     3      -8.744  14.699  66.037  1.00  0.00    -0.398 OA 
HETATM   25  H   UNL     3      -8.968  14.572  65.121  1.00  0.00     0.000 HD 
BRANCH  23  26
HETATM   26  C   UNL     3     -10.369  16.416  65.943  1.00  0.00    -0.362 C  
HETATM   27  O   UNL     3     -10.530  17.799  65.621  1.00  0.00    -0.613 OA 
HETATM   28  H   UNL     3     -11.424  17.997  65.367  1.00  0.00     0.000 HD 
BRANCH  26  29
HETATM   29  C   UNL     3     -11.026  15.569  64.830  1.00  0.00    -0.436 C  
HETATM   30  O   UNL     3     -11.361  16.347  63.670  1.00  0.00    -1.339 OA 
HETATM   31  H   UNL     3     -11.765  15.826  62.986  1.00  0.00     0.000 HD 
BRANCH  29  32
HETATM   32  C   UNL     3     -12.255  14.754  65.216  1.00  0.00    -0.158 C  
HETATM   33  C   UNL     3     -11.952  13.530  66.098  1.00  0.00    -0.412 C  
HETATM   34  O   UNL     3     -12.905  14.244  63.972  1.00  0.00    -0.605 OA 
HETATM   35  O   UNL     3     -11.794  12.448  65.393  1.00  0.00    -0.387 OA 
HETATM   36  O   UNL     3     -12.258  13.609  67.304  1.00  0.00    -0.366 OA 
HETATM   37  H   UNL     3     -13.671  13.735  64.212  1.00  0.00     0.000 HD 
ENDBRANCH  29  32
ENDBRANCH  26  29
ENDBRANCH  23  26
ENDBRANCH   7  23
TORSDOF 8
ENDMDL
MODEL      218
REMARK 921   NORMALIZED FREE ENERGY PREDICTED BY IDOCK:   -4.64 KCAL/MOL
REMARK 922        TOTAL FREE ENERGY PREDICTED BY IDOCK:   -8.88 KCAL/MOL
REMARK 923 INTER-LIGAND FREE ENERGY PREDICTED BY IDOCK:   -6.87 KCAL/MOL
REMARK 924 INTRA-LIGAND FREE ENERGY PREDICTED BY IDOCK:   -2.01 KCAL/MOL
REMARK 927      BINDING AFFINITY PREDICTED BY RF-SCORE:    0.00 PKD
ROOT
HETATM    1 CU   UNL     1     -10.336  11.071  68.618  1.00  0.00    -0.152 Cu 
HETATM    2  O   UNL     2     -10.582  17.069  68.555  1.00  0.00    -0.338 OA 
HETATM    3  C   UNL     2     -11.750  16.431  68.018  1.00  0.00     0.219 C  
HETATM    4  H   UNL     2     -10.629  17.986  68.312  1.00  0.00     0.000 HD 
HETATM    5  O   UNL     3     -10.875   4.488  65.495  1.00  0.00    -0.615 OA 
HETATM    6  H   UNL     3     -10.992   4.847  64.622  1.00  0.00     0.000 HD 
HETATM    7  C   UNL     3     -10.347   5.523  66.349  1.00  0.00    -0.219 C  
ENDROOT
BRANCH   3   8
HETATM    8  C   UNL     2     -11.675  14.957  68.408  1.00  0.00    -0.309 C  
HETATM    9  O   UNL     2     -12.756  14.638  69.307  1.00  0.00    -0.554 OA 
HETATM   10  H   UNL     2     -12.709  13.721  69.550  1.00  0.00     0.000 HD 
BRANCH   8  11
HETATM   11  C   UNL     2     -11.682  14.026  67.179  1.00  0.00    -0.393 C  
HETATM   12  O   UNL     2     -12.756  14.451  66.336  1.00  0.00    -0.486 OA 
HETATM   13  H   UNL     2     -12.761  13.878  65.578  1.00  0.00     0.000 HD 
BRANCH  11  14
HETATM   14  C   UNL     2     -10.324  14.147  66.459  1.00  0.00    -0.284 C  
HETATM   15  H   UNL     2      -9.676  14.987  64.788  1.00  0.00     0.000 HD 
HETATM   16  O   UNL     2     -10.513  14.912  65.232  1.00  0.00    -0.345 OA 
BRANCH  14  17
HETATM   17  C   UNL     2      -9.559  12.850  66.190  1.00  0.00    -0.210 C  
HETATM   18  C   UNL     2     -10.542  11.768  65.676  1.00  0.00    -0.268 C  
HETATM   19  H   UNL     2      -8.335  11.674  67.187  1.00  0.00     0.000 HD 
HETATM   20  O   UNL     2      -8.810  12.480  67.354  1.00  0.00    -0.170 OA 
HETATM   21  O   UNL     2     -11.274  12.219  64.738  1.00  0.00    -0.301 OA 
HETATM   22  O   UNL     2     -10.447  10.644  66.208  1.00  0.00    -0.243 OA 
ENDBRANCH  14  17
ENDBRANCH  11  14
ENDBRANCH   8  11
ENDBRANCH   3   8
BRANCH   7  23
HETATM   23  C   UNL     3     -10.158   4.943  67.757  1.00  0.00    -0.099 C  
HETATM   24  O   UNL     3      -8.814   4.428  67.855  1.00  0.00    -0.103 OA 
HETATM   25  H   UNL     3      -8.698   4.068  68.728  1.00  0.00     0.000 HD 
BRANCH  23  26
HETATM   26  C   UNL     3     -10.292   5.926  68.936  1.00  0.00    -0.228 C  
HETATM   27  O   UNL     3     -10.662   5.253  70.142  1.00  0.00    -0.276 OA 
HETATM   28  H   UNL     3     -10.745   5.860  70.869  1.00  0.00     0.000 HD 
BRANCH  26  29
HETATM   29  C   UNL     3      -9.115   6.878  69.241  1.00  0.00    -0.140 C  
HETATM   30  O   UNL     3      -8.653   6.766  70.597  1.00  0.00    -0.139 OA 
HETATM   31  H   UNL     3      -7.929   7.352  70.784  1.00  0.00     0.000 HD 
BRANCH  29  32
HETATM   32  C   UNL     3      -9.326   8.358  68.941  1.00  0.00    -0.147 C  
HETATM   33  C   UNL     3      -9.179   9.279  70.165  1.00  0.00    -0.225 C  
HETATM   34  O   UNL     3     -10.710   8.550  68.415  1.00  0.00    -0.394 OA 
HETATM   35  O   UNL     3     -10.323   9.513  70.738  1.00  0.00    -0.277 OA 
HETATM   36  O   UNL     3      -8.142   9.967  70.237  1.00  0.00    -0.181 OA 
HETATM   37  H   UNL     3     -10.842   9.473  68.228  1.00  0.00     0.000 HD 
ENDBRANCH  29  32
ENDBRANCH  26  29
ENDBRANCH  23  26
ENDBRANCH   7  23
TORSDOF 8
ENDMDL
MODEL      219
REMARK 921   NORMALIZED FREE ENERGY PREDICTED BY IDOCK:   -4.64 KCAL/MOL
REMARK 922        TOTAL FREE ENERGY PREDICTED BY IDOCK:   -8.88 KCAL/MOL
REMARK 923 INTER-LIGAND FREE ENERGY PREDICTED BY IDOCK:   -7.34 KCAL/MOL
REMARK 924 INTRA-LIGAND FREE ENERGY PREDICTED BY IDOCK:   -1.54 KCAL/MOL
REMARK 927      BINDING AFFINITY PREDICTED BY RF-SCORE:    0.00 PKD
ROOT
HETATM    1 CU   UNL     1      -8.888  10.839  69.163  1.00  0.00    -0.126 Cu 
HETATM    2  O   UNL     2      -6.775   7.368  73.581  1.00  0.00    -0.071 OA 
HETATM    3  C   UNL     2      -6.569   6.830  72.266  1.00  0.00    -0.058 C  
HETATM    4  H   UNL     2      -6.601   6.667  74.199  1.00  0.00     0.000 HD 
HETATM    5  O   UNL     3     -12.805  12.032  63.111  1.00  0.00    -0.794 OA 
HETATM    6  H   UNL     3     -13.191  11.163  63.120  1.00  0.00     0.000 HD 
HETATM    7  C   UNL     3     -12.241  12.296  64.412  1.00  0.00    -0.402 C  
ENDROOT
BRANCH   3   8
HETATM    8  C   UNL     2      -6.847   7.955  71.273  1.00  0.00    -0.046 C  
HETATM    9  O   UNL     2      -6.196   7.667  70.020  1.00  0.00    -0.027 OA 
HETATM   10  H   UNL     2      -6.369   8.368  69.402  1.00  0.00     0.000 HD 
BRANCH   8  11
HETATM   11  C   UNL     2      -8.357   8.196  71.072  1.00  0.00    -0.120 C  
HETATM   12  O   UNL     2      -8.537   8.633  69.722  1.00  0.00    -0.125 OA 
HETATM   13  H   UNL     2      -9.466   8.782  69.598  1.00  0.00     0.000 HD 
BRANCH  11  14
HETATM   14  C   UNL     2      -9.108   6.877  71.338  1.00  0.00    -0.148 C  
HETATM   15  H   UNL     2      -9.566   5.269  70.278  1.00  0.00     0.000 HD 
HETATM   16  O   UNL     2      -9.103   6.082  70.114  1.00  0.00    -0.144 OA 
BRANCH  14  17
HETATM   17  C   UNL     2     -10.517   6.981  71.923  1.00  0.00    -0.200 C  
HETATM   18  C   UNL     2     -10.631   6.061  73.165  1.00  0.00    -0.246 C  
HETATM   19  H   UNL     2     -12.362   6.797  71.262  1.00  0.00     0.000 HD 
HETATM   20  O   UNL     2     -11.486   6.732  70.898  1.00  0.00    -0.294 OA 
HETATM   21  O   UNL     2      -9.653   6.239  73.960  1.00  0.00    -0.154 OA 
HETATM   22  O   UNL     2     -11.645   5.338  73.220  1.00  0.00    -0.264 OA 
ENDBRANCH  14  17
ENDBRANCH  11  14
ENDBRANCH   8  11
ENDBRANCH   3   8
BRANCH   7  23
HETATM   23  C   UNL     3     -11.618  13.698  64.398  1.00  0.00    -0.393 C  
HETATM   24  O   UNL     3     -12.513  14.581  63.692  1.00  0.00    -1.072 OA 
HETATM   25  H   UNL     3     -12.127  15.450  63.683  1.00  0.00     0.000 HD 
BRANCH  23  26
HETATM   26  C   UNL     3     -11.392  14.371  65.766  1.00  0.00    -0.330 C  
HETATM   27  O   UNL     3     -11.259  13.405  66.811  1.00  0.00    -0.296 OA 
HETATM   28  H   UNL     3     -11.120  13.820  67.654  1.00  0.00     0.000 HD 
BRANCH  26  29
HETATM   29  C   UNL     3     -10.255  15.406  65.900  1.00  0.00    -0.344 C  
HETATM   30  O   UNL     3      -8.952  14.804  65.839  1.00  0.00    -0.475 OA 
HETATM   31  H   UNL     3      -8.252  15.441  65.922  1.00  0.00     0.000 HD 
BRANCH  29  32
HETATM   32  C   UNL     3     -10.290  16.319  67.122  1.00  0.00    -0.285 C  
HETATM   33  C   UNL     3      -9.038  16.231  68.013  1.00  0.00    -0.188 C  
HETATM   34  O   UNL     3     -11.457  15.941  67.972  1.00  0.00    -0.328 OA 
HETATM   35  O   UNL     3      -9.192  15.380  68.985  1.00  0.00    -0.202 OA 
HETATM   36  O   UNL     3      -8.236  17.183  67.960  1.00  0.00    -0.204 OA 
HETATM   37  H   UNL     3     -11.480  16.509  68.733  1.00  0.00     0.000 HD 
ENDBRANCH  29  32
ENDBRANCH  26  29
ENDBRANCH  23  26
ENDBRANCH   7  23
TORSDOF 8
ENDMDL
MODEL      220
REMARK 921   NORMALIZED FREE ENERGY PREDICTED BY IDOCK:   -4.64 KCAL/MOL
REMARK 922        TOTAL FREE ENERGY PREDICTED BY IDOCK:   -8.88 KCAL/MOL
REMARK 923 INTER-LIGAND FREE ENERGY PREDICTED BY IDOCK:   -7.49 KCAL/MOL
REMARK 924 INTRA-LIGAND FREE ENERGY PREDICTED BY IDOCK:   -1.38 KCAL/MOL
REMARK 927      BINDING AFFINITY PREDICTED BY RF-SCORE:    0.00 PKD
ROOT
HETATM    1 CU   UNL     1      -9.325  10.151  67.510  1.00  0.00    -0.139 Cu 
HETATM    2  O   UNL     2      -9.652   4.188  68.127  1.00  0.00    -0.162 OA 
HETATM    3  C   UNL     2      -9.281   4.620  66.809  1.00  0.00    -0.126 C  
HETATM    4  H   UNL     2      -9.875   3.267  68.066  1.00  0.00     0.000 HD 
HETATM    5  O   UNL     3     -10.917  16.461  64.189  1.00  0.00    -1.157 OA 
HETATM    6  H   UNL     3     -11.542  16.059  63.596  1.00  0.00     0.000 HD 
HETATM    7  C   UNL     3     -10.667  15.550  65.279  1.00  0.00    -0.422 C  
ENDROOT
BRANCH   3   8
HETATM    8  C   UNL     2      -8.921   6.100  66.907  1.00  0.00    -0.118 C  
HETATM    9  O   UNL     2      -7.992   6.442  65.859  1.00  0.00    -0.106 OA 
HETATM   10  H   UNL     2      -7.767   7.363  65.920  1.00  0.00     0.000 HD 
BRANCH   8  11
HETATM   11  C   UNL     2     -10.166   7.008  66.863  1.00  0.00    -0.248 C  
HETATM   12  O   UNL     2     -11.252   6.211  66.385  1.00  0.00    -0.725 OA 
HETATM   13  H   UNL     2     -12.019   6.770  66.358  1.00  0.00     0.000 HD 
BRANCH  11  14
HETATM   14  C   UNL     2     -10.443   7.536  68.285  1.00  0.00    -0.180 C  
HETATM   15  H   UNL     2     -11.126   9.224  69.062  1.00  0.00     0.000 HD 
HETATM   16  O   UNL     2     -10.955   8.898  68.186  1.00  0.00    -0.058 OA 
BRANCH  14  17
HETATM   17  C   UNL     2      -9.300   7.448  69.297  1.00  0.00    -0.154 C  
HETATM   18  C   UNL     2      -9.872   7.097  70.694  1.00  0.00    -0.182 C  
HETATM   19  H   UNL     2      -7.808   8.593  69.879  1.00  0.00     0.000 HD 
HETATM   20  O   UNL     2      -8.518   8.648  69.250  1.00  0.00    -0.120 OA 
HETATM   21  O   UNL     2     -10.673   6.110  70.629  1.00  0.00    -0.241 OA 
HETATM   22  O   UNL     2      -9.451   7.782  71.647  1.00  0.00    -0.141 OA 
ENDBRANCH  14  17
ENDBRANCH  11  14
ENDBRANCH   8  11
ENDBRANCH   3   8
BRANCH   7  23
HETATM   23  C   UNL     3      -9.658  16.200  66.235  1.00  0.00    -0.306 C  
HETATM   24  O   UNL     3      -8.357  15.640  65.964  1.00  0.00    -0.299 OA 
HETATM   25  H   UNL     3      -7.732  16.042  66.557  1.00  0.00     0.000 HD 
BRANCH  23  26
HETATM   26  C   UNL     3      -9.468  17.724  66.113  1.00  0.00    -0.159 C  
HETATM   27  O   UNL     3     -10.689  18.379  65.763  1.00  0.00    -0.482 OA 
HETATM   28  H   UNL     3     -10.571  19.319  65.688  1.00  0.00     0.000 HD 
BRANCH  26  29
HETATM   29  C   UNL     3      -8.818  18.483  67.290  1.00  0.00    -0.270 C  
HETATM   30  O   UNL     3      -9.653  19.538  67.793  1.00  0.00    -0.319 OA 
HETATM   31  H   UNL     3      -9.252  20.005  68.517  1.00  0.00     0.000 HD 
BRANCH  29  32
HETATM   32  C   UNL     3      -7.426  19.061  67.056  1.00  0.00    -0.218 C  
HETATM   33  C   UNL     3      -6.683  18.455  65.853  1.00  0.00    -0.277 C  
HETATM   34  O   UNL     3      -6.587  18.799  68.263  1.00  0.00    -0.217 OA 
HETATM   35  O   UNL     3      -5.915  17.465  66.203  1.00  0.00    -0.200 OA 
HETATM   36  O   UNL     3      -6.589  19.160  64.829  1.00  0.00    -0.468 OA 
HETATM   37  H   UNL     3      -5.719  19.158  68.118  1.00  0.00     0.000 HD 
ENDBRANCH  29  32
ENDBRANCH  26  29
ENDBRANCH  23  26
ENDBRANCH   7  23
TORSDOF 8
ENDMDL
MODEL      221
REMARK 921   NORMALIZED FREE ENERGY PREDICTED BY IDOCK:   -4.63 KCAL/MOL
REMARK 922        TOTAL FREE ENERGY PREDICTED BY IDOCK:   -8.88 KCAL/MOL
REMARK 923 INTER-LIGAND FREE ENERGY PREDICTED BY IDOCK:   -7.78 KCAL/MOL
REMARK 924 INTRA-LIGAND FREE ENERGY PREDICTED BY IDOCK:   -1.10 KCAL/MOL
REMARK 927      BINDING AFFINITY PREDICTED BY RF-SCORE:    0.00 PKD
ROOT
HETATM    1 CU   UNL     1     -10.697  10.152  67.355  1.00  0.00    -0.179 Cu 
HETATM    2  O   UNL     2     -12.676  14.078  63.267  1.00  0.00    -0.946 OA 
HETATM    3  C   UNL     2     -12.409  14.658  64.552  1.00  0.00    -0.398 C  
HETATM    4  H   UNL     2     -13.170  14.719  62.769  1.00  0.00     0.000 HD 
HETATM    5  O   UNL     3     -10.853   6.922  73.907  1.00  0.00    -0.510 OA 
HETATM    6  H   UNL     3     -11.655   7.360  74.168  1.00  0.00     0.000 HD 
HETATM    7  C   UNL     3     -10.714   7.037  72.476  1.00  0.00    -0.242 C  
ENDROOT
BRANCH   3   8
HETATM    8  C   UNL     2     -11.615  13.629  65.353  1.00  0.00    -0.321 C  
HETATM    9  O   UNL     2     -10.404  13.296  64.647  1.00  0.00    -0.411 OA 
HETATM   10  H   UNL     2      -9.910  12.655  65.146  1.00  0.00     0.000 HD 
BRANCH   8  11
HETATM   11  C   UNL     2     -11.309  14.113  66.785  1.00  0.00    -0.343 C  
HETATM   12  O   UNL     2     -11.624  13.035  67.670  1.00  0.00    -0.312 OA 
HETATM   13  H   UNL     2     -11.436  13.332  68.552  1.00  0.00     0.000 HD 
BRANCH  11  14
HETATM   14  C   UNL     2      -9.816  14.489  66.871  1.00  0.00    -0.262 C  
HETATM   15  H   UNL     2      -8.133  13.525  67.262  1.00  0.00     0.000 HD 
HETATM   16  O   UNL     2      -9.052  13.294  67.209  1.00  0.00    -0.203 OA 
BRANCH  14  17
HETATM   17  C   UNL     2      -9.443  15.659  67.782  1.00  0.00    -0.208 C  
HETATM   18  C   UNL     2      -8.416  16.569  67.061  1.00  0.00    -0.197 C  
HETATM   19  H   UNL     2      -8.786  15.891  69.623  1.00  0.00     0.000 HD 
HETATM   20  O   UNL     2      -9.018  15.163  69.057  1.00  0.00    -0.197 OA 
HETATM   21  O   UNL     2      -8.797  16.847  65.879  1.00  0.00    -0.516 OA 
HETATM   22  O   UNL     2      -7.423  16.914  67.732  1.00  0.00    -0.158 OA 
ENDBRANCH  14  17
ENDBRANCH  11  14
ENDBRANCH   8  11
ENDBRANCH   3   8
BRANCH   7  23
HETATM   23  C   UNL     3      -9.418   6.331  72.054  1.00  0.00    -0.151 C  
HETATM   24  O   UNL     3      -9.773   5.100  71.391  1.00  0.00    -0.155 OA 
HETATM   25  H   UNL     3      -8.970   4.662  71.130  1.00  0.00     0.000 HD 
BRANCH  23  26
HETATM   26  C   UNL     3      -8.516   7.076  71.051  1.00  0.00    -0.133 C  
HETATM   27  O   UNL     3      -7.801   6.166  70.212  1.00  0.00    -0.098 OA 
HETATM   28  H   UNL     3      -7.245   6.626  69.593  1.00  0.00     0.000 HD 
BRANCH  26  29
HETATM   29  C   UNL     3      -9.147   8.175  70.168  1.00  0.00    -0.147 C  
HETATM   30  O   UNL     3      -9.147   9.462  70.806  1.00  0.00    -0.245 OA 
HETATM   31  H   UNL     3      -9.535  10.138  70.262  1.00  0.00     0.000 HD 
BRANCH  29  32
HETATM   32  C   UNL     3     -10.554   7.916  69.640  1.00  0.00    -0.234 C  
HETATM   33  C   UNL     3     -10.604   7.032  68.381  1.00  0.00    -0.202 C  
HETATM   34  O   UNL     3     -11.182   9.222  69.281  1.00  0.00    -0.435 OA 
HETATM   35  O   UNL     3     -10.621   7.740  67.290  1.00  0.00    -0.295 OA 
HETATM   36  O   UNL     3     -10.995   5.857  68.527  1.00  0.00    -0.281 OA 
HETATM   37  H   UNL     3     -12.058   9.061  68.952  1.00  0.00     0.000 HD 
ENDBRANCH  29  32
ENDBRANCH  26  29
ENDBRANCH  23  26
ENDBRANCH   7  23
TORSDOF 8
ENDMDL
MODEL      222
REMARK 921   NORMALIZED FREE ENERGY PREDICTED BY IDOCK:   -4.63 KCAL/MOL
REMARK 922        TOTAL FREE ENERGY PREDICTED BY IDOCK:   -8.86 KCAL/MOL
REMARK 923 INTER-LIGAND FREE ENERGY PREDICTED BY IDOCK:   -7.59 KCAL/MOL
REMARK 924 INTRA-LIGAND FREE ENERGY PREDICTED BY IDOCK:   -1.27 KCAL/MOL
REMARK 927      BINDING AFFINITY PREDICTED BY RF-SCORE:    0.00 PKD
ROOT
HETATM    1 CU   UNL     1      -9.278  12.930  67.065  1.00  0.00    -0.174 Cu 
HETATM    2  O   UNL     2      -8.658   6.959  67.126  1.00  0.00    -0.119 OA 
HETATM    3  C   UNL     2      -8.132   7.613  68.290  1.00  0.00    -0.124 C  
HETATM    4  H   UNL     2      -8.331   6.067  67.135  1.00  0.00     0.000 HD 
HETATM    5  O   UNL     3      -6.746  19.757  67.678  1.00  0.00    -0.225 OA 
HETATM    6  H   UNL     3      -5.841  19.476  67.748  1.00  0.00     0.000 HD 
HETATM    7  C   UNL     3      -7.525  18.662  67.154  1.00  0.00    -0.222 C  
ENDROOT
BRANCH   3   8
HETATM    8  C   UNL     2      -8.657   9.046  68.276  1.00  0.00    -0.130 C  
HETATM    9  O   UNL     2      -8.498   9.608  66.959  1.00  0.00    -0.123 OA 
HETATM   10  H   UNL     2      -8.824  10.500  66.951  1.00  0.00     0.000 HD 
BRANCH   8  11
HETATM   11  C   UNL     2     -10.124   9.135  68.744  1.00  0.00    -0.197 C  
HETATM   12  O   UNL     2     -10.946   8.930  67.592  1.00  0.00    -0.493 OA 
HETATM   13  H   UNL     2     -11.850   8.985  67.880  1.00  0.00     0.000 HD 
BRANCH  11  14
HETATM   14  C   UNL     2     -10.371   8.046  69.808  1.00  0.00    -0.219 C  
HETATM   15  H   UNL     2     -11.164   6.233  69.822  1.00  0.00     0.000 HD 
HETATM   16  O   UNL     2     -11.012   6.904  69.167  1.00  0.00    -0.233 OA 
BRANCH  14  17
HETATM   17  C   UNL     2     -11.122   8.464  71.073  1.00  0.00    -0.258 C  
HETATM   18  C   UNL     2     -10.199   8.287  72.305  1.00  0.00    -0.305 C  
HETATM   19  H   UNL     2     -12.836   8.023  71.934  1.00  0.00     0.000 HD 
HETATM   20  O   UNL     2     -12.369   7.763  71.149  1.00  0.00    -0.304 OA 
HETATM   21  O   UNL     2      -9.057   8.812  72.103  1.00  0.00    -0.325 OA 
HETATM   22  O   UNL     2     -10.703   7.714  73.290  1.00  0.00    -0.386 OA 
ENDBRANCH  14  17
ENDBRANCH  11  14
ENDBRANCH   8  11
ENDBRANCH   3   8
BRANCH   7  23
HETATM   23  C   UNL     3      -8.987  19.114  67.040  1.00  0.00    -0.298 C  
HETATM   24  O   UNL     3      -9.070  20.110  66.000  1.00  0.00    -0.559 OA 
HETATM   25  H   UNL     3      -9.976  20.390  65.930  1.00  0.00     0.000 HD 
BRANCH  23  26
HETATM   26  C   UNL     3     -10.017  18.039  66.642  1.00  0.00    -0.362 C  
HETATM   27  O   UNL     3      -9.525  17.204  65.591  1.00  0.00    -0.523 OA 
HETATM   28  H   UNL     3     -10.160  16.541  65.345  1.00  0.00     0.000 HD 
BRANCH  26  29
HETATM   29  C   UNL     3     -10.612  17.142  67.749  1.00  0.00    -0.360 C  
HETATM   30  O   UNL     3     -10.426  17.692  69.063  1.00  0.00    -0.358 OA 
HETATM   31  H   UNL     3     -10.792  17.140  69.744  1.00  0.00     0.000 HD 
BRANCH  29  32
HETATM   32  C   UNL     3     -10.153  15.688  67.783  1.00  0.00    -0.226 C  
HETATM   33  C   UNL     3     -11.162  14.721  68.427  1.00  0.00    -0.284 C  
HETATM   34  O   UNL     3      -8.894  15.598  68.580  1.00  0.00    -0.180 OA 
HETATM   35  O   UNL     3     -10.923  14.539  69.692  1.00  0.00    -0.246 OA 
HETATM   36  O   UNL     3     -11.796  13.969  67.661  1.00  0.00    -0.357 OA 
HETATM   37  H   UNL     3      -8.608  14.693  68.602  1.00  0.00     0.000 HD 
ENDBRANCH  29  32
ENDBRANCH  26  29
ENDBRANCH  23  26
ENDBRANCH   7  23
TORSDOF 8
ENDMDL
MODEL      223
REMARK 921   NORMALIZED FREE ENERGY PREDICTED BY IDOCK:   -4.62 KCAL/MOL
REMARK 922        TOTAL FREE ENERGY PREDICTED BY IDOCK:   -8.85 KCAL/MOL
REMARK 923 INTER-LIGAND FREE ENERGY PREDICTED BY IDOCK:   -6.97 KCAL/MOL
REMARK 924 INTRA-LIGAND FREE ENERGY PREDICTED BY IDOCK:   -1.88 KCAL/MOL
REMARK 927      BINDING AFFINITY PREDICTED BY RF-SCORE:    0.00 PKD
ROOT
HETATM    1 CU   UNL     1     -10.806   9.995  67.061  1.00  0.00    -0.206 Cu 
HETATM    2  O   UNL     2     -12.521  13.940  62.874  1.00  0.00    -1.034 OA 
HETATM    3  C   UNL     2     -12.265  14.526  64.158  1.00  0.00    -0.342 C  
HETATM    4  H   UNL     2     -12.976  14.593  62.355  1.00  0.00     0.000 HD 
HETATM    5  O   UNL     3     -11.258   6.864  73.647  1.00  0.00    -0.481 OA 
HETATM    6  H   UNL     3     -12.049   7.337  73.882  1.00  0.00     0.000 HD 
HETATM    7  C   UNL     3     -11.078   6.953  72.219  1.00  0.00    -0.249 C  
ENDROOT
BRANCH   3   8
HETATM    8  C   UNL     2     -11.533  13.478  64.992  1.00  0.00    -0.318 C  
HETATM    9  O   UNL     2     -10.892  12.526  64.120  1.00  0.00    -0.326 OA 
HETATM   10  H   UNL     2     -10.437  11.873  64.639  1.00  0.00     0.000 HD 
BRANCH   8  11
HETATM   11  C   UNL     2     -10.518  14.110  65.966  1.00  0.00    -0.304 C  
HETATM   12  O   UNL     2     -10.953  15.449  66.217  1.00  0.00    -0.324 OA 
HETATM   13  H   UNL     2     -10.329  15.838  66.816  1.00  0.00     0.000 HD 
BRANCH  11  14
HETATM   14  C   UNL     2     -10.492  13.277  67.263  1.00  0.00    -0.247 C  
HETATM   15  H   UNL     2      -9.791  11.504  67.794  1.00  0.00     0.000 HD 
HETATM   16  O   UNL     2      -9.807  12.018  66.995  1.00  0.00    -0.192 OA 
BRANCH  14  17
HETATM   17  C   UNL     2     -11.829  13.040  67.967  1.00  0.00    -0.347 C  
HETATM   18  C   UNL     2     -11.833  13.780  69.329  1.00  0.00    -0.344 C  
HETATM   19  H   UNL     2     -12.924  11.488  68.481  1.00  0.00     0.000 HD 
HETATM   20  O   UNL     2     -12.093  11.635  68.043  1.00  0.00    -0.597 OA 
HETATM   21  O   UNL     2     -11.446  14.985  69.200  1.00  0.00    -0.268 OA 
HETATM   22  O   UNL     2     -12.238  13.122  70.308  1.00  0.00    -0.338 OA 
ENDBRANCH  14  17
ENDBRANCH  11  14
ENDBRANCH   8  11
ENDBRANCH   3   8
BRANCH   7  23
HETATM   23  C   UNL     3      -9.802   6.191  71.840  1.00  0.00    -0.156 C  
HETATM   24  O   UNL     3      -8.674   6.900  72.392  1.00  0.00    -0.126 OA 
HETATM   25  H   UNL     3      -7.883   6.428  72.157  1.00  0.00     0.000 HD 
BRANCH  23  26
HETATM   26  C   UNL     3      -9.667   4.753  72.378  1.00  0.00    -0.155 C  
HETATM   27  O   UNL     3     -10.936   4.212  72.754  1.00  0.00    -0.128 OA 
HETATM   28  H   UNL     3     -10.852   3.325  73.086  1.00  0.00     0.000 HD 
BRANCH  26  29
HETATM   29  C   UNL     3      -8.919   3.711  71.518  1.00  0.00    -0.107 C  
HETATM   30  O   UNL     3      -9.715   2.545  71.250  1.00  0.00    -0.152 OA 
HETATM   31  H   UNL     3      -9.255   1.904  70.721  1.00  0.00     0.000 HD 
BRANCH  29  32
HETATM   32  C   UNL     3      -7.560   3.241  72.026  1.00  0.00    -0.053 C  
HETATM   33  C   UNL     3      -7.130   3.876  73.360  1.00  0.00    -0.062 C  
HETATM   34  O   UNL     3      -6.519   3.598  71.018  1.00  0.00    -0.025 OA 
HETATM   35  O   UNL     3      -6.392   4.932  73.181  1.00  0.00    -0.042 OA 
HETATM   36  O   UNL     3      -7.187   3.156  74.376  1.00  0.00    -0.045 OA 
HETATM   37  H   UNL     3      -5.672   3.306  71.334  1.00  0.00     0.000 HD 
ENDBRANCH  29  32
ENDBRANCH  26  29
ENDBRANCH  23  26
ENDBRANCH   7  23
TORSDOF 8
ENDMDL
MODEL      224
REMARK 921   NORMALIZED FREE ENERGY PREDICTED BY IDOCK:   -4.61 KCAL/MOL
REMARK 922        TOTAL FREE ENERGY PREDICTED BY IDOCK:   -8.85 KCAL/MOL
REMARK 923 INTER-LIGAND FREE ENERGY PREDICTED BY IDOCK:   -7.51 KCAL/MOL
REMARK 924 INTRA-LIGAND FREE ENERGY PREDICTED BY IDOCK:   -1.34 KCAL/MOL
REMARK 927      BINDING AFFINITY PREDICTED BY RF-SCORE:    0.00 PKD
ROOT
HETATM    1 CU   UNL     1      -8.486  13.375  69.284  1.00  0.00    -0.313 Cu 
HETATM    2  O   UNL     2      -8.972   7.644  71.002  1.00  0.00    -0.144 OA 
HETATM    3  C   UNL     2     -10.105   8.132  70.269  1.00  0.00    -0.192 C  
HETATM    4  H   UNL     2      -9.230   6.819  71.398  1.00  0.00     0.000 HD 
HETATM    5  O   UNL     3     -10.910  20.245  68.728  1.00  0.00    -0.225 OA 
HETATM    6  H   UNL     3     -11.667  20.084  69.280  1.00  0.00     0.000 HD 
HETATM    7  C   UNL     3      -9.966  19.173  68.922  1.00  0.00    -0.416 C  
ENDROOT
BRANCH   3   8
HETATM    8  C   UNL     2      -9.691   9.455  69.631  1.00  0.00    -0.190 C  
HETATM    9  O   UNL     2      -8.293   9.696  69.880  1.00  0.00    -0.147 OA 
HETATM   10  H   UNL     2      -8.035  10.521  69.484  1.00  0.00     0.000 HD 
BRANCH   8  11
HETATM   11  C   UNL     2     -10.002   9.499  68.121  1.00  0.00    -0.165 C  
HETATM   12  O   UNL     2     -11.187   8.727  67.913  1.00  0.00    -0.410 OA 
HETATM   13  H   UNL     2     -11.379   8.753  66.984  1.00  0.00     0.000 HD 
BRANCH  11  14
HETATM   14  C   UNL     2     -10.210  10.968  67.701  1.00  0.00    -0.182 C  
HETATM   15  H   UNL     2     -11.679  12.013  66.885  1.00  0.00     0.000 HD 
HETATM   16  O   UNL     2     -11.551  11.108  67.144  1.00  0.00    -0.495 OA 
BRANCH  14  17
HETATM   17  C   UNL     2      -9.160  11.585  66.778  1.00  0.00    -0.181 C  
HETATM   18  C   UNL     2      -8.950  10.666  65.547  1.00  0.00    -0.191 C  
HETATM   19  H   UNL     2      -7.319  12.260  66.948  1.00  0.00     0.000 HD 
HETATM   20  O   UNL     2      -7.971  11.876  67.522  1.00  0.00    -0.137 OA 
HETATM   21  O   UNL     2     -10.062  10.332  65.027  1.00  0.00    -0.323 OA 
HETATM   22  O   UNL     2      -7.766  10.429  65.236  1.00  0.00    -0.145 OA 
ENDBRANCH  14  17
ENDBRANCH  11  14
ENDBRANCH   8  11
ENDBRANCH   3   8
BRANCH   7  23
HETATM   23  C   UNL     3      -8.743  19.432  68.032  1.00  0.00    -0.320 C  
HETATM   24  O   UNL     3      -7.559  19.098  68.786  1.00  0.00    -0.331 OA 
HETATM   25  H   UNL     3      -6.802  19.259  68.234  1.00  0.00     0.000 HD 
BRANCH  23  26
HETATM   26  C   UNL     3      -8.638  18.602  66.739  1.00  0.00    -0.288 C  
HETATM   27  O   UNL     3      -8.077  19.366  65.668  1.00  0.00    -0.414 OA 
HETATM   28  H   UNL     3      -8.012  18.854  64.871  1.00  0.00     0.000 HD 
BRANCH  26  29
HETATM   29  C   UNL     3      -7.924  17.233  66.797  1.00  0.00    -0.241 C  
HETATM   30  O   UNL     3      -6.649  17.248  66.134  1.00  0.00    -0.229 OA 
HETATM   31  H   UNL     3      -6.210  16.406  66.170  1.00  0.00     0.000 HD 
BRANCH  29  32
HETATM   32  C   UNL     3      -8.701  16.025  66.285  1.00  0.00    -0.336 C  
HETATM   33  C   UNL     3     -10.193  16.298  66.022  1.00  0.00    -0.358 C  
HETATM   34  O   UNL     3      -8.630  14.939  67.306  1.00  0.00    -0.185 OA 
HETATM   35  O   UNL     3     -10.931  15.994  67.049  1.00  0.00    -0.273 OA 
HETATM   36  O   UNL     3     -10.552  16.391  64.832  1.00  0.00    -0.677 OA 
HETATM   37  H   UNL     3      -9.115  14.186  66.987  1.00  0.00     0.000 HD 
ENDBRANCH  29  32
ENDBRANCH  26  29
ENDBRANCH  23  26
ENDBRANCH   7  23
TORSDOF 8
ENDMDL
MODEL      225
REMARK 921   NORMALIZED FREE ENERGY PREDICTED BY IDOCK:   -4.59 KCAL/MOL
REMARK 922        TOTAL FREE ENERGY PREDICTED BY IDOCK:   -8.82 KCAL/MOL
REMARK 923 INTER-LIGAND FREE ENERGY PREDICTED BY IDOCK:   -6.88 KCAL/MOL
REMARK 924 INTRA-LIGAND FREE ENERGY PREDICTED BY IDOCK:   -1.94 KCAL/MOL
REMARK 927      BINDING AFFINITY PREDICTED BY RF-SCORE:    0.00 PKD
ROOT
HETATM    1 CU   UNL     1     -10.729   8.580  68.140  1.00  0.00    -0.196 Cu 
HETATM    2  O   UNL     2      -9.635   2.904  69.759  1.00  0.00    -0.129 OA 
HETATM    3  C   UNL     2      -9.629   3.834  70.851  1.00  0.00    -0.186 C  
HETATM    4  H   UNL     2      -9.254   2.094  70.080  1.00  0.00     0.000 HD 
HETATM    5  O   UNL     3      -9.224  15.728  67.999  1.00  0.00    -0.187 OA 
HETATM    6  H   UNL     3      -8.384  15.619  68.431  1.00  0.00     0.000 HD 
HETATM    7  C   UNL     3      -9.656  14.443  67.507  1.00  0.00    -0.215 C  
ENDROOT
BRANCH   3   8
HETATM    8  C   UNL     2     -10.241   5.134  70.337  1.00  0.00    -0.264 C  
HETATM    9  O   UNL     2     -11.027   5.745  71.379  1.00  0.00    -0.267 OA 
HETATM   10  H   UNL     2     -11.408   6.554  71.058  1.00  0.00     0.000 HD 
BRANCH   8  11
HETATM   11  C   UNL     2      -9.174   6.110  69.800  1.00  0.00    -0.144 C  
HETATM   12  O   UNL     2      -7.916   5.697  70.340  1.00  0.00    -0.099 OA 
HETATM   13  H   UNL     2      -7.259   6.297  70.010  1.00  0.00     0.000 HD 
BRANCH  11  14
HETATM   14  C   UNL     2      -9.172   6.042  68.260  1.00  0.00    -0.117 C  
HETATM   15  H   UNL     2      -8.822   7.316  66.787  1.00  0.00     0.000 HD 
HETATM   16  O   UNL     2      -8.823   7.358  67.736  1.00  0.00    -0.128 OA 
BRANCH  14  17
HETATM   17  C   UNL     2     -10.429   5.493  67.584  1.00  0.00    -0.191 C  
HETATM   18  C   UNL     2     -10.028   4.416  66.544  1.00  0.00    -0.223 C  
HETATM   19  H   UNL     2     -11.989   6.234  66.640  1.00  0.00     0.000 HD 
HETATM   20  O   UNL     2     -11.209   6.575  67.061  1.00  0.00    -0.397 OA 
HETATM   21  O   UNL     2      -9.217   3.572  67.045  1.00  0.00    -0.163 OA 
HETATM   22  O   UNL     2     -10.567   4.508  65.424  1.00  0.00    -0.264 OA 
ENDBRANCH  14  17
ENDBRANCH  11  14
ENDBRANCH   8  11
ENDBRANCH   3   8
BRANCH   7  23
HETATM   23  C   UNL     3     -11.011  14.619  66.810  1.00  0.00    -0.323 C  
HETATM   24  O   UNL     3     -11.350  16.021  66.832  1.00  0.00    -0.028 OA 
HETATM   25  H   UNL     3     -12.190  16.130  66.400  1.00  0.00     0.000 HD 
BRANCH  23  26
HETATM   26  C   UNL     3     -11.085  14.217  65.324  1.00  0.00    -0.331 C  
HETATM   27  O   UNL     3     -10.771  15.317  64.466  1.00  0.00    -0.612 OA 
HETATM   28  H   UNL     3     -10.816  15.069  63.550  1.00  0.00     0.000 HD 
BRANCH  26  29
HETATM   29  C   UNL     3     -10.288  12.980  64.854  1.00  0.00    -0.324 C  
HETATM   30  O   UNL     3      -9.824  13.105  63.500  1.00  0.00    -0.511 OA 
HETATM   31  H   UNL     3      -9.335  12.344  63.211  1.00  0.00     0.000 HD 
BRANCH  29  32
HETATM   32  C   UNL     3     -10.973  11.624  64.989  1.00  0.00    -0.273 C  
HETATM   33  C   UNL     3     -10.097  10.534  65.631  1.00  0.00    -0.268 C  
HETATM   34  O   UNL     3     -11.349  11.136  63.629  1.00  0.00    -0.545 OA 
HETATM   35  O   UNL     3      -9.473   9.823  64.739  1.00  0.00    -0.274 OA 
HETATM   36  O   UNL     3     -10.362  10.212  66.806  1.00  0.00    -0.223 OA 
HETATM   37  H   UNL     3     -11.775  10.292  63.712  1.00  0.00     0.000 HD 
ENDBRANCH  29  32
ENDBRANCH  26  29
ENDBRANCH  23  26
ENDBRANCH   7  23
TORSDOF 8
ENDMDL
MODEL      226
REMARK 921   NORMALIZED FREE ENERGY PREDICTED BY IDOCK:   -4.58 KCAL/MOL
REMARK 922        TOTAL FREE ENERGY PREDICTED BY IDOCK:   -8.80 KCAL/MOL
REMARK 923 INTER-LIGAND FREE ENERGY PREDICTED BY IDOCK:   -7.09 KCAL/MOL
REMARK 924 INTRA-LIGAND FREE ENERGY PREDICTED BY IDOCK:   -1.71 KCAL/MOL
REMARK 927      BINDING AFFINITY PREDICTED BY RF-SCORE:    0.00 PKD
ROOT
HETATM    1 CU   UNL     1      -9.545  10.306  69.874  1.00  0.00    -0.171 Cu 
HETATM    2  O   UNL     2      -8.219   6.131  73.980  1.00  0.00    -0.106 OA 
HETATM    3  C   UNL     2      -8.977   7.236  74.494  1.00  0.00    -0.127 C  
HETATM    4  H   UNL     2      -7.890   5.647  74.728  1.00  0.00     0.000 HD 
HETATM    5  O   UNL     3      -9.789  17.177  67.403  1.00  0.00    -0.253 OA 
HETATM    6  H   UNL     3      -9.288  17.520  68.135  1.00  0.00     0.000 HD 
HETATM    7  C   UNL     3      -9.615  15.746  67.359  1.00  0.00    -0.217 C  
ENDROOT
BRANCH   3   8
HETATM    8  C   UNL     2      -9.508   8.014  73.293  1.00  0.00    -0.266 C  
HETATM    9  O   UNL     2      -8.404   8.479  72.491  1.00  0.00    -0.293 OA 
HETATM   10  H   UNL     2      -8.735   8.964  71.743  1.00  0.00     0.000 HD 
BRANCH   8  11
HETATM   11  C   UNL     2     -10.497   7.184  72.449  1.00  0.00    -0.218 C  
HETATM   12  O   UNL     2     -10.881   6.057  73.241  1.00  0.00    -0.254 OA 
HETATM   13  H   UNL     2     -11.490   5.545  72.722  1.00  0.00     0.000 HD 
BRANCH  11  14
HETATM   14  C   UNL     2     -11.713   8.066  72.103  1.00  0.00    -0.344 C  
HETATM   15  H   UNL     2     -13.576   7.743  71.519  1.00  0.00     0.000 HD 
HETATM   16  O   UNL     2     -12.827   7.200  71.733  1.00  0.00    -0.345 OA 
BRANCH  14  17
HETATM   17  C   UNL     2     -11.502   9.169  71.066  1.00  0.00    -0.306 C  
HETATM   18  C   UNL     2     -12.789  10.027  70.955  1.00  0.00    -0.365 C  
HETATM   19  H   UNL     2     -10.923   9.280  69.188  1.00  0.00     0.000 HD 
HETATM   20  O   UNL     2     -11.054   8.595  69.833  1.00  0.00    -0.218 OA 
HETATM   21  O   UNL     2     -13.208  10.378  72.105  1.00  0.00    -0.452 OA 
HETATM   22  O   UNL     2     -13.187  10.272  69.799  1.00  0.00     0.108 OA 
ENDBRANCH  14  17
ENDBRANCH  11  14
ENDBRANCH   8  11
ENDBRANCH   3   8
BRANCH   7  23
HETATM   23  C   UNL     3     -10.423  15.193  66.178  1.00  0.00    -0.312 C  
HETATM   24  O   UNL     3      -9.507  14.550  65.268  1.00  0.00    -0.474 OA 
HETATM   25  H   UNL     3     -10.008  14.208  64.536  1.00  0.00     0.000 HD 
BRANCH  23  26
HETATM   26  C   UNL     3     -11.479  14.119  66.502  1.00  0.00    -0.358 C  
HETATM   27  O   UNL     3     -12.627  14.239  65.658  1.00  0.00    -0.461 OA 
HETATM   28  H   UNL     3     -13.278  13.576  65.858  1.00  0.00     0.000 HD 
BRANCH  26  29
HETATM   29  C   UNL     3     -11.040  12.639  66.534  1.00  0.00    -0.280 C  
HETATM   30  O   UNL     3     -12.151  11.737  66.664  1.00  0.00    -0.527 OA 
HETATM   31  H   UNL     3     -11.881  10.827  66.684  1.00  0.00     0.000 HD 
BRANCH  29  32
HETATM   32  C   UNL     3      -9.998  12.248  67.576  1.00  0.00    -0.199 C  
HETATM   33  C   UNL     3      -8.983  11.198  67.094  1.00  0.00    -0.145 C  
HETATM   34  O   UNL     3     -10.696  11.667  68.761  1.00  0.00    -0.205 OA 
HETATM   35  O   UNL     3      -9.348   9.989  67.405  1.00  0.00    -0.146 OA 
HETATM   36  O   UNL     3      -7.830  11.598  66.837  1.00  0.00    -0.157 OA 
HETATM   37  H   UNL     3     -10.047  11.424  69.411  1.00  0.00     0.000 HD 
ENDBRANCH  29  32
ENDBRANCH  26  29
ENDBRANCH  23  26
ENDBRANCH   7  23
TORSDOF 8
ENDMDL
MODEL      227
REMARK 921   NORMALIZED FREE ENERGY PREDICTED BY IDOCK:   -4.58 KCAL/MOL
REMARK 922        TOTAL FREE ENERGY PREDICTED BY IDOCK:   -8.80 KCAL/MOL
REMARK 923 INTER-LIGAND FREE ENERGY PREDICTED BY IDOCK:   -6.93 KCAL/MOL
REMARK 924 INTRA-LIGAND FREE ENERGY PREDICTED BY IDOCK:   -1.86 KCAL/MOL
REMARK 927      BINDING AFFINITY PREDICTED BY RF-SCORE:    0.00 PKD
ROOT
HETATM    1 CU   UNL     1     -10.143  10.559  67.640  1.00  0.00    -0.155 Cu 
HETATM    2  O   UNL     2     -12.143  13.777  62.983  1.00  0.00    -0.910 OA 
HETATM    3  C   UNL     2     -12.519  14.306  64.262  1.00  0.00    -0.272 C  
HETATM    4  H   UNL     2     -12.669  14.224  62.330  1.00  0.00     0.000 HD 
HETATM    5  O   UNL     3     -11.017   6.976  73.947  1.00  0.00    -0.502 OA 
HETATM    6  H   UNL     3     -11.964   7.057  73.928  1.00  0.00     0.000 HD 
HETATM    7  C   UNL     3     -10.508   7.253  72.626  1.00  0.00    -0.246 C  
ENDROOT
BRANCH   3   8
HETATM    8  C   UNL     2     -11.673  13.588  65.311  1.00  0.00    -0.322 C  
HETATM    9  O   UNL     2     -11.616  12.181  65.007  1.00  0.00    -0.330 OA 
HETATM   10  H   UNL     2     -11.089  11.735  65.660  1.00  0.00     0.000 HD 
BRANCH   8  11
HETATM   11  C   UNL     2     -10.258  14.189  65.430  1.00  0.00    -0.358 C  
HETATM   12  O   UNL     2     -10.253  15.406  64.680  1.00  0.00    -0.468 OA 
HETATM   13  H   UNL     2      -9.382  15.777  64.753  1.00  0.00     0.000 HD 
BRANCH  11  14
HETATM   14  C   UNL     2      -9.954  14.448  66.919  1.00  0.00    -0.261 C  
HETATM   15  H   UNL     2      -9.715  13.326  68.532  1.00  0.00     0.000 HD 
HETATM   16  O   UNL     2      -9.902  13.167  67.614  1.00  0.00    -0.210 OA 
BRANCH  14  17
HETATM   17  C   UNL     2     -10.858  15.439  67.653  1.00  0.00    -0.304 C  
HETATM   18  C   UNL     2     -10.055  16.723  67.987  1.00  0.00    -0.284 C  
HETATM   19  H   UNL     2     -12.025  15.413  69.238  1.00  0.00     0.000 HD 
HETATM   20  O   UNL     2     -11.464  14.798  68.782  1.00  0.00    -0.272 OA 
HETATM   21  O   UNL     2      -9.427  17.150  66.965  1.00  0.00    -0.240 OA 
HETATM   22  O   UNL     2     -10.170  17.154  69.151  1.00  0.00    -0.308 OA 
ENDBRANCH  14  17
ENDBRANCH  11  14
ENDBRANCH   8  11
ENDBRANCH   3   8
BRANCH   7  23
HETATM   23  C   UNL     3      -8.979   7.123  72.656  1.00  0.00    -0.126 C  
HETATM   24  O   UNL     3      -8.597   6.602  73.945  1.00  0.00    -0.130 OA 
HETATM   25  H   UNL     3      -7.650   6.522  73.963  1.00  0.00     0.000 HD 
BRANCH  23  26
HETATM   26  C   UNL     3      -8.344   6.160  71.634  1.00  0.00    -0.126 C  
HETATM   27  O   UNL     3      -8.180   4.849  72.181  1.00  0.00    -0.111 OA 
HETATM   28  H   UNL     3      -7.788   4.255  71.551  1.00  0.00     0.000 HD 
BRANCH  26  29
HETATM   29  C   UNL     3      -8.990   6.036  70.237  1.00  0.00    -0.148 C  
HETATM   30  O   UNL     3      -8.786   4.741  69.648  1.00  0.00    -0.084 OA 
HETATM   31  H   UNL     3      -9.183   4.666  68.789  1.00  0.00     0.000 HD 
BRANCH  29  32
HETATM   32  C   UNL     3      -8.601   7.085  69.200  1.00  0.00    -0.133 C  
HETATM   33  C   UNL     3      -9.528   8.313  69.166  1.00  0.00    -0.155 C  
HETATM   34  O   UNL     3      -8.651   6.464  67.844  1.00  0.00    -0.117 OA 
HETATM   35  O   UNL     3     -10.473   8.186  68.281  1.00  0.00    -0.204 OA 
HETATM   36  O   UNL     3      -9.086   9.372  69.653  1.00  0.00    -0.156 OA 
HETATM   37  H   UNL     3      -8.409   7.117  67.198  1.00  0.00     0.000 HD 
ENDBRANCH  29  32
ENDBRANCH  26  29
ENDBRANCH  23  26
ENDBRANCH   7  23
TORSDOF 8
ENDMDL
MODEL      228
REMARK 921   NORMALIZED FREE ENERGY PREDICTED BY IDOCK:   -4.54 KCAL/MOL
REMARK 922        TOTAL FREE ENERGY PREDICTED BY IDOCK:   -8.74 KCAL/MOL
REMARK 923 INTER-LIGAND FREE ENERGY PREDICTED BY IDOCK:   -6.81 KCAL/MOL
REMARK 924 INTRA-LIGAND FREE ENERGY PREDICTED BY IDOCK:   -1.93 KCAL/MOL
REMARK 927      BINDING AFFINITY PREDICTED BY RF-SCORE:    0.00 PKD
ROOT
HETATM    1 CU   UNL     1      -9.087  12.725  68.382  1.00  0.00    -0.163 Cu 
HETATM    2  O   UNL     2      -9.284  18.724  68.282  1.00  0.00    -0.308 OA 
HETATM    3  C   UNL     2     -10.419  18.093  67.673  1.00  0.00    -0.416 C  
HETATM    4  H   UNL     2      -9.308  19.641  68.034  1.00  0.00     0.000 HD 
HETATM    5  O   UNL     3      -9.470   6.134  65.251  1.00  0.00    -0.295 OA 
HETATM    6  H   UNL     3      -9.527   6.491  64.372  1.00  0.00     0.000 HD 
HETATM    7  C   UNL     3      -8.991   7.168  66.135  1.00  0.00    -0.140 C  
ENDROOT
BRANCH   3   8
HETATM    8  C   UNL     2     -10.381  16.620  68.072  1.00  0.00    -0.303 C  
HETATM    9  O   UNL     2     -11.659  16.231  68.611  1.00  0.00    -0.355 OA 
HETATM   10  H   UNL     2     -11.636  15.314  68.860  1.00  0.00     0.000 HD 
BRANCH   8  11
HETATM   11  C   UNL     2      -9.973  15.707  66.897  1.00  0.00    -0.248 C  
HETATM   12  O   UNL     2      -8.750  15.066  67.269  1.00  0.00    -0.178 OA 
HETATM   13  H   UNL     2      -8.498  14.503  66.546  1.00  0.00     0.000 HD 
BRANCH  11  14
HETATM   14  C   UNL     2     -11.095  14.676  66.659  1.00  0.00    -0.334 C  
HETATM   15  H   UNL     2     -11.697  13.009  67.539  1.00  0.00     0.000 HD 
HETATM   16  O   UNL     2     -11.006  13.644  67.685  1.00  0.00    -0.259 OA 
BRANCH  14  17
HETATM   17  C   UNL     2     -11.191  14.061  65.263  1.00  0.00    -0.319 C  
HETATM   18  C   UNL     2     -12.522  13.275  65.135  1.00  0.00    -0.470 C  
HETATM   19  H   UNL     2     -10.072  12.913  64.121  1.00  0.00     0.000 HD 
HETATM   20  O   UNL     2     -10.011  13.296  64.988  1.00  0.00    -0.243 OA 
HETATM   21  O   UNL     2     -13.508  13.972  65.536  1.00  0.00    -0.677 OA 
HETATM   22  O   UNL     2     -12.439  12.133  64.641  1.00  0.00    -0.387 OA 
ENDBRANCH  14  17
ENDBRANCH  11  14
ENDBRANCH   8  11
ENDBRANCH   3   8
BRANCH   7  23
HETATM   23  C   UNL     3      -8.900   6.593  67.554  1.00  0.00    -0.116 C  
HETATM   24  O   UNL     3      -8.411   5.239  67.460  1.00  0.00    -0.107 OA 
HETATM   25  H   UNL     3      -8.355   4.882  68.339  1.00  0.00     0.000 HD 
BRANCH  23  26
HETATM   26  C   UNL     3      -7.933   7.296  68.527  1.00  0.00    -0.124 C  
HETATM   27  O   UNL     3      -6.581   6.887  68.310  1.00  0.00    -0.053 OA 
HETATM   28  H   UNL     3      -5.985   7.321  68.910  1.00  0.00     0.000 HD 
BRANCH  26  29
HETATM   29  C   UNL     3      -7.976   8.837  68.625  1.00  0.00    -0.107 C  
HETATM   30  O   UNL     3      -6.665   9.425  68.632  1.00  0.00    -0.053 OA 
HETATM   31  H   UNL     3      -6.692  10.372  68.692  1.00  0.00     0.000 HD 
BRANCH  29  32
HETATM   32  C   UNL     3      -8.762   9.434  69.787  1.00  0.00    -0.181 C  
HETATM   33  C   UNL     3     -10.266   9.110  69.768  1.00  0.00    -0.207 C  
HETATM   34  O   UNL     3      -8.636  10.921  69.739  1.00  0.00    -0.326 OA 
HETATM   35  O   UNL     3     -10.957  10.041  69.179  1.00  0.00    -0.223 OA 
HETATM   36  O   UNL     3     -10.676   8.269  70.592  1.00  0.00    -0.212 OA 
HETATM   37  H   UNL     3      -9.126  11.294  70.463  1.00  0.00     0.000 HD 
ENDBRANCH  29  32
ENDBRANCH  26  29
ENDBRANCH  23  26
ENDBRANCH   7  23
TORSDOF 8
ENDMDL
MODEL      229
REMARK 921   NORMALIZED FREE ENERGY PREDICTED BY IDOCK:   -4.53 KCAL/MOL
REMARK 922        TOTAL FREE ENERGY PREDICTED BY IDOCK:   -8.73 KCAL/MOL
REMARK 923 INTER-LIGAND FREE ENERGY PREDICTED BY IDOCK:   -7.15 KCAL/MOL
REMARK 924 INTRA-LIGAND FREE ENERGY PREDICTED BY IDOCK:   -1.58 KCAL/MOL
REMARK 927      BINDING AFFINITY PREDICTED BY RF-SCORE:    0.00 PKD
ROOT
HETATM    1 CU   UNL     1      -8.458  11.982  68.055  1.00  0.00    -0.120 Cu 
HETATM    2  O   UNL     2      -6.398  17.481  66.811  1.00  0.00    -0.156 OA 
HETATM    3  C   UNL     2      -7.678  17.193  66.232  1.00  0.00    -0.315 C  
HETATM    4  H   UNL     2      -6.074  18.271  66.393  1.00  0.00     0.000 HD 
HETATM    5  O   UNL     3     -11.235   5.483  66.201  1.00  0.00    -0.774 OA 
HETATM    6  H   UNL     3     -11.143   5.645  65.268  1.00  0.00     0.000 HD 
HETATM    7  C   UNL     3     -10.416   6.432  66.913  1.00  0.00    -0.272 C  
ENDROOT
BRANCH   3   8
HETATM    8  C   UNL     2      -8.199  15.924  66.903  1.00  0.00    -0.248 C  
HETATM    9  O   UNL     2      -7.188  14.898  66.848  1.00  0.00    -0.315 OA 
HETATM   10  H   UNL     2      -7.513  14.108  67.266  1.00  0.00     0.000 HD 
BRANCH   8  11
HETATM   11  C   UNL     2      -8.657  16.177  68.354  1.00  0.00    -0.189 C  
HETATM   12  O   UNL     2      -8.352  17.540  68.660  1.00  0.00    -0.272 OA 
HETATM   13  H   UNL     2      -8.634  17.695  69.553  1.00  0.00     0.000 HD 
BRANCH  11  14
HETATM   14  C   UNL     2     -10.172  15.907  68.448  1.00  0.00    -0.226 C  
HETATM   15  H   UNL     2     -11.815  17.005  68.341  1.00  0.00     0.000 HD 
HETATM   16  O   UNL     2     -10.882  17.170  68.284  1.00  0.00    -0.369 OA 
BRANCH  14  17
HETATM   17  C   UNL     2     -10.670  15.148  69.678  1.00  0.00    -0.278 C  
HETATM   18  C   UNL     2     -11.407  13.860  69.228  1.00  0.00    -0.272 C  
HETATM   19  H   UNL     2     -11.753  15.554  71.272  1.00  0.00     0.000 HD 
HETATM   20  O   UNL     2     -11.443  16.025  70.507  1.00  0.00    -0.354 OA 
HETATM   21  O   UNL     2     -10.717  13.209  68.380  1.00  0.00    -0.239 OA 
HETATM   22  O   UNL     2     -12.507  13.639  69.772  1.00  0.00    -0.265 OA 
ENDBRANCH  14  17
ENDBRANCH  11  14
ENDBRANCH   8  11
ENDBRANCH   3   8
BRANCH   7  23
HETATM   23  C   UNL     3     -10.564   6.172  68.418  1.00  0.00    -0.265 C  
HETATM   24  O   UNL     3     -10.002   4.876  68.708  1.00  0.00    -0.167 OA 
HETATM   25  H   UNL     3     -10.094   4.714  69.640  1.00  0.00     0.000 HD 
BRANCH  23  26
HETATM   26  C   UNL     3      -9.833   7.142  69.366  1.00  0.00    -0.161 C  
HETATM   27  O   UNL     3     -10.235   8.496  69.143  1.00  0.00    -0.202 OA 
HETATM   28  H   UNL     3      -9.784   9.094  69.728  1.00  0.00     0.000 HD 
BRANCH  26  29
HETATM   29  C   UNL     3      -9.868   6.858  70.883  1.00  0.00    -0.185 C  
HETATM   30  O   UNL     3     -10.977   6.027  71.262  1.00  0.00    -0.264 OA 
HETATM   31  H   UNL     3     -10.999   5.853  72.196  1.00  0.00     0.000 HD 
BRANCH  29  32
HETATM   32  C   UNL     3      -9.851   8.066  71.814  1.00  0.00    -0.183 C  
HETATM   33  C   UNL     3      -9.645   7.718  73.299  1.00  0.00    -0.283 C  
HETATM   34  O   UNL     3     -11.162   8.773  71.710  1.00  0.00    -0.292 OA 
HETATM   35  O   UNL     3     -10.775   7.592  73.930  1.00  0.00    -0.285 OA 
HETATM   36  O   UNL     3      -8.527   7.967  73.790  1.00  0.00    -0.202 OA 
HETATM   37  H   UNL     3     -11.152   9.526  72.290  1.00  0.00     0.000 HD 
ENDBRANCH  29  32
ENDBRANCH  26  29
ENDBRANCH  23  26
ENDBRANCH   7  23
TORSDOF 8
ENDMDL
MODEL      230
REMARK 921   NORMALIZED FREE ENERGY PREDICTED BY IDOCK:   -4.52 KCAL/MOL
REMARK 922        TOTAL FREE ENERGY PREDICTED BY IDOCK:   -8.70 KCAL/MOL
REMARK 923 INTER-LIGAND FREE ENERGY PREDICTED BY IDOCK:   -7.86 KCAL/MOL
REMARK 924 INTRA-LIGAND FREE ENERGY PREDICTED BY IDOCK:   -0.84 KCAL/MOL
REMARK 927      BINDING AFFINITY PREDICTED BY RF-SCORE:    0.00 PKD
ROOT
HETATM    1 CU   UNL     1      -7.932  10.288  70.908  1.00  0.00    -0.181 Cu 
HETATM    2  O   UNL     2      -6.785   4.864  73.211  1.00  0.00    -0.063 OA 
HETATM    3  C   UNL     2      -7.772   4.859  72.170  1.00  0.00    -0.094 C  
HETATM    4  H   UNL     2      -6.829   4.017  73.641  1.00  0.00     0.000 HD 
HETATM    5  O   UNL     3     -12.402  15.697  68.874  1.00  0.00    -0.602 OA 
HETATM    6  H   UNL     3     -13.171  15.279  69.244  1.00  0.00     0.000 HD 
HETATM    7  C   UNL     3     -11.228  15.072  69.430  1.00  0.00    -0.284 C  
ENDROOT
BRANCH   3   8
HETATM    8  C   UNL     2      -7.702   6.218  71.479  1.00  0.00    -0.100 C  
HETATM    9  O   UNL     2      -7.620   6.033  70.052  1.00  0.00    -0.083 OA 
HETATM   10  H   UNL     2      -7.575   6.879  69.622  1.00  0.00     0.000 HD 
BRANCH   8  11
HETATM   11  C   UNL     2      -8.891   7.126  71.853  1.00  0.00    -0.123 C  
HETATM   12  O   UNL     2      -8.349   8.297  72.469  1.00  0.00    -0.157 OA 
HETATM   13  H   UNL     2      -9.080   8.857  72.699  1.00  0.00     0.000 HD 
BRANCH  11  14
HETATM   14  C   UNL     2      -9.668   7.478  70.568  1.00  0.00    -0.179 C  
HETATM   15  H   UNL     2      -9.765   9.038  69.354  1.00  0.00     0.000 HD 
HETATM   16  O   UNL     2      -9.286   8.821  70.146  1.00  0.00    -0.157 OA 
BRANCH  14  17
HETATM   17  C   UNL     2     -11.188   7.322  70.608  1.00  0.00    -0.274 C  
HETATM   18  C   UNL     2     -11.644   7.068  72.067  1.00  0.00    -0.285 C  
HETATM   19  H   UNL     2     -12.542   6.226  69.691  1.00  0.00     0.000 HD 
HETATM   20  O   UNL     2     -11.597   6.323  69.666  1.00  0.00    -0.430 OA 
HETATM   21  O   UNL     2     -11.122   7.910  72.866  1.00  0.00    -0.384 OA 
HETATM   22  O   UNL     2     -12.455   6.135  72.233  1.00  0.00    -0.236 OA 
ENDBRANCH  14  17
ENDBRANCH  11  14
ENDBRANCH   8  11
ENDBRANCH   3   8
BRANCH   7  23
HETATM   23  C   UNL     3      -9.986  15.746  68.832  1.00  0.00    -0.223 C  
HETATM   24  O   UNL     3      -9.246  14.752  68.094  1.00  0.00    -0.185 OA 
HETATM   25  H   UNL     3      -8.476  15.170  67.724  1.00  0.00     0.000 HD 
BRANCH  23  26
HETATM   26  C   UNL     3     -10.233  16.886  67.825  1.00  0.00    -0.308 C  
HETATM   27  O   UNL     3      -9.499  18.063  68.174  1.00  0.00    -0.271 OA 
HETATM   28  H   UNL     3      -9.652  18.765  67.552  1.00  0.00     0.000 HD 
BRANCH  26  29
HETATM   29  C   UNL     3     -10.024  16.600  66.322  1.00  0.00    -0.320 C  
HETATM   30  O   UNL     3      -9.443  17.714  65.624  1.00  0.00    -0.473 OA 
HETATM   31  H   UNL     3      -9.315  17.537  64.700  1.00  0.00     0.000 HD 
BRANCH  29  32
HETATM   32  C   UNL     3     -11.243  16.138  65.530  1.00  0.00     0.053 C  
HETATM   33  C   UNL     3     -11.426  14.611  65.484  1.00  0.00    -0.341 C  
HETATM   34  O   UNL     3     -11.104  16.603  64.118  1.00  0.00    -1.338 OA 
HETATM   35  O   UNL     3     -10.881  14.087  64.425  1.00  0.00    -0.374 OA 
HETATM   36  O   UNL     3     -12.336  14.127  66.185  1.00  0.00    -0.450 OA 
HETATM   37  H   UNL     3     -11.863  16.315  63.624  1.00  0.00     0.000 HD 
ENDBRANCH  29  32
ENDBRANCH  26  29
ENDBRANCH  23  26
ENDBRANCH   7  23
TORSDOF 8
ENDMDL
MODEL      231
REMARK 921   NORMALIZED FREE ENERGY PREDICTED BY IDOCK:   -4.51 KCAL/MOL
REMARK 922        TOTAL FREE ENERGY PREDICTED BY IDOCK:   -8.69 KCAL/MOL
REMARK 923 INTER-LIGAND FREE ENERGY PREDICTED BY IDOCK:   -8.08 KCAL/MOL
REMARK 924 INTRA-LIGAND FREE ENERGY PREDICTED BY IDOCK:   -0.61 KCAL/MOL
REMARK 927      BINDING AFFINITY PREDICTED BY RF-SCORE:    0.00 PKD
ROOT
HETATM    1 CU   UNL     1      -8.380  12.630  69.557  1.00  0.00    -0.322 Cu 
HETATM    2  O   UNL     2      -8.662   7.521  72.697  1.00  0.00    -0.116 OA 
HETATM    3  C   UNL     2      -9.942   8.104  72.415  1.00  0.00    -0.275 C  
HETATM    4  H   UNL     2      -8.800   6.852  73.358  1.00  0.00     0.000 HD 
HETATM    5  O   UNL     3      -9.999  19.655  68.374  1.00  0.00    -0.392 OA 
HETATM    6  H   UNL     3     -10.430  19.758  69.214  1.00  0.00     0.000 HD 
HETATM    7  C   UNL     3      -9.198  18.457  68.413  1.00  0.00    -0.322 C  
ENDROOT
BRANCH   3   8
HETATM    8  C   UNL     2      -9.722   9.178  71.353  1.00  0.00    -0.268 C  
HETATM    9  O   UNL     2      -8.646   8.783  70.480  1.00  0.00    -0.138 OA 
HETATM   10  H   UNL     2      -8.508   9.451  69.819  1.00  0.00     0.000 HD 
BRANCH   8  11
HETATM   11  C   UNL     2     -11.005   9.479  70.551  1.00  0.00    -0.288 C  
HETATM   12  O   UNL     2     -11.180  10.898  70.554  1.00  0.00    -0.449 OA 
HETATM   13  H   UNL     2     -11.970  11.083  70.061  1.00  0.00     0.000 HD 
BRANCH  11  14
HETATM   14  C   UNL     2     -10.830   8.939  69.117  1.00  0.00    -0.070 C  
HETATM   15  H   UNL     2     -10.334   7.203  68.309  1.00  0.00     0.000 HD 
HETATM   16  O   UNL     2     -10.442   7.535  69.192  1.00  0.00    -0.213 OA 
BRANCH  14  17
HETATM   17  C   UNL     2      -9.903   9.721  68.186  1.00  0.00    -0.148 C  
HETATM   18  C   UNL     2     -10.744  10.423  67.090  1.00  0.00    -0.256 C  
HETATM   19  H   UNL     2      -8.296   9.343  67.115  1.00  0.00     0.000 HD 
HETATM   20  O   UNL     2      -8.871   8.857  67.694  1.00  0.00    -0.133 OA 
HETATM   21  O   UNL     2     -11.729  11.051  67.596  1.00  0.00    -0.576 OA 
HETATM   22  O   UNL     2     -10.327  10.307  65.920  1.00  0.00    -0.237 OA 
ENDBRANCH  14  17
ENDBRANCH  11  14
ENDBRANCH   8  11
ENDBRANCH   3   8
BRANCH   7  23
HETATM   23  C   UNL     3      -8.501  18.291  67.056  1.00  0.00    -0.250 C  
HETATM   24  O   UNL     3      -7.091  18.532  67.242  1.00  0.00    -0.202 OA 
HETATM   25  H   UNL     3      -6.660  18.429  66.401  1.00  0.00     0.000 HD 
BRANCH  23  26
HETATM   26  C   UNL     3      -8.582  16.899  66.399  1.00  0.00    -0.293 C  
HETATM   27  O   UNL     3      -7.600  16.009  66.934  1.00  0.00    -0.212 OA 
HETATM   28  H   UNL     3      -7.650  15.150  66.529  1.00  0.00     0.000 HD 
BRANCH  26  29
HETATM   29  C   UNL     3      -9.946  16.174  66.373  1.00  0.00    -0.299 C  
HETATM   30  O   UNL     3     -10.110  15.270  67.477  1.00  0.00    -0.230 OA 
HETATM   31  H   UNL     3     -10.949  14.824  67.460  1.00  0.00     0.000 HD 
BRANCH  29  32
HETATM   32  C   UNL     3     -10.304  15.422  65.096  1.00  0.00    -0.374 C  
HETATM   33  C   UNL     3     -11.802  15.450  64.744  1.00  0.00    -0.169 C  
HETATM   34  O   UNL     3      -9.922  13.988  65.258  1.00  0.00    -0.494 OA 
HETATM   35  O   UNL     3     -12.431  14.409  65.208  1.00  0.00    -0.412 OA 
HETATM   36  O   UNL     3     -12.150  16.186  63.800  1.00  0.00    -0.946 OA 
HETATM   37  H   UNL     3     -10.145  13.519  64.463  1.00  0.00     0.000 HD 
ENDBRANCH  29  32
ENDBRANCH  26  29
ENDBRANCH  23  26
ENDBRANCH   7  23
TORSDOF 8
ENDMDL
MODEL      232
REMARK 921   NORMALIZED FREE ENERGY PREDICTED BY IDOCK:   -4.51 KCAL/MOL
REMARK 922        TOTAL FREE ENERGY PREDICTED BY IDOCK:   -8.69 KCAL/MOL
REMARK 923 INTER-LIGAND FREE ENERGY PREDICTED BY IDOCK:   -7.00 KCAL/MOL
REMARK 924 INTRA-LIGAND FREE ENERGY PREDICTED BY IDOCK:   -1.69 KCAL/MOL
REMARK 927      BINDING AFFINITY PREDICTED BY RF-SCORE:    0.00 PKD
ROOT
HETATM    1 CU   UNL     1     -11.017   9.038  70.985  1.00  0.00    -0.207 Cu 
HETATM    2  O   UNL     2      -9.906   3.460  72.905  1.00  0.00    -0.128 OA 
HETATM    3  C   UNL     2     -10.993   4.106  73.584  1.00  0.00    -0.267 C  
HETATM    4  H   UNL     2      -9.681   2.688  73.411  1.00  0.00     0.000 HD 
HETATM    5  O   UNL     3     -12.119  16.189  72.005  1.00  0.00    -0.476 OA 
HETATM    6  H   UNL     3     -11.910  16.148  72.932  1.00  0.00     0.000 HD 
HETATM    7  C   UNL     3     -11.630  14.989  71.372  1.00  0.00    -0.346 C  
ENDROOT
BRANCH   3   8
HETATM    8  C   UNL     2     -11.355   5.346  72.772  1.00  0.00    -0.296 C  
HETATM    9  O   UNL     2     -12.786   5.517  72.761  1.00  0.00    -0.421 OA 
HETATM   10  H   UNL     2     -13.011   6.289  72.255  1.00  0.00     0.000 HD 
BRANCH   8  11
HETATM   11  C   UNL     2     -10.649   6.614  73.296  1.00  0.00    -0.291 C  
HETATM   12  O   UNL     2     -10.020   6.265  74.531  1.00  0.00    -0.283 OA 
HETATM   13  H   UNL     2      -9.585   7.045  74.854  1.00  0.00     0.000 HD 
BRANCH  11  14
HETATM   14  C   UNL     2      -9.613   7.071  72.249  1.00  0.00    -0.149 C  
HETATM   15  H   UNL     2      -8.810   6.290  70.618  1.00  0.00     0.000 HD 
HETATM   16  O   UNL     2      -9.448   6.009  71.263  1.00  0.00    -0.162 OA 
BRANCH  14  17
HETATM   17  C   UNL     2      -8.260   7.555  72.772  1.00  0.00    -0.117 C  
HETATM   18  C   UNL     2      -7.576   8.436  71.695  1.00  0.00    -0.104 C  
HETATM   19  H   UNL     2      -6.644   6.738  73.542  1.00  0.00     0.000 HD 
HETATM   20  O   UNL     2      -7.485   6.436  73.217  1.00  0.00    -0.090 OA 
HETATM   21  O   UNL     2      -8.377   9.316  71.243  1.00  0.00    -0.317 OA 
HETATM   22  O   UNL     2      -6.375   8.189  71.467  1.00  0.00    -0.038 OA 
ENDBRANCH  14  17
ENDBRANCH  11  14
ENDBRANCH   8  11
ENDBRANCH   3   8
BRANCH   7  23
HETATM   23  C   UNL     3     -11.968  15.054  69.877  1.00  0.00    -0.334 C  
HETATM   24  O   UNL     3     -12.970  16.073  69.686  1.00  0.00    -0.484 OA 
HETATM   25  H   UNL     3     -13.179  16.114  68.760  1.00  0.00     0.000 HD 
BRANCH  23  26
HETATM   26  C   UNL     3     -10.821  15.443  68.923  1.00  0.00    -0.251 C  
HETATM   27  O   UNL     3     -11.213  15.321  67.554  1.00  0.00    -0.320 OA 
HETATM   28  H   UNL     3     -10.506  15.561  66.966  1.00  0.00     0.000 HD 
BRANCH  26  29
HETATM   29  C   UNL     3     -10.128  16.809  69.121  1.00  0.00    -0.280 C  
HETATM   30  O   UNL     3     -10.897  17.703  69.941  1.00  0.00    -0.129 OA 
HETATM   31  H   UNL     3     -10.471  18.543  70.062  1.00  0.00     0.000 HD 
BRANCH  29  32
HETATM   32  C   UNL     3      -9.719  17.565  67.861  1.00  0.00    -0.278 C  
HETATM   33  C   UNL     3      -8.499  18.485  68.044  1.00  0.00    -0.283 C  
HETATM   34  O   UNL     3     -10.856  18.431  67.429  1.00  0.00    -0.403 OA 
HETATM   35  O   UNL     3      -8.847  19.704  68.333  1.00  0.00    -0.340 OA 
HETATM   36  O   UNL     3      -7.421  18.103  67.547  1.00  0.00    -0.209 OA 
HETATM   37  H   UNL     3     -10.602  18.903  66.645  1.00  0.00     0.000 HD 
ENDBRANCH  29  32
ENDBRANCH  26  29
ENDBRANCH  23  26
ENDBRANCH   7  23
TORSDOF 8
ENDMDL
MODEL      233
REMARK 921   NORMALIZED FREE ENERGY PREDICTED BY IDOCK:   -4.50 KCAL/MOL
REMARK 922        TOTAL FREE ENERGY PREDICTED BY IDOCK:   -8.68 KCAL/MOL
REMARK 923 INTER-LIGAND FREE ENERGY PREDICTED BY IDOCK:   -7.83 KCAL/MOL
REMARK 924 INTRA-LIGAND FREE ENERGY PREDICTED BY IDOCK:   -0.86 KCAL/MOL
REMARK 927      BINDING AFFINITY PREDICTED BY RF-SCORE:    0.00 PKD
ROOT
HETATM    1 CU   UNL     1     -10.500  13.262  67.813  1.00  0.00    -0.212 Cu 
HETATM    2  O   UNL     2     -10.594   7.276  67.365  1.00  0.00    -0.251 OA 
HETATM    3  C   UNL     2     -10.103   7.760  68.624  1.00  0.00    -0.199 C  
HETATM    4  H   UNL     2     -10.376   6.353  67.317  1.00  0.00     0.000 HD 
HETATM    5  O   UNL     3      -7.252  19.644  69.263  1.00  0.00    -0.360 OA 
HETATM    6  H   UNL     3      -6.396  19.248  69.380  1.00  0.00     0.000 HD 
HETATM    7  C   UNL     3      -8.103  18.702  68.578  1.00  0.00    -0.341 C  
ENDROOT
BRANCH   3   8
HETATM    8  C   UNL     2     -10.453   9.244  68.702  1.00  0.00    -0.209 C  
HETATM    9  O   UNL     2     -11.279   9.606  67.578  1.00  0.00    -0.431 OA 
HETATM   10  H   UNL     2     -11.496  10.530  67.626  1.00  0.00     0.000 HD 
BRANCH   8  11
HETATM   11  C   UNL     2     -11.136   9.614  70.035  1.00  0.00    -0.255 C  
HETATM   12  O   UNL     2     -12.450  10.081  69.719  1.00  0.00    -0.487 OA 
HETATM   13  H   UNL     2     -12.871  10.309  70.539  1.00  0.00     0.000 HD 
BRANCH  11  14
HETATM   14  C   UNL     2     -11.189   8.358  70.928  1.00  0.00    -0.262 C  
HETATM   15  H   UNL     2     -12.510   6.929  71.287  1.00  0.00     0.000 HD 
HETATM   16  O   UNL     2     -12.477   7.703  70.736  1.00  0.00    -0.148 OA 
BRANCH  14  17
HETATM   17  C   UNL     2     -10.879   8.546  72.414  1.00  0.00    -0.308 C  
HETATM   18  C   UNL     2      -9.439   8.055  72.708  1.00  0.00    -0.269 C  
HETATM   19  H   UNL     2     -11.708   8.040  74.126  1.00  0.00     0.000 HD 
HETATM   20  O   UNL     2     -11.900   7.924  73.203  1.00  0.00    -0.216 OA 
HETATM   21  O   UNL     2      -8.608   8.538  71.872  1.00  0.00    -0.169 OA 
HETATM   22  O   UNL     2      -9.303   7.319  73.705  1.00  0.00    -0.209 OA 
ENDBRANCH  14  17
ENDBRANCH  11  14
ENDBRANCH   8  11
ENDBRANCH   3   8
BRANCH   7  23
HETATM   23  C   UNL     3      -9.485  19.341  68.389  1.00  0.00    -0.376 C  
HETATM   24  O   UNL     3      -9.300  20.655  67.823  1.00  0.00    -0.267 OA 
HETATM   25  H   UNL     3     -10.156  21.051  67.707  1.00  0.00     0.000 HD 
BRANCH  23  26
HETATM   26  C   UNL     3     -10.454  18.628  67.427  1.00  0.00    -0.423 C  
HETATM   27  O   UNL     3     -11.156  19.561  66.602  1.00  0.00    -0.346 OA 
HETATM   28  H   UNL     3     -11.754  19.121  66.009  1.00  0.00     0.000 HD 
BRANCH  26  29
HETATM   29  C   UNL     3      -9.905  17.493  66.534  1.00  0.00    -0.310 C  
HETATM   30  O   UNL     3     -10.506  17.480  65.229  1.00  0.00    -0.643 OA 
HETATM   31  H   UNL     3     -10.168  16.781  64.681  1.00  0.00     0.000 HD 
BRANCH  29  32
HETATM   32  C   UNL     3      -9.976  16.077  67.095  1.00  0.00    -0.249 C  
HETATM   33  C   UNL     3      -9.161  15.041  66.301  1.00  0.00    -0.253 C  
HETATM   34  O   UNL     3     -11.397  15.621  67.076  1.00  0.00    -0.209 OA 
HETATM   35  O   UNL     3      -9.886  14.431  65.410  1.00  0.00    -0.325 OA 
HETATM   36  O   UNL     3      -8.096  14.642  66.813  1.00  0.00    -0.101 OA 
HETATM   37  H   UNL     3     -11.441  14.738  67.425  1.00  0.00     0.000 HD 
ENDBRANCH  29  32
ENDBRANCH  26  29
ENDBRANCH  23  26
ENDBRANCH   7  23
TORSDOF 8
ENDMDL
MODEL      234
REMARK 921   NORMALIZED FREE ENERGY PREDICTED BY IDOCK:   -4.49 KCAL/MOL
REMARK 922        TOTAL FREE ENERGY PREDICTED BY IDOCK:   -8.67 KCAL/MOL
REMARK 923 INTER-LIGAND FREE ENERGY PREDICTED BY IDOCK:   -6.74 KCAL/MOL
REMARK 924 INTRA-LIGAND FREE ENERGY PREDICTED BY IDOCK:   -1.93 KCAL/MOL
REMARK 927      BINDING AFFINITY PREDICTED BY RF-SCORE:    0.00 PKD
ROOT
HETATM    1 CU   UNL     1      -9.638  10.024  68.767  1.00  0.00    -0.139 Cu 
HETATM    2  O   UNL     2      -8.881   4.223  70.113  1.00  0.00    -0.075 OA 
HETATM    3  C   UNL     2     -10.141   4.761  70.539  1.00  0.00    -0.220 C  
HETATM    4  H   UNL     2      -8.775   3.384  70.547  1.00  0.00     0.000 HD 
HETATM    5  O   UNL     3     -11.281  16.946  70.433  1.00  0.00    -0.416 OA 
HETATM    6  H   UNL     3     -11.340  16.768  71.365  1.00  0.00     0.000 HD 
HETATM    7  C   UNL     3     -10.584  15.852  69.802  1.00  0.00    -0.322 C  
ENDROOT
BRANCH   3   8
HETATM    8  C   UNL     2     -10.312   6.109  69.841  1.00  0.00    -0.213 C  
HETATM    9  O   UNL     2     -11.677   6.259  69.405  1.00  0.00    -0.545 OA 
HETATM   10  H   UNL     2     -11.783   7.098  68.971  1.00  0.00     0.000 HD 
BRANCH   8  11
HETATM   11  C   UNL     2      -9.881   7.289  70.737  1.00  0.00    -0.178 C  
HETATM   12  O   UNL     2      -9.801   6.793  72.076  1.00  0.00    -0.159 OA 
HETATM   13  H   UNL     2      -9.536   7.519  72.627  1.00  0.00     0.000 HD 
BRANCH  11  14
HETATM   14  C   UNL     2      -8.513   7.807  70.249  1.00  0.00    -0.133 C  
HETATM   15  H   UNL     2      -6.878   6.990  69.492  1.00  0.00     0.000 HD 
HETATM   16  O   UNL     2      -7.720   6.671  69.793  1.00  0.00    -0.107 OA 
BRANCH  14  17
HETATM   17  C   UNL     2      -7.716   8.686  71.212  1.00  0.00    -0.118 C  
HETATM   18  C   UNL     2      -7.013   9.817  70.418  1.00  0.00    -0.138 C  
HETATM   19  H   UNL     2      -6.346   8.418  72.599  1.00  0.00     0.000 HD 
HETATM   20  O   UNL     2      -6.842   7.871  72.001  1.00  0.00    -0.058 OA 
HETATM   21  O   UNL     2      -7.826  10.400  69.630  1.00  0.00    -0.156 OA 
HETATM   22  O   UNL     2      -5.811  10.009  70.685  1.00  0.00    -0.068 OA 
ENDBRANCH  14  17
ENDBRANCH  11  14
ENDBRANCH   8  11
ENDBRANCH   3   8
BRANCH   7  23
HETATM   23  C   UNL     3     -10.488  16.138  68.297  1.00  0.00    -0.276 C  
HETATM   24  O   UNL     3      -9.137  16.548  68.002  1.00  0.00    -0.204 OA 
HETATM   25  H   UNL     3      -9.078  16.726  67.070  1.00  0.00     0.000 HD 
BRANCH  23  26
HETATM   26  C   UNL     3     -10.759  14.955  67.347  1.00  0.00    -0.292 C  
HETATM   27  O   UNL     3     -11.025  15.401  66.016  1.00  0.00    -0.325 OA 
HETATM   28  H   UNL     3     -11.193  14.671  65.430  1.00  0.00     0.000 HD 
BRANCH  26  29
HETATM   29  C   UNL     3      -9.730  13.805  67.288  1.00  0.00    -0.242 C  
HETATM   30  O   UNL     3      -8.452  14.235  66.792  1.00  0.00    -0.393 OA 
HETATM   31  H   UNL     3      -7.819  13.527  66.756  1.00  0.00     0.000 HD 
BRANCH  29  32
HETATM   32  C   UNL     3     -10.134  12.554  66.516  1.00  0.00    -0.238 C  
HETATM   33  C   UNL     3     -11.606  12.144  66.700  1.00  0.00    -0.350 C  
HETATM   34  O   UNL     3      -9.301  11.408  66.986  1.00  0.00    -0.170 OA 
HETATM   35  O   UNL     3     -11.753  11.271  67.653  1.00  0.00    -0.564 OA 
HETATM   36  O   UNL     3     -12.379  12.362  65.747  1.00  0.00    -0.644 OA 
HETATM   37  H   UNL     3      -9.552  10.628  66.505  1.00  0.00     0.000 HD 
ENDBRANCH  29  32
ENDBRANCH  26  29
ENDBRANCH  23  26
ENDBRANCH   7  23
TORSDOF 8
ENDMDL
MODEL      235
REMARK 921   NORMALIZED FREE ENERGY PREDICTED BY IDOCK:   -4.48 KCAL/MOL
REMARK 922        TOTAL FREE ENERGY PREDICTED BY IDOCK:   -8.65 KCAL/MOL
REMARK 923 INTER-LIGAND FREE ENERGY PREDICTED BY IDOCK:   -6.95 KCAL/MOL
REMARK 924 INTRA-LIGAND FREE ENERGY PREDICTED BY IDOCK:   -1.70 KCAL/MOL
REMARK 927      BINDING AFFINITY PREDICTED BY RF-SCORE:    0.00 PKD
ROOT
HETATM    1 CU   UNL     1      -8.239  11.877  69.472  1.00  0.00    -0.334 Cu 
HETATM    2  O   UNL     2      -7.757  17.821  68.787  1.00  0.00    -0.278 OA 
HETATM    3  C   UNL     2      -8.196  17.131  67.608  1.00  0.00    -0.187 C  
HETATM    4  H   UNL     2      -7.517  18.702  68.522  1.00  0.00     0.000 HD 
HETATM    5  O   UNL     3      -6.934   4.959  67.516  1.00  0.00    -0.059 OA 
HETATM    6  H   UNL     3      -6.328   5.207  66.827  1.00  0.00     0.000 HD 
HETATM    7  C   UNL     3      -7.115   6.088  68.395  1.00  0.00    -0.082 C  
ENDROOT
BRANCH   3   8
HETATM    8  C   UNL     2      -8.583  15.717  68.033  1.00  0.00    -0.163 C  
HETATM    9  O   UNL     2      -8.072  15.452  69.354  1.00  0.00    -0.232 OA 
HETATM   10  H   UNL     2      -8.313  14.572  69.619  1.00  0.00     0.000 HD 
BRANCH   8  11
HETATM   11  C   UNL     2     -10.107  15.485  67.970  1.00  0.00    -0.223 C  
HETATM   12  O   UNL     2     -10.674  16.601  67.280  1.00  0.00    -0.306 OA 
HETATM   13  H   UNL     2     -11.612  16.458  67.241  1.00  0.00     0.000 HD 
BRANCH  11  14
HETATM   14  C   UNL     2     -10.374  14.166  67.216  1.00  0.00    -0.267 C  
HETATM   15  H   UNL     2      -9.283  12.622  66.633  1.00  0.00     0.000 HD 
HETATM   16  O   UNL     2      -9.118  13.434  67.097  1.00  0.00    -0.217 OA 
BRANCH  14  17
HETATM   17  C   UNL     2     -11.086  14.266  65.867  1.00  0.00    -0.310 C  
HETATM   18  C   UNL     2     -11.703  12.890  65.505  1.00  0.00    -0.383 C  
HETATM   19  H   UNL     2     -10.634  14.863  64.047  1.00  0.00     0.000 HD 
HETATM   20  O   UNL     2     -10.191  14.802  64.885  1.00  0.00    -0.388 OA 
HETATM   21  O   UNL     2     -12.364  12.411  66.481  1.00  0.00    -0.511 OA 
HETATM   22  O   UNL     2     -11.501  12.488  64.342  1.00  0.00    -0.316 OA 
ENDBRANCH  14  17
ENDBRANCH  11  14
ENDBRANCH   8  11
ENDBRANCH   3   8
BRANCH   7  23
HETATM   23  C   UNL     3      -8.093   5.688  69.508  1.00  0.00    -0.103 C  
HETATM   24  O   UNL     3      -7.570   6.172  70.762  1.00  0.00    -0.092 OA 
HETATM   25  H   UNL     3      -8.176   5.924  71.451  1.00  0.00     0.000 HD 
BRANCH  23  26
HETATM   26  C   UNL     3      -9.518   6.270  69.422  1.00  0.00    -0.139 C  
HETATM   27  O   UNL     3     -10.463   5.282  69.002  1.00  0.00    -0.205 OA 
HETATM   28  H   UNL     3     -11.342   5.641  68.949  1.00  0.00     0.000 HD 
BRANCH  26  29
HETATM   29  C   UNL     3     -10.088   7.011  70.651  1.00  0.00    -0.191 C  
HETATM   30  O   UNL     3     -10.297   6.138  71.772  1.00  0.00    -0.202 OA 
HETATM   31  H   UNL     3     -10.647   6.594  72.528  1.00  0.00     0.000 HD 
BRANCH  29  32
HETATM   32  C   UNL     3     -11.366   7.816  70.442  1.00  0.00    -0.207 C  
HETATM   33  C   UNL     3     -11.800   8.643  71.665  1.00  0.00    -0.323 C  
HETATM   34  O   UNL     3     -12.483   6.874  70.134  1.00  0.00    -0.602 OA 
HETATM   35  O   UNL     3     -12.651   8.001  72.409  1.00  0.00    -0.272 OA 
HETATM   36  O   UNL     3     -11.622   9.875  71.608  1.00  0.00    -0.360 OA 
HETATM   37  H   UNL     3     -13.280   7.375  70.004  1.00  0.00     0.000 HD 
ENDBRANCH  29  32
ENDBRANCH  26  29
ENDBRANCH  23  26
ENDBRANCH   7  23
TORSDOF 8
ENDMDL
MODEL      236
REMARK 921   NORMALIZED FREE ENERGY PREDICTED BY IDOCK:   -4.48 KCAL/MOL
REMARK 922        TOTAL FREE ENERGY PREDICTED BY IDOCK:   -8.65 KCAL/MOL
REMARK 923 INTER-LIGAND FREE ENERGY PREDICTED BY IDOCK:   -6.52 KCAL/MOL
REMARK 924 INTRA-LIGAND FREE ENERGY PREDICTED BY IDOCK:   -2.13 KCAL/MOL
REMARK 927      BINDING AFFINITY PREDICTED BY RF-SCORE:    0.00 PKD
ROOT
HETATM    1 CU   UNL     1      -8.842   8.042  66.517  1.00  0.00    -0.112 Cu 
HETATM    2  O   UNL     2      -8.394   2.304  64.811  1.00  0.00    -0.085 OA 
HETATM    3  C   UNL     2      -9.006   3.158  63.834  1.00  0.00    -0.093 C  
HETATM    4  H   UNL     2      -8.557   1.408  64.541  1.00  0.00     0.000 HD 
HETATM    5  O   UNL     3     -12.531  14.256  67.598  1.00  0.00    -0.570 OA 
HETATM    6  H   UNL     3     -13.371  13.860  67.395  1.00  0.00     0.000 HD 
HETATM    7  C   UNL     3     -11.580  13.203  67.859  1.00  0.00    -0.336 C  
ENDROOT
BRANCH   3   8
HETATM    8  C   UNL     2      -8.743   4.597  64.267  1.00  0.00    -0.148 C  
HETATM    9  O   UNL     2      -8.787   5.466  63.118  1.00  0.00    -0.324 OA 
HETATM   10  H   UNL     2      -8.623   6.362  63.388  1.00  0.00     0.000 HD 
BRANCH   8  11
HETATM   11  C   UNL     2      -9.727   5.068  65.358  1.00  0.00    -0.017 C  
HETATM   12  O   UNL     2     -10.822   4.149  65.362  1.00  0.00    -0.513 OA 
HETATM   13  H   UNL     2     -11.428   4.438  66.033  1.00  0.00     0.000 HD 
BRANCH  11  14
HETATM   14  C   UNL     2      -8.995   5.073  66.715  1.00  0.00    -0.113 C  
HETATM   15  H   UNL     2      -7.128   4.817  67.319  1.00  0.00     0.000 HD 
HETATM   16  O   UNL     2      -7.579   4.813  66.483  1.00  0.00    -0.085 OA 
BRANCH  14  17
HETATM   17  C   UNL     2      -9.552   4.164  67.811  1.00  0.00    -0.155 C  
HETATM   18  C   UNL     2      -9.402   4.862  69.187  1.00  0.00    -0.128 C  
HETATM   19  H   UNL     2      -9.289   2.305  68.403  1.00  0.00     0.000 HD 
HETATM   20  O   UNL     2      -8.943   2.870  67.722  1.00  0.00    -0.125 OA 
HETATM   21  O   UNL     2      -9.833   6.059  69.146  1.00  0.00    -0.139 OA 
HETATM   22  O   UNL     2      -8.935   4.162  70.108  1.00  0.00    -0.077 OA 
ENDBRANCH  14  17
ENDBRANCH  11  14
ENDBRANCH   8  11
ENDBRANCH   3   8
BRANCH   7  23
HETATM   23  C   UNL     3     -10.224  13.841  68.187  1.00  0.00    -0.253 C  
HETATM   24  O   UNL     3      -9.226  12.800  68.188  1.00  0.00    -0.204 OA 
HETATM   25  H   UNL     3      -8.385  13.195  68.391  1.00  0.00     0.000 HD 
BRANCH  23  26
HETATM   26  C   UNL     3      -9.695  14.896  67.196  1.00  0.00    -0.228 C  
HETATM   27  O   UNL     3     -10.244  14.709  65.889  1.00  0.00    -0.293 OA 
HETATM   28  H   UNL     3      -9.918  15.360  65.278  1.00  0.00     0.000 HD 
BRANCH  26  29
HETATM   29  C   UNL     3      -9.813  16.388  67.574  1.00  0.00    -0.239 C  
HETATM   30  O   UNL     3     -11.099  16.717  68.126  1.00  0.00    -0.363 OA 
HETATM   31  H   UNL     3     -11.171  17.635  68.358  1.00  0.00     0.000 HD 
BRANCH  29  32
HETATM   32  C   UNL     3      -9.500  17.406  66.482  1.00  0.00    -0.273 C  
HETATM   33  C   UNL     3      -9.440  18.863  66.974  1.00  0.00    -0.310 C  
HETATM   34  O   UNL     3     -10.569  17.340  65.442  1.00  0.00    -0.630 OA 
HETATM   35  O   UNL     3     -10.581  19.471  66.832  1.00  0.00    -0.441 OA 
HETATM   36  O   UNL     3      -8.312  19.384  67.071  1.00  0.00    -0.267 OA 
HETATM   37  H   UNL     3     -10.374  17.974  64.762  1.00  0.00     0.000 HD 
ENDBRANCH  29  32
ENDBRANCH  26  29
ENDBRANCH  23  26
ENDBRANCH   7  23
TORSDOF 8
ENDMDL
MODEL      237
REMARK 921   NORMALIZED FREE ENERGY PREDICTED BY IDOCK:   -4.47 KCAL/MOL
REMARK 922        TOTAL FREE ENERGY PREDICTED BY IDOCK:   -8.64 KCAL/MOL
REMARK 923 INTER-LIGAND FREE ENERGY PREDICTED BY IDOCK:   -7.62 KCAL/MOL
REMARK 924 INTRA-LIGAND FREE ENERGY PREDICTED BY IDOCK:   -1.02 KCAL/MOL
REMARK 927      BINDING AFFINITY PREDICTED BY RF-SCORE:    0.00 PKD
ROOT
HETATM    1 CU   UNL     1      -8.256  14.204  68.488  1.00  0.00    -0.111 Cu 
HETATM    2  O   UNL     2      -7.521  20.140  67.986  1.00  0.00    -0.297 OA 
HETATM    3  C   UNL     2      -8.676  19.635  67.301  1.00  0.00    -0.312 C  
HETATM    4  H   UNL     2      -7.381  21.029  67.678  1.00  0.00     0.000 HD 
HETATM    5  O   UNL     3      -9.346   7.513  65.763  1.00  0.00    -0.395 OA 
HETATM    6  H   UNL     3      -9.264   7.803  64.862  1.00  0.00     0.000 HD 
HETATM    7  C   UNL     3      -8.800   8.532  66.625  1.00  0.00    -0.135 C  
ENDROOT
BRANCH   3   8
HETATM    8  C   UNL     2      -8.902  18.209  67.795  1.00  0.00    -0.256 C  
HETATM    9  O   UNL     2      -7.919  17.881  68.796  1.00  0.00    -0.292 OA 
HETATM   10  H   UNL     2      -8.059  16.993  69.104  1.00  0.00     0.000 HD 
BRANCH   8  11
HETATM   11  C   UNL     2     -10.333  17.996  68.332  1.00  0.00    -0.368 C  
HETATM   12  O   UNL     2     -11.075  19.180  68.030  1.00  0.00    -0.284 OA 
HETATM   13  H   UNL     2     -11.956  19.049  68.360  1.00  0.00     0.000 HD 
BRANCH  11  14
HETATM   14  C   UNL     2     -10.942  16.761  67.638  1.00  0.00    -0.178 C  
HETATM   15  H   UNL     2     -11.850  15.106  68.233  1.00  0.00     0.000 HD 
HETATM   16  O   UNL     2     -11.474  15.867  68.660  1.00  0.00    -0.363 OA 
BRANCH  14  17
HETATM   17  C   UNL     2     -10.052  16.005  66.651  1.00  0.00    -0.279 C  
HETATM   18  C   UNL     2     -10.670  16.086  65.231  1.00  0.00    -0.399 C  
HETATM   19  H   UNL     2      -9.265  14.206  66.517  1.00  0.00     0.000 HD 
HETATM   20  O   UNL     2      -9.818  14.676  67.130  1.00  0.00    -0.231 OA 
HETATM   21  O   UNL     2     -10.986  17.283  64.935  1.00  0.00    -0.815 OA 
HETATM   22  O   UNL     2     -10.727  15.015  64.596  1.00  0.00    -0.365 OA 
ENDBRANCH  14  17
ENDBRANCH  11  14
ENDBRANCH   8  11
ENDBRANCH   3   8
BRANCH   7  23
HETATM   23  C   UNL     3      -8.932   8.064  68.080  1.00  0.00    -0.130 C  
HETATM   24  O   UNL     3      -7.773   7.267  68.402  1.00  0.00    -0.115 OA 
HETATM   25  H   UNL     3      -7.855   6.977  69.304  1.00  0.00     0.000 HD 
BRANCH  23  26
HETATM   26  C   UNL     3      -8.973   9.161  69.161  1.00  0.00    -0.144 C  
HETATM   27  O   UNL     3      -9.761  10.279  68.745  1.00  0.00    -0.162 OA 
HETATM   28  H   UNL     3      -9.786  10.955  69.413  1.00  0.00     0.000 HD 
BRANCH  26  29
HETATM   29  C   UNL     3      -9.388   8.768  70.596  1.00  0.00    -0.195 C  
HETATM   30  O   UNL     3      -8.998   7.427  70.934  1.00  0.00    -0.148 OA 
HETATM   31  H   UNL     3      -9.254   7.185  71.816  1.00  0.00     0.000 HD 
BRANCH  29  32
HETATM   32  C   UNL     3     -10.860   8.931  70.959  1.00  0.00    -0.259 C  
HETATM   33  C   UNL     3     -11.480   7.705  71.652  1.00  0.00    -0.260 C  
HETATM   34  O   UNL     3     -11.642   9.165  69.708  1.00  0.00    -0.441 OA 
HETATM   35  O   UNL     3     -12.061   6.908  70.804  1.00  0.00    -0.374 OA 
HETATM   36  O   UNL     3     -11.696   7.795  72.877  1.00  0.00    -0.315 OA 
HETATM   37  H   UNL     3     -12.559   9.267  69.934  1.00  0.00     0.000 HD 
ENDBRANCH  29  32
ENDBRANCH  26  29
ENDBRANCH  23  26
ENDBRANCH   7  23
TORSDOF 8
ENDMDL
MODEL      238
REMARK 921   NORMALIZED FREE ENERGY PREDICTED BY IDOCK:   -4.46 KCAL/MOL
REMARK 922        TOTAL FREE ENERGY PREDICTED BY IDOCK:   -8.62 KCAL/MOL
REMARK 923 INTER-LIGAND FREE ENERGY PREDICTED BY IDOCK:   -6.63 KCAL/MOL
REMARK 924 INTRA-LIGAND FREE ENERGY PREDICTED BY IDOCK:   -1.99 KCAL/MOL
REMARK 927      BINDING AFFINITY PREDICTED BY RF-SCORE:    0.00 PKD
ROOT
HETATM    1 CU   UNL     1     -10.372  11.729  69.586  1.00  0.00    -0.357 Cu 
HETATM    2  O   UNL     2      -8.688  16.710  66.689  1.00  0.00    -0.203 OA 
HETATM    3  C   UNL     2      -9.085  15.637  65.823  1.00  0.00    -0.122 C  
HETATM    4  H   UNL     2      -8.251  17.358  66.149  1.00  0.00     0.000 HD 
HETATM    5  O   UNL     3     -10.146   4.540  70.873  1.00  0.00    -0.207 OA 
HETATM    6  H   UNL     3      -9.416   4.398  70.280  1.00  0.00     0.000 HD 
HETATM    7  C   UNL     3     -10.227   5.949  71.169  1.00  0.00    -0.212 C  
ENDROOT
BRANCH   3   8
HETATM    8  C   UNL     2      -9.787  14.596  66.692  1.00  0.00    -0.269 C  
HETATM    9  O   UNL     2     -10.241  13.504  65.868  1.00  0.00    -0.289 OA 
HETATM   10  H   UNL     2     -10.678  12.857  66.408  1.00  0.00     0.000 HD 
BRANCH   8  11
HETATM   11  C   UNL     2      -8.887  14.089  67.838  1.00  0.00    -0.185 C  
HETATM   12  O   UNL     2      -9.711  13.978  69.001  1.00  0.00    -0.401 OA 
HETATM   13  H   UNL     2      -9.158  13.666  69.707  1.00  0.00     0.000 HD 
BRANCH  11  14
HETATM   14  C   UNL     2      -8.297  12.723  67.437  1.00  0.00    -0.189 C  
HETATM   15  H   UNL     2      -8.177  10.932  68.271  1.00  0.00     0.000 HD 
HETATM   16  O   UNL     2      -8.540  11.774  68.518  1.00  0.00    -0.162 OA 
BRANCH  14  17
HETATM   17  C   UNL     2      -6.834  12.697  66.996  1.00  0.00     0.117 C  
HETATM   18  C   UNL     2      -6.438  11.250  66.603  1.00  0.00    -0.128 C  
HETATM   19  H   UNL     2      -5.103  13.275  67.735  1.00  0.00     0.000 HD 
HETATM   20  O   UNL     2      -6.013  13.292  68.009  1.00  0.00    -0.094 OA 
HETATM   21  O   UNL     2      -7.294  10.737  65.814  1.00  0.00    -0.135 OA 
HETATM   22  O   UNL     2      -5.359  10.832  67.068  1.00  0.00    -0.041 OA 
ENDBRANCH  14  17
ENDBRANCH  11  14
ENDBRANCH   8  11
ENDBRANCH   3   8
BRANCH   7  23
HETATM   23  C   UNL     3     -11.405   6.178  72.126  1.00  0.00    -0.299 C  
HETATM   24  O   UNL     3     -11.259   5.277  73.243  1.00  0.00    -0.320 OA 
HETATM   25  H   UNL     3     -11.989   5.419  73.835  1.00  0.00     0.000 HD 
BRANCH  23  26
HETATM   26  C   UNL     3     -11.522   7.579  72.759  1.00  0.00    -0.300 C  
HETATM   27  O   UNL     3     -10.237   8.132  73.050  1.00  0.00    -0.309 OA 
HETATM   28  H   UNL     3     -10.309   8.996  73.440  1.00  0.00     0.000 HD 
BRANCH  26  29
HETATM   29  C   UNL     3     -12.369   8.647  72.034  1.00  0.00    -0.371 C  
HETATM   30  O   UNL     3     -13.079   8.114  70.904  1.00  0.00    -0.512 OA 
HETATM   31  H   UNL     3     -13.600   8.772  70.459  1.00  0.00     0.000 HD 
BRANCH  29  32
HETATM   32  C   UNL     3     -11.647   9.910  71.577  1.00  0.00    -0.301 C  
HETATM   33  C   UNL     3     -12.536  10.906  70.812  1.00  0.00    -0.394 C  
HETATM   34  O   UNL     3     -10.535   9.524  70.659  1.00  0.00    -0.264 OA 
HETATM   35  O   UNL     3     -12.467  10.731  69.525  1.00  0.00    -0.295 OA 
HETATM   36  O   UNL     3     -12.883  11.939  71.417  1.00  0.00    -0.389 OA 
HETATM   37  H   UNL     3     -10.085  10.310  70.374  1.00  0.00     0.000 HD 
ENDBRANCH  29  32
ENDBRANCH  26  29
ENDBRANCH  23  26
ENDBRANCH   7  23
TORSDOF 8
ENDMDL
MODEL      239
REMARK 921   NORMALIZED FREE ENERGY PREDICTED BY IDOCK:   -4.46 KCAL/MOL
REMARK 922        TOTAL FREE ENERGY PREDICTED BY IDOCK:   -8.62 KCAL/MOL
REMARK 923 INTER-LIGAND FREE ENERGY PREDICTED BY IDOCK:   -7.49 KCAL/MOL
REMARK 924 INTRA-LIGAND FREE ENERGY PREDICTED BY IDOCK:   -1.13 KCAL/MOL
REMARK 927      BINDING AFFINITY PREDICTED BY RF-SCORE:    0.00 PKD
ROOT
HETATM    1 CU   UNL     1      -9.030  11.037  67.883  1.00  0.00    -0.126 Cu 
HETATM    2  O   UNL     2      -6.107   6.832  71.016  1.00  0.00    -0.034 OA 
HETATM    3  C   UNL     2      -6.547   7.947  71.804  1.00  0.00    -0.049 C  
HETATM    4  H   UNL     2      -5.491   6.340  71.547  1.00  0.00     0.000 HD 
HETATM    5  O   UNL     3     -10.225  17.918  65.736  1.00  0.00    -0.577 OA 
HETATM    6  H   UNL     3      -9.450  18.250  66.174  1.00  0.00     0.000 HD 
HETATM    7  C   UNL     3     -10.109  16.484  65.627  1.00  0.00    -0.251 C  
ENDROOT
BRANCH   3   8
HETATM    8  C   UNL     2      -7.538   8.736  70.952  1.00  0.00    -0.102 C  
HETATM    9  O   UNL     2      -6.872   9.240  69.777  1.00  0.00    -0.047 OA 
HETATM   10  H   UNL     2      -7.489   9.732  69.247  1.00  0.00     0.000 HD 
BRANCH   8  11
HETATM   11  C   UNL     2      -8.778   7.901  70.574  1.00  0.00    -0.136 C  
HETATM   12  O   UNL     2      -9.813   8.242  71.499  1.00  0.00    -0.165 OA 
HETATM   13  H   UNL     2     -10.577   7.728  71.266  1.00  0.00     0.000 HD 
BRANCH  11  14
HETATM   14  C   UNL     2      -9.184   8.247  69.127  1.00  0.00    -0.151 C  
HETATM   15  H   UNL     2     -10.781   9.019  68.251  1.00  0.00     0.000 HD 
HETATM   16  O   UNL     2     -10.531   8.806  69.142  1.00  0.00    -0.222 OA 
BRANCH  14  17
HETATM   17  C   UNL     2      -9.057   7.138  68.082  1.00  0.00    -0.133 C  
HETATM   18  C   UNL     2      -8.291   7.676  66.847  1.00  0.00    -0.124 C  
HETATM   19  H   UNL     2     -10.271   5.901  67.149  1.00  0.00     0.000 HD 
HETATM   20  O   UNL     2     -10.350   6.591  67.798  1.00  0.00    -0.152 OA 
HETATM   21  O   UNL     2      -7.224   8.278  67.193  1.00  0.00    -0.081 OA 
HETATM   22  O   UNL     2      -8.793   7.417  65.735  1.00  0.00    -0.149 OA 
ENDBRANCH  14  17
ENDBRANCH  11  14
ENDBRANCH   8  11
ENDBRANCH   3   8
BRANCH   7  23
HETATM   23  C   UNL     3     -11.361  15.947  64.920  1.00  0.00    -0.256 C  
HETATM   24  O   UNL     3     -11.416  16.526  63.600  1.00  0.00    -1.421 OA 
HETATM   25  H   UNL     3     -12.191  16.193  63.162  1.00  0.00     0.000 HD 
BRANCH  23  26
HETATM   26  C   UNL     3     -11.428  14.425  64.689  1.00  0.00    -0.387 C  
HETATM   27  O   UNL     3     -10.153  13.894  64.318  1.00  0.00    -0.727 OA 
HETATM   28  H   UNL     3     -10.195  12.955  64.175  1.00  0.00     0.000 HD 
BRANCH  26  29
HETATM   29  C   UNL     3     -12.031  13.536  65.798  1.00  0.00    -0.403 C  
HETATM   30  O   UNL     3     -12.903  14.266  66.676  1.00  0.00    -0.438 OA 
HETATM   31  H   UNL     3     -13.274  13.719  67.358  1.00  0.00     0.000 HD 
BRANCH  29  32
HETATM   32  C   UNL     3     -11.052  12.748  66.662  1.00  0.00    -0.276 C  
HETATM   33  C   UNL     3     -11.188  13.011  68.172  1.00  0.00    -0.272 C  
HETATM   34  O   UNL     3      -9.659  13.125  66.278  1.00  0.00    -0.281 OA 
HETATM   35  O   UNL     3     -10.375  13.941  68.580  1.00  0.00    -0.236 OA 
HETATM   36  O   UNL     3     -11.720  12.117  68.859  1.00  0.00    -0.288 OA 
HETATM   37  H   UNL     3      -9.049  12.635  66.817  1.00  0.00     0.000 HD 
ENDBRANCH  29  32
ENDBRANCH  26  29
ENDBRANCH  23  26
ENDBRANCH   7  23
TORSDOF 8
ENDMDL
MODEL      240
REMARK 921   NORMALIZED FREE ENERGY PREDICTED BY IDOCK:   -4.46 KCAL/MOL
REMARK 922        TOTAL FREE ENERGY PREDICTED BY IDOCK:   -8.61 KCAL/MOL
REMARK 923 INTER-LIGAND FREE ENERGY PREDICTED BY IDOCK:   -6.34 KCAL/MOL
REMARK 924 INTRA-LIGAND FREE ENERGY PREDICTED BY IDOCK:   -2.28 KCAL/MOL
REMARK 927      BINDING AFFINITY PREDICTED BY RF-SCORE:    0.00 PKD
ROOT
HETATM    1 CU   UNL     1     -10.845  10.626  70.739  1.00  0.00    -0.278 Cu 
HETATM    2  O   UNL     2     -11.854  16.172  72.804  1.00  0.00    -0.486 OA 
HETATM    3  C   UNL     2     -13.037  15.488  72.367  1.00  0.00    -0.437 C  
HETATM    4  H   UNL     2     -12.085  17.088  72.911  1.00  0.00     0.000 HD 
HETATM    5  O   UNL     3     -11.430   5.316  65.754  1.00  0.00    -0.728 OA 
HETATM    6  H   UNL     3     -11.839   5.885  65.112  1.00  0.00     0.000 HD 
HETATM    7  C   UNL     3     -10.812   6.138  66.766  1.00  0.00    -0.285 C  
ENDROOT
BRANCH   3   8
HETATM    8  C   UNL     2     -12.667  14.016  72.197  1.00  0.00    -0.260 C  
HETATM    9  O   UNL     2     -13.361  13.226  73.182  1.00  0.00    -0.445 OA 
HETATM   10  H   UNL     2     -13.130  12.310  73.076  1.00  0.00     0.000 HD 
BRANCH   8  11
HETATM   11  C   UNL     2     -12.953  13.503  70.771  1.00  0.00    -0.098 C  
HETATM   12  O   UNL     2     -13.861  14.428  70.165  1.00  0.00     0.196 OA 
HETATM   13  H   UNL     2     -14.037  14.112  69.287  1.00  0.00     0.000 HD 
BRANCH  11  14
HETATM   14  C   UNL     2     -11.623  13.435  69.994  1.00  0.00    -0.148 C  
HETATM   15  H   UNL     2     -10.110  14.667  69.666  1.00  0.00     0.000 HD 
HETATM   16  O   UNL     2     -10.929  14.709  70.144  1.00  0.00    -0.188 OA 
BRANCH  14  17
HETATM   17  C   UNL     2     -11.693  13.013  68.526  1.00  0.00    -0.342 C  
HETATM   18  C   UNL     2     -10.271  12.659  68.021  1.00  0.00    -0.230 C  
HETATM   19  H   UNL     2     -12.413  13.759  66.852  1.00  0.00     0.000 HD 
HETATM   20  O   UNL     2     -12.369  14.021  67.765  1.00  0.00    -0.249 OA 
HETATM   21  O   UNL     2      -9.679  11.872  68.828  1.00  0.00    -0.153 OA 
HETATM   22  O   UNL     2      -9.942  13.147  66.922  1.00  0.00    -0.235 OA 
ENDBRANCH  14  17
ENDBRANCH  11  14
ENDBRANCH   8  11
ENDBRANCH   3   8
BRANCH   7  23
HETATM   23  C   UNL     3     -10.153   5.220  67.803  1.00  0.00    -0.157 C  
HETATM   24  O   UNL     3      -8.771   5.039  67.430  1.00  0.00    -0.105 OA 
HETATM   25  H   UNL     3      -8.362   4.470  68.072  1.00  0.00     0.000 HD 
BRANCH  23  26
HETATM   26  C   UNL     3     -10.106   5.735  69.255  1.00  0.00    -0.205 C  
HETATM   27  O   UNL     3     -10.305   4.675  70.194  1.00  0.00    -0.208 OA 
HETATM   28  H   UNL     3     -10.276   4.993  71.089  1.00  0.00     0.000 HD 
BRANCH  26  29
HETATM   29  C   UNL     3      -8.888   6.572  69.703  1.00  0.00    -0.138 C  
HETATM   30  O   UNL     3      -8.399   6.185  70.997  1.00  0.00    -0.121 OA 
HETATM   31  H   UNL     3      -7.650   6.700  71.272  1.00  0.00     0.000 HD 
BRANCH  29  32
HETATM   32  C   UNL     3      -9.052   8.088  69.701  1.00  0.00    -0.152 C  
HETATM   33  C   UNL     3      -8.526   8.783  70.969  1.00  0.00    -0.179 C  
HETATM   34  O   UNL     3     -10.505   8.415  69.596  1.00  0.00    -0.216 OA 
HETATM   35  O   UNL     3      -9.463   8.957  71.853  1.00  0.00    -0.290 OA 
HETATM   36  O   UNL     3      -7.454   9.412  70.868  1.00  0.00    -0.199 OA 
HETATM   37  H   UNL     3     -10.608   9.360  69.595  1.00  0.00     0.000 HD 
ENDBRANCH  29  32
ENDBRANCH  26  29
ENDBRANCH  23  26
ENDBRANCH   7  23
TORSDOF 8
ENDMDL
MODEL      241
REMARK 921   NORMALIZED FREE ENERGY PREDICTED BY IDOCK:   -4.44 KCAL/MOL
REMARK 922        TOTAL FREE ENERGY PREDICTED BY IDOCK:   -8.60 KCAL/MOL
REMARK 923 INTER-LIGAND FREE ENERGY PREDICTED BY IDOCK:   -7.36 KCAL/MOL
REMARK 924 INTRA-LIGAND FREE ENERGY PREDICTED BY IDOCK:   -1.23 KCAL/MOL
REMARK 927      BINDING AFFINITY PREDICTED BY RF-SCORE:    0.00 PKD
ROOT
HETATM    1 CU   UNL     1      -9.067   9.724  70.998  1.00  0.00    -0.208 Cu 
HETATM    2  O   UNL     2      -6.446   4.919  73.465  1.00  0.00    -0.056 OA 
HETATM    3  C   UNL     2      -7.801   5.127  73.889  1.00  0.00    -0.098 C  
HETATM    4  H   UNL     2      -6.065   4.279  74.054  1.00  0.00     0.000 HD 
HETATM    5  O   UNL     3     -12.807  15.993  71.309  1.00  0.00    -0.543 OA 
HETATM    6  H   UNL     3     -12.781  16.028  72.259  1.00  0.00     0.000 HD 
HETATM    7  C   UNL     3     -11.812  15.051  70.859  1.00  0.00    -0.324 C  
ENDROOT
BRANCH   3   8
HETATM    8  C   UNL     2      -8.415   6.155  72.942  1.00  0.00    -0.119 C  
HETATM    9  O   UNL     2      -7.533   6.371  71.823  1.00  0.00    -0.091 OA 
HETATM   10  H   UNL     2      -7.915   7.011  71.234  1.00  0.00     0.000 HD 
BRANCH   8  11
HETATM   11  C   UNL     2      -9.824   5.745  72.468  1.00  0.00    -0.162 C  
HETATM   12  O   UNL     2     -10.613   5.519  73.639  1.00  0.00    -0.244 OA 
HETATM   13  H   UNL     2     -11.480   5.266  73.347  1.00  0.00     0.000 HD 
BRANCH  11  14
HETATM   14  C   UNL     2     -10.409   6.885  71.610  1.00  0.00    -0.199 C  
HETATM   15  H   UNL     2     -11.938   8.131  71.764  1.00  0.00     0.000 HD 
HETATM   16  O   UNL     2     -11.578   7.429  72.292  1.00  0.00    -0.276 OA 
BRANCH  14  17
HETATM   17  C   UNL     2     -10.720   6.568  70.147  1.00  0.00    -0.252 C  
HETATM   18  C   UNL     2     -10.009   7.599  69.233  1.00  0.00    -0.180 C  
HETATM   19  H   UNL     2     -12.331   6.280  69.053  1.00  0.00     0.000 HD 
HETATM   20  O   UNL     2     -12.138   6.477  69.963  1.00  0.00    -0.282 OA 
HETATM   21  O   UNL     2      -8.785   7.732  69.555  1.00  0.00    -0.134 OA 
HETATM   22  O   UNL     2     -10.704   8.098  68.326  1.00  0.00    -0.138 OA 
ENDBRANCH  14  17
ENDBRANCH  11  14
ENDBRANCH   8  11
ENDBRANCH   3   8
BRANCH   7  23
HETATM   23  C   UNL     3     -11.853  14.993  69.327  1.00  0.00    -0.315 C  
HETATM   24  O   UNL     3     -11.130  16.131  68.814  1.00  0.00    -0.313 OA 
HETATM   25  H   UNL     3     -11.156  16.095  67.864  1.00  0.00     0.000 HD 
BRANCH  23  26
HETATM   26  C   UNL     3     -11.193  13.771  68.660  1.00  0.00    -0.278 C  
HETATM   27  O   UNL     3     -11.261  12.615  69.499  1.00  0.00    -0.428 OA 
HETATM   28  H   UNL     3     -10.853  11.861  69.088  1.00  0.00     0.000 HD 
BRANCH  26  29
HETATM   29  C   UNL     3     -11.640  13.376  67.236  1.00  0.00    -0.360 C  
HETATM   30  O   UNL     3     -11.955  11.978  67.125  1.00  0.00    -0.601 OA 
HETATM   31  H   UNL     3     -12.230  11.736  66.248  1.00  0.00     0.000 HD 
BRANCH  29  32
HETATM   32  C   UNL     3     -10.698  13.734  66.091  1.00  0.00    -0.283 C  
HETATM   33  C   UNL     3     -11.324  14.640  65.017  1.00  0.00    -0.390 C  
HETATM   34  O   UNL     3     -10.272  12.477  65.407  1.00  0.00    -0.277 OA 
HETATM   35  O   UNL     3     -11.820  13.954  64.030  1.00  0.00    -0.401 OA 
HETATM   36  O   UNL     3     -10.968  15.835  65.004  1.00  0.00    -0.410 OA 
HETATM   37  H   UNL     3      -9.685  12.699  64.693  1.00  0.00     0.000 HD 
ENDBRANCH  29  32
ENDBRANCH  26  29
ENDBRANCH  23  26
ENDBRANCH   7  23
TORSDOF 8
ENDMDL
MODEL      242
REMARK 921   NORMALIZED FREE ENERGY PREDICTED BY IDOCK:   -4.44 KCAL/MOL
REMARK 922        TOTAL FREE ENERGY PREDICTED BY IDOCK:   -8.59 KCAL/MOL
REMARK 923 INTER-LIGAND FREE ENERGY PREDICTED BY IDOCK:   -6.65 KCAL/MOL
REMARK 924 INTRA-LIGAND FREE ENERGY PREDICTED BY IDOCK:   -1.94 KCAL/MOL
REMARK 927      BINDING AFFINITY PREDICTED BY RF-SCORE:    0.00 PKD
ROOT
HETATM    1 CU   UNL     1     -10.284  10.309  66.720  1.00  0.00    -0.169 Cu 
HETATM    2  O   UNL     2     -11.368   4.644  65.054  1.00  0.00    -0.958 OA 
HETATM    3  C   UNL     2     -10.127   4.820  65.753  1.00  0.00    -0.214 C  
HETATM    4  H   UNL     2     -11.347   3.780  64.660  1.00  0.00     0.000 HD 
HETATM    5  O   UNL     3      -6.125  16.302  67.138  1.00  0.00    -0.204 OA 
HETATM    6  H   UNL     3      -5.452  15.945  66.570  1.00  0.00     0.000 HD 
HETATM    7  C   UNL     3      -7.323  15.515  66.980  1.00  0.00    -0.137 C  
ENDROOT
BRANCH   3   8
HETATM    8  C   UNL     2     -10.161   6.209  66.386  1.00  0.00    -0.046 C  
HETATM    9  O   UNL     2     -11.415   6.398  67.071  1.00  0.00    -0.717 OA 
HETATM   10  H   UNL     2     -11.436   7.263  67.465  1.00  0.00     0.000 HD 
BRANCH   8  11
HETATM   11  C   UNL     2      -8.968   6.448  67.334  1.00  0.00    -0.109 C  
HETATM   12  O   UNL     2      -7.779   6.166  66.592  1.00  0.00    -0.100 OA 
HETATM   13  H   UNL     2      -7.044   6.314  67.175  1.00  0.00     0.000 HD 
BRANCH  11  14
HETATM   14  C   UNL     2      -8.999   7.915  67.806  1.00  0.00    -0.128 C  
HETATM   15  H   UNL     2      -7.809   9.486  67.626  1.00  0.00     0.000 HD 
HETATM   16  O   UNL     2      -7.791   8.582  67.335  1.00  0.00    -0.097 OA 
BRANCH  14  17
HETATM   17  C   UNL     2      -9.222   8.163  69.299  1.00  0.00    -0.151 C  
HETATM   18  C   UNL     2     -10.300   9.261  69.485  1.00  0.00    -0.216 C  
HETATM   19  H   UNL     2      -8.107   8.590  70.863  1.00  0.00     0.000 HD 
HETATM   20  O   UNL     2      -7.968   8.436  69.936  1.00  0.00    -0.101 OA 
HETATM   21  O   UNL     2     -11.327   9.023  68.772  1.00  0.00     0.225 OA 
HETATM   22  O   UNL     2     -10.030  10.161  70.304  1.00  0.00    -0.204 OA 
ENDBRANCH  14  17
ENDBRANCH  11  14
ENDBRANCH   8  11
ENDBRANCH   3   8
BRANCH   7  23
HETATM   23  C   UNL     3      -8.410  16.090  67.898  1.00  0.00    -0.153 C  
HETATM   24  O   UNL     3      -8.725  17.422  67.441  1.00  0.00    -0.219 OA 
HETATM   25  H   UNL     3      -9.398  17.778  68.010  1.00  0.00     0.000 HD 
BRANCH  23  26
HETATM   26  C   UNL     3      -9.761  15.349  67.923  1.00  0.00    -0.207 C  
HETATM   27  O   UNL     3      -9.608  13.967  67.590  1.00  0.00    -0.212 OA 
HETATM   28  H   UNL     3     -10.441  13.511  67.606  1.00  0.00     0.000 HD 
BRANCH  26  29
HETATM   29  C   UNL     3     -10.639  15.460  69.189  1.00  0.00    -0.248 C  
HETATM   30  O   UNL     3      -9.979  14.960  70.363  1.00  0.00    -0.414 OA 
HETATM   31  H   UNL     3     -10.519  15.028  71.141  1.00  0.00     0.000 HD 
BRANCH  29  32
HETATM   32  C   UNL     3     -12.024  14.825  69.127  1.00  0.00    -0.282 C  
HETATM   33  C   UNL     3     -12.153  13.510  69.915  1.00  0.00    -0.341 C  
HETATM   34  O   UNL     3     -12.349  14.514  67.703  1.00  0.00    -0.617 OA 
HETATM   35  O   UNL     3     -11.944  12.469  69.163  1.00  0.00    -0.287 OA 
HETATM   36  O   UNL     3     -12.781  13.551  70.991  1.00  0.00    -0.343 OA 
HETATM   37  H   UNL     3     -13.212  14.118  67.665  1.00  0.00     0.000 HD 
ENDBRANCH  29  32
ENDBRANCH  26  29
ENDBRANCH  23  26
ENDBRANCH   7  23
TORSDOF 8
ENDMDL
MODEL      243
REMARK 921   NORMALIZED FREE ENERGY PREDICTED BY IDOCK:   -4.44 KCAL/MOL
REMARK 922        TOTAL FREE ENERGY PREDICTED BY IDOCK:   -8.59 KCAL/MOL
REMARK 923 INTER-LIGAND FREE ENERGY PREDICTED BY IDOCK:   -7.94 KCAL/MOL
REMARK 924 INTRA-LIGAND FREE ENERGY PREDICTED BY IDOCK:   -0.65 KCAL/MOL
REMARK 927      BINDING AFFINITY PREDICTED BY RF-SCORE:    0.00 PKD
ROOT
HETATM    1 CU   UNL     1      -9.624   8.795  67.030  1.00  0.00    -0.134 Cu 
HETATM    2  O   UNL     2      -9.576   2.794  67.170  1.00  0.00    -0.400 OA 
HETATM    3  C   UNL     2      -9.110   3.352  65.933  1.00  0.00    -0.154 C  
HETATM    4  H   UNL     2      -9.725   1.867  67.019  1.00  0.00     0.000 HD 
HETATM    5  O   UNL     3     -11.335  15.235  64.034  1.00  0.00    -0.603 OA 
HETATM    6  H   UNL     3     -11.868  14.842  63.352  1.00  0.00     0.000 HD 
HETATM    7  C   UNL     3     -11.129  14.258  65.074  1.00  0.00    -0.373 C  
ENDROOT
BRANCH   3   8
HETATM    8  C   UNL     2      -8.869   4.840  66.176  1.00  0.00    -0.120 C  
HETATM    9  O   UNL     2      -8.060   5.380  65.113  1.00  0.00    -0.109 OA 
HETATM   10  H   UNL     2      -7.910   6.306  65.265  1.00  0.00     0.000 HD 
BRANCH   8  11
HETATM   11  C   UNL     2     -10.187   5.628  66.325  1.00  0.00    -0.113 C  
HETATM   12  O   UNL     2     -11.232   4.802  65.807  1.00  0.00    -0.833 OA 
HETATM   13  H   UNL     2     -12.043   5.287  65.899  1.00  0.00     0.000 HD 
BRANCH  11  14
HETATM   14  C   UNL     2     -10.409   5.941  67.819  1.00  0.00    -0.210 C  
HETATM   15  H   UNL     2     -11.269   7.396  68.848  1.00  0.00     0.000 HD 
HETATM   16  O   UNL     2     -11.132   7.203  67.928  1.00  0.00    -0.118 OA 
BRANCH  14  17
HETATM   17  C   UNL     2      -9.178   5.929  68.725  1.00  0.00    -0.115 C  
HETATM   18  C   UNL     2      -9.483   5.103  70.001  1.00  0.00    -0.160 C  
HETATM   19  H   UNL     2      -7.976   7.264  69.530  1.00  0.00     0.000 HD 
HETATM   20  O   UNL     2      -8.742   7.272  68.967  1.00  0.00    -0.132 OA 
HETATM   21  O   UNL     2     -10.004   3.979  69.708  1.00  0.00    -0.180 OA 
HETATM   22  O   UNL     2      -9.150   5.624  71.084  1.00  0.00    -0.143 OA 
ENDBRANCH  14  17
ENDBRANCH  11  14
ENDBRANCH   8  11
ENDBRANCH   3   8
BRANCH   7  23
HETATM   23  C   UNL     3     -10.269  14.892  66.176  1.00  0.00    -0.300 C  
HETATM   24  O   UNL     3      -9.024  14.167  66.248  1.00  0.00    -0.480 OA 
HETATM   25  H   UNL     3      -8.492  14.560  66.931  1.00  0.00     0.000 HD 
BRANCH  23  26
HETATM   26  C   UNL     3      -9.859  16.364  65.975  1.00  0.00    -0.335 C  
HETATM   27  O   UNL     3     -10.537  16.950  64.861  1.00  0.00    -0.702 OA 
HETATM   28  H   UNL     3     -10.284  17.858  64.738  1.00  0.00     0.000 HD 
BRANCH  26  29
HETATM   29  C   UNL     3      -9.958  17.328  67.178  1.00  0.00    -0.282 C  
HETATM   30  O   UNL     3     -10.971  16.934  68.118  1.00  0.00    -0.365 OA 
HETATM   31  H   UNL     3     -11.031  17.527  68.858  1.00  0.00     0.000 HD 
BRANCH  29  32
HETATM   32  C   UNL     3     -10.162  18.806  66.865  1.00  0.00    -0.386 C  
HETATM   33  C   UNL     3      -8.870  19.641  66.884  1.00  0.00    -0.331 C  
HETATM   34  O   UNL     3     -11.076  19.394  67.889  1.00  0.00    -0.316 OA 
HETATM   35  O   UNL     3      -8.666  20.196  68.043  1.00  0.00    -0.261 OA 
HETATM   36  O   UNL     3      -8.407  19.997  65.783  1.00  0.00    -0.282 OA 
HETATM   37  H   UNL     3     -11.203  20.315  67.695  1.00  0.00     0.000 HD 
ENDBRANCH  29  32
ENDBRANCH  26  29
ENDBRANCH  23  26
ENDBRANCH   7  23
TORSDOF 8
ENDMDL
MODEL      244
REMARK 921   NORMALIZED FREE ENERGY PREDICTED BY IDOCK:   -4.43 KCAL/MOL
REMARK 922        TOTAL FREE ENERGY PREDICTED BY IDOCK:   -8.58 KCAL/MOL
REMARK 923 INTER-LIGAND FREE ENERGY PREDICTED BY IDOCK:   -7.01 KCAL/MOL
REMARK 924 INTRA-LIGAND FREE ENERGY PREDICTED BY IDOCK:   -1.57 KCAL/MOL
REMARK 927      BINDING AFFINITY PREDICTED BY RF-SCORE:    0.00 PKD
ROOT
HETATM    1 CU   UNL     1      -8.703  12.940  68.388  1.00  0.00    -0.147 Cu 
HETATM    2  O   UNL     2      -6.702  18.302  66.577  1.00  0.00    -0.184 OA 
HETATM    3  C   UNL     2      -8.017  17.979  66.103  1.00  0.00    -0.192 C  
HETATM    4  H   UNL     2      -6.402  19.053  66.078  1.00  0.00     0.000 HD 
HETATM    5  O   UNL     3     -11.614   6.337  67.241  1.00  0.00    -0.621 OA 
HETATM    6  H   UNL     3     -11.579   6.422  66.295  1.00  0.00     0.000 HD 
HETATM    7  C   UNL     3     -10.749   7.334  67.823  1.00  0.00    -0.197 C  
ENDROOT
BRANCH   3   8
HETATM    8  C   UNL     2      -8.500  16.774  66.905  1.00  0.00    -0.212 C  
HETATM    9  O   UNL     2      -8.239  16.988  68.306  1.00  0.00    -0.210 OA 
HETATM   10  H   UNL     2      -8.539  16.238  68.805  1.00  0.00     0.000 HD 
BRANCH   8  11
HETATM   11  C   UNL     2      -9.992  16.467  66.659  1.00  0.00    -0.276 C  
HETATM   12  O   UNL     2     -10.273  16.812  65.300  1.00  0.00    -0.607 OA 
HETATM   13  H   UNL     2     -11.191  16.624  65.148  1.00  0.00     0.000 HD 
BRANCH  11  14
HETATM   14  C   UNL     2     -10.238  14.967  66.918  1.00  0.00    -0.258 C  
HETATM   15  H   UNL     2      -9.347  13.277  66.403  1.00  0.00     0.000 HD 
HETATM   16  O   UNL     2      -9.196  14.201  66.244  1.00  0.00    -0.227 OA 
BRANCH  14  17
HETATM   17  C   UNL     2     -11.627  14.421  66.588  1.00  0.00    -0.384 C  
HETATM   18  C   UNL     2     -11.736  12.955  67.081  1.00  0.00    -0.377 C  
HETATM   19  H   UNL     2     -12.766  14.270  64.990  1.00  0.00     0.000 HD 
HETATM   20  O   UNL     2     -11.903  14.609  65.195  1.00  0.00    -0.363 OA 
HETATM   21  O   UNL     2     -11.334  12.843  68.284  1.00  0.00    -0.251 OA 
HETATM   22  O   UNL     2     -12.220  12.139  66.272  1.00  0.00    -0.604 OA 
ENDBRANCH  14  17
ENDBRANCH  11  14
ENDBRANCH   8  11
ENDBRANCH   3   8
BRANCH   7  23
HETATM   23  C   UNL     3     -10.805   7.197  69.350  1.00  0.00    -0.206 C  
HETATM   24  O   UNL     3     -11.939   6.372  69.686  1.00  0.00    -0.535 OA 
HETATM   25  H   UNL     3     -11.974   6.287  70.632  1.00  0.00     0.000 HD 
BRANCH  23  26
HETATM   26  C   UNL     3      -9.602   6.515  70.030  1.00  0.00    -0.159 C  
HETATM   27  O   UNL     3      -8.570   7.455  70.338  1.00  0.00    -0.140 OA 
HETATM   28  H   UNL     3      -7.829   7.034  70.757  1.00  0.00     0.000 HD 
BRANCH  26  29
HETATM   29  C   UNL     3      -9.859   5.637  71.275  1.00  0.00    -0.175 C  
HETATM   30  O   UNL     3      -9.951   6.408  72.483  1.00  0.00    -0.171 OA 
HETATM   31  H   UNL     3     -10.110   5.867  73.249  1.00  0.00     0.000 HD 
BRANCH  29  32
HETATM   32  C   UNL     3      -8.885   4.491  71.526  1.00  0.00    -0.119 C  
HETATM   33  C   UNL     3      -9.342   3.498  72.609  1.00  0.00    -0.110 C  
HETATM   34  O   UNL     3      -7.580   5.058  71.977  1.00  0.00    -0.090 OA 
HETATM   35  O   UNL     3      -8.862   3.800  73.779  1.00  0.00    -0.089 OA 
HETATM   36  O   UNL     3      -9.753   2.386  72.223  1.00  0.00    -0.105 OA 
HETATM   37  H   UNL     3      -6.973   4.344  72.134  1.00  0.00     0.000 HD 
ENDBRANCH  29  32
ENDBRANCH  26  29
ENDBRANCH  23  26
ENDBRANCH   7  23
TORSDOF 8
ENDMDL
MODEL      245
REMARK 921   NORMALIZED FREE ENERGY PREDICTED BY IDOCK:   -4.43 KCAL/MOL
REMARK 922        TOTAL FREE ENERGY PREDICTED BY IDOCK:   -8.57 KCAL/MOL
REMARK 923 INTER-LIGAND FREE ENERGY PREDICTED BY IDOCK:   -7.97 KCAL/MOL
REMARK 924 INTRA-LIGAND FREE ENERGY PREDICTED BY IDOCK:   -0.61 KCAL/MOL
REMARK 927      BINDING AFFINITY PREDICTED BY RF-SCORE:    0.00 PKD
ROOT
HETATM    1 CU   UNL     1      -9.222  12.373  69.205  1.00  0.00    -0.342 Cu 
HETATM    2  O   UNL     2      -9.548   6.892  71.632  1.00  0.00    -0.162 OA 
HETATM    3  C   UNL     2      -9.979   7.945  72.507  1.00  0.00    -0.249 C  
HETATM    4  H   UNL     2      -9.441   6.113  72.165  1.00  0.00     0.000 HD 
HETATM    5  O   UNL     3      -7.192  19.391  69.195  1.00  0.00    -0.350 OA 
HETATM    6  H   UNL     3      -6.673  19.303  69.987  1.00  0.00     0.000 HD 
HETATM    7  C   UNL     3      -7.451  18.075  68.668  1.00  0.00    -0.286 C  
ENDROOT
BRANCH   3   8
HETATM    8  C   UNL     2     -10.152   9.197  71.651  1.00  0.00    -0.276 C  
HETATM    9  O   UNL     2      -9.025   9.337  70.765  1.00  0.00    -0.228 OA 
HETATM   10  H   UNL     2      -9.133  10.117  70.232  1.00  0.00     0.000 HD 
BRANCH   8  11
HETATM   11  C   UNL     2     -11.479   9.188  70.865  1.00  0.00    -0.296 C  
HETATM   12  O   UNL     2     -11.825   7.819  70.638  1.00  0.00    -0.431 OA 
HETATM   13  H   UNL     2     -12.642   7.814  70.154  1.00  0.00     0.000 HD 
BRANCH  11  14
HETATM   14  C   UNL     2     -12.556   9.905  71.705  1.00  0.00    -0.424 C  
HETATM   15  H   UNL     2     -14.358   9.451  72.383  1.00  0.00     0.000 HD 
HETATM   16  O   UNL     2     -13.695   9.009  71.866  1.00  0.00    -0.396 OA 
BRANCH  14  17
HETATM   17  C   UNL     2     -13.003  11.289  71.231  1.00  0.00    -0.327 C  
HETATM   18  C   UNL     2     -12.273  11.644  69.910  1.00  0.00    -0.239 C  
HETATM   19  H   UNL     2     -13.109  13.100  71.993  1.00  0.00     0.000 HD 
HETATM   20  O   UNL     2     -12.832  12.241  72.288  1.00  0.00    -0.183 OA 
HETATM   21  O   UNL     2     -12.346  10.687  69.073  1.00  0.00    -0.355 OA 
HETATM   22  O   UNL     2     -11.775  12.785  69.849  1.00  0.00    -0.302 OA 
ENDBRANCH  14  17
ENDBRANCH  11  14
ENDBRANCH   8  11
ENDBRANCH   3   8
BRANCH   7  23
HETATM   23  C   UNL     3      -8.289  18.217  67.391  1.00  0.00    -0.244 C  
HETATM   24  O   UNL     3      -7.868  19.417  66.709  1.00  0.00    -0.249 OA 
HETATM   25  H   UNL     3      -8.387  19.506  65.917  1.00  0.00     0.000 HD 
BRANCH  23  26
HETATM   26  C   UNL     3      -8.152  17.096  66.342  1.00  0.00    -0.302 C  
HETATM   27  O   UNL     3      -7.445  15.971  66.866  1.00  0.00    -0.216 OA 
HETATM   28  H   UNL     3      -7.360  15.279  66.219  1.00  0.00     0.000 HD 
BRANCH  26  29
HETATM   29  C   UNL     3      -9.427  16.593  65.630  1.00  0.00     0.083 C  
HETATM   30  O   UNL     3     -10.452  17.597  65.561  1.00  0.00    -0.636 OA 
HETATM   31  H   UNL     3     -11.236  17.286  65.123  1.00  0.00     0.000 HD 
BRANCH  29  32
HETATM   32  C   UNL     3     -10.061  15.315  66.169  1.00  0.00    -0.296 C  
HETATM   33  C   UNL     3     -10.459  15.383  67.654  1.00  0.00    -0.272 C  
HETATM   34  O   UNL     3      -9.082  14.196  66.031  1.00  0.00    -0.499 OA 
HETATM   35  O   UNL     3      -9.523  14.921  68.430  1.00  0.00    -0.196 OA 
HETATM   36  O   UNL     3     -11.674  15.487  67.912  1.00  0.00    -0.293 OA 
HETATM   37  H   UNL     3      -9.477  13.400  66.367  1.00  0.00     0.000 HD 
ENDBRANCH  29  32
ENDBRANCH  26  29
ENDBRANCH  23  26
ENDBRANCH   7  23
TORSDOF 8
ENDMDL
MODEL      246
REMARK 921   NORMALIZED FREE ENERGY PREDICTED BY IDOCK:   -4.43 KCAL/MOL
REMARK 922        TOTAL FREE ENERGY PREDICTED BY IDOCK:   -8.57 KCAL/MOL
REMARK 923 INTER-LIGAND FREE ENERGY PREDICTED BY IDOCK:   -8.02 KCAL/MOL
REMARK 924 INTRA-LIGAND FREE ENERGY PREDICTED BY IDOCK:   -0.55 KCAL/MOL
REMARK 927      BINDING AFFINITY PREDICTED BY RF-SCORE:    0.00 PKD
ROOT
HETATM    1 CU   UNL     1      -8.967  14.856  66.993  1.00  0.00    -0.165 Cu 
HETATM    2  O   UNL     2      -6.370  19.275  63.867  1.00  0.00    -0.292 OA 
HETATM    3  C   UNL     2      -6.231  19.405  65.289  1.00  0.00    -0.260 C  
HETATM    4  H   UNL     2      -6.117  20.107  63.484  1.00  0.00     0.000 HD 
HETATM    5  O   UNL     3     -13.359  12.285  72.235  1.00  0.00    -0.538 OA 
HETATM    6  H   UNL     3     -13.699  13.145  72.453  1.00  0.00     0.000 HD 
HETATM    7  C   UNL     3     -12.719  12.359  70.945  1.00  0.00    -0.185 C  
ENDROOT
BRANCH   3   8
HETATM    8  C   UNL     2      -6.636  18.069  65.905  1.00  0.00    -0.284 C  
HETATM    9  O   UNL     2      -5.489  17.200  65.974  1.00  0.00    -0.318 OA 
HETATM   10  H   UNL     2      -5.741  16.367  66.357  1.00  0.00     0.000 HD 
BRANCH   8  11
HETATM   11  C   UNL     2      -7.289  18.238  67.291  1.00  0.00    -0.208 C  
HETATM   12  O   UNL     2      -7.297  19.638  67.584  1.00  0.00    -0.242 OA 
HETATM   13  H   UNL     2      -7.699  19.743  68.438  1.00  0.00     0.000 HD 
BRANCH  11  14
HETATM   14  C   UNL     2      -8.721  17.670  67.236  1.00  0.00    -0.235 C  
HETATM   15  H   UNL     2      -9.843  16.789  65.864  1.00  0.00     0.000 HD 
HETATM   16  O   UNL     2      -8.961  17.140  65.899  1.00  0.00    -0.519 OA 
BRANCH  14  17
HETATM   17  C   UNL     2      -9.857  18.595  67.676  1.00  0.00    -0.320 C  
HETATM   18  C   UNL     2      -9.892  19.843  66.758  1.00  0.00    -0.426 C  
HETATM   19  H   UNL     2     -10.440  19.453  69.348  1.00  0.00     0.000 HD 
HETATM   20  O   UNL     2      -9.735  18.879  69.075  1.00  0.00    -0.363 OA 
HETATM   21  O   UNL     2      -9.850  19.512  65.529  1.00  0.00    -0.303 OA 
HETATM   22  O   UNL     2      -9.991  20.944  67.334  1.00  0.00    -0.397 OA 
ENDBRANCH  14  17
ENDBRANCH  11  14
ENDBRANCH   8  11
ENDBRANCH   3   8
BRANCH   7  23
HETATM   23  C   UNL     3     -12.170  10.970  70.593  1.00  0.00    -0.385 C  
HETATM   24  O   UNL     3     -13.289  10.091  70.357  1.00  0.00    -0.595 OA 
HETATM   25  H   UNL     3     -12.949   9.230  70.139  1.00  0.00     0.000 HD 
BRANCH  23  26
HETATM   26  C   UNL     3     -11.309  10.866  69.319  1.00  0.00    -0.277 C  
HETATM   27  O   UNL     3     -10.207  11.776  69.354  1.00  0.00    -0.418 OA 
HETATM   28  H   UNL     3      -9.676  11.712  68.569  1.00  0.00     0.000 HD 
BRANCH  26  29
HETATM   29  C   UNL     3     -10.790   9.476  68.890  1.00  0.00    -0.150 C  
HETATM   30  O   UNL     3      -9.434   9.244  69.302  1.00  0.00    -0.153 OA 
HETATM   31  H   UNL     3      -9.115   8.388  69.038  1.00  0.00     0.000 HD 
BRANCH  29  32
HETATM   32  C   UNL     3     -10.894   9.125  67.409  1.00  0.00    -0.070 C  
HETATM   33  C   UNL     3     -10.038   7.920  66.983  1.00  0.00    -0.277 C  
HETATM   34  O   UNL     3     -10.432  10.294  66.604  1.00  0.00    -0.230 OA 
HETATM   35  O   UNL     3      -8.873   8.284  66.534  1.00  0.00    -0.135 OA 
HETATM   36  O   UNL     3     -10.638   6.851  66.754  1.00  0.00    -0.275 OA 
HETATM   37  H   UNL     3     -10.496  10.076  65.681  1.00  0.00     0.000 HD 
ENDBRANCH  29  32
ENDBRANCH  26  29
ENDBRANCH  23  26
ENDBRANCH   7  23
TORSDOF 8
ENDMDL
MODEL      247
REMARK 921   NORMALIZED FREE ENERGY PREDICTED BY IDOCK:   -4.42 KCAL/MOL
REMARK 922        TOTAL FREE ENERGY PREDICTED BY IDOCK:   -8.56 KCAL/MOL
REMARK 923 INTER-LIGAND FREE ENERGY PREDICTED BY IDOCK:   -6.79 KCAL/MOL
REMARK 924 INTRA-LIGAND FREE ENERGY PREDICTED BY IDOCK:   -1.77 KCAL/MOL
REMARK 927      BINDING AFFINITY PREDICTED BY RF-SCORE:    0.00 PKD
ROOT
HETATM    1 CU   UNL     1     -10.499   9.801  67.074  1.00  0.00    -0.177 Cu 
HETATM    2  O   UNL     2     -12.315  13.534  62.738  1.00  0.00    -0.855 OA 
HETATM    3  C   UNL     2     -12.178  14.156  64.024  1.00  0.00    -0.332 C  
HETATM    4  H   UNL     2     -12.795  14.140  62.185  1.00  0.00     0.000 HD 
HETATM    5  O   UNL     3     -11.037   6.722  73.678  1.00  0.00    -0.499 OA 
HETATM    6  H   UNL     3     -11.876   7.129  73.863  1.00  0.00     0.000 HD 
HETATM    7  C   UNL     3     -10.789   6.809  72.260  1.00  0.00    -0.231 C  
ENDROOT
BRANCH   3   8
HETATM    8  C   UNL     2     -11.406  13.184  64.912  1.00  0.00    -0.309 C  
HETATM    9  O   UNL     2     -10.755  12.192  64.094  1.00  0.00    -0.302 OA 
HETATM   10  H   UNL     2     -10.275  11.586  64.647  1.00  0.00     0.000 HD 
BRANCH   8  11
HETATM   11  C   UNL     2     -10.391  13.904  65.824  1.00  0.00    -0.316 C  
HETATM   12  O   UNL     2     -10.828  15.260  65.949  1.00  0.00    -0.328 OA 
HETATM   13  H   UNL     2     -10.204  15.704  66.510  1.00  0.00     0.000 HD 
BRANCH  11  14
HETATM   14  C   UNL     2     -10.366  13.195  67.193  1.00  0.00    -0.247 C  
HETATM   15  H   UNL     2      -9.588  11.522  67.907  1.00  0.00     0.000 HD 
HETATM   16  O   UNL     2      -9.603  11.959  67.063  1.00  0.00    -0.185 OA 
BRANCH  14  17
HETATM   17  C   UNL     2     -11.712  12.946  67.874  1.00  0.00    -0.357 C  
HETATM   18  C   UNL     2     -11.797  13.788  69.173  1.00  0.00    -0.354 C  
HETATM   19  H   UNL     2     -12.746  11.384  68.479  1.00  0.00     0.000 HD 
HETATM   20  O   UNL     2     -11.910  11.539  68.055  1.00  0.00    -0.545 OA 
HETATM   21  O   UNL     2     -11.465  14.998  68.960  1.00  0.00    -0.271 OA 
HETATM   22  O   UNL     2     -12.200  13.189  70.189  1.00  0.00    -0.329 OA 
ENDBRANCH  14  17
ENDBRANCH  11  14
ENDBRANCH   8  11
ENDBRANCH   3   8
BRANCH   7  23
HETATM   23  C   UNL     3      -9.434   6.153  71.961  1.00  0.00    -0.152 C  
HETATM   24  O   UNL     3      -9.417   4.852  72.582  1.00  0.00    -0.135 OA 
HETATM   25  H   UNL     3      -8.578   4.446  72.397  1.00  0.00     0.000 HD 
BRANCH  23  26
HETATM   26  C   UNL     3      -9.102   5.890  70.479  1.00  0.00    -0.148 C  
HETATM   27  O   UNL     3      -9.423   7.018  69.661  1.00  0.00    -0.149 OA 
HETATM   28  H   UNL     3      -9.218   6.855  68.748  1.00  0.00     0.000 HD 
BRANCH  26  29
HETATM   29  C   UNL     3      -7.683   5.402  70.117  1.00  0.00    -0.077 C  
HETATM   30  O   UNL     3      -7.019   6.279  69.193  1.00  0.00    -0.063 OA 
HETATM   31  H   UNL     3      -6.145   5.978  68.970  1.00  0.00     0.000 HD 
BRANCH  29  32
HETATM   32  C   UNL     3      -7.556   3.979  69.583  1.00  0.00    -0.053 C  
HETATM   33  C   UNL     3      -8.858   3.162  69.643  1.00  0.00    -0.086 C  
HETATM   34  O   UNL     3      -6.544   3.246  70.400  1.00  0.00    -0.031 OA 
HETATM   35  O   UNL     3      -8.939   2.454  70.731  1.00  0.00    -0.072 OA 
HETATM   36  O   UNL     3      -9.456   2.967  68.567  1.00  0.00    -0.189 OA 
HETATM   37  H   UNL     3      -6.465   2.360  70.068  1.00  0.00     0.000 HD 
ENDBRANCH  29  32
ENDBRANCH  26  29
ENDBRANCH  23  26
ENDBRANCH   7  23
TORSDOF 8
ENDMDL
MODEL      248
REMARK 921   NORMALIZED FREE ENERGY PREDICTED BY IDOCK:   -4.42 KCAL/MOL
REMARK 922        TOTAL FREE ENERGY PREDICTED BY IDOCK:   -8.56 KCAL/MOL
REMARK 923 INTER-LIGAND FREE ENERGY PREDICTED BY IDOCK:   -7.20 KCAL/MOL
REMARK 924 INTRA-LIGAND FREE ENERGY PREDICTED BY IDOCK:   -1.36 KCAL/MOL
REMARK 927      BINDING AFFINITY PREDICTED BY RF-SCORE:    0.00 PKD
ROOT
HETATM    1 CU   UNL     1      -8.623  13.854  67.727  1.00  0.00    -0.133 Cu 
HETATM    2  O   UNL     2      -9.131  19.538  65.867  1.00  0.00    -0.406 OA 
HETATM    3  C   UNL     2      -9.983  19.208  66.973  1.00  0.00    -0.347 C  
HETATM    4  H   UNL     2      -9.431  20.372  65.523  1.00  0.00     0.000 HD 
HETATM    5  O   UNL     3     -11.340   7.325  69.564  1.00  0.00    -0.459 OA 
HETATM    6  H   UNL     3     -12.222   7.550  69.291  1.00  0.00     0.000 HD 
HETATM    7  C   UNL     3     -10.424   8.276  68.985  1.00  0.00    -0.197 C  
ENDROOT
BRANCH   3   8
HETATM    8  C   UNL     2      -9.501  17.870  67.526  1.00  0.00    -0.258 C  
HETATM    9  O   UNL     2      -8.794  18.083  68.764  1.00  0.00    -0.282 OA 
HETATM   10  H   UNL     2      -8.493  17.250  69.108  1.00  0.00     0.000 HD 
BRANCH   8  11
HETATM   11  C   UNL     2     -10.656  16.864  67.713  1.00  0.00    -0.340 C  
HETATM   12  O   UNL     2     -10.458  15.815  66.763  1.00  0.00    -0.295 OA 
HETATM   13  H   UNL     2     -11.168  15.196  66.877  1.00  0.00     0.000 HD 
BRANCH  11  14
HETATM   14  C   UNL     2     -10.614  16.326  69.158  1.00  0.00    -0.292 C  
HETATM   15  H   UNL     2      -9.383  15.189  70.210  1.00  0.00     0.000 HD 
HETATM   16  O   UNL     2      -9.409  15.521  69.321  1.00  0.00    -0.233 OA 
BRANCH  14  17
HETATM   17  C   UNL     2     -11.850  15.580  69.660  1.00  0.00    -0.366 C  
HETATM   18  C   UNL     2     -11.797  15.474  71.206  1.00  0.00    -0.399 C  
HETATM   19  H   UNL     2     -12.739  13.864  69.287  1.00  0.00     0.000 HD 
HETATM   20  O   UNL     2     -11.971  14.328  68.975  1.00  0.00    -0.319 OA 
HETATM   21  O   UNL     2     -11.540  16.602  71.736  1.00  0.00    -0.348 OA 
HETATM   22  O   UNL     2     -12.043  14.350  71.687  1.00  0.00    -0.341 OA 
ENDBRANCH  14  17
ENDBRANCH  11  14
ENDBRANCH   8  11
ENDBRANCH   3   8
BRANCH   7  23
HETATM   23  C   UNL     3      -9.000   7.912  69.425  1.00  0.00    -0.145 C  
HETATM   24  O   UNL     3      -8.080   8.423  68.438  1.00  0.00    -0.119 OA 
HETATM   25  H   UNL     3      -7.197   8.197  68.711  1.00  0.00     0.000 HD 
BRANCH  23  26
HETATM   26  C   UNL     3      -8.514   8.504  70.763  1.00  0.00    -0.149 C  
HETATM   27  O   UNL     3      -8.392   9.927  70.694  1.00  0.00    -0.383 OA 
HETATM   28  H   UNL     3      -8.093  10.291  71.520  1.00  0.00     0.000 HD 
BRANCH  26  29
HETATM   29  C   UNL     3      -9.278   8.134  72.053  1.00  0.00    -0.191 C  
HETATM   30  O   UNL     3     -10.468   8.918  72.234  1.00  0.00    -0.313 OA 
HETATM   31  H   UNL     3     -10.937   8.690  73.028  1.00  0.00     0.000 HD 
BRANCH  29  32
HETATM   32  C   UNL     3      -8.490   8.174  73.359  1.00  0.00    -0.239 C  
HETATM   33  C   UNL     3      -6.963   8.205  73.175  1.00  0.00    -0.109 C  
HETATM   34  O   UNL     3      -8.809   6.950  74.152  1.00  0.00    -0.150 OA 
HETATM   35  O   UNL     3      -6.443   7.014  73.217  1.00  0.00    -0.065 OA 
HETATM   36  O   UNL     3      -6.387   9.290  73.390  1.00  0.00    -0.317 OA 
HETATM   37  H   UNL     3      -8.318   6.974  74.965  1.00  0.00     0.000 HD 
ENDBRANCH  29  32
ENDBRANCH  26  29
ENDBRANCH  23  26
ENDBRANCH   7  23
TORSDOF 8
ENDMDL
MODEL      249
REMARK 921   NORMALIZED FREE ENERGY PREDICTED BY IDOCK:   -4.41 KCAL/MOL
REMARK 922        TOTAL FREE ENERGY PREDICTED BY IDOCK:   -8.55 KCAL/MOL
REMARK 923 INTER-LIGAND FREE ENERGY PREDICTED BY IDOCK:   -7.50 KCAL/MOL
REMARK 924 INTRA-LIGAND FREE ENERGY PREDICTED BY IDOCK:   -1.06 KCAL/MOL
REMARK 927      BINDING AFFINITY PREDICTED BY RF-SCORE:    0.00 PKD
ROOT
HETATM    1 CU   UNL     1      -8.186  12.796  67.954  1.00  0.00    -0.112 Cu 
HETATM    2  O   UNL     2      -6.058  18.181  66.367  1.00  0.00    -0.156 OA 
HETATM    3  C   UNL     2      -7.434  17.970  66.017  1.00  0.00    -0.236 C  
HETATM    4  H   UNL     2      -5.766  18.955  65.899  1.00  0.00     0.000 HD 
HETATM    5  O   UNL     3     -11.610   6.483  66.613  1.00  0.00    -0.678 OA 
HETATM    6  H   UNL     3     -11.671   6.647  65.679  1.00  0.00     0.000 HD 
HETATM    7  C   UNL     3     -10.627   7.378  67.172  1.00  0.00    -0.342 C  
ENDROOT
BRANCH   3   8
HETATM    8  C   UNL     2      -7.903  16.728  66.769  1.00  0.00    -0.246 C  
HETATM    9  O   UNL     2      -6.806  16.174  67.523  1.00  0.00    -0.133 OA 
HETATM   10  H   UNL     2      -7.098  15.401  67.990  1.00  0.00     0.000 HD 
BRANCH   8  11
HETATM   11  C   UNL     2      -9.112  17.019  67.681  1.00  0.00    -0.229 C  
HETATM   12  O   UNL     2      -9.212  18.439  67.807  1.00  0.00    -0.271 OA 
HETATM   13  H   UNL     2      -9.957  18.619  68.368  1.00  0.00     0.000 HD 
BRANCH  11  14
HETATM   14  C   UNL     2     -10.377  16.423  67.030  1.00  0.00    -0.293 C  
HETATM   15  H   UNL     2     -12.042  15.578  67.684  1.00  0.00     0.000 HD 
HETATM   16  O   UNL     2     -11.263  15.945  68.085  1.00  0.00    -0.338 OA 
BRANCH  14  17
HETATM   17  C   UNL     2     -10.171  15.357  65.954  1.00  0.00    -0.344 C  
HETATM   18  C   UNL     2     -11.190  15.578  64.806  1.00  0.00    -0.390 C  
HETATM   19  H   UNL     2     -10.082  13.392  65.882  1.00  0.00     0.000 HD 
HETATM   20  O   UNL     2     -10.209  14.055  66.550  1.00  0.00    -0.268 OA 
HETATM   21  O   UNL     2     -11.201  16.794  64.430  1.00  0.00    -1.112 OA 
HETATM   22  O   UNL     2     -11.796  14.564  64.409  1.00  0.00    -0.425 OA 
ENDBRANCH  14  17
ENDBRANCH  11  14
ENDBRANCH   8  11
ENDBRANCH   3   8
BRANCH   7  23
HETATM   23  C   UNL     3     -10.529   7.113  68.680  1.00  0.00    -0.197 C  
HETATM   24  O   UNL     3     -11.778   6.541  69.119  1.00  0.00    -0.623 OA 
HETATM   25  H   UNL     3     -11.717   6.377  70.053  1.00  0.00     0.000 HD 
BRANCH  23  26
HETATM   26  C   UNL     3      -9.451   6.111  69.140  1.00  0.00    -0.132 C  
HETATM   27  O   UNL     3      -8.135   6.583  68.844  1.00  0.00    -0.113 OA 
HETATM   28  H   UNL     3      -7.471   5.965  69.128  1.00  0.00     0.000 HD 
BRANCH  26  29
HETATM   29  C   UNL     3      -9.482   5.614  70.602  1.00  0.00    -0.164 C  
HETATM   30  O   UNL     3      -8.316   6.007  71.342  1.00  0.00    -0.124 OA 
HETATM   31  H   UNL     3      -8.335   5.701  72.242  1.00  0.00     0.000 HD 
BRANCH  29  32
HETATM   32  C   UNL     3      -9.691   4.119  70.820  1.00  0.00    -0.196 C  
HETATM   33  C   UNL     3      -8.635   3.457  71.722  1.00  0.00    -0.084 C  
HETATM   34  O   UNL     3      -9.630   3.426  69.498  1.00  0.00    -0.169 OA 
HETATM   35  O   UNL     3      -7.659   2.942  71.033  1.00  0.00    -0.036 OA 
HETATM   36  O   UNL     3      -8.986   3.155  72.880  1.00  0.00    -0.086 OA 
HETATM   37  H   UNL     3      -9.760   2.495  69.634  1.00  0.00     0.000 HD 
ENDBRANCH  29  32
ENDBRANCH  26  29
ENDBRANCH  23  26
ENDBRANCH   7  23
TORSDOF 8
ENDMDL
MODEL      250
REMARK 921   NORMALIZED FREE ENERGY PREDICTED BY IDOCK:   -4.41 KCAL/MOL
REMARK 922        TOTAL FREE ENERGY PREDICTED BY IDOCK:   -8.54 KCAL/MOL
REMARK 923 INTER-LIGAND FREE ENERGY PREDICTED BY IDOCK:   -7.48 KCAL/MOL
REMARK 924 INTRA-LIGAND FREE ENERGY PREDICTED BY IDOCK:   -1.06 KCAL/MOL
REMARK 927      BINDING AFFINITY PREDICTED BY RF-SCORE:    0.00 PKD
ROOT
HETATM    1 CU   UNL     1      -9.901  11.372  68.115  1.00  0.00    -0.156 Cu 
HETATM    2  O   UNL     2     -12.141  14.691  63.643  1.00  0.00    -0.880 OA 
HETATM    3  C   UNL     2     -11.984  13.303  63.318  1.00  0.00    -0.310 C  
HETATM    4  H   UNL     2     -12.297  15.153  62.828  1.00  0.00     0.000 HD 
HETATM    5  O   UNL     3      -5.180   6.560  70.934  1.00  0.00    -0.018 OA 
HETATM    6  H   UNL     3      -4.647   6.534  70.147  1.00  0.00     0.000 HD 
HETATM    7  C   UNL     3      -6.024   7.728  70.877  1.00  0.00    -0.034 C  
ENDROOT
BRANCH   3   8
HETATM    8  C   UNL     2     -11.734  12.560  64.628  1.00  0.00    -0.359 C  
HETATM    9  O   UNL     2     -11.631  11.146  64.371  1.00  0.00    -0.067 OA 
HETATM   10  H   UNL     2     -11.476  10.684  65.187  1.00  0.00     0.000 HD 
BRANCH   8  11
HETATM   11  C   UNL     2     -10.486  13.083  65.367  1.00  0.00    -0.296 C  
HETATM   12  O   UNL     2      -9.893  14.084  64.536  1.00  0.00    -0.641 OA 
HETATM   13  H   UNL     2      -9.125  14.406  64.991  1.00  0.00     0.000 HD 
BRANCH  11  14
HETATM   14  C   UNL     2     -10.924  13.669  66.724  1.00  0.00    -0.292 C  
HETATM   15  H   UNL     2     -12.512  14.635  67.403  1.00  0.00     0.000 HD 
HETATM   16  O   UNL     2     -12.242  14.274  66.567  1.00  0.00    -0.441 OA 
BRANCH  14  17
HETATM   17  C   UNL     2      -9.954  14.628  67.416  1.00  0.00    -0.231 C  
HETATM   18  C   UNL     2      -9.606  15.793  66.454  1.00  0.00    -0.285 C  
HETATM   19  H   UNL     2      -8.223  14.496  68.343  1.00  0.00     0.000 HD 
HETATM   20  O   UNL     2      -8.825  13.900  67.913  1.00  0.00    -0.166 OA 
HETATM   21  O   UNL     2     -10.657  16.295  65.940  1.00  0.00    -0.327 OA 
HETATM   22  O   UNL     2      -8.397  16.084  66.360  1.00  0.00    -0.293 OA 
ENDBRANCH  14  17
ENDBRANCH  11  14
ENDBRANCH   8  11
ENDBRANCH   3   8
BRANCH   7  23
HETATM   23  C   UNL     3      -6.885   7.769  72.147  1.00  0.00    -0.060 C  
HETATM   24  O   UNL     3      -6.426   8.864  72.966  1.00  0.00    -0.288 OA 
HETATM   25  H   UNL     3      -6.959   8.890  73.752  1.00  0.00     0.000 HD 
BRANCH  23  26
HETATM   26  C   UNL     3      -8.393   8.023  71.955  1.00  0.00    -0.131 C  
HETATM   27  O   UNL     3      -8.968   8.658  73.099  1.00  0.00    -0.310 OA 
HETATM   28  H   UNL     3      -9.898   8.814  72.980  1.00  0.00     0.000 HD 
BRANCH  26  29
HETATM   29  C   UNL     3      -8.860   8.770  70.686  1.00  0.00    -0.182 C  
HETATM   30  O   UNL     3      -8.499  10.160  70.702  1.00  0.00    -0.325 OA 
HETATM   31  H   UNL     3      -8.786  10.619  69.921  1.00  0.00     0.000 HD 
BRANCH  29  32
HETATM   32  C   UNL     3     -10.341   8.676  70.334  1.00  0.00    -0.200 C  
HETATM   33  C   UNL     3     -11.195   9.834  70.878  1.00  0.00    -0.359 C  
HETATM   34  O   UNL     3     -10.895   7.416  70.913  1.00  0.00    -0.233 OA 
HETATM   35  O   UNL     3     -11.731   9.546  72.028  1.00  0.00    -0.331 OA 
HETATM   36  O   UNL     3     -11.579  10.691  70.058  1.00  0.00    -0.271 OA 
HETATM   37  H   UNL     3     -11.818   7.358  70.694  1.00  0.00     0.000 HD 
ENDBRANCH  29  32
ENDBRANCH  26  29
ENDBRANCH  23  26
ENDBRANCH   7  23
TORSDOF 8
ENDMDL
MODEL      251
REMARK 921   NORMALIZED FREE ENERGY PREDICTED BY IDOCK:   -4.41 KCAL/MOL
REMARK 922        TOTAL FREE ENERGY PREDICTED BY IDOCK:   -8.54 KCAL/MOL
REMARK 923 INTER-LIGAND FREE ENERGY PREDICTED BY IDOCK:   -7.52 KCAL/MOL
REMARK 924 INTRA-LIGAND FREE ENERGY PREDICTED BY IDOCK:   -1.02 KCAL/MOL
REMARK 927      BINDING AFFINITY PREDICTED BY RF-SCORE:    0.00 PKD
ROOT
HETATM    1 CU   UNL     1      -8.138  12.236  69.463  1.00  0.00    -0.330 Cu 
HETATM    2  O   UNL     2      -9.612   6.737  71.367  1.00  0.00    -0.168 OA 
HETATM    3  C   UNL     2     -10.268   7.797  72.078  1.00  0.00    -0.201 C  
HETATM    4  H   UNL     2      -9.745   5.941  71.868  1.00  0.00     0.000 HD 
HETATM    5  O   UNL     3      -5.856  19.101  70.492  1.00  0.00    -0.228 OA 
HETATM    6  H   UNL     3      -5.661  18.960  71.412  1.00  0.00     0.000 HD 
HETATM    7  C   UNL     3      -5.982  17.817  69.848  1.00  0.00    -0.216 C  
ENDROOT
BRANCH   3   8
HETATM    8  C   UNL     2     -10.055   9.076  71.274  1.00  0.00    -0.314 C  
HETATM    9  O   UNL     2      -8.676   9.484  71.369  1.00  0.00    -0.293 OA 
HETATM   10  H   UNL     2      -8.543  10.281  70.869  1.00  0.00     0.000 HD 
BRANCH   8  11
HETATM   11  C   UNL     2     -10.487   8.920  69.801  1.00  0.00    -0.212 C  
HETATM   12  O   UNL     2     -11.353  10.017  69.499  1.00  0.00    -0.315 OA 
HETATM   13  H   UNL     2     -11.620   9.921  68.592  1.00  0.00     0.000 HD 
BRANCH  11  14
HETATM   14  C   UNL     2      -9.228   8.939  68.912  1.00  0.00    -0.140 C  
HETATM   15  H   UNL     2      -8.286  10.295  67.819  1.00  0.00     0.000 HD 
HETATM   16  O   UNL     2      -9.062  10.282  68.367  1.00  0.00    -0.129 OA 
BRANCH  14  17
HETATM   17  C   UNL     2      -9.134   7.881  67.812  1.00  0.00    -0.134 C  
HETATM   18  C   UNL     2     -10.487   7.797  67.059  1.00  0.00    -0.349 C  
HETATM   19  H   UNL     2      -8.619   5.986  67.685  1.00  0.00     0.000 HD 
HETATM   20  O   UNL     2      -8.677   6.643  68.369  1.00  0.00    -0.123 OA 
HETATM   21  O   UNL     2     -10.900   8.954  66.724  1.00  0.00    -0.126 OA 
HETATM   22  O   UNL     2     -10.935   6.650  66.865  1.00  0.00    -0.376 OA 
ENDBRANCH  14  17
ENDBRANCH  11  14
ENDBRANCH   8  11
ENDBRANCH   3   8
BRANCH   7  23
HETATM   23  C   UNL     3      -6.298  18.044  68.364  1.00  0.00    -0.196 C  
HETATM   24  O   UNL     3      -7.069  16.921  67.891  1.00  0.00    -0.146 OA 
HETATM   25  H   UNL     3      -7.265  17.061  66.971  1.00  0.00     0.000 HD 
BRANCH  23  26
HETATM   26  C   UNL     3      -7.148  19.282  68.017  1.00  0.00    -0.255 C  
HETATM   27  O   UNL     3      -6.376  20.484  68.081  1.00  0.00    -0.273 OA 
HETATM   28  H   UNL     3      -6.901  21.247  67.867  1.00  0.00     0.000 HD 
BRANCH  26  29
HETATM   29  C   UNL     3      -7.953  19.279  66.699  1.00  0.00    -0.277 C  
HETATM   30  O   UNL     3      -7.374  20.133  65.699  1.00  0.00    -0.381 OA 
HETATM   31  H   UNL     3      -7.869  20.131  64.888  1.00  0.00     0.000 HD 
BRANCH  29  32
HETATM   32  C   UNL     3      -9.438  19.611  66.794  1.00  0.00    -0.367 C  
HETATM   33  C   UNL     3     -10.366  18.386  66.722  1.00  0.00    -0.394 C  
HETATM   34  O   UNL     3      -9.806  20.504  65.656  1.00  0.00    -0.597 OA 
HETATM   35  O   UNL     3     -10.775  18.156  65.508  1.00  0.00    -0.599 OA 
HETATM   36  O   UNL     3     -10.903  18.017  67.784  1.00  0.00    -0.383 OA 
HETATM   37  H   UNL     3     -10.731  20.711  65.714  1.00  0.00     0.000 HD 
ENDBRANCH  29  32
ENDBRANCH  26  29
ENDBRANCH  23  26
ENDBRANCH   7  23
TORSDOF 8
ENDMDL
MODEL      252
REMARK 921   NORMALIZED FREE ENERGY PREDICTED BY IDOCK:   -4.41 KCAL/MOL
REMARK 922        TOTAL FREE ENERGY PREDICTED BY IDOCK:   -8.54 KCAL/MOL
REMARK 923 INTER-LIGAND FREE ENERGY PREDICTED BY IDOCK:   -6.63 KCAL/MOL
REMARK 924 INTRA-LIGAND FREE ENERGY PREDICTED BY IDOCK:   -1.91 KCAL/MOL
REMARK 927      BINDING AFFINITY PREDICTED BY RF-SCORE:    0.00 PKD
ROOT
HETATM    1 CU   UNL     1     -10.123  11.168  67.884  1.00  0.00    -0.160 Cu 
HETATM    2  O   UNL     2     -12.440  14.657  63.584  1.00  0.00    -1.070 OA 
HETATM    3  C   UNL     2     -12.219  13.299  63.178  1.00  0.00    -0.145 C  
HETATM    4  H   UNL     2     -12.604  15.161  62.795  1.00  0.00     0.000 HD 
HETATM    5  O   UNL     3      -5.240   6.396  70.486  1.00  0.00    -0.013 OA 
HETATM    6  H   UNL     3      -4.695   6.441  69.708  1.00  0.00     0.000 HD 
HETATM    7  C   UNL     3      -6.133   7.528  70.485  1.00  0.00    -0.031 C  
ENDROOT
BRANCH   3   8
HETATM    8  C   UNL     2     -11.956  12.489  64.444  1.00  0.00    -0.404 C  
HETATM    9  O   UNL     2     -11.817  11.094  64.107  1.00  0.00    -0.074 OA 
HETATM   10  H   UNL     2     -11.655  10.590  64.896  1.00  0.00     0.000 HD 
BRANCH   8  11
HETATM   11  C   UNL     2     -10.723  12.998  65.219  1.00  0.00    -0.299 C  
HETATM   12  O   UNL     2     -10.009  13.874  64.343  1.00  0.00    -0.719 OA 
HETATM   13  H   UNL     2      -9.250  14.188  64.820  1.00  0.00     0.000 HD 
BRANCH  11  14
HETATM   14  C   UNL     2     -11.205  13.740  66.482  1.00  0.00    -0.312 C  
HETATM   15  H   UNL     2     -12.953  14.334  67.195  1.00  0.00     0.000 HD 
HETATM   16  O   UNL     2     -12.656  13.877  66.417  1.00  0.00    -0.413 OA 
BRANCH  14  17
HETATM   17  C   UNL     2     -10.537  15.077  66.804  1.00  0.00    -0.301 C  
HETATM   18  C   UNL     2     -10.816  15.452  68.282  1.00  0.00    -0.269 C  
HETATM   19  H   UNL     2     -10.525  16.893  66.046  1.00  0.00     0.000 HD 
HETATM   20  O   UNL     2     -10.941  16.062  65.846  1.00  0.00    -0.242 OA 
HETATM   21  O   UNL     2     -10.571  14.474  69.059  1.00  0.00    -0.240 OA 
HETATM   22  O   UNL     2     -11.188  16.624  68.489  1.00  0.00    -0.344 OA 
ENDBRANCH  14  17
ENDBRANCH  11  14
ENDBRANCH   8  11
ENDBRANCH   3   8
BRANCH   7  23
HETATM   23  C   UNL     3      -7.013   7.455  71.740  1.00  0.00    -0.062 C  
HETATM   24  O   UNL     3      -7.333   8.802  72.144  1.00  0.00    -0.280 OA 
HETATM   25  H   UNL     3      -7.878   8.757  72.921  1.00  0.00     0.000 HD 
BRANCH  23  26
HETATM   26  C   UNL     3      -8.376   6.751  71.592  1.00  0.00    -0.111 C  
HETATM   27  O   UNL     3      -8.981   7.039  70.329  1.00  0.00    -0.147 OA 
HETATM   28  H   UNL     3      -9.821   6.604  70.238  1.00  0.00     0.000 HD 
BRANCH  26  29
HETATM   29  C   UNL     3      -8.451   5.229  71.843  1.00  0.00    -0.126 C  
HETATM   30  O   UNL     3      -7.370   4.515  71.224  1.00  0.00    -0.052 OA 
HETATM   31  H   UNL     3      -7.416   3.579  71.378  1.00  0.00     0.000 HD 
BRANCH  29  32
HETATM   32  C   UNL     3      -9.752   4.529  71.463  1.00  0.00    -0.175 C  
HETATM   33  C   UNL     3      -9.780   3.986  70.023  1.00  0.00    -0.193 C  
HETATM   34  O   UNL     3     -10.877   5.503  71.583  1.00  0.00    -0.245 OA 
HETATM   35  O   UNL     3     -10.314   4.834  69.193  1.00  0.00    -0.130 OA 
HETATM   36  O   UNL     3      -9.671   2.753  69.879  1.00  0.00    -0.071 OA 
HETATM   37  H   UNL     3     -11.687   5.067  71.346  1.00  0.00     0.000 HD 
ENDBRANCH  29  32
ENDBRANCH  26  29
ENDBRANCH  23  26
ENDBRANCH   7  23
TORSDOF 8
ENDMDL
MODEL      253
REMARK 921   NORMALIZED FREE ENERGY PREDICTED BY IDOCK:   -4.40 KCAL/MOL
REMARK 922        TOTAL FREE ENERGY PREDICTED BY IDOCK:   -8.54 KCAL/MOL
REMARK 923 INTER-LIGAND FREE ENERGY PREDICTED BY IDOCK:   -7.61 KCAL/MOL
REMARK 924 INTRA-LIGAND FREE ENERGY PREDICTED BY IDOCK:   -0.92 KCAL/MOL
REMARK 927      BINDING AFFINITY PREDICTED BY RF-SCORE:    0.00 PKD
ROOT
HETATM    1 CU   UNL     1     -11.242   8.912  66.681  1.00  0.00    -0.161 Cu 
HETATM    2  O   UNL     2     -13.141  14.329  64.923  1.00  0.00    -0.645 OA 
HETATM    3  C   UNL     2     -12.174  13.735  64.044  1.00  0.00    -0.380 C  
HETATM    4  H   UNL     2     -13.216  15.244  64.677  1.00  0.00     0.000 HD 
HETATM    5  O   UNL     3      -6.055   4.023  68.286  1.00  0.00    -0.029 OA 
HETATM    6  H   UNL     3      -5.351   4.657  68.206  1.00  0.00     0.000 HD 
HETATM    7  C   UNL     3      -7.302   4.737  68.407  1.00  0.00    -0.065 C  
ENDROOT
BRANCH   3   8
HETATM    8  C   UNL     2     -12.053  12.265  64.437  1.00  0.00    -0.399 C  
HETATM    9  O   UNL     2     -12.382  11.433  63.307  1.00  0.00    -0.805 OA 
HETATM   10  H   UNL     2     -12.307  10.518  63.552  1.00  0.00     0.000 HD 
BRANCH   8  11
HETATM   11  C   UNL     2     -10.655  11.922  64.992  1.00  0.00    -0.289 C  
HETATM   12  O   UNL     2      -9.784  12.996  64.632  1.00  0.00    -0.559 OA 
HETATM   13  H   UNL     2      -8.923  12.785  64.973  1.00  0.00     0.000 HD 
BRANCH  11  14
HETATM   14  C   UNL     2     -10.755  11.771  66.523  1.00  0.00    -0.265 C  
HETATM   15  H   UNL     2     -12.198  11.918  67.870  1.00  0.00     0.000 HD 
HETATM   16  O   UNL     2     -12.136  12.011  66.926  1.00  0.00    -0.608 OA 
BRANCH  14  17
HETATM   17  C   UNL     2      -9.781  12.591  67.370  1.00  0.00    -0.194 C  
HETATM   18  C   UNL     2     -10.116  14.098  67.228  1.00  0.00    -0.256 C  
HETATM   19  H   UNL     2      -7.829  12.749  67.560  1.00  0.00     0.000 HD 
HETATM   20  O   UNL     2      -8.434  12.239  67.034  1.00  0.00    -0.180 OA 
HETATM   21  O   UNL     2     -11.359  14.311  67.397  1.00  0.00    -0.302 OA 
HETATM   22  O   UNL     2      -9.149  14.857  67.018  1.00  0.00    -0.211 OA 
ENDBRANCH  14  17
ENDBRANCH  11  14
ENDBRANCH   8  11
ENDBRANCH   3   8
BRANCH   7  23
HETATM   23  C   UNL     3      -8.439   3.714  68.537  1.00  0.00    -0.087 C  
HETATM   24  O   UNL     3      -9.622   4.410  68.979  1.00  0.00    -0.159 OA 
HETATM   25  H   UNL     3     -10.326   3.777  69.060  1.00  0.00     0.000 HD 
BRANCH  23  26
HETATM   26  C   UNL     3      -8.866   2.984  67.249  1.00  0.00    -0.139 C  
HETATM   27  O   UNL     3      -9.888   2.018  67.508  1.00  0.00    -0.365 OA 
HETATM   28  H   UNL     3     -10.151   1.568  66.713  1.00  0.00     0.000 HD 
BRANCH  26  29
HETATM   29  C   UNL     3      -9.281   3.829  66.025  1.00  0.00    -0.161 C  
HETATM   30  O   UNL     3     -10.625   4.326  66.129  1.00  0.00    -0.412 OA 
HETATM   31  H   UNL     3     -10.880   4.846  65.376  1.00  0.00     0.000 HD 
BRANCH  29  32
HETATM   32  C   UNL     3      -9.129   3.180  64.653  1.00  0.00    -0.137 C  
HETATM   33  C   UNL     3      -9.639   4.043  63.486  1.00  0.00    -0.149 C  
HETATM   34  O   UNL     3      -9.913   1.910  64.631  1.00  0.00    -0.334 OA 
HETATM   35  O   UNL     3     -10.872   3.765  63.177  1.00  0.00    -0.214 OA 
HETATM   36  O   UNL     3      -8.780   4.581  62.760  1.00  0.00    -0.105 OA 
HETATM   37  H   UNL     3      -9.819   1.505  63.777  1.00  0.00     0.000 HD 
ENDBRANCH  29  32
ENDBRANCH  26  29
ENDBRANCH  23  26
ENDBRANCH   7  23
TORSDOF 8
ENDMDL
MODEL      254
REMARK 921   NORMALIZED FREE ENERGY PREDICTED BY IDOCK:   -4.40 KCAL/MOL
REMARK 922        TOTAL FREE ENERGY PREDICTED BY IDOCK:   -8.53 KCAL/MOL
REMARK 923 INTER-LIGAND FREE ENERGY PREDICTED BY IDOCK:   -6.91 KCAL/MOL
REMARK 924 INTRA-LIGAND FREE ENERGY PREDICTED BY IDOCK:   -1.62 KCAL/MOL
REMARK 927      BINDING AFFINITY PREDICTED BY RF-SCORE:    0.00 PKD
ROOT
HETATM    1 CU   UNL     1      -7.894  14.494  66.379  1.00  0.00    -0.340 Cu 
HETATM    2  O   UNL     2      -8.656   9.156  63.738  1.00  0.00    -0.234 OA 
HETATM    3  C   UNL     2      -8.922   9.153  65.148  1.00  0.00    -0.189 C  
HETATM    4  H   UNL     2      -8.601   8.249  63.463  1.00  0.00     0.000 HD 
HETATM    5  O   UNL     3      -5.137  18.892  71.520  1.00  0.00    -0.399 OA 
HETATM    6  H   UNL     3      -4.585  18.212  71.889  1.00  0.00     0.000 HD 
HETATM    7  C   UNL     3      -5.565  18.474  70.208  1.00  0.00    -0.226 C  
ENDROOT
BRANCH   3   8
HETATM    8  C   UNL     2      -9.011  10.611  65.591  1.00  0.00    -0.185 C  
HETATM    9  O   UNL     2      -8.612  11.473  64.507  1.00  0.00    -0.229 OA 
HETATM   10  H   UNL     2      -8.668  12.380  64.783  1.00  0.00     0.000 HD 
BRANCH   8  11
HETATM   11  C   UNL     2     -10.418  10.980  66.106  1.00  0.00    -0.244 C  
HETATM   12  O   UNL     2     -10.677  10.159  67.247  1.00  0.00    -0.261 OA 
HETATM   13  H   UNL     2     -11.543  10.386  67.564  1.00  0.00     0.000 HD 
BRANCH  11  14
HETATM   14  C   UNL     2     -10.431  12.477  66.478  1.00  0.00    -0.238 C  
HETATM   15  H   UNL     2      -9.079  13.809  67.038  1.00  0.00     0.000 HD 
HETATM   16  O   UNL     2      -9.071  12.887  66.809  1.00  0.00    -0.225 OA 
BRANCH  14  17
HETATM   17  C   UNL     2     -11.420  12.918  67.557  1.00  0.00    -0.335 C  
HETATM   18  C   UNL     2     -11.913  14.356  67.250  1.00  0.00    -0.377 C  
HETATM   19  H   UNL     2     -11.445  13.022  69.523  1.00  0.00     0.000 HD 
HETATM   20  O   UNL     2     -10.831  12.748  68.852  1.00  0.00    -0.238 OA 
HETATM   21  O   UNL     2     -12.284  14.465  66.037  1.00  0.00    -0.394 OA 
HETATM   22  O   UNL     2     -11.911  15.152  68.209  1.00  0.00    -0.298 OA 
ENDBRANCH  14  17
ENDBRANCH  11  14
ENDBRANCH   8  11
ENDBRANCH   3   8
BRANCH   7  23
HETATM   23  C   UNL     3      -6.456  19.572  69.613  1.00  0.00    -0.315 C  
HETATM   24  O   UNL     3      -5.664  20.770  69.477  1.00  0.00    -0.360 OA 
HETATM   25  H   UNL     3      -6.216  21.450  69.108  1.00  0.00     0.000 HD 
BRANCH  23  26
HETATM   26  C   UNL     3      -7.030  19.314  68.206  1.00  0.00    -0.271 C  
HETATM   27  O   UNL     3      -7.236  20.535  67.491  1.00  0.00    -0.293 OA 
HETATM   28  H   UNL     3      -7.590  20.375  66.624  1.00  0.00     0.000 HD 
BRANCH  26  29
HETATM   29  C   UNL     3      -6.298  18.316  67.283  1.00  0.00    -0.177 C  
HETATM   30  O   UNL     3      -5.533  18.973  66.259  1.00  0.00    -0.154 OA 
HETATM   31  H   UNL     3      -5.083  18.359  65.691  1.00  0.00     0.000 HD 
BRANCH  29  32
HETATM   32  C   UNL     3      -7.149  17.242  66.613  1.00  0.00    -0.243 C  
HETATM   33  C   UNL     3      -8.451  16.909  67.360  1.00  0.00    -0.190 C  
HETATM   34  O   UNL     3      -6.356  15.979  66.535  1.00  0.00    -0.095 OA 
HETATM   35  O   UNL     3      -8.304  15.901  68.169  1.00  0.00    -0.157 OA 
HETATM   36  O   UNL     3      -9.514  17.335  66.867  1.00  0.00    -0.242 OA 
HETATM   37  H   UNL     3      -6.885  15.310  66.117  1.00  0.00     0.000 HD 
ENDBRANCH  29  32
ENDBRANCH  26  29
ENDBRANCH  23  26
ENDBRANCH   7  23
TORSDOF 8
ENDMDL
MODEL      255
REMARK 921   NORMALIZED FREE ENERGY PREDICTED BY IDOCK:   -4.40 KCAL/MOL
REMARK 922        TOTAL FREE ENERGY PREDICTED BY IDOCK:   -8.53 KCAL/MOL
REMARK 923 INTER-LIGAND FREE ENERGY PREDICTED BY IDOCK:   -7.23 KCAL/MOL
REMARK 924 INTRA-LIGAND FREE ENERGY PREDICTED BY IDOCK:   -1.30 KCAL/MOL
REMARK 927      BINDING AFFINITY PREDICTED BY RF-SCORE:    0.00 PKD
ROOT
HETATM    1 CU   UNL     1      -9.431  10.696  67.921  1.00  0.00    -0.144 Cu 
HETATM    2  O   UNL     2      -6.483   6.146  65.344  1.00  0.00    -0.037 OA 
HETATM    3  C   UNL     2      -7.910   5.998  65.332  1.00  0.00    -0.104 C  
HETATM    4  H   UNL     2      -6.113   5.302  65.111  1.00  0.00     0.000 HD 
HETATM    5  O   UNL     3     -14.317  13.499  72.574  1.00  0.00    -0.713 OA 
HETATM    6  H   UNL     3     -14.497  12.660  72.982  1.00  0.00     0.000 HD 
HETATM    7  C   UNL     3     -13.084  13.394  71.834  1.00  0.00    -0.383 C  
ENDROOT
BRANCH   3   8
HETATM    8  C   UNL     2      -8.505   7.354  65.706  1.00  0.00    -0.143 C  
HETATM    9  O   UNL     2      -8.831   8.086  64.509  1.00  0.00    -0.374 OA 
HETATM   10  H   UNL     2      -9.200   8.930  64.742  1.00  0.00     0.000 HD 
BRANCH   8  11
HETATM   11  C   UNL     2      -9.735   7.218  66.627  1.00  0.00    -0.183 C  
HETATM   12  O   UNL     2     -10.548   6.172  66.090  1.00  0.00    -0.459 OA 
HETATM   13  H   UNL     2     -11.306   6.088  66.657  1.00  0.00     0.000 HD 
BRANCH  11  14
HETATM   14  C   UNL     2      -9.251   6.877  68.051  1.00  0.00    -0.121 C  
HETATM   15  H   UNL     2      -9.261   5.268  69.202  1.00  0.00     0.000 HD 
HETATM   16  O   UNL     2      -9.559   5.478  68.325  1.00  0.00    -0.111 OA 
BRANCH  14  17
HETATM   17  C   UNL     2      -9.731   7.782  69.186  1.00  0.00    -0.161 C  
HETATM   18  C   UNL     2      -8.532   8.145  70.099  1.00  0.00    -0.127 C  
HETATM   19  H   UNL     2     -11.135   7.731  70.565  1.00  0.00     0.000 HD 
HETATM   20  O   UNL     2     -10.837   7.168  69.859  1.00  0.00    -0.243 OA 
HETATM   21  O   UNL     2      -7.537   8.545  69.414  1.00  0.00    -0.086 OA 
HETATM   22  O   UNL     2      -8.725   8.035  71.326  1.00  0.00    -0.127 OA 
ENDBRANCH  14  17
ENDBRANCH  11  14
ENDBRANCH   8  11
ENDBRANCH   3   8
BRANCH   7  23
HETATM   23  C   UNL     3     -12.794  14.749  71.174  1.00  0.00    -0.341 C  
HETATM   24  O   UNL     3     -12.163  15.600  72.153  1.00  0.00    -0.356 OA 
HETATM   25  H   UNL     3     -11.984  16.439  71.745  1.00  0.00     0.000 HD 
BRANCH  23  26
HETATM   26  C   UNL     3     -11.830  14.744  69.973  1.00  0.00    -0.311 C  
HETATM   27  O   UNL     3     -10.535  15.230  70.337  1.00  0.00    -0.458 OA 
HETATM   28  H   UNL     3      -9.940  15.226  69.596  1.00  0.00     0.000 HD 
BRANCH  26  29
HETATM   29  C   UNL     3     -11.660  13.437  69.168  1.00  0.00    -0.315 C  
HETATM   30  O   UNL     3     -10.882  12.455  69.871  1.00  0.00    -0.311 OA 
HETATM   31  H   UNL     3     -10.778  11.650  69.375  1.00  0.00     0.000 HD 
BRANCH  29  32
HETATM   32  C   UNL     3     -11.092  13.561  67.758  1.00  0.00    -0.268 C  
HETATM   33  C   UNL     3     -11.859  12.756  66.694  1.00  0.00    -0.393 C  
HETATM   34  O   UNL     3      -9.687  13.055  67.759  1.00  0.00    -0.206 OA 
HETATM   35  O   UNL     3     -11.338  11.579  66.505  1.00  0.00    -0.330 OA 
HETATM   36  O   UNL     3     -12.582  13.398  65.908  1.00  0.00    -0.426 OA 
HETATM   37  H   UNL     3      -9.333  13.132  66.880  1.00  0.00     0.000 HD 
ENDBRANCH  29  32
ENDBRANCH  26  29
ENDBRANCH  23  26
ENDBRANCH   7  23
TORSDOF 8
ENDMDL
MODEL      256
REMARK 921   NORMALIZED FREE ENERGY PREDICTED BY IDOCK:   -4.39 KCAL/MOL
REMARK 922        TOTAL FREE ENERGY PREDICTED BY IDOCK:   -8.51 KCAL/MOL
REMARK 923 INTER-LIGAND FREE ENERGY PREDICTED BY IDOCK:   -8.07 KCAL/MOL
REMARK 924 INTRA-LIGAND FREE ENERGY PREDICTED BY IDOCK:   -0.44 KCAL/MOL
REMARK 927      BINDING AFFINITY PREDICTED BY RF-SCORE:    0.00 PKD
ROOT
HETATM    1 CU   UNL     1      -9.558  14.339  67.336  1.00  0.00    -0.190 Cu 
HETATM    2  O   UNL     2      -6.792  19.097  64.939  1.00  0.00    -0.441 OA 
HETATM    3  C   UNL     2      -6.322  18.748  66.249  1.00  0.00    -0.185 C  
HETATM    4  H   UNL     2      -6.451  19.962  64.742  1.00  0.00     0.000 HD 
HETATM    5  O   UNL     3     -13.166  10.899  72.677  1.00  0.00    -0.358 OA 
HETATM    6  H   UNL     3     -13.252  11.685  73.205  1.00  0.00     0.000 HD 
HETATM    7  C   UNL     3     -12.820  11.285  71.332  1.00  0.00    -0.410 C  
ENDROOT
BRANCH   3   8
HETATM    8  C   UNL     2      -6.869  17.358  66.566  1.00  0.00    -0.254 C  
HETATM    9  O   UNL     2      -5.789  16.493  66.969  1.00  0.00    -0.213 OA 
HETATM   10  H   UNL     2      -6.130  15.628  67.166  1.00  0.00     0.000 HD 
BRANCH   8  11
HETATM   11  C   UNL     2      -7.979  17.397  67.636  1.00  0.00    -0.193 C  
HETATM   12  O   UNL     2      -8.115  18.758  68.051  1.00  0.00    -0.268 OA 
HETATM   13  H   UNL     2      -8.799  18.782  68.710  1.00  0.00     0.000 HD 
BRANCH  11  14
HETATM   14  C   UNL     2      -9.286  16.868  67.012  1.00  0.00    -0.235 C  
HETATM   15  H   UNL     2      -9.974  16.608  65.174  1.00  0.00     0.000 HD 
HETATM   16  O   UNL     2      -9.169  16.934  65.559  1.00  0.00    -0.443 OA 
BRANCH  14  17
HETATM   17  C   UNL     2     -10.593  17.500  67.490  1.00  0.00    -0.333 C  
HETATM   18  C   UNL     2     -10.685  18.957  66.968  1.00  0.00    -0.402 C  
HETATM   19  H   UNL     2     -11.518  17.755  69.209  1.00  0.00     0.000 HD 
HETATM   20  O   UNL     2     -10.706  17.362  68.912  1.00  0.00    -0.284 OA 
HETATM   21  O   UNL     2     -10.429  19.016  65.722  1.00  0.00    -0.530 OA 
HETATM   22  O   UNL     2     -11.022  19.819  67.804  1.00  0.00    -0.291 OA 
ENDBRANCH  14  17
ENDBRANCH  11  14
ENDBRANCH   8  11
ENDBRANCH   3   8
BRANCH   7  23
HETATM   23  C   UNL     3     -12.681  10.016  70.480  1.00  0.00    -0.130 C  
HETATM   24  O   UNL     3     -12.386  10.414  69.125  1.00  0.00    -0.702 OA 
HETATM   25  H   UNL     3     -12.300   9.628  68.598  1.00  0.00     0.000 HD 
BRANCH  23  26
HETATM   26  C   UNL     3     -11.547   9.045  70.864  1.00  0.00    -0.290 C  
HETATM   27  O   UNL     3     -11.509   8.814  72.274  1.00  0.00    -0.362 OA 
HETATM   28  H   UNL     3     -10.810   8.214  72.510  1.00  0.00     0.000 HD 
BRANCH  26  29
HETATM   29  C   UNL     3     -11.464   7.685  70.136  1.00  0.00    -0.066 C  
HETATM   30  O   UNL     3     -12.482   6.767  70.566  1.00  0.00    -0.553 OA 
HETATM   31  H   UNL     3     -12.430   5.931  70.118  1.00  0.00     0.000 HD 
BRANCH  29  32
HETATM   32  C   UNL     3     -10.126   6.955  70.186  1.00  0.00    -0.182 C  
HETATM   33  C   UNL     3     -10.184   5.575  70.865  1.00  0.00    -0.227 C  
HETATM   34  O   UNL     3      -9.154   7.782  70.962  1.00  0.00    -0.145 OA 
HETATM   35  O   UNL     3      -9.884   5.641  72.129  1.00  0.00    -0.156 OA 
HETATM   36  O   UNL     3     -10.121   4.575  70.123  1.00  0.00    -0.229 OA 
HETATM   37  H   UNL     3      -8.321   7.327  70.994  1.00  0.00     0.000 HD 
ENDBRANCH  29  32
ENDBRANCH  26  29
ENDBRANCH  23  26
ENDBRANCH   7  23
TORSDOF 8
ENDMDL
MODEL      257
REMARK 921   NORMALIZED FREE ENERGY PREDICTED BY IDOCK:   -4.38 KCAL/MOL
REMARK 922        TOTAL FREE ENERGY PREDICTED BY IDOCK:   -8.51 KCAL/MOL
REMARK 923 INTER-LIGAND FREE ENERGY PREDICTED BY IDOCK:   -7.95 KCAL/MOL
REMARK 924 INTRA-LIGAND FREE ENERGY PREDICTED BY IDOCK:   -0.56 KCAL/MOL
REMARK 927      BINDING AFFINITY PREDICTED BY RF-SCORE:    0.00 PKD
ROOT
HETATM    1 CU   UNL     1     -10.187  13.781  68.134  1.00  0.00    -0.207 Cu 
HETATM    2  O   UNL     2     -10.434  19.222  65.610  1.00  0.00    -0.502 OA 
HETATM    3  C   UNL     2     -10.545  19.237  67.041  1.00  0.00    -0.470 C  
HETATM    4  H   UNL     2     -10.690  20.084  65.302  1.00  0.00     0.000 HD 
HETATM    5  O   UNL     3     -12.685   8.515  72.540  1.00  0.00    -0.511 OA 
HETATM    6  H   UNL     3     -13.491   8.981  72.735  1.00  0.00     0.000 HD 
HETATM    7  C   UNL     3     -12.088   9.106  71.367  1.00  0.00    -0.337 C  
ENDROOT
BRANCH   3   8
HETATM    8  C   UNL     2     -10.134  17.853  67.536  1.00  0.00    -0.342 C  
HETATM    9  O   UNL     2     -10.501  16.859  66.560  1.00  0.00    -0.305 OA 
HETATM   10  H   UNL     2     -10.245  15.998  66.869  1.00  0.00     0.000 HD 
BRANCH   8  11
HETATM   11  C   UNL     2      -8.630  17.775  67.870  1.00  0.00    -0.250 C  
HETATM   12  O   UNL     2      -8.484  16.830  68.933  1.00  0.00    -0.246 OA 
HETATM   13  H   UNL     2      -7.558  16.781  69.138  1.00  0.00     0.000 HD 
BRANCH  11  14
HETATM   14  C   UNL     2      -7.867  17.323  66.609  1.00  0.00    -0.260 C  
HETATM   15  H   UNL     2      -7.261  15.592  65.865  1.00  0.00     0.000 HD 
HETATM   16  O   UNL     2      -7.731  15.871  66.642  1.00  0.00    -0.234 OA 
BRANCH  14  17
HETATM   17  C   UNL     2      -6.524  17.997  66.327  1.00  0.00    -0.228 C  
HETATM   18  C   UNL     2      -6.697  19.039  65.192  1.00  0.00    -0.100 C  
HETATM   19  H   UNL     2      -4.690  17.420  65.907  1.00  0.00     0.000 HD 
HETATM   20  O   UNL     2      -5.524  17.001  66.082  1.00  0.00    -0.336 OA 
HETATM   21  O   UNL     2      -7.697  19.796  65.412  1.00  0.00    -0.372 OA 
HETATM   22  O   UNL     2      -5.841  19.010  64.286  1.00  0.00    -0.325 OA 
ENDBRANCH  14  17
ENDBRANCH  11  14
ENDBRANCH   8  11
ENDBRANCH   3   8
BRANCH   7  23
HETATM   23  C   UNL     3     -10.787   8.355  71.052  1.00  0.00    -0.238 C  
HETATM   24  O   UNL     3     -11.053   6.940  71.139  1.00  0.00    -0.244 OA 
HETATM   25  H   UNL     3     -10.247   6.474  70.944  1.00  0.00     0.000 HD 
BRANCH  23  26
HETATM   26  C   UNL     3     -10.190   8.561  69.646  1.00  0.00    -0.209 C  
HETATM   27  O   UNL     3     -11.201   8.526  68.636  1.00  0.00    -0.346 OA 
HETATM   28  H   UNL     3     -10.833   8.653  67.769  1.00  0.00     0.000 HD 
BRANCH  26  29
HETATM   29  C   UNL     3      -9.287   9.790  69.401  1.00  0.00    -0.202 C  
HETATM   30  O   UNL     3      -8.305   9.966  70.435  1.00  0.00    -0.278 OA 
HETATM   31  H   UNL     3      -7.750  10.722  70.284  1.00  0.00     0.000 HD 
BRANCH  29  32
HETATM   32  C   UNL     3      -9.985  11.129  69.187  1.00  0.00    -0.082 C  
HETATM   33  C   UNL     3     -11.239  11.054  68.298  1.00  0.00    -0.277 C  
HETATM   34  O   UNL     3      -9.033  12.066  68.520  1.00  0.00    -0.271 OA 
HETATM   35  O   UNL     3     -10.967  11.307  67.051  1.00  0.00    -0.270 OA 
HETATM   36  O   UNL     3     -12.344  11.149  68.866  1.00  0.00    -0.512 OA 
HETATM   37  H   UNL     3      -9.467  12.901  68.386  1.00  0.00     0.000 HD 
ENDBRANCH  29  32
ENDBRANCH  26  29
ENDBRANCH  23  26
ENDBRANCH   7  23
TORSDOF 8
ENDMDL
MODEL      258
REMARK 921   NORMALIZED FREE ENERGY PREDICTED BY IDOCK:   -4.36 KCAL/MOL
REMARK 922        TOTAL FREE ENERGY PREDICTED BY IDOCK:   -8.48 KCAL/MOL
REMARK 923 INTER-LIGAND FREE ENERGY PREDICTED BY IDOCK:   -7.32 KCAL/MOL
REMARK 924 INTRA-LIGAND FREE ENERGY PREDICTED BY IDOCK:   -1.16 KCAL/MOL
REMARK 927      BINDING AFFINITY PREDICTED BY RF-SCORE:    0.00 PKD
ROOT
HETATM    1 CU   UNL     1     -10.818   9.610  67.002  1.00  0.00    -0.223 Cu 
HETATM    2  O   UNL     2     -12.431  13.996  63.234  1.00  0.00    -1.139 OA 
HETATM    3  C   UNL     2     -12.157  14.445  64.569  1.00  0.00    -0.481 C  
HETATM    4  H   UNL     2     -12.869  14.710  62.784  1.00  0.00     0.000 HD 
HETATM    5  O   UNL     3     -11.347   5.853  73.246  1.00  0.00    -0.467 OA 
HETATM    6  H   UNL     3     -12.124   6.321  73.530  1.00  0.00     0.000 HD 
HETATM    7  C   UNL     3     -11.166   6.079  71.833  1.00  0.00    -0.282 C  
ENDROOT
BRANCH   3   8
HETATM    8  C   UNL     2     -11.453  13.299  65.291  1.00  0.00    -0.295 C  
HETATM    9  O   UNL     2     -10.129  13.126  64.750  1.00  0.00    -0.499 OA 
HETATM   10  H   UNL     2      -9.691  12.412  65.200  1.00  0.00     0.000 HD 
BRANCH   8  11
HETATM   11  C   UNL     2     -11.405  13.513  66.818  1.00  0.00    -0.328 C  
HETATM   12  O   UNL     2     -11.571  12.231  67.428  1.00  0.00    -0.328 OA 
HETATM   13  H   UNL     2     -11.542  12.362  68.368  1.00  0.00     0.000 HD 
BRANCH  11  14
HETATM   14  C   UNL     2     -10.044  14.137  67.188  1.00  0.00    -0.258 C  
HETATM   15  H   UNL     2      -8.187  13.478  67.367  1.00  0.00     0.000 HD 
HETATM   16  O   UNL     2      -9.025  13.094  67.139  1.00  0.00    -0.211 OA 
BRANCH  14  17
HETATM   17  C   UNL     2      -9.969  14.923  68.497  1.00  0.00    -0.223 C  
HETATM   18  C   UNL     2     -10.817  16.215  68.373  1.00  0.00    -0.318 C  
HETATM   19  H   UNL     2      -8.552  15.622  69.670  1.00  0.00     0.000 HD 
HETATM   20  O   UNL     2      -8.599  15.134  68.857  1.00  0.00    -0.176 OA 
HETATM   21  O   UNL     2     -11.975  15.963  67.908  1.00  0.00     0.006 OA 
HETATM   22  O   UNL     2     -10.275  17.266  68.769  1.00  0.00    -0.315 OA 
ENDBRANCH  14  17
ENDBRANCH  11  14
ENDBRANCH   8  11
ENDBRANCH   3   8
BRANCH   7  23
HETATM   23  C   UNL     3      -9.912   5.323  71.375  1.00  0.00    -0.185 C  
HETATM   24  O   UNL     3     -10.285   3.958  71.097  1.00  0.00    -0.071 OA 
HETATM   25  H   UNL     3      -9.508   3.490  70.814  1.00  0.00     0.000 HD 
BRANCH  23  26
HETATM   26  C   UNL     3      -9.236   5.820  70.082  1.00  0.00    -0.151 C  
HETATM   27  O   UNL     3      -9.156   4.784  69.100  1.00  0.00    -0.099 OA 
HETATM   28  H   UNL     3      -8.739   5.091  68.303  1.00  0.00     0.000 HD 
BRANCH  26  29
HETATM   29  C   UNL     3      -9.780   7.100  69.410  1.00  0.00    -0.160 C  
HETATM   30  O   UNL     3     -10.511   6.820  68.205  1.00  0.00    -0.177 OA 
HETATM   31  H   UNL     3     -10.845   7.608  67.792  1.00  0.00     0.000 HD 
BRANCH  29  32
HETATM   32  C   UNL     3      -8.771   8.200  69.099  1.00  0.00    -0.140 C  
HETATM   33  C   UNL     3      -9.026   9.522  69.845  1.00  0.00    -0.212 C  
HETATM   34  O   UNL     3      -8.826   8.506  67.639  1.00  0.00    -0.135 OA 
HETATM   35  O   UNL     3      -9.736  10.351  69.137  1.00  0.00    -0.201 OA 
HETATM   36  O   UNL     3      -8.263   9.796  70.792  1.00  0.00    -0.251 OA 
HETATM   37  H   UNL     3      -8.198   9.192  67.445  1.00  0.00     0.000 HD 
ENDBRANCH  29  32
ENDBRANCH  26  29
ENDBRANCH  23  26
ENDBRANCH   7  23
TORSDOF 8
ENDMDL
MODEL      259
REMARK 921   NORMALIZED FREE ENERGY PREDICTED BY IDOCK:   -4.35 KCAL/MOL
REMARK 922        TOTAL FREE ENERGY PREDICTED BY IDOCK:   -8.46 KCAL/MOL
REMARK 923 INTER-LIGAND FREE ENERGY PREDICTED BY IDOCK:   -6.87 KCAL/MOL
REMARK 924 INTRA-LIGAND FREE ENERGY PREDICTED BY IDOCK:   -1.58 KCAL/MOL
REMARK 927      BINDING AFFINITY PREDICTED BY RF-SCORE:    0.00 PKD
ROOT
HETATM    1 CU   UNL     1     -12.003  10.201  70.603  1.00  0.00    -0.229 Cu 
HETATM    2  O   UNL     2     -12.318   4.725  73.043  1.00  0.00    -0.205 OA 
HETATM    3  C   UNL     2     -10.983   5.239  72.933  1.00  0.00    -0.287 C  
HETATM    4  H   UNL     2     -12.245   3.798  73.239  1.00  0.00     0.000 HD 
HETATM    5  O   UNL     3      -9.398  15.068  65.818  1.00  0.00    -0.456 OA 
HETATM    6  H   UNL     3      -8.905  14.416  65.334  1.00  0.00     0.000 HD 
HETATM    7  C   UNL     3     -10.369  14.391  66.641  1.00  0.00    -0.275 C  
ENDROOT
BRANCH   3   8
HETATM    8  C   UNL     2     -11.100   6.728  72.620  1.00  0.00    -0.265 C  
HETATM    9  O   UNL     2     -10.367   7.489  73.600  1.00  0.00    -0.344 OA 
HETATM   10  H   UNL     2     -10.440   8.416  73.405  1.00  0.00     0.000 HD 
BRANCH   8  11
HETATM   11  C   UNL     2     -10.629   7.063  71.190  1.00  0.00    -0.217 C  
HETATM   12  O   UNL     2     -10.700   8.484  71.046  1.00  0.00    -0.214 OA 
HETATM   13  H   UNL     2     -10.410   8.691  70.166  1.00  0.00     0.000 HD 
BRANCH  11  14
HETATM   14  C   UNL     2      -9.185   6.553  71.013  1.00  0.00    -0.160 C  
HETATM   15  H   UNL     2      -7.379   7.238  71.445  1.00  0.00     0.000 HD 
HETATM   16  O   UNL     2      -8.269   7.551  71.553  1.00  0.00    -0.101 OA 
BRANCH  14  17
HETATM   17  C   UNL     2      -8.765   6.120  69.608  1.00  0.00    -0.135 C  
HETATM   18  C   UNL     2      -8.826   4.575  69.504  1.00  0.00    -0.088 C  
HETATM   19  H   UNL     2      -7.234   6.427  68.411  1.00  0.00     0.000 HD 
HETATM   20  O   UNL     2      -7.494   6.697  69.284  1.00  0.00    -0.090 OA 
HETATM   21  O   UNL     2      -9.931   4.127  69.948  1.00  0.00    -0.209 OA 
HETATM   22  O   UNL     2      -7.837   4.022  68.984  1.00  0.00    -0.057 OA 
ENDBRANCH  14  17
ENDBRANCH  11  14
ENDBRANCH   8  11
ENDBRANCH   3   8
BRANCH   7  23
HETATM   23  C   UNL     3     -11.165  15.445  67.422  1.00  0.00    -0.287 C  
HETATM   24  O   UNL     3     -12.299  14.793  68.029  1.00  0.00    -0.592 OA 
HETATM   25  H   UNL     3     -12.793  15.446  68.514  1.00  0.00     0.000 HD 
BRANCH  23  26
HETATM   26  C   UNL     3     -10.437  16.140  68.589  1.00  0.00    -0.269 C  
HETATM   27  O   UNL     3      -9.298  15.390  69.019  1.00  0.00    -0.201 OA 
HETATM   28  H   UNL     3      -8.849  15.819  69.738  1.00  0.00     0.000 HD 
BRANCH  26  29
HETATM   29  C   UNL     3     -10.022  17.619  68.423  1.00  0.00    -0.356 C  
HETATM   30  O   UNL     3     -10.853  18.322  67.485  1.00  0.00    -0.399 OA 
HETATM   31  H   UNL     3     -10.597  19.231  67.384  1.00  0.00     0.000 HD 
BRANCH  29  32
HETATM   32  C   UNL     3      -8.568  17.893  68.055  1.00  0.00    -0.256 C  
HETATM   33  C   UNL     3      -8.170  19.378  68.109  1.00  0.00    -0.324 C  
HETATM   34  O   UNL     3      -8.329  17.428  66.656  1.00  0.00    -0.232 OA 
HETATM   35  O   UNL     3      -8.286  19.956  66.950  1.00  0.00    -0.296 OA 
HETATM   36  O   UNL     3      -7.462  19.741  69.068  1.00  0.00    -0.332 OA 
HETATM   37  H   UNL     3      -7.423  17.599  66.426  1.00  0.00     0.000 HD 
ENDBRANCH  29  32
ENDBRANCH  26  29
ENDBRANCH  23  26
ENDBRANCH   7  23
TORSDOF 8
ENDMDL
MODEL      260
REMARK 921   NORMALIZED FREE ENERGY PREDICTED BY IDOCK:   -4.34 KCAL/MOL
REMARK 922        TOTAL FREE ENERGY PREDICTED BY IDOCK:   -8.45 KCAL/MOL
REMARK 923 INTER-LIGAND FREE ENERGY PREDICTED BY IDOCK:   -7.81 KCAL/MOL
REMARK 924 INTRA-LIGAND FREE ENERGY PREDICTED BY IDOCK:   -0.64 KCAL/MOL
REMARK 927      BINDING AFFINITY PREDICTED BY RF-SCORE:    0.00 PKD
ROOT
HETATM    1 CU   UNL     1     -11.338  11.866  70.772  1.00  0.00    -0.449 Cu 
HETATM    2  O   UNL     2     -13.610   6.478  72.132  1.00  0.00    -0.483 OA 
HETATM    3  C   UNL     2     -12.177   6.505  72.053  1.00  0.00    -0.295 C  
HETATM    4  H   UNL     2     -13.872   5.565  72.142  1.00  0.00     0.000 HD 
HETATM    5  O   UNL     3      -7.094  16.361  66.878  1.00  0.00    -0.200 OA 
HETATM    6  H   UNL     3      -6.853  15.686  66.253  1.00  0.00     0.000 HD 
HETATM    7  C   UNL     3      -8.257  15.917  67.606  1.00  0.00    -0.150 C  
ENDROOT
BRANCH   3   8
HETATM    8  C   UNL     2     -11.756   7.972  72.038  1.00  0.00    -0.323 C  
HETATM    9  O   UNL     2     -10.601   8.153  72.879  1.00  0.00    -0.346 OA 
HETATM   10  H   UNL     2     -10.339   9.067  72.869  1.00  0.00     0.000 HD 
BRANCH   8  11
HETATM   11  C   UNL     2     -11.490   8.488  70.609  1.00  0.00    -0.228 C  
HETATM   12  O   UNL     2     -12.283   9.664  70.431  1.00  0.00    -0.460 OA 
HETATM   13  H   UNL     2     -12.119   9.982  69.552  1.00  0.00     0.000 HD 
BRANCH  11  14
HETATM   14  C   UNL     2      -9.986   8.800  70.468  1.00  0.00    -0.189 C  
HETATM   15  H   UNL     2      -8.910  10.374  69.941  1.00  0.00     0.000 HD 
HETATM   16  O   UNL     2      -9.836  10.182  70.028  1.00  0.00    -0.228 OA 
BRANCH  14  17
HETATM   17  C   UNL     2      -9.154   7.851  69.605  1.00  0.00    -0.153 C  
HETATM   18  C   UNL     2      -8.032   7.217  70.466  1.00  0.00    -0.105 C  
HETATM   19  H   UNL     2      -8.182   7.947  67.896  1.00  0.00     0.000 HD 
HETATM   20  O   UNL     2      -8.699   8.537  68.433  1.00  0.00    -0.140 OA 
HETATM   21  O   UNL     2      -8.496   6.758  71.560  1.00  0.00    -0.119 OA 
HETATM   22  O   UNL     2      -6.891   7.214  69.965  1.00  0.00    -0.053 OA 
ENDBRANCH  14  17
ENDBRANCH  11  14
ENDBRANCH   8  11
ENDBRANCH   3   8
BRANCH   7  23
HETATM   23  C   UNL     3      -8.646  17.006  68.615  1.00  0.00    -0.265 C  
HETATM   24  O   UNL     3      -7.559  17.950  68.698  1.00  0.00    -0.272 OA 
HETATM   25  H   UNL     3      -7.799  18.625  69.323  1.00  0.00     0.000 HD 
BRANCH  23  26
HETATM   26  C   UNL     3      -9.885  17.856  68.276  1.00  0.00    -0.348 C  
HETATM   27  O   UNL     3     -10.037  18.949  69.185  1.00  0.00    -0.486 OA 
HETATM   28  H   UNL     3     -10.801  19.473  68.975  1.00  0.00     0.000 HD 
BRANCH  26  29
HETATM   29  C   UNL     3     -10.044  18.385  66.834  1.00  0.00    -0.367 C  
HETATM   30  O   UNL     3      -9.412  17.537  65.862  1.00  0.00    -0.515 OA 
HETATM   31  H   UNL     3      -9.510  17.863  64.975  1.00  0.00     0.000 HD 
BRANCH  29  32
HETATM   32  C   UNL     3      -9.590  19.817  66.568  1.00  0.00    -0.406 C  
HETATM   33  C   UNL     3      -8.063  19.993  66.494  1.00  0.00    -0.311 C  
HETATM   34  O   UNL     3     -10.076  20.690  67.677  1.00  0.00    -0.368 OA 
HETATM   35  O   UNL     3      -7.557  20.336  67.642  1.00  0.00    -0.296 OA 
HETATM   36  O   UNL     3      -7.566  20.168  65.364  1.00  0.00    -0.253 OA 
HETATM   37  H   UNL     3      -9.793  21.582  67.512  1.00  0.00     0.000 HD 
ENDBRANCH  29  32
ENDBRANCH  26  29
ENDBRANCH  23  26
ENDBRANCH   7  23
TORSDOF 8
ENDMDL
MODEL      261
REMARK 921   NORMALIZED FREE ENERGY PREDICTED BY IDOCK:   -4.34 KCAL/MOL
REMARK 922        TOTAL FREE ENERGY PREDICTED BY IDOCK:   -8.44 KCAL/MOL
REMARK 923 INTER-LIGAND FREE ENERGY PREDICTED BY IDOCK:   -6.53 KCAL/MOL
REMARK 924 INTRA-LIGAND FREE ENERGY PREDICTED BY IDOCK:   -1.92 KCAL/MOL
REMARK 927      BINDING AFFINITY PREDICTED BY RF-SCORE:    0.00 PKD
ROOT
HETATM    1 CU   UNL     1      -9.015  13.776  68.941  1.00  0.00    -0.168 Cu 
HETATM    2  O   UNL     2      -9.522   7.923  70.173  1.00  0.00    -0.160 OA 
HETATM    3  C   UNL     2     -10.765   8.560  69.841  1.00  0.00    -0.224 C  
HETATM    4  H   UNL     2      -9.734   7.075  70.546  1.00  0.00     0.000 HD 
HETATM    5  O   UNL     3     -10.871  20.797  69.750  1.00  0.00    -0.379 OA 
HETATM    6  H   UNL     3     -11.459  20.618  70.475  1.00  0.00     0.000 HD 
HETATM    7  C   UNL     3     -10.010  19.654  69.566  1.00  0.00    -0.052 C  
ENDROOT
BRANCH   3   8
HETATM    8  C   UNL     2     -10.424   9.921  69.241  1.00  0.00    -0.221 C  
HETATM    9  O   UNL     2      -9.093   9.890  68.692  1.00  0.00    -0.126 OA 
HETATM   10  H   UNL     2      -8.881  10.738  68.319  1.00  0.00     0.000 HD 
BRANCH   8  11
HETATM   11  C   UNL     2     -11.452  10.366  68.180  1.00  0.00    -0.118 C  
HETATM   12  O   UNL     2     -12.708  10.513  68.847  1.00  0.00    -0.526 OA 
HETATM   13  H   UNL     2     -13.341  10.787  68.195  1.00  0.00     0.000 HD 
BRANCH  11  14
HETATM   14  C   UNL     2     -10.984  11.701  67.567  1.00  0.00    -0.259 C  
HETATM   15  H   UNL     2     -11.632  13.571  67.582  1.00  0.00     0.000 HD 
HETATM   16  O   UNL     2     -11.920  12.748  67.959  1.00  0.00    -0.346 OA 
BRANCH  14  17
HETATM   17  C   UNL     2     -10.728  11.725  66.060  1.00  0.00    -0.279 C  
HETATM   18  C   UNL     2      -9.871  12.966  65.700  1.00  0.00    -0.175 C  
HETATM   19  H   UNL     2     -11.813  11.642  64.419  1.00  0.00     0.000 HD 
HETATM   20  O   UNL     2     -11.972  11.627  65.356  1.00  0.00    -0.203 OA 
HETATM   21  O   UNL     2      -8.860  13.064  66.467  1.00  0.00    -0.134 OA 
HETATM   22  O   UNL     2     -10.262  13.638  64.726  1.00  0.00    -0.392 OA 
ENDBRANCH  14  17
ENDBRANCH  11  14
ENDBRANCH   8  11
ENDBRANCH   3   8
BRANCH   7  23
HETATM   23  C   UNL     3      -9.061  19.943  68.395  1.00  0.00    -0.208 C  
HETATM   24  O   UNL     3      -7.706  19.863  68.885  1.00  0.00    -0.264 OA 
HETATM   25  H   UNL     3      -7.118  20.042  68.159  1.00  0.00     0.000 HD 
BRANCH  23  26
HETATM   26  C   UNL     3      -9.110  18.965  67.205  1.00  0.00    -0.287 C  
HETATM   27  O   UNL     3      -8.919  19.643  65.961  1.00  0.00    -0.359 OA 
HETATM   28  H   UNL     3      -8.949  19.040  65.227  1.00  0.00     0.000 HD 
BRANCH  26  29
HETATM   29  C   UNL     3      -8.199  17.719  67.236  1.00  0.00    -0.215 C  
HETATM   30  O   UNL     3      -7.313  17.656  66.106  1.00  0.00    -0.280 OA 
HETATM   31  H   UNL     3      -6.753  16.889  66.126  1.00  0.00     0.000 HD 
BRANCH  29  32
HETATM   32  C   UNL     3      -8.886  16.363  67.366  1.00  0.00    -0.183 C  
HETATM   33  C   UNL     3      -9.948  16.296  68.477  1.00  0.00    -0.234 C  
HETATM   34  O   UNL     3      -7.856  15.330  67.684  1.00  0.00    -0.133 OA 
HETATM   35  O   UNL     3      -9.455  15.847  69.594  1.00  0.00    -0.257 OA 
HETATM   36  O   UNL     3     -11.142  16.294  68.121  1.00  0.00    -0.346 OA 
HETATM   37  H   UNL     3      -8.283  14.486  67.765  1.00  0.00     0.000 HD 
ENDBRANCH  29  32
ENDBRANCH  26  29
ENDBRANCH  23  26
ENDBRANCH   7  23
TORSDOF 8
ENDMDL
MODEL      262
REMARK 921   NORMALIZED FREE ENERGY PREDICTED BY IDOCK:   -4.34 KCAL/MOL
REMARK 922        TOTAL FREE ENERGY PREDICTED BY IDOCK:   -8.44 KCAL/MOL
REMARK 923 INTER-LIGAND FREE ENERGY PREDICTED BY IDOCK:   -7.34 KCAL/MOL
REMARK 924 INTRA-LIGAND FREE ENERGY PREDICTED BY IDOCK:   -1.10 KCAL/MOL
REMARK 927      BINDING AFFINITY PREDICTED BY RF-SCORE:    0.00 PKD
ROOT
HETATM    1 CU   UNL     1      -9.857   9.381  71.792  1.00  0.00    -0.247 Cu 
HETATM    2  O   UNL     2      -6.547   4.648  73.426  1.00  0.00    -0.052 OA 
HETATM    3  C   UNL     2      -7.313   5.222  74.495  1.00  0.00    -0.082 C  
HETATM    4  H   UNL     2      -5.916   4.057  73.821  1.00  0.00     0.000 HD 
HETATM    5  O   UNL     3     -12.190  16.268  72.507  1.00  0.00    -0.493 OA 
HETATM    6  H   UNL     3     -11.567  16.469  73.197  1.00  0.00     0.000 HD 
HETATM    7  C   UNL     3     -11.760  15.066  71.838  1.00  0.00    -0.380 C  
ENDROOT
BRANCH   3   8
HETATM    8  C   UNL     2      -8.327   6.170  73.862  1.00  0.00    -0.116 C  
HETATM    9  O   UNL     2      -7.886   6.539  72.540  1.00  0.00    -0.102 OA 
HETATM   10  H   UNL     2      -8.518   7.130  72.146  1.00  0.00     0.000 HD 
BRANCH   8  11
HETATM   11  C   UNL     2      -9.747   5.568  73.826  1.00  0.00    -0.155 C  
HETATM   12  O   UNL     2     -10.637   6.558  74.347  1.00  0.00    -0.408 OA 
HETATM   13  H   UNL     2     -11.511   6.187  74.325  1.00  0.00     0.000 HD 
BRANCH  11  14
HETATM   14  C   UNL     2     -10.097   5.213  72.366  1.00  0.00    -0.185 C  
HETATM   15  H   UNL     2     -11.694   5.384  71.211  1.00  0.00     0.000 HD 
HETATM   16  O   UNL     2     -11.478   5.603  72.110  1.00  0.00    -0.258 OA 
BRANCH  14  17
HETATM   17  C   UNL     2      -9.835   3.776  71.916  1.00  0.00    -0.178 C  
HETATM   18  C   UNL     2     -10.159   2.803  73.078  1.00  0.00    -0.132 C  
HETATM   19  H   UNL     2      -8.343   2.774  71.113  1.00  0.00     0.000 HD 
HETATM   20  O   UNL     2      -8.506   3.667  71.393  1.00  0.00    -0.070 OA 
HETATM   21  O   UNL     2     -11.298   3.058  73.588  1.00  0.00    -0.230 OA 
HETATM   22  O   UNL     2      -9.308   1.922  73.309  1.00  0.00    -0.072 OA 
ENDBRANCH  14  17
ENDBRANCH  11  14
ENDBRANCH   8  11
ENDBRANCH   3   8
BRANCH   7  23
HETATM   23  C   UNL     3     -12.766  14.741  70.725  1.00  0.00    -0.362 C  
HETATM   24  O   UNL     3     -13.833  15.709  70.787  1.00  0.00    -0.850 OA 
HETATM   25  H   UNL     3     -14.456  15.509  70.098  1.00  0.00     0.000 HD 
BRANCH  23  26
HETATM   26  C   UNL     3     -12.246  14.817  69.276  1.00  0.00    -0.199 C  
HETATM   27  O   UNL     3     -11.455  15.988  69.063  1.00  0.00    -0.348 OA 
HETATM   28  H   UNL     3     -11.135  16.034  68.169  1.00  0.00     0.000 HD 
BRANCH  26  29
HETATM   29  C   UNL     3     -11.493  13.598  68.699  1.00  0.00    -0.307 C  
HETATM   30  O   UNL     3     -10.068  13.714  68.839  1.00  0.00    -0.387 OA 
HETATM   31  H   UNL     3      -9.605  12.965  68.484  1.00  0.00     0.000 HD 
BRANCH  29  32
HETATM   32  C   UNL     3     -11.790  13.225  67.250  1.00  0.00    -0.372 C  
HETATM   33  C   UNL     3     -10.537  13.016  66.381  1.00  0.00    -0.284 C  
HETATM   34  O   UNL     3     -12.578  14.326  66.621  1.00  0.00    -0.555 OA 
HETATM   35  O   UNL     3     -10.199  14.100  65.746  1.00  0.00    -0.305 OA 
HETATM   36  O   UNL     3     -10.239  11.842  66.087  1.00  0.00    -0.215 OA 
HETATM   37  H   UNL     3     -12.763  14.094  65.718  1.00  0.00     0.000 HD 
ENDBRANCH  29  32
ENDBRANCH  26  29
ENDBRANCH  23  26
ENDBRANCH   7  23
TORSDOF 8
ENDMDL
MODEL      263
REMARK 921   NORMALIZED FREE ENERGY PREDICTED BY IDOCK:   -4.33 KCAL/MOL
REMARK 922        TOTAL FREE ENERGY PREDICTED BY IDOCK:   -8.43 KCAL/MOL
REMARK 923 INTER-LIGAND FREE ENERGY PREDICTED BY IDOCK:   -6.43 KCAL/MOL
REMARK 924 INTRA-LIGAND FREE ENERGY PREDICTED BY IDOCK:   -2.00 KCAL/MOL
REMARK 927      BINDING AFFINITY PREDICTED BY RF-SCORE:    0.00 PKD
ROOT
HETATM    1 CU   UNL     1      -7.378  13.326  68.748  1.00  0.00    -0.079 Cu 
HETATM    2  O   UNL     2      -5.307  18.630  66.846  1.00  0.00    -0.131 OA 
HETATM    3  C   UNL     2      -6.363  18.092  66.038  1.00  0.00    -0.240 C  
HETATM    4  H   UNL     2      -4.917  19.345  66.356  1.00  0.00     0.000 HD 
HETATM    5  O   UNL     3      -9.234   6.325  67.788  1.00  0.00    -0.118 OA 
HETATM    6  H   UNL     3      -8.895   6.297  66.900  1.00  0.00     0.000 HD 
HETATM    7  C   UNL     3      -8.688   7.485  68.449  1.00  0.00    -0.123 C  
ENDROOT
BRANCH   3   8
HETATM    8  C   UNL     2      -6.990  16.944  66.825  1.00  0.00    -0.235 C  
HETATM    9  O   UNL     2      -6.052  15.855  66.924  1.00  0.00    -0.297 OA 
HETATM   10  H   UNL     2      -6.443  15.141  67.413  1.00  0.00     0.000 HD 
BRANCH   8  11
HETATM   11  C   UNL     2      -7.475  17.389  68.220  1.00  0.00    -0.227 C  
HETATM   12  O   UNL     2      -8.084  18.673  68.064  1.00  0.00    -0.262 OA 
HETATM   13  H   UNL     2      -8.383  18.947  68.923  1.00  0.00     0.000 HD 
BRANCH  11  14
HETATM   14  C   UNL     2      -8.485  16.350  68.746  1.00  0.00    -0.249 C  
HETATM   15  H   UNL     2      -8.392  14.738  69.891  1.00  0.00     0.000 HD 
HETATM   16  O   UNL     2      -7.770  15.378  69.566  1.00  0.00    -0.219 OA 
BRANCH  14  17
HETATM   17  C   UNL     2      -9.374  15.655  67.714  1.00  0.00    -0.202 C  
HETATM   18  C   UNL     2     -10.841  16.119  67.900  1.00  0.00    -0.332 C  
HETATM   19  H   UNL     2      -9.729  13.806  67.140  1.00  0.00     0.000 HD 
HETATM   20  O   UNL     2      -9.177  14.238  67.782  1.00  0.00    -0.184 OA 
HETATM   21  O   UNL     2     -10.917  17.387  67.977  1.00  0.00    -0.341 OA 
HETATM   22  O   UNL     2     -11.704  15.219  67.906  1.00  0.00    -0.328 OA 
ENDBRANCH  14  17
ENDBRANCH  11  14
ENDBRANCH   8  11
ENDBRANCH   3   8
BRANCH   7  23
HETATM   23  C   UNL     3      -9.235   7.531  69.882  1.00  0.00    -0.147 C  
HETATM   24  O   UNL     3     -10.387   8.399  69.896  1.00  0.00    -0.201 OA 
HETATM   25  H   UNL     3     -10.726   8.428  70.784  1.00  0.00     0.000 HD 
BRANCH  23  26
HETATM   26  C   UNL     3      -9.734   6.200  70.478  1.00  0.00    -0.173 C  
HETATM   27  O   UNL     3      -9.078   5.898  71.712  1.00  0.00    -0.142 OA 
HETATM   28  H   UNL     3      -9.386   5.078  72.079  1.00  0.00     0.000 HD 
BRANCH  26  29
HETATM   29  C   UNL     3     -11.254   5.999  70.663  1.00  0.00    -0.277 C  
HETATM   30  O   UNL     3     -11.999   6.298  69.471  1.00  0.00    -0.373 OA 
HETATM   31  H   UNL     3     -12.934   6.174  69.585  1.00  0.00     0.000 HD 
BRANCH  29  32
HETATM   32  C   UNL     3     -11.914   6.739  71.822  1.00  0.00    -0.339 C  
HETATM   33  C   UNL     3     -13.113   7.613  71.415  1.00  0.00    -0.296 C  
HETATM   34  O   UNL     3     -10.907   7.645  72.451  1.00  0.00    -0.245 OA 
HETATM   35  O   UNL     3     -12.762   8.845  71.188  1.00  0.00    -0.267 OA 
HETATM   36  O   UNL     3     -14.249   7.191  71.708  1.00  0.00    -0.406 OA 
HETATM   37  H   UNL     3     -11.318   8.106  73.173  1.00  0.00     0.000 HD 
ENDBRANCH  29  32
ENDBRANCH  26  29
ENDBRANCH  23  26
ENDBRANCH   7  23
TORSDOF 8
ENDMDL
MODEL      264
REMARK 921   NORMALIZED FREE ENERGY PREDICTED BY IDOCK:   -4.32 KCAL/MOL
REMARK 922        TOTAL FREE ENERGY PREDICTED BY IDOCK:   -8.41 KCAL/MOL
REMARK 923 INTER-LIGAND FREE ENERGY PREDICTED BY IDOCK:   -7.29 KCAL/MOL
REMARK 924 INTRA-LIGAND FREE ENERGY PREDICTED BY IDOCK:   -1.12 KCAL/MOL
REMARK 927      BINDING AFFINITY PREDICTED BY RF-SCORE:    0.00 PKD
ROOT
HETATM    1 CU   UNL     1     -11.153  11.745  70.565  1.00  0.00    -0.447 Cu 
HETATM    2  O   UNL     2     -13.300   6.411  72.290  1.00  0.00    -0.502 OA 
HETATM    3  C   UNL     2     -11.882   6.550  72.455  1.00  0.00    -0.197 C  
HETATM    4  H   UNL     2     -13.503   5.488  72.389  1.00  0.00     0.000 HD 
HETATM    5  O   UNL     3      -6.555  16.029  66.838  1.00  0.00    -0.275 OA 
HETATM    6  H   UNL     3      -6.164  15.300  66.369  1.00  0.00     0.000 HD 
HETATM    7  C   UNL     3      -7.802  15.588  67.413  1.00  0.00    -0.186 C  
ENDROOT
BRANCH   3   8
HETATM    8  C   UNL     2     -11.555   8.033  72.296  1.00  0.00    -0.366 C  
HETATM    9  O   UNL     2     -10.283   8.317  72.911  1.00  0.00    -0.295 OA 
HETATM   10  H   UNL     2     -10.080   9.240  72.813  1.00  0.00     0.000 HD 
BRANCH   8  11
HETATM   11  C   UNL     2     -11.571   8.480  70.820  1.00  0.00    -0.231 C  
HETATM   12  O   UNL     2     -12.307   9.705  70.760  1.00  0.00    -0.397 OA 
HETATM   13  H   UNL     2     -12.317   9.981  69.852  1.00  0.00     0.000 HD 
BRANCH  11  14
HETATM   14  C   UNL     2     -10.117   8.677  70.347  1.00  0.00    -0.188 C  
HETATM   15  H   UNL     2      -9.116  10.095  69.397  1.00  0.00     0.000 HD 
HETATM   16  O   UNL     2     -10.012   9.974  69.689  1.00  0.00    -0.212 OA 
BRANCH  14  17
HETATM   17  C   UNL     2      -9.507   7.569  69.488  1.00  0.00    -0.156 C  
HETATM   18  C   UNL     2      -8.210   7.049  70.159  1.00  0.00    -0.133 C  
HETATM   19  H   UNL     2      -8.966   7.346  67.609  1.00  0.00     0.000 HD 
HETATM   20  O   UNL     2      -9.345   8.035  68.143  1.00  0.00    -0.140 OA 
HETATM   21  O   UNL     2      -8.399   6.795  71.391  1.00  0.00    -0.118 OA 
HETATM   22  O   UNL     2      -7.219   6.924  69.412  1.00  0.00    -0.083 OA 
ENDBRANCH  14  17
ENDBRANCH  11  14
ENDBRANCH   8  11
ENDBRANCH   3   8
BRANCH   7  23
HETATM   23  C   UNL     3      -8.433  16.764  68.170  1.00  0.00    -0.213 C  
HETATM   24  O   UNL     3      -8.617  17.851  67.240  1.00  0.00    -0.231 OA 
HETATM   25  H   UNL     3      -9.008  18.579  67.709  1.00  0.00     0.000 HD 
BRANCH  23  26
HETATM   26  C   UNL     3      -9.826  16.526  68.784  1.00  0.00    -0.254 C  
HETATM   27  O   UNL     3     -10.773  17.494  68.326  1.00  0.00    -0.371 OA 
HETATM   28  H   UNL     3     -11.633  17.347  68.705  1.00  0.00     0.000 HD 
BRANCH  26  29
HETATM   29  C   UNL     3     -10.455  15.121  68.664  1.00  0.00    -0.234 C  
HETATM   30  O   UNL     3      -9.501  14.070  68.882  1.00  0.00    -0.373 OA 
HETATM   31  H   UNL     3      -9.888  13.205  68.808  1.00  0.00     0.000 HD 
BRANCH  29  32
HETATM   32  C   UNL     3     -11.209  14.808  67.376  1.00  0.00    -0.339 C  
HETATM   33  C   UNL     3     -11.095  13.344  66.917  1.00  0.00    -0.292 C  
HETATM   34  O   UNL     3     -10.655  15.653  66.277  1.00  0.00    -0.298 OA 
HETATM   35  O   UNL     3     -10.125  13.173  66.068  1.00  0.00    -0.277 OA 
HETATM   36  O   UNL     3     -12.098  12.620  67.076  1.00  0.00    -0.480 OA 
HETATM   37  H   UNL     3     -11.124  15.458  65.474  1.00  0.00     0.000 HD 
ENDBRANCH  29  32
ENDBRANCH  26  29
ENDBRANCH  23  26
ENDBRANCH   7  23
TORSDOF 8
ENDMDL
MODEL      265
REMARK 921   NORMALIZED FREE ENERGY PREDICTED BY IDOCK:   -4.30 KCAL/MOL
REMARK 922        TOTAL FREE ENERGY PREDICTED BY IDOCK:   -8.39 KCAL/MOL
REMARK 923 INTER-LIGAND FREE ENERGY PREDICTED BY IDOCK:   -6.86 KCAL/MOL
REMARK 924 INTRA-LIGAND FREE ENERGY PREDICTED BY IDOCK:   -1.53 KCAL/MOL
REMARK 927      BINDING AFFINITY PREDICTED BY RF-SCORE:    0.00 PKD
ROOT
HETATM    1 CU   UNL     1     -10.559   9.474  69.033  1.00  0.00    -0.180 Cu 
HETATM    2  O   UNL     2     -10.146   3.674  70.523  1.00  0.00    -0.007 OA 
HETATM    3  C   UNL     2      -9.746   4.574  71.566  1.00  0.00    -0.175 C  
HETATM    4  H   UNL     2      -9.852   2.806  70.775  1.00  0.00     0.000 HD 
HETATM    5  O   UNL     3      -7.902  16.251  68.402  1.00  0.00    -0.155 OA 
HETATM    6  H   UNL     3      -7.022  15.992  68.649  1.00  0.00     0.000 HD 
HETATM    7  C   UNL     3      -8.645  15.068  68.044  1.00  0.00    -0.158 C  
ENDROOT
BRANCH   3   8
HETATM    8  C   UNL     2     -10.219   5.968  71.161  1.00  0.00    -0.207 C  
HETATM    9  O   UNL     2      -9.122   6.898  71.254  1.00  0.00    -0.148 OA 
HETATM   10  H   UNL     2      -9.417   7.765  71.002  1.00  0.00     0.000 HD 
BRANCH   8  11
HETATM   11  C   UNL     2     -10.845   5.986  69.751  1.00  0.00    -0.363 C  
HETATM   12  O   UNL     2     -11.732   7.107  69.699  1.00  0.00    -0.532 OA 
HETATM   13  H   UNL     2     -12.117   7.118  68.831  1.00  0.00     0.000 HD 
BRANCH  11  14
HETATM   14  C   UNL     2      -9.715   6.117  68.710  1.00  0.00    -0.129 C  
HETATM   15  H   UNL     2      -8.365   7.490  68.251  1.00  0.00     0.000 HD 
HETATM   16  O   UNL     2      -9.062   7.409  68.892  1.00  0.00    -0.137 OA 
BRANCH  14  17
HETATM   17  C   UNL     2     -10.086   5.886  67.245  1.00  0.00    -0.174 C  
HETATM   18  C   UNL     2      -8.794   5.701  66.408  1.00  0.00    -0.129 C  
HETATM   19  H   UNL     2     -11.181   6.791  65.883  1.00  0.00     0.000 HD 
HETATM   20  O   UNL     2     -10.951   6.935  66.794  1.00  0.00    -0.329 OA 
HETATM   21  O   UNL     2      -8.009   4.860  66.953  1.00  0.00    -0.102 OA 
HETATM   22  O   UNL     2      -8.732   6.350  65.345  1.00  0.00    -0.122 OA 
ENDBRANCH  14  17
ENDBRANCH  11  14
ENDBRANCH   8  11
ENDBRANCH   3   8
BRANCH   7  23
HETATM   23  C   UNL     3     -10.066  15.487  67.645  1.00  0.00    -0.243 C  
HETATM   24  O   UNL     3      -9.975  16.682  66.843  1.00  0.00    -0.254 OA 
HETATM   25  H   UNL     3     -10.855  16.942  66.596  1.00  0.00     0.000 HD 
BRANCH  23  26
HETATM   26  C   UNL     3     -10.867  14.492  66.784  1.00  0.00    -0.305 C  
HETATM   27  O   UNL     3     -11.971  15.128  66.136  1.00  0.00    -0.033 OA 
HETATM   28  H   UNL     3     -12.465  14.514  65.605  1.00  0.00     0.000 HD 
BRANCH  26  29
HETATM   29  C   UNL     3     -10.108  13.638  65.745  1.00  0.00    -0.298 C  
HETATM   30  O   UNL     3      -9.601  14.422  64.653  1.00  0.00    -0.390 OA 
HETATM   31  H   UNL     3      -9.134  13.897  64.014  1.00  0.00     0.000 HD 
BRANCH  29  32
HETATM   32  C   UNL     3     -10.850  12.443  65.156  1.00  0.00    -0.297 C  
HETATM   33  C   UNL     3     -10.988  12.477  63.623  1.00  0.00    -0.456 C  
HETATM   34  O   UNL     3     -12.234  12.411  65.717  1.00  0.00    -0.620 OA 
HETATM   35  O   UNL     3     -12.112  13.012  63.247  1.00  0.00    -0.569 OA 
HETATM   36  O   UNL     3     -10.265  11.699  62.971  1.00  0.00    -0.350 OA 
HETATM   37  H   UNL     3     -12.696  11.667  65.350  1.00  0.00     0.000 HD 
ENDBRANCH  29  32
ENDBRANCH  26  29
ENDBRANCH  23  26
ENDBRANCH   7  23
TORSDOF 8
ENDMDL
MODEL      266
REMARK 921   NORMALIZED FREE ENERGY PREDICTED BY IDOCK:   -4.29 KCAL/MOL
REMARK 922        TOTAL FREE ENERGY PREDICTED BY IDOCK:   -8.37 KCAL/MOL
REMARK 923 INTER-LIGAND FREE ENERGY PREDICTED BY IDOCK:   -7.06 KCAL/MOL
REMARK 924 INTRA-LIGAND FREE ENERGY PREDICTED BY IDOCK:   -1.31 KCAL/MOL
REMARK 927      BINDING AFFINITY PREDICTED BY RF-SCORE:    0.00 PKD
ROOT
HETATM    1 CU   UNL     1      -9.907  12.555  67.746  1.00  0.00    -0.175 Cu 
HETATM    2  O   UNL     2     -10.890  18.019  65.461  1.00  0.00    -0.483 OA 
HETATM    3  C   UNL     2      -9.563  17.831  65.974  1.00  0.00    -0.093 C  
HETATM    4  H   UNL     2     -11.005  18.952  65.320  1.00  0.00     0.000 HD 
HETATM    5  O   UNL     3      -7.683   7.984  72.993  1.00  0.00    -0.124 OA 
HETATM    6  H   UNL     3      -7.544   8.682  73.623  1.00  0.00     0.000 HD 
HETATM    7  C   UNL     3      -8.504   8.490  71.922  1.00  0.00    -0.170 C  
ENDROOT
BRANCH   3   8
HETATM    8  C   UNL     2      -9.378  16.332  66.199  1.00  0.00    -0.339 C  
HETATM    9  O   UNL     2      -8.001  16.058  66.524  1.00  0.00    -0.266 OA 
HETATM   10  H   UNL     2      -7.886  15.125  66.664  1.00  0.00     0.000 HD 
BRANCH   8  11
HETATM   11  C   UNL     2     -10.325  15.783  67.285  1.00  0.00    -0.290 C  
HETATM   12  O   UNL     2     -10.879  16.910  67.969  1.00  0.00    -0.363 OA 
HETATM   13  H   UNL     2     -11.462  16.572  68.638  1.00  0.00     0.000 HD 
BRANCH  11  14
HETATM   14  C   UNL     2     -11.426  14.946  66.603  1.00  0.00    -0.296 C  
HETATM   15  H   UNL     2     -12.621  13.465  67.148  1.00  0.00     0.000 HD 
HETATM   16  O   UNL     2     -11.942  13.981  67.568  1.00  0.00    -0.386 OA 
BRANCH  14  17
HETATM   17  C   UNL     2     -11.068  14.268  65.280  1.00  0.00    -0.335 C  
HETATM   18  C   UNL     2     -12.128  14.632  64.210  1.00  0.00    -0.415 C  
HETATM   19  H   UNL     2     -10.661  12.442  64.669  1.00  0.00     0.000 HD 
HETATM   20  O   UNL     2     -10.883  12.863  65.491  1.00  0.00    -0.269 OA 
HETATM   21  O   UNL     2     -12.344  15.887  64.184  1.00  0.00    -0.634 OA 
HETATM   22  O   UNL     2     -12.568  13.685  63.529  1.00  0.00    -0.754 OA 
ENDBRANCH  14  17
ENDBRANCH  11  14
ENDBRANCH   8  11
ENDBRANCH   3   8
BRANCH   7  23
HETATM   23  C   UNL     3      -8.728   7.364  70.904  1.00  0.00    -0.144 C  
HETATM   24  O   UNL     3      -7.471   6.686  70.700  1.00  0.00    -0.080 OA 
HETATM   25  H   UNL     3      -7.609   5.989  70.070  1.00  0.00     0.000 HD 
BRANCH  23  26
HETATM   26  C   UNL     3      -9.717   6.252  71.306  1.00  0.00    -0.174 C  
HETATM   27  O   UNL     3     -11.068   6.719  71.284  1.00  0.00    -0.245 OA 
HETATM   28  H   UNL     3     -11.677   6.032  71.532  1.00  0.00     0.000 HD 
BRANCH  26  29
HETATM   29  C   UNL     3      -9.647   4.900  70.564  1.00  0.00    -0.184 C  
HETATM   30  O   UNL     3      -8.297   4.454  70.355  1.00  0.00    -0.072 OA 
HETATM   31  H   UNL     3      -8.255   3.622  69.899  1.00  0.00     0.000 HD 
BRANCH  29  32
HETATM   32  C   UNL     3     -10.381   4.804  69.230  1.00  0.00     0.048 C  
HETATM   33  C   UNL     3      -9.466   4.535  68.023  1.00  0.00    -0.148 C  
HETATM   34  O   UNL     3     -11.078   6.098  68.970  1.00  0.00    -0.353 OA 
HETATM   35  O   UNL     3      -9.104   5.636  67.432  1.00  0.00    -0.112 OA 
HETATM   36  O   UNL     3      -9.490   3.388  67.536  1.00  0.00    -0.205 OA 
HETATM   37  H   UNL     3     -11.535   6.039  68.139  1.00  0.00     0.000 HD 
ENDBRANCH  29  32
ENDBRANCH  26  29
ENDBRANCH  23  26
ENDBRANCH   7  23
TORSDOF 8
ENDMDL
MODEL      267
REMARK 921   NORMALIZED FREE ENERGY PREDICTED BY IDOCK:   -4.28 KCAL/MOL
REMARK 922        TOTAL FREE ENERGY PREDICTED BY IDOCK:   -8.36 KCAL/MOL
REMARK 923 INTER-LIGAND FREE ENERGY PREDICTED BY IDOCK:   -6.87 KCAL/MOL
REMARK 924 INTRA-LIGAND FREE ENERGY PREDICTED BY IDOCK:   -1.49 KCAL/MOL
REMARK 927      BINDING AFFINITY PREDICTED BY RF-SCORE:    0.00 PKD
ROOT
HETATM    1 CU   UNL     1      -9.711   8.571  63.816  1.00  0.00    -0.129 Cu 
HETATM    2  O   UNL     2     -12.454  13.823  62.852  1.00  0.00    -1.009 OA 
HETATM    3  C   UNL     2     -12.694  13.269  64.154  1.00  0.00    -0.035 C  
HETATM    4  H   UNL     2     -13.082  14.525  62.728  1.00  0.00     0.000 HD 
HETATM    5  O   UNL     3      -9.585   1.555  65.850  1.00  0.00    -0.327 OA 
HETATM    6  H   UNL     3     -10.530   1.504  65.943  1.00  0.00     0.000 HD 
HETATM    7  C   UNL     3      -9.263   2.728  65.076  1.00  0.00    -0.145 C  
ENDROOT
BRANCH   3   8
HETATM    8  C   UNL     2     -11.685  12.142  64.355  1.00  0.00    -0.355 C  
HETATM    9  O   UNL     2     -11.564  11.377  63.140  1.00  0.00    -0.862 OA 
HETATM   10  H   UNL     2     -10.936  10.675  63.265  1.00  0.00     0.000 HD 
BRANCH   8  11
HETATM   11  C   UNL     2     -10.310  12.664  64.822  1.00  0.00    -0.312 C  
HETATM   12  O   UNL     2     -10.206  14.021  64.384  1.00  0.00    -0.659 OA 
HETATM   13  H   UNL     2      -9.360  14.344  64.670  1.00  0.00     0.000 HD 
BRANCH  11  14
HETATM   14  C   UNL     2     -10.239  12.565  66.359  1.00  0.00    -0.244 C  
HETATM   15  H   UNL     2      -8.899  11.949  67.677  1.00  0.00     0.000 HD 
HETATM   16  O   UNL     2      -8.943  12.011  66.730  1.00  0.00    -0.189 OA 
BRANCH  14  17
HETATM   17  C   UNL     2     -11.379  11.828  67.064  1.00  0.00    -0.321 C  
HETATM   18  C   UNL     2     -11.958  12.726  68.187  1.00  0.00    -0.246 C  
HETATM   19  H   UNL     2     -11.635  10.082  67.933  1.00  0.00     0.000 HD 
HETATM   20  O   UNL     2     -10.927  10.539  67.495  1.00  0.00    -0.284 OA 
HETATM   21  O   UNL     2     -12.197  13.901  67.760  1.00  0.00    -0.338 OA 
HETATM   22  O   UNL     2     -12.134  12.176  69.292  1.00  0.00    -0.264 OA 
ENDBRANCH  14  17
ENDBRANCH  11  14
ENDBRANCH   8  11
ENDBRANCH   3   8
BRANCH   7  23
HETATM   23  C   UNL     3      -7.738   2.809  64.926  1.00  0.00    -0.077 C  
HETATM   24  O   UNL     3      -7.346   1.945  63.840  1.00  0.00    -0.053 OA 
HETATM   25  H   UNL     3      -6.401   1.995  63.747  1.00  0.00     0.000 HD 
BRANCH  23  26
HETATM   26  C   UNL     3      -7.148   4.187  64.568  1.00  0.00    -0.051 C  
HETATM   27  O   UNL     3      -7.859   4.798  63.489  1.00  0.00    -0.073 OA 
HETATM   28  H   UNL     3      -7.495   5.648  63.268  1.00  0.00     0.000 HD 
BRANCH  26  29
HETATM   29  C   UNL     3      -6.969   5.228  65.695  1.00  0.00    -0.066 C  
HETATM   30  O   UNL     3      -7.196   4.671  67.000  1.00  0.00    -0.073 OA 
HETATM   31  H   UNL     3      -7.086   5.312  67.693  1.00  0.00     0.000 HD 
BRANCH  29  32
HETATM   32  C   UNL     3      -7.786   6.512  65.588  1.00  0.00    -0.094 C  
HETATM   33  C   UNL     3      -7.625   7.465  66.784  1.00  0.00    -0.101 C  
HETATM   34  O   UNL     3      -9.233   6.156  65.504  1.00  0.00    -0.366 OA 
HETATM   35  O   UNL     3      -8.547   7.279  67.683  1.00  0.00    -0.125 OA 
HETATM   36  O   UNL     3      -6.940   8.491  66.605  1.00  0.00    -0.073 OA 
HETATM   37  H   UNL     3      -9.742   6.956  65.438  1.00  0.00     0.000 HD 
ENDBRANCH  29  32
ENDBRANCH  26  29
ENDBRANCH  23  26
ENDBRANCH   7  23
TORSDOF 8
ENDMDL
MODEL      268
REMARK 921   NORMALIZED FREE ENERGY PREDICTED BY IDOCK:   -4.27 KCAL/MOL
REMARK 922        TOTAL FREE ENERGY PREDICTED BY IDOCK:   -8.34 KCAL/MOL
REMARK 923 INTER-LIGAND FREE ENERGY PREDICTED BY IDOCK:   -7.16 KCAL/MOL
REMARK 924 INTRA-LIGAND FREE ENERGY PREDICTED BY IDOCK:   -1.18 KCAL/MOL
REMARK 927      BINDING AFFINITY PREDICTED BY RF-SCORE:    0.00 PKD
ROOT
HETATM    1 CU   UNL     1      -7.800  15.183  69.065  1.00  0.00    -0.111 Cu 
HETATM    2  O   UNL     2      -6.628  20.919  67.735  1.00  0.00    -0.318 OA 
HETATM    3  C   UNL     2      -7.447  20.250  66.765  1.00  0.00    -0.288 C  
HETATM    4  H   UNL     2      -6.334  21.731  67.340  1.00  0.00     0.000 HD 
HETATM    5  O   UNL     3      -8.072   8.051  67.505  1.00  0.00    -0.120 OA 
HETATM    6  H   UNL     3      -7.629   8.157  66.670  1.00  0.00     0.000 HD 
HETATM    7  C   UNL     3      -7.857   9.239  68.292  1.00  0.00    -0.098 C  
ENDROOT
BRANCH   3   8
HETATM    8  C   UNL     2      -7.920  18.945  67.400  1.00  0.00    -0.246 C  
HETATM    9  O   UNL     2      -8.629  19.231  68.622  1.00  0.00    -0.354 OA 
HETATM   10  H   UNL     2      -8.924  18.418  69.017  1.00  0.00     0.000 HD 
BRANCH   8  11
HETATM   11  C   UNL     2      -8.786  18.107  66.437  1.00  0.00    -0.236 C  
HETATM   12  O   UNL     2      -8.054  16.916  66.142  1.00  0.00    -0.342 OA 
HETATM   13  H   UNL     2      -8.587  16.400  65.549  1.00  0.00     0.000 HD 
BRANCH  11  14
HETATM   14  C   UNL     2     -10.125  17.784  67.131  1.00  0.00    -0.338 C  
HETATM   15  H   UNL     2     -11.575  18.836  67.972  1.00  0.00     0.000 HD 
HETATM   16  O   UNL     2     -10.750  19.035  67.545  1.00  0.00    -0.455 OA 
BRANCH  14  17
HETATM   17  C   UNL     2     -10.089  16.777  68.281  1.00  0.00    -0.274 C  
HETATM   18  C   UNL     2     -10.719  15.439  67.817  1.00  0.00    -0.289 C  
HETATM   19  H   UNL     2     -10.668  16.727  70.162  1.00  0.00     0.000 HD 
HETATM   20  O   UNL     2     -10.690  17.353  69.448  1.00  0.00    -0.188 OA 
HETATM   21  O   UNL     2     -10.237  15.067  66.699  1.00  0.00    -0.258 OA 
HETATM   22  O   UNL     2     -11.546  14.923  68.595  1.00  0.00    -0.290 OA 
ENDBRANCH  14  17
ENDBRANCH  11  14
ENDBRANCH   8  11
ENDBRANCH   3   8
BRANCH   7  23
HETATM   23  C   UNL     3      -8.572   9.068  69.639  1.00  0.00    -0.137 C  
HETATM   24  O   UNL     3      -7.976   9.980  70.584  1.00  0.00    -0.416 OA 
HETATM   25  H   UNL     3      -8.419   9.874  71.419  1.00  0.00     0.000 HD 
BRANCH  23  26
HETATM   26  C   UNL     3     -10.078   9.393  69.671  1.00  0.00    -0.206 C  
HETATM   27  O   UNL     3     -10.710   9.077  68.428  1.00  0.00    -0.364 OA 
HETATM   28  H   UNL     3     -11.639   9.278  68.448  1.00  0.00     0.000 HD 
BRANCH  26  29
HETATM   29  C   UNL     3     -10.933   8.816  70.821  1.00  0.00    -0.247 C  
HETATM   30  O   UNL     3     -10.136   8.383  71.935  1.00  0.00    -0.215 OA 
HETATM   31  H   UNL     3     -10.663   8.028  72.642  1.00  0.00     0.000 HD 
BRANCH  29  32
HETATM   32  C   UNL     3     -11.896   7.688  70.469  1.00  0.00    -0.080 C  
HETATM   33  C   UNL     3     -12.606   7.060  71.681  1.00  0.00    -0.380 C  
HETATM   34  O   UNL     3     -11.133   6.595  69.797  1.00  0.00    -0.287 OA 
HETATM   35  O   UNL     3     -11.975   6.014  72.127  1.00  0.00    -0.309 OA 
HETATM   36  O   UNL     3     -13.808   7.346  71.846  1.00  0.00    -0.316 OA 
HETATM   37  H   UNL     3     -11.732   5.891  69.577  1.00  0.00     0.000 HD 
ENDBRANCH  29  32
ENDBRANCH  26  29
ENDBRANCH  23  26
ENDBRANCH   7  23
TORSDOF 8
ENDMDL
MODEL      269
REMARK 921   NORMALIZED FREE ENERGY PREDICTED BY IDOCK:   -4.27 KCAL/MOL
REMARK 922        TOTAL FREE ENERGY PREDICTED BY IDOCK:   -8.34 KCAL/MOL
REMARK 923 INTER-LIGAND FREE ENERGY PREDICTED BY IDOCK:   -6.91 KCAL/MOL
REMARK 924 INTRA-LIGAND FREE ENERGY PREDICTED BY IDOCK:   -1.43 KCAL/MOL
REMARK 927      BINDING AFFINITY PREDICTED BY RF-SCORE:    0.00 PKD
ROOT
HETATM    1 CU   UNL     1     -11.052  10.809  70.954  1.00  0.00    -0.289 Cu 
HETATM    2  O   UNL     2     -11.682  16.499  72.760  1.00  0.00    -0.486 OA 
HETATM    3  C   UNL     2     -12.834  15.968  72.089  1.00  0.00    -0.351 C  
HETATM    4  H   UNL     2     -11.800  17.440  72.815  1.00  0.00     0.000 HD 
HETATM    5  O   UNL     3     -11.340   5.480  65.963  1.00  0.00    -0.753 OA 
HETATM    6  H   UNL     3     -11.527   6.080  65.249  1.00  0.00     0.000 HD 
HETATM    7  C   UNL     3     -10.833   6.241  67.079  1.00  0.00    -0.383 C  
ENDROOT
BRANCH   3   8
HETATM    8  C   UNL     2     -12.645  14.456  72.001  1.00  0.00    -0.314 C  
HETATM    9  O   UNL     2     -13.472  13.806  72.985  1.00  0.00    -0.613 OA 
HETATM   10  H   UNL     2     -13.354  12.865  72.931  1.00  0.00     0.000 HD 
BRANCH   8  11
HETATM   11  C   UNL     2     -12.933  13.913  70.586  1.00  0.00    -0.153 C  
HETATM   12  O   UNL     2     -13.606  14.950  69.867  1.00  0.00     0.031 OA 
HETATM   13  H   UNL     2     -13.784  14.615  68.996  1.00  0.00     0.000 HD 
BRANCH  11  14
HETATM   14  C   UNL     2     -11.595  13.545  69.916  1.00  0.00    -0.201 C  
HETATM   15  H   UNL     2      -9.851  14.441  69.647  1.00  0.00     0.000 HD 
HETATM   16  O   UNL     2     -10.676  14.668  70.060  1.00  0.00    -0.137 OA 
BRANCH  14  17
HETATM   17  C   UNL     2     -11.651  13.059  68.467  1.00  0.00    -0.328 C  
HETATM   18  C   UNL     2     -10.334  12.318  68.119  1.00  0.00    -0.216 C  
HETATM   19  H   UNL     2     -12.007  13.852  66.701  1.00  0.00     0.000 HD 
HETATM   20  O   UNL     2     -11.973  14.154  67.602  1.00  0.00    -0.377 OA 
HETATM   21  O   UNL     2     -10.038  11.461  69.012  1.00  0.00    -0.181 OA 
HETATM   22  O   UNL     2      -9.799  12.631  67.037  1.00  0.00    -0.218 OA 
ENDBRANCH  14  17
ENDBRANCH  11  14
ENDBRANCH   8  11
ENDBRANCH   3   8
BRANCH   7  23
HETATM   23  C   UNL     3     -10.532   5.274  68.231  1.00  0.00    -0.069 C  
HETATM   24  O   UNL     3      -9.156   4.855  68.119  1.00  0.00    -0.107 OA 
HETATM   25  H   UNL     3      -8.970   4.256  68.833  1.00  0.00     0.000 HD 
BRANCH  23  26
HETATM   26  C   UNL     3     -10.660   5.836  69.660  1.00  0.00    -0.326 C  
HETATM   27  O   UNL     3     -11.916   6.491  69.856  1.00  0.00    -0.611 OA 
HETATM   28  H   UNL     3     -11.995   6.838  70.737  1.00  0.00     0.000 HD 
BRANCH  26  29
HETATM   29  C   UNL     3     -10.406   4.887  70.852  1.00  0.00    -0.155 C  
HETATM   30  O   UNL     3     -11.248   5.179  71.979  1.00  0.00    -0.099 OA 
HETATM   31  H   UNL     3     -11.092   4.595  72.711  1.00  0.00     0.000 HD 
BRANCH  29  32
HETATM   32  C   UNL     3      -8.971   4.780  71.357  1.00  0.00    -0.133 C  
HETATM   33  C   UNL     3      -8.834   4.841  72.889  1.00  0.00    -0.116 C  
HETATM   34  O   UNL     3      -8.180   5.918  70.803  1.00  0.00    -0.119 OA 
HETATM   35  O   UNL     3      -8.602   6.050  73.309  1.00  0.00    -0.118 OA 
HETATM   36  O   UNL     3      -8.580   3.773  73.479  1.00  0.00    -0.086 OA 
HETATM   37  H   UNL     3      -7.286   5.852  71.118  1.00  0.00     0.000 HD 
ENDBRANCH  29  32
ENDBRANCH  26  29
ENDBRANCH  23  26
ENDBRANCH   7  23
TORSDOF 8
ENDMDL
MODEL      270
REMARK 921   NORMALIZED FREE ENERGY PREDICTED BY IDOCK:   -4.26 KCAL/MOL
REMARK 922        TOTAL FREE ENERGY PREDICTED BY IDOCK:   -8.32 KCAL/MOL
REMARK 923 INTER-LIGAND FREE ENERGY PREDICTED BY IDOCK:   -7.64 KCAL/MOL
REMARK 924 INTRA-LIGAND FREE ENERGY PREDICTED BY IDOCK:   -0.69 KCAL/MOL
REMARK 927      BINDING AFFINITY PREDICTED BY RF-SCORE:    0.00 PKD
ROOT
HETATM    1 CU   UNL     1     -10.886  11.270  69.405  1.00  0.00    -0.187 Cu 
HETATM    2  O   UNL     2     -11.349   7.145  73.742  1.00  0.00    -0.449 OA 
HETATM    3  C   UNL     2     -10.991   6.607  72.460  1.00  0.00    -0.247 C  
HETATM    4  H   UNL     2     -11.597   6.411  74.293  1.00  0.00     0.000 HD 
HETATM    5  O   UNL     3     -12.379  13.965  62.780  1.00  0.00    -0.876 OA 
HETATM    6  H   UNL     3     -13.024  13.293  62.589  1.00  0.00     0.000 HD 
HETATM    7  C   UNL     3     -12.133  13.971  64.201  1.00  0.00    -0.422 C  
ENDROOT
BRANCH   3   8
HETATM    8  C   UNL     2     -10.593   7.785  71.575  1.00  0.00    -0.213 C  
HETATM    9  O   UNL     2     -11.340   8.955  71.961  1.00  0.00    -0.353 OA 
HETATM   10  H   UNL     2     -11.092   9.689  71.409  1.00  0.00     0.000 HD 
BRANCH   8  11
HETATM   11  C   UNL     2      -9.075   8.058  71.613  1.00  0.00    -0.150 C  
HETATM   12  O   UNL     2      -8.669   7.987  72.983  1.00  0.00    -0.174 OA 
HETATM   13  H   UNL     2      -7.735   8.155  73.006  1.00  0.00     0.000 HD 
BRANCH  11  14
HETATM   14  C   UNL     2      -8.359   6.990  70.762  1.00  0.00    -0.129 C  
HETATM   15  H   UNL     2      -8.131   6.641  68.827  1.00  0.00     0.000 HD 
HETATM   16  O   UNL     2      -8.571   7.299  69.352  1.00  0.00    -0.132 OA 
BRANCH  14  17
HETATM   17  C   UNL     2      -8.683   5.526  71.061  1.00  0.00    -0.129 C  
HETATM   18  C   UNL     2      -7.466   4.858  71.751  1.00  0.00    -0.087 C  
HETATM   19  H   UNL     2      -9.332   3.965  70.053  1.00  0.00     0.000 HD 
HETATM   20  O   UNL     2      -9.131   4.875  69.867  1.00  0.00    -0.108 OA 
HETATM   21  O   UNL     2      -7.034   5.571  72.714  1.00  0.00    -0.079 OA 
HETATM   22  O   UNL     2      -7.126   3.745  71.304  1.00  0.00    -0.032 OA 
ENDBRANCH  14  17
ENDBRANCH  11  14
ENDBRANCH   8  11
ENDBRANCH   3   8
BRANCH   7  23
HETATM   23  C   UNL     3     -11.092  15.055  64.511  1.00  0.00    -0.234 C  
HETATM   24  O   UNL     3     -11.466  16.254  63.802  1.00  0.00    -1.475 OA 
HETATM   25  H   UNL     3     -10.821  16.925  63.994  1.00  0.00     0.000 HD 
BRANCH  23  26
HETATM   26  C   UNL     3     -10.960  15.490  65.983  1.00  0.00    -0.251 C  
HETATM   27  O   UNL     3     -11.681  14.616  66.855  1.00  0.00    -0.375 OA 
HETATM   28  H   UNL     3     -11.599  14.885  67.764  1.00  0.00     0.000 HD 
BRANCH  26  29
HETATM   29  C   UNL     3      -9.546  15.712  66.563  1.00  0.00    -0.270 C  
HETATM   30  O   UNL     3      -8.840  16.774  65.901  1.00  0.00    -0.499 OA 
HETATM   31  H   UNL     3      -7.970  16.911  66.258  1.00  0.00     0.000 HD 
BRANCH  29  32
HETATM   32  C   UNL     3      -8.621  14.501  66.617  1.00  0.00    -0.057 C  
HETATM   33  C   UNL     3      -8.842  13.590  67.838  1.00  0.00    -0.190 C  
HETATM   34  O   UNL     3      -7.207  14.975  66.677  1.00  0.00    -0.214 OA 
HETATM   35  O   UNL     3      -8.048  13.896  68.822  1.00  0.00    -0.126 OA 
HETATM   36  O   UNL     3      -9.416  12.502  67.638  1.00  0.00    -0.178 OA 
HETATM   37  H   UNL     3      -6.631  14.221  66.711  1.00  0.00     0.000 HD 
ENDBRANCH  29  32
ENDBRANCH  26  29
ENDBRANCH  23  26
ENDBRANCH   7  23
TORSDOF 8
ENDMDL
MODEL      271
REMARK 921   NORMALIZED FREE ENERGY PREDICTED BY IDOCK:   -4.26 KCAL/MOL
REMARK 922        TOTAL FREE ENERGY PREDICTED BY IDOCK:   -8.32 KCAL/MOL
REMARK 923 INTER-LIGAND FREE ENERGY PREDICTED BY IDOCK:   -6.80 KCAL/MOL
REMARK 924 INTRA-LIGAND FREE ENERGY PREDICTED BY IDOCK:   -1.52 KCAL/MOL
REMARK 927      BINDING AFFINITY PREDICTED BY RF-SCORE:    0.00 PKD
ROOT
HETATM    1 CU   UNL     1     -10.259   8.952  67.238  1.00  0.00    -0.153 Cu 
HETATM    2  O   UNL     2     -11.686  12.676  62.751  1.00  0.00    -0.607 OA 
HETATM    3  C   UNL     2     -11.843  13.249  64.057  1.00  0.00    -0.455 C  
HETATM    4  H   UNL     2     -12.126  13.254  62.138  1.00  0.00     0.000 HD 
HETATM    5  O   UNL     3     -11.600   5.536  73.556  1.00  0.00    -0.429 OA 
HETATM    6  H   UNL     3     -12.498   5.846  73.600  1.00  0.00     0.000 HD 
HETATM    7  C   UNL     3     -11.121   5.712  72.207  1.00  0.00    -0.261 C  
ENDROOT
BRANCH   3   8
HETATM    8  C   UNL     2     -11.136  12.320  65.042  1.00  0.00    -0.316 C  
HETATM    9  O   UNL     2     -10.672  11.144  64.351  1.00  0.00    -0.350 OA 
HETATM   10  H   UNL     2     -10.233  10.566  64.964  1.00  0.00     0.000 HD 
BRANCH   8  11
HETATM   11  C   UNL     2      -9.979  13.023  65.781  1.00  0.00    -0.254 C  
HETATM   12  O   UNL     2      -9.977  14.389  65.356  1.00  0.00    -0.418 OA 
HETATM   13  H   UNL     2      -9.265  14.822  65.811  1.00  0.00     0.000 HD 
BRANCH  11  14
HETATM   14  C   UNL     2     -10.222  12.910  67.300  1.00  0.00    -0.234 C  
HETATM   15  H   UNL     2      -9.677  11.657  68.731  1.00  0.00     0.000 HD 
HETATM   16  O   UNL     2      -9.528  11.727  67.796  1.00  0.00    -0.172 OA 
BRANCH  14  17
HETATM   17  C   UNL     2     -11.673  12.942  67.779  1.00  0.00    -0.362 C  
HETATM   18  C   UNL     2     -11.935  14.261  68.551  1.00  0.00    -0.317 C  
HETATM   19  H   UNL     2     -12.869  11.766  68.810  1.00  0.00     0.000 HD 
HETATM   20  O   UNL     2     -11.967  11.746  68.512  1.00  0.00    -0.406 OA 
HETATM   21  O   UNL     2     -11.513  15.268  67.896  1.00  0.00    -0.328 OA 
HETATM   22  O   UNL     2     -12.532  14.149  69.639  1.00  0.00    -0.310 OA 
ENDBRANCH  14  17
ENDBRANCH  11  14
ENDBRANCH   8  11
ENDBRANCH   3   8
BRANCH   7  23
HETATM   23  C   UNL     3      -9.672   5.212  72.136  1.00  0.00    -0.162 C  
HETATM   24  O   UNL     3      -9.692   3.770  72.168  1.00  0.00    -0.143 OA 
HETATM   25  H   UNL     3      -8.795   3.460  72.124  1.00  0.00     0.000 HD 
BRANCH  23  26
HETATM   26  C   UNL     3      -8.876   5.569  70.866  1.00  0.00    -0.139 C  
HETATM   27  O   UNL     3      -7.479   5.702  71.142  1.00  0.00    -0.085 OA 
HETATM   28  H   UNL     3      -6.989   5.923  70.358  1.00  0.00     0.000 HD 
BRANCH  26  29
HETATM   29  C   UNL     3      -9.052   4.685  69.612  1.00  0.00    -0.109 C  
HETATM   30  O   UNL     3      -7.798   4.345  68.998  1.00  0.00    -0.068 OA 
HETATM   31  H   UNL     3      -7.907   3.801  68.226  1.00  0.00     0.000 HD 
BRANCH  29  32
HETATM   32  C   UNL     3      -9.979   5.209  68.520  1.00  0.00    -0.154 C  
HETATM   33  C   UNL     3      -9.314   5.352  67.140  1.00  0.00    -0.117 C  
HETATM   34  O   UNL     3     -10.466   6.565  68.912  1.00  0.00    -0.179 OA 
HETATM   35  O   UNL     3      -8.854   6.552  66.944  1.00  0.00    -0.116 OA 
HETATM   36  O   UNL     3      -9.613   4.505  66.276  1.00  0.00    -0.155 OA 
HETATM   37  H   UNL     3     -11.044   6.891  68.232  1.00  0.00     0.000 HD 
ENDBRANCH  29  32
ENDBRANCH  26  29
ENDBRANCH  23  26
ENDBRANCH   7  23
TORSDOF 8
ENDMDL
MODEL      272
REMARK 921   NORMALIZED FREE ENERGY PREDICTED BY IDOCK:   -4.25 KCAL/MOL
REMARK 922        TOTAL FREE ENERGY PREDICTED BY IDOCK:   -8.32 KCAL/MOL
REMARK 923 INTER-LIGAND FREE ENERGY PREDICTED BY IDOCK:   -6.53 KCAL/MOL
REMARK 924 INTRA-LIGAND FREE ENERGY PREDICTED BY IDOCK:   -1.78 KCAL/MOL
REMARK 927      BINDING AFFINITY PREDICTED BY RF-SCORE:    0.00 PKD
ROOT
HETATM    1 CU   UNL     1      -9.767   8.568  66.785  1.00  0.00    -0.140 Cu 
HETATM    2  O   UNL     2      -9.163   2.602  67.055  1.00  0.00    -0.233 OA 
HETATM    3  C   UNL     2      -8.788   3.170  65.792  1.00  0.00    -0.138 C  
HETATM    4  H   UNL     2      -9.231   1.662  66.929  1.00  0.00     0.000 HD 
HETATM    5  O   UNL     3     -12.155  14.749  63.706  1.00  0.00    -0.886 OA 
HETATM    6  H   UNL     3     -12.670  14.292  63.051  1.00  0.00     0.000 HD 
HETATM    7  C   UNL     3     -11.827  13.821  64.760  1.00  0.00    -0.391 C  
ENDROOT
BRANCH   3   8
HETATM    8  C   UNL     2      -8.678   4.679  65.994  1.00  0.00    -0.116 C  
HETATM    9  O   UNL     2      -7.838   5.245  64.969  1.00  0.00    -0.089 OA 
HETATM   10  H   UNL     2      -7.770   6.184  65.095  1.00  0.00     0.000 HD 
BRANCH   8  11
HETATM   11  C   UNL     2     -10.059   5.367  66.023  1.00  0.00    -0.075 C  
HETATM   12  O   UNL     2     -10.989   4.467  65.416  1.00  0.00    -0.747 OA 
HETATM   13  H   UNL     2     -11.839   4.890  65.433  1.00  0.00     0.000 HD 
BRANCH  11  14
HETATM   14  C   UNL     2     -10.436   5.656  67.490  1.00  0.00    -0.229 C  
HETATM   15  H   UNL     2     -11.610   6.947  68.422  1.00  0.00     0.000 HD 
HETATM   16  O   UNL     2     -11.378   6.769  67.518  1.00  0.00    -0.242 OA 
BRANCH  14  17
HETATM   17  C   UNL     2      -9.287   5.878  68.475  1.00  0.00    -0.120 C  
HETATM   18  C   UNL     2      -9.524   5.024  69.746  1.00  0.00    -0.150 C  
HETATM   19  H   UNL     2      -8.406   7.418  69.326  1.00  0.00     0.000 HD 
HETATM   20  O   UNL     2      -9.120   7.281  68.714  1.00  0.00    -0.130 OA 
HETATM   21  O   UNL     2      -9.812   3.821  69.445  1.00  0.00    -0.136 OA 
HETATM   22  O   UNL     2      -9.366   5.608  70.837  1.00  0.00    -0.155 OA 
ENDBRANCH  14  17
ENDBRANCH  11  14
ENDBRANCH   8  11
ENDBRANCH   3   8
BRANCH   7  23
HETATM   23  C   UNL     3     -10.996  14.558  65.818  1.00  0.00    -0.319 C  
HETATM   24  O   UNL     3     -11.885  14.988  66.869  1.00  0.00    -0.259 OA 
HETATM   25  H   UNL     3     -11.371  15.445  67.525  1.00  0.00     0.000 HD 
BRANCH  23  26
HETATM   26  C   UNL     3      -9.902  13.742  66.534  1.00  0.00    -0.290 C  
HETATM   27  O   UNL     3      -9.542  12.578  65.786  1.00  0.00    -0.365 OA 
HETATM   28  H   UNL     3      -8.867  12.075  66.228  1.00  0.00     0.000 HD 
BRANCH  26  29
HETATM   29  C   UNL     3      -8.611  14.466  66.976  1.00  0.00    -0.203 C  
HETATM   30  O   UNL     3      -8.126  14.001  68.245  1.00  0.00    -0.132 OA 
HETATM   31  H   UNL     3      -7.332  14.447  68.517  1.00  0.00     0.000 HD 
BRANCH  29  32
HETATM   32  C   UNL     3      -8.655  15.990  67.023  1.00  0.00    -0.210 C  
HETATM   33  C   UNL     3      -7.341  16.647  67.482  1.00  0.00    -0.149 C  
HETATM   34  O   UNL     3      -9.714  16.412  67.987  1.00  0.00    -0.230 OA 
HETATM   35  O   UNL     3      -7.335  16.880  68.762  1.00  0.00    -0.204 OA 
HETATM   36  O   UNL     3      -6.649  17.203  66.608  1.00  0.00    -0.197 OA 
HETATM   37  H   UNL     3      -9.741  17.361  68.017  1.00  0.00     0.000 HD 
ENDBRANCH  29  32
ENDBRANCH  26  29
ENDBRANCH  23  26
ENDBRANCH   7  23
TORSDOF 8
ENDMDL
MODEL      273
REMARK 921   NORMALIZED FREE ENERGY PREDICTED BY IDOCK:   -4.25 KCAL/MOL
REMARK 922        TOTAL FREE ENERGY PREDICTED BY IDOCK:   -8.31 KCAL/MOL
REMARK 923 INTER-LIGAND FREE ENERGY PREDICTED BY IDOCK:   -6.80 KCAL/MOL
REMARK 924 INTRA-LIGAND FREE ENERGY PREDICTED BY IDOCK:   -1.51 KCAL/MOL
REMARK 927      BINDING AFFINITY PREDICTED BY RF-SCORE:    0.00 PKD
ROOT
HETATM    1 CU   UNL     1     -10.289   7.924  68.438  1.00  0.00    -0.169 Cu 
HETATM    2  O   UNL     2      -9.781   1.949  68.176  1.00  0.00    -0.336 OA 
HETATM    3  C   UNL     2      -9.142   2.637  67.092  1.00  0.00    -0.154 C  
HETATM    4  H   UNL     2      -9.824   1.030  67.937  1.00  0.00     0.000 HD 
HETATM    5  O   UNL     3     -11.936  14.460  65.616  1.00  0.00    -0.364 OA 
HETATM    6  H   UNL     3     -12.300  14.089  64.820  1.00  0.00     0.000 HD 
HETATM    7  C   UNL     3     -11.845  13.416  66.607  1.00  0.00    -0.395 C  
ENDROOT
BRANCH   3   8
HETATM    8  C   UNL     2      -9.072   4.112  67.476  1.00  0.00    -0.140 C  
HETATM    9  O   UNL     2      -9.312   4.257  68.889  1.00  0.00    -0.134 OA 
HETATM   10  H   UNL     2      -9.269   5.176  69.128  1.00  0.00     0.000 HD 
BRANCH   8  11
HETATM   11  C   UNL     2      -7.730   4.758  67.072  1.00  0.00    -0.091 C  
HETATM   12  O   UNL     2      -7.363   4.206  65.805  1.00  0.00    -0.074 OA 
HETATM   13  H   UNL     2      -6.537   4.604  65.556  1.00  0.00     0.000 HD 
BRANCH  11  14
HETATM   14  C   UNL     2      -7.924   6.285  66.982  1.00  0.00    -0.109 C  
HETATM   15  H   UNL     2      -8.414   7.728  68.245  1.00  0.00     0.000 HD 
HETATM   16  O   UNL     2      -8.294   6.787  68.300  1.00  0.00    -0.117 OA 
BRANCH  14  17
HETATM   17  C   UNL     2      -8.878   6.805  65.905  1.00  0.00    -0.110 C  
HETATM   18  C   UNL     2      -8.248   8.039  65.209  1.00  0.00    -0.146 C  
HETATM   19  H   UNL     2     -10.765   7.354  65.805  1.00  0.00     0.000 HD 
HETATM   20  O   UNL     2     -10.173   7.031  66.474  1.00  0.00    -0.166 OA 
HETATM   21  O   UNL     2      -7.045   7.807  64.862  1.00  0.00    -0.057 OA 
HETATM   22  O   UNL     2      -8.995   9.026  65.061  1.00  0.00    -0.202 OA 
ENDBRANCH  14  17
ENDBRANCH  11  14
ENDBRANCH   8  11
ENDBRANCH   3   8
BRANCH   7  23
HETATM   23  C   UNL     3     -11.258  14.014  67.892  1.00  0.00    -0.273 C  
HETATM   24  O   UNL     3      -9.831  14.139  67.719  1.00  0.00    -0.223 OA 
HETATM   25  H   UNL     3      -9.467  14.510  68.515  1.00  0.00     0.000 HD 
BRANCH  23  26
HETATM   26  C   UNL     3     -11.735  15.427  68.282  1.00  0.00    -0.297 C  
HETATM   27  O   UNL     3     -12.626  15.390  69.400  1.00  0.00    -0.596 OA 
HETATM   28  H   UNL     3     -12.920  16.262  69.640  1.00  0.00     0.000 HD 
BRANCH  26  29
HETATM   29  C   UNL     3     -10.675  16.522  68.529  1.00  0.00    -0.336 C  
HETATM   30  O   UNL     3     -10.747  17.069  69.855  1.00  0.00    -0.336 OA 
HETATM   31  H   UNL     3     -10.094  17.743  70.007  1.00  0.00     0.000 HD 
BRANCH  29  32
HETATM   32  C   UNL     3     -10.641  17.687  67.545  1.00  0.00    -0.343 C  
HETATM   33  C   UNL     3     -10.062  17.332  66.164  1.00  0.00    -0.302 C  
HETATM   34  O   UNL     3      -9.785  18.771  68.111  1.00  0.00    -0.309 OA 
HETATM   35  O   UNL     3      -8.789  17.589  66.089  1.00  0.00    -0.448 OA 
HETATM   36  O   UNL     3     -10.869  17.225  65.220  1.00  0.00    -0.576 OA 
HETATM   37  H   UNL     3      -9.763  19.497  67.498  1.00  0.00     0.000 HD 
ENDBRANCH  29  32
ENDBRANCH  26  29
ENDBRANCH  23  26
ENDBRANCH   7  23
TORSDOF 8
ENDMDL
MODEL      274
REMARK 921   NORMALIZED FREE ENERGY PREDICTED BY IDOCK:   -4.24 KCAL/MOL
REMARK 922        TOTAL FREE ENERGY PREDICTED BY IDOCK:   -8.30 KCAL/MOL
REMARK 923 INTER-LIGAND FREE ENERGY PREDICTED BY IDOCK:   -6.55 KCAL/MOL
REMARK 924 INTRA-LIGAND FREE ENERGY PREDICTED BY IDOCK:   -1.75 KCAL/MOL
REMARK 927      BINDING AFFINITY PREDICTED BY RF-SCORE:    0.00 PKD
ROOT
HETATM    1 CU   UNL     1      -8.110  13.475  66.304  1.00  0.00    -0.388 Cu 
HETATM    2  O   UNL     2      -7.623   7.559  65.412  1.00  0.00    -0.084 OA 
HETATM    3  C   UNL     2      -7.675   8.329  64.203  1.00  0.00    -0.138 C  
HETATM    4  H   UNL     2      -7.757   6.650  65.170  1.00  0.00     0.000 HD 
HETATM    5  O   UNL     3     -11.206  20.003  65.214  1.00  0.00    -0.248 OA 
HETATM    6  H   UNL     3     -11.923  19.642  64.705  1.00  0.00     0.000 HD 
HETATM    7  C   UNL     3     -10.573  18.928  65.938  1.00  0.00    -0.373 C  
ENDROOT
BRANCH   3   8
HETATM    8  C   UNL     2      -7.460   9.790  64.592  1.00  0.00    -0.134 C  
HETATM    9  O   UNL     2      -6.744  10.470  63.543  1.00  0.00    -0.317 OA 
HETATM   10  H   UNL     2      -6.610  11.379  63.786  1.00  0.00     0.000 HD 
BRANCH   8  11
HETATM   11  C   UNL     2      -8.785  10.509  64.916  1.00  0.00    -0.181 C  
HETATM   12  O   UNL     2      -9.831   9.773  64.276  1.00  0.00    -0.410 OA 
HETATM   13  H   UNL     2     -10.647  10.215  64.475  1.00  0.00     0.000 HD 
BRANCH  11  14
HETATM   14  C   UNL     2      -8.974  10.532  66.447  1.00  0.00    -0.159 C  
HETATM   15  H   UNL     2      -9.809  11.762  67.752  1.00  0.00     0.000 HD 
HETATM   16  O   UNL     2      -9.692  11.748  66.809  1.00  0.00    -0.192 OA 
BRANCH  14  17
HETATM   17  C   UNL     2      -7.723  10.351  67.306  1.00  0.00    -0.099 C  
HETATM   18  C   UNL     2      -8.106   9.658  68.639  1.00  0.00    -0.100 C  
HETATM   19  H   UNL     2      -6.273  11.496  67.988  1.00  0.00     0.000 HD 
HETATM   20  O   UNL     2      -7.051  11.608  67.453  1.00  0.00    -0.105 OA 
HETATM   21  O   UNL     2      -8.826   8.629  68.431  1.00  0.00    -0.140 OA 
HETATM   22  O   UNL     2      -7.639  10.167  69.676  1.00  0.00    -0.123 OA 
ENDBRANCH  14  17
ENDBRANCH  11  14
ENDBRANCH   8  11
ENDBRANCH   3   8
BRANCH   7  23
HETATM   23  C   UNL     3      -9.416  19.509  66.761  1.00  0.00    -0.354 C  
HETATM   24  O   UNL     3      -9.728  20.884  67.067  1.00  0.00    -0.664 OA 
HETATM   25  H   UNL     3      -9.011  21.244  67.577  1.00  0.00     0.000 HD 
BRANCH  23  26
HETATM   26  C   UNL     3      -9.137  18.852  68.127  1.00  0.00    -0.313 C  
HETATM   27  O   UNL     3      -9.722  17.551  68.212  1.00  0.00    -0.283 OA 
HETATM   28  H   UNL     3      -9.550  17.146  69.055  1.00  0.00     0.000 HD 
BRANCH  26  29
HETATM   29  C   UNL     3      -7.676  18.773  68.622  1.00  0.00    -0.326 C  
HETATM   30  O   UNL     3      -6.875  19.869  68.153  1.00  0.00    -0.273 OA 
HETATM   31  H   UNL     3      -5.977  19.820  68.459  1.00  0.00     0.000 HD 
BRANCH  29  32
HETATM   32  C   UNL     3      -6.917  17.482  68.332  1.00  0.00    -0.211 C  
HETATM   33  C   UNL     3      -6.993  17.019  66.867  1.00  0.00    -0.216 C  
HETATM   34  O   UNL     3      -7.493  16.386  69.166  1.00  0.00    -0.222 OA 
HETATM   35  O   UNL     3      -7.960  16.171  66.674  1.00  0.00    -0.235 OA 
HETATM   36  O   UNL     3      -5.973  17.175  66.168  1.00  0.00    -0.261 OA 
HETATM   37  H   UNL     3      -7.020  15.582  68.985  1.00  0.00     0.000 HD 
ENDBRANCH  29  32
ENDBRANCH  26  29
ENDBRANCH  23  26
ENDBRANCH   7  23
TORSDOF 8
ENDMDL
MODEL      275
REMARK 921   NORMALIZED FREE ENERGY PREDICTED BY IDOCK:   -4.24 KCAL/MOL
REMARK 922        TOTAL FREE ENERGY PREDICTED BY IDOCK:   -8.29 KCAL/MOL
REMARK 923 INTER-LIGAND FREE ENERGY PREDICTED BY IDOCK:   -7.42 KCAL/MOL
REMARK 924 INTRA-LIGAND FREE ENERGY PREDICTED BY IDOCK:   -0.87 KCAL/MOL
REMARK 927      BINDING AFFINITY PREDICTED BY RF-SCORE:    0.00 PKD
ROOT
HETATM    1 CU   UNL     1      -9.850   9.583  67.430  1.00  0.00    -0.137 Cu 
HETATM    2  O   UNL     2      -9.592   3.871  69.259  1.00  0.00    -0.183 OA 
HETATM    3  C   UNL     2      -9.529   4.031  67.834  1.00  0.00    -0.173 C  
HETATM    4  H   UNL     2      -9.753   2.950  69.429  1.00  0.00     0.000 HD 
HETATM    5  O   UNL     3     -12.554  15.011  63.355  1.00  0.00    -0.698 OA 
HETATM    6  H   UNL     3     -13.254  14.474  63.000  1.00  0.00     0.000 HD 
HETATM    7  C   UNL     3     -12.021  14.355  64.523  1.00  0.00    -0.472 C  
ENDROOT
BRANCH   3   8
HETATM    8  C   UNL     2      -9.270   5.511  67.560  1.00  0.00    -0.110 C  
HETATM    9  O   UNL     2     -10.390   6.292  68.020  1.00  0.00    -0.151 OA 
HETATM   10  H   UNL     2     -10.228   7.213  67.849  1.00  0.00     0.000 HD 
BRANCH   8  11
HETATM   11  C   UNL     2      -7.952   6.000  68.195  1.00  0.00    -0.110 C  
HETATM   12  O   UNL     2      -6.952   5.955  67.175  1.00  0.00    -0.065 OA 
HETATM   13  H   UNL     2      -6.140   6.257  67.565  1.00  0.00     0.000 HD 
BRANCH  11  14
HETATM   14  C   UNL     2      -8.158   7.437  68.715  1.00  0.00    -0.128 C  
HETATM   15  H   UNL     2      -7.642   9.249  68.109  1.00  0.00     0.000 HD 
HETATM   16  O   UNL     2      -7.515   8.364  67.790  1.00  0.00    -0.094 OA 
BRANCH  14  17
HETATM   17  C   UNL     2      -7.746   7.723  70.159  1.00  0.00    -0.090 C  
HETATM   18  C   UNL     2      -8.020   9.212  70.490  1.00  0.00    -0.154 C  
HETATM   19  H   UNL     2      -6.138   7.476  71.267  1.00  0.00     0.000 HD 
HETATM   20  O   UNL     2      -6.394   7.298  70.370  1.00  0.00    -0.034 OA 
HETATM   21  O   UNL     2      -9.196   9.553  70.139  1.00  0.00    -0.211 OA 
HETATM   22  O   UNL     2      -7.099   9.825  71.065  1.00  0.00    -0.325 OA 
ENDBRANCH  14  17
ENDBRANCH  11  14
ENDBRANCH   8  11
ENDBRANCH   3   8
BRANCH   7  23
HETATM   23  C   UNL     3     -10.891  15.221  65.096  1.00  0.00    -0.426 C  
HETATM   24  O   UNL     3     -10.880  16.475  64.382  1.00  0.00    -1.027 OA 
HETATM   25  H   UNL     3     -10.180  17.012  64.737  1.00  0.00     0.000 HD 
BRANCH  23  26
HETATM   26  C   UNL     3     -11.003  15.613  66.582  1.00  0.00    -0.212 C  
HETATM   27  O   UNL     3     -10.897  14.470  67.435  1.00  0.00    -0.281 OA 
HETATM   28  H   UNL     3     -10.966  14.712  68.352  1.00  0.00     0.000 HD 
BRANCH  26  29
HETATM   29  C   UNL     3     -10.077  16.724  67.124  1.00  0.00    -0.282 C  
HETATM   30  O   UNL     3      -9.514  16.395  68.404  1.00  0.00    -0.208 OA 
HETATM   31  H   UNL     3      -8.944  17.079  68.737  1.00  0.00     0.000 HD 
BRANCH  29  32
HETATM   32  C   UNL     3     -10.664  18.128  67.219  1.00  0.00    -0.315 C  
HETATM   33  C   UNL     3     -10.240  19.069  66.079  1.00  0.00    -0.401 C  
HETATM   34  O   UNL     3     -10.207  18.755  68.495  1.00  0.00    -0.377 OA 
HETATM   35  O   UNL     3      -9.198  19.780  66.396  1.00  0.00    -0.356 OA 
HETATM   36  O   UNL     3     -11.093  19.325  65.207  1.00  0.00    -0.397 OA 
HETATM   37  H   UNL     3     -10.572  19.630  68.554  1.00  0.00     0.000 HD 
ENDBRANCH  29  32
ENDBRANCH  26  29
ENDBRANCH  23  26
ENDBRANCH   7  23
TORSDOF 8
ENDMDL
MODEL      276
REMARK 921   NORMALIZED FREE ENERGY PREDICTED BY IDOCK:   -4.23 KCAL/MOL
REMARK 922        TOTAL FREE ENERGY PREDICTED BY IDOCK:   -8.28 KCAL/MOL
REMARK 923 INTER-LIGAND FREE ENERGY PREDICTED BY IDOCK:   -7.45 KCAL/MOL
REMARK 924 INTRA-LIGAND FREE ENERGY PREDICTED BY IDOCK:   -0.83 KCAL/MOL
REMARK 927      BINDING AFFINITY PREDICTED BY RF-SCORE:    0.00 PKD
ROOT
HETATM    1 CU   UNL     1      -8.232   8.065  65.302  1.00  0.00    -0.094 Cu 
HETATM    2  O   UNL     2      -5.957   2.719  66.815  1.00  0.00    -0.022 OA 
HETATM    3  C   UNL     2      -7.260   2.652  66.218  1.00  0.00    -0.065 C  
HETATM    4  H   UNL     2      -5.782   1.868  67.200  1.00  0.00     0.000 HD 
HETATM    5  O   UNL     3     -13.478  13.150  65.277  1.00  0.00    -0.428 OA 
HETATM    6  H   UNL     3     -14.024  12.673  65.893  1.00  0.00     0.000 HD 
HETATM    7  C   UNL     3     -12.143  12.607  65.332  1.00  0.00    -0.462 C  
ENDROOT
BRANCH   3   8
HETATM    8  C   UNL     2      -7.542   4.018  65.600  1.00  0.00    -0.085 C  
HETATM    9  O   UNL     2      -8.676   3.925  64.715  1.00  0.00    -0.111 OA 
HETATM   10  H   UNL     2      -8.851   4.776  64.329  1.00  0.00     0.000 HD 
BRANCH   8  11
HETATM   11  C   UNL     2      -7.760   5.109  66.668  1.00  0.00    -0.092 C  
HETATM   12  O   UNL     2      -8.365   6.226  66.011  1.00  0.00    -0.125 OA 
HETATM   13  H   UNL     2      -8.499   6.898  66.669  1.00  0.00     0.000 HD 
BRANCH  11  14
HETATM   14  C   UNL     2      -8.676   4.545  67.772  1.00  0.00    -0.104 C  
HETATM   15  H   UNL     2     -10.451   3.670  67.829  1.00  0.00     0.000 HD 
HETATM   16  O   UNL     2      -9.886   4.018  67.149  1.00  0.00    -0.202 OA 
BRANCH  14  17
HETATM   17  C   UNL     2      -9.015   5.472  68.940  1.00  0.00    -0.114 C  
HETATM   18  C   UNL     2     -10.058   4.786  69.859  1.00  0.00    -0.229 C  
HETATM   19  H   UNL     2      -9.615   7.333  69.166  1.00  0.00     0.000 HD 
HETATM   20  O   UNL     2      -9.405   6.757  68.440  1.00  0.00    -0.127 OA 
HETATM   21  O   UNL     2      -9.709   3.594  70.140  1.00  0.00    -0.192 OA 
HETATM   22  O   UNL     2     -11.027   5.488  70.207  1.00  0.00    -0.269 OA 
ENDBRANCH  14  17
ENDBRANCH  11  14
ENDBRANCH   8  11
ENDBRANCH   3   8
BRANCH   7  23
HETATM   23  C   UNL     3     -11.263  13.376  64.338  1.00  0.00    -0.384 C  
HETATM   24  O   UNL     3     -12.086  13.776  63.224  1.00  0.00    -0.909 OA 
HETATM   25  H   UNL     3     -11.541  14.252  62.608  1.00  0.00     0.000 HD 
BRANCH  23  26
HETATM   26  C   UNL     3     -10.621  14.682  64.846  1.00  0.00    -0.422 C  
HETATM   27  O   UNL     3     -11.179  15.827  64.198  1.00  0.00    -0.802 OA 
HETATM   28  H   UNL     3     -10.783  16.633  64.511  1.00  0.00     0.000 HD 
BRANCH  26  29
HETATM   29  C   UNL     3     -10.583  14.942  66.368  1.00  0.00    -0.307 C  
HETATM   30  O   UNL     3     -11.889  15.175  66.919  1.00  0.00    -0.189 OA 
HETATM   31  H   UNL     3     -11.865  15.336  67.855  1.00  0.00     0.000 HD 
BRANCH  29  32
HETATM   32  C   UNL     3      -9.665  16.058  66.856  1.00  0.00    -0.235 C  
HETATM   33  C   UNL     3     -10.366  17.122  67.718  1.00  0.00    -0.347 C  
HETATM   34  O   UNL     3      -9.093  16.764  65.671  1.00  0.00    -0.489 OA 
HETATM   35  O   UNL     3     -10.767  18.136  67.008  1.00  0.00    -0.353 OA 
HETATM   36  O   UNL     3     -10.142  17.098  68.944  1.00  0.00    -0.293 OA 
HETATM   37  H   UNL     3      -8.521  17.459  65.975  1.00  0.00     0.000 HD 
ENDBRANCH  29  32
ENDBRANCH  26  29
ENDBRANCH  23  26
ENDBRANCH   7  23
TORSDOF 8
ENDMDL
MODEL      277
REMARK 921   NORMALIZED FREE ENERGY PREDICTED BY IDOCK:   -4.22 KCAL/MOL
REMARK 922        TOTAL FREE ENERGY PREDICTED BY IDOCK:   -8.27 KCAL/MOL
REMARK 923 INTER-LIGAND FREE ENERGY PREDICTED BY IDOCK:   -7.21 KCAL/MOL
REMARK 924 INTRA-LIGAND FREE ENERGY PREDICTED BY IDOCK:   -1.06 KCAL/MOL
REMARK 927      BINDING AFFINITY PREDICTED BY RF-SCORE:    0.00 PKD
ROOT
HETATM    1 CU   UNL     1      -7.869  13.482  66.593  1.00  0.00    -0.310 Cu 
HETATM    2  O   UNL     2      -8.685   7.538  66.402  1.00  0.00    -0.131 OA 
HETATM    3  C   UNL     2      -9.253   8.241  65.288  1.00  0.00     0.259 C  
HETATM    4  H   UNL     2      -9.040   6.657  66.386  1.00  0.00     0.000 HD 
HETATM    5  O   UNL     3     -10.208  20.399  66.314  1.00  0.00    -0.472 OA 
HETATM    6  H   UNL     3     -11.125  20.149  66.287  1.00  0.00     0.000 HD 
HETATM    7  C   UNL     3      -9.437  19.265  66.763  1.00  0.00    -0.329 C  
ENDROOT
BRANCH   3   8
HETATM    8  C   UNL     2      -8.682   9.656  65.312  1.00  0.00    -0.160 C  
HETATM    9  O   UNL     2      -7.262   9.610  65.067  1.00  0.00    -0.105 OA 
HETATM   10  H   UNL     2      -6.907  10.491  65.083  1.00  0.00     0.000 HD 
BRANCH   8  11
HETATM   11  C   UNL     2      -9.388  10.589  64.306  1.00  0.00    -0.267 C  
HETATM   12  O   UNL     2      -9.714   9.801  63.159  1.00  0.00    -0.523 OA 
HETATM   13  H   UNL     2     -10.149  10.374  62.540  1.00  0.00     0.000 HD 
BRANCH  11  14
HETATM   14  C   UNL     2     -10.656  11.162  64.971  1.00  0.00    -0.273 C  
HETATM   15  H   UNL     2     -12.394  11.865  64.335  1.00  0.00     0.000 HD 
HETATM   16  O   UNL     2     -11.612  11.512  63.926  1.00  0.00    -0.356 OA 
BRANCH  14  17
HETATM   17  C   UNL     2     -10.467  12.315  65.956  1.00  0.00    -0.254 C  
HETATM   18  C   UNL     2     -11.683  12.379  66.916  1.00  0.00    -0.362 C  
HETATM   19  H   UNL     2     -10.085  14.243  65.851  1.00  0.00     0.000 HD 
HETATM   20  O   UNL     2     -10.202  13.526  65.239  1.00  0.00    -0.314 OA 
HETATM   21  O   UNL     2     -11.947  11.233  67.402  1.00  0.00    -0.581 OA 
HETATM   22  O   UNL     2     -12.181  13.508  67.095  1.00  0.00    -0.362 OA 
ENDBRANCH  14  17
ENDBRANCH  11  14
ENDBRANCH   8  11
ENDBRANCH   3   8
BRANCH   7  23
HETATM   23  C   UNL     3      -7.957  19.668  66.807  1.00  0.00    -0.292 C  
HETATM   24  O   UNL     3      -7.848  21.028  66.338  1.00  0.00    -0.404 OA 
HETATM   25  H   UNL     3      -6.931  21.278  66.365  1.00  0.00     0.000 HD 
BRANCH  23  26
HETATM   26  C   UNL     3      -7.279  19.670  68.190  1.00  0.00    -0.302 C  
HETATM   27  O   UNL     3      -8.241  19.724  69.247  1.00  0.00    -0.172 OA 
HETATM   28  H   UNL     3      -7.822  19.725  70.100  1.00  0.00     0.000 HD 
BRANCH  26  29
HETATM   29  C   UNL     3      -6.253  18.561  68.510  1.00  0.00    -0.206 C  
HETATM   30  O   UNL     3      -5.168  18.526  67.569  1.00  0.00    -0.147 OA 
HETATM   31  H   UNL     3      -4.537  17.843  67.766  1.00  0.00     0.000 HD 
BRANCH  29  32
HETATM   32  C   UNL     3      -6.791  17.141  68.653  1.00  0.00    -0.197 C  
HETATM   33  C   UNL     3      -6.711  16.301  67.366  1.00  0.00    -0.177 C  
HETATM   34  O   UNL     3      -8.232  17.209  69.040  1.00  0.00    -0.215 OA 
HETATM   35  O   UNL     3      -7.814  16.357  66.679  1.00  0.00    -0.229 OA 
HETATM   36  O   UNL     3      -5.834  15.417  67.319  1.00  0.00    -0.334 OA 
HETATM   37  H   UNL     3      -8.568  16.324  69.129  1.00  0.00     0.000 HD 
ENDBRANCH  29  32
ENDBRANCH  26  29
ENDBRANCH  23  26
ENDBRANCH   7  23
TORSDOF 8
ENDMDL
MODEL      278
REMARK 921   NORMALIZED FREE ENERGY PREDICTED BY IDOCK:   -4.22 KCAL/MOL
REMARK 922        TOTAL FREE ENERGY PREDICTED BY IDOCK:   -8.27 KCAL/MOL
REMARK 923 INTER-LIGAND FREE ENERGY PREDICTED BY IDOCK:   -6.67 KCAL/MOL
REMARK 924 INTRA-LIGAND FREE ENERGY PREDICTED BY IDOCK:   -1.60 KCAL/MOL
REMARK 927      BINDING AFFINITY PREDICTED BY RF-SCORE:    0.00 PKD
ROOT
HETATM    1 CU   UNL     1     -10.652   9.480  70.496  1.00  0.00    -0.188 Cu 
HETATM    2  O   UNL     2     -10.130   3.955  72.784  1.00  0.00    -0.148 OA 
HETATM    3  C   UNL     2     -11.217   4.713  73.332  1.00  0.00    -0.338 C  
HETATM    4  H   UNL     2     -10.006   3.198  73.346  1.00  0.00     0.000 HD 
HETATM    5  O   UNL     3     -11.293  16.737  71.055  1.00  0.00    -0.478 OA 
HETATM    6  H   UNL     3     -11.165  16.734  71.997  1.00  0.00     0.000 HD 
HETATM    7  C   UNL     3     -10.845  15.471  70.528  1.00  0.00    -0.328 C  
ENDROOT
BRANCH   3   8
HETATM    8  C   UNL     2     -11.416   5.928  72.431  1.00  0.00    -0.306 C  
HETATM    9  O   UNL     2     -12.825   6.185  72.268  1.00  0.00    -0.467 OA 
HETATM   10  H   UNL     2     -12.948   6.942  71.706  1.00  0.00     0.000 HD 
BRANCH   8  11
HETATM   11  C   UNL     2     -10.682   7.176  72.962  1.00  0.00    -0.321 C  
HETATM   12  O   UNL     2     -10.471   6.976  74.362  1.00  0.00    -0.494 OA 
HETATM   13  H   UNL     2     -10.018   7.744  74.689  1.00  0.00     0.000 HD 
BRANCH  11  14
HETATM   14  C   UNL     2      -9.344   7.320  72.209  1.00  0.00    -0.138 C  
HETATM   15  H   UNL     2      -8.157   8.822  71.705  1.00  0.00     0.000 HD 
HETATM   16  O   UNL     2      -8.981   8.732  72.169  1.00  0.00    -0.336 OA 
BRANCH  14  17
HETATM   17  C   UNL     2      -9.253   6.687  70.820  1.00  0.00    -0.155 C  
HETATM   18  C   UNL     2      -7.894   5.955  70.674  1.00  0.00    -0.105 C  
HETATM   19  H   UNL     2      -9.459   7.282  68.956  1.00  0.00     0.000 HD 
HETATM   20  O   UNL     2      -9.515   7.676  69.818  1.00  0.00    -0.157 OA 
HETATM   21  O   UNL     2      -7.666   5.204  71.676  1.00  0.00    -0.101 OA 
HETATM   22  O   UNL     2      -7.266   6.171  69.619  1.00  0.00    -0.070 OA 
ENDBRANCH  14  17
ENDBRANCH  11  14
ENDBRANCH   8  11
ENDBRANCH   3   8
BRANCH   7  23
HETATM   23  C   UNL     3     -11.050  15.475  69.007  1.00  0.00    -0.267 C  
HETATM   24  O   UNL     3     -12.469  15.455  68.745  1.00  0.00    -0.573 OA 
HETATM   25  H   UNL     3     -12.596  15.458  67.803  1.00  0.00     0.000 HD 
BRANCH  23  26
HETATM   26  C   UNL     3     -10.523  16.703  68.239  1.00  0.00    -0.321 C  
HETATM   27  O   UNL     3     -11.145  17.910  68.688  1.00  0.00    -0.129 OA 
HETATM   28  H   UNL     3     -10.819  18.666  68.214  1.00  0.00     0.000 HD 
BRANCH  26  29
HETATM   29  C   UNL     3      -8.997  16.929  68.168  1.00  0.00    -0.227 C  
HETATM   30  O   UNL     3      -8.656  18.284  67.836  1.00  0.00    -0.249 OA 
HETATM   31  H   UNL     3      -7.717  18.423  67.792  1.00  0.00     0.000 HD 
BRANCH  29  32
HETATM   32  C   UNL     3      -8.204  16.009  67.246  1.00  0.00    -0.182 C  
HETATM   33  C   UNL     3      -7.645  14.752  67.935  1.00  0.00    -0.139 C  
HETATM   34  O   UNL     3      -7.036  16.763  66.702  1.00  0.00    -0.214 OA 
HETATM   35  O   UNL     3      -6.427  14.928  68.356  1.00  0.00    -0.093 OA 
HETATM   36  O   UNL     3      -8.210  13.669  67.686  1.00  0.00    -0.151 OA 
HETATM   37  H   UNL     3      -6.541  16.190  66.127  1.00  0.00     0.000 HD 
ENDBRANCH  29  32
ENDBRANCH  26  29
ENDBRANCH  23  26
ENDBRANCH   7  23
TORSDOF 8
ENDMDL
MODEL      279
REMARK 921   NORMALIZED FREE ENERGY PREDICTED BY IDOCK:   -4.20 KCAL/MOL
REMARK 922        TOTAL FREE ENERGY PREDICTED BY IDOCK:   -8.24 KCAL/MOL
REMARK 923 INTER-LIGAND FREE ENERGY PREDICTED BY IDOCK:   -7.41 KCAL/MOL
REMARK 924 INTRA-LIGAND FREE ENERGY PREDICTED BY IDOCK:   -0.83 KCAL/MOL
REMARK 927      BINDING AFFINITY PREDICTED BY RF-SCORE:    0.00 PKD
ROOT
HETATM    1 CU   UNL     1      -9.777   8.138  67.993  1.00  0.00    -0.143 Cu 
HETATM    2  O   UNL     2      -7.707   2.535  68.593  1.00  0.00    -0.050 OA 
HETATM    3  C   UNL     2      -7.893   3.225  69.837  1.00  0.00    -0.046 C  
HETATM    4  H   UNL     2      -7.193   1.758  68.779  1.00  0.00     0.000 HD 
HETATM    5  O   UNL     3      -9.589  15.331  69.261  1.00  0.00    -0.227 OA 
HETATM    6  H   UNL     3      -8.753  15.288  69.711  1.00  0.00     0.000 HD 
HETATM    7  C   UNL     3      -9.770  14.109  68.516  1.00  0.00    -0.219 C  
ENDROOT
BRANCH   3   8
HETATM    8  C   UNL     2      -8.720   4.473  69.538  1.00  0.00    -0.082 C  
HETATM    9  O   UNL     2     -10.074   4.276  69.989  1.00  0.00    -0.196 OA 
HETATM   10  H   UNL     2     -10.589   5.053  69.802  1.00  0.00     0.000 HD 
BRANCH   8  11
HETATM   11  C   UNL     2      -8.106   5.743  70.162  1.00  0.00    -0.108 C  
HETATM   12  O   UNL     2      -7.522   6.495  69.096  1.00  0.00    -0.090 OA 
HETATM   13  H   UNL     2      -7.144   7.277  69.480  1.00  0.00     0.000 HD 
BRANCH  11  14
HETATM   14  C   UNL     2      -9.225   6.540  70.862  1.00  0.00    -0.154 C  
HETATM   15  H   UNL     2      -9.910   8.395  70.775  1.00  0.00     0.000 HD 
HETATM   16  O   UNL     2      -9.221   7.903  70.344  1.00  0.00    -0.157 OA 
BRANCH  14  17
HETATM   17  C   UNL     2      -9.238   6.530  72.391  1.00  0.00    -0.136 C  
HETATM   18  C   UNL     2     -10.703   6.503  72.896  1.00  0.00    -0.251 C  
HETATM   19  H   UNL     2      -8.458   7.611  73.839  1.00  0.00     0.000 HD 
HETATM   20  O   UNL     2      -8.449   7.618  72.889  1.00  0.00    -0.119 OA 
HETATM   21  O   UNL     2     -11.379   5.603  72.300  1.00  0.00    -0.272 OA 
HETATM   22  O   UNL     2     -10.985   7.308  73.805  1.00  0.00    -0.255 OA 
ENDBRANCH  14  17
ENDBRANCH  11  14
ENDBRANCH   8  11
ENDBRANCH   3   8
BRANCH   7  23
HETATM   23  C   UNL     3     -11.120  14.177  67.789  1.00  0.00    -0.276 C  
HETATM   24  O   UNL     3     -12.132  14.538  68.751  1.00  0.00    -0.477 OA 
HETATM   25  H   UNL     3     -12.968  14.580  68.301  1.00  0.00     0.000 HD 
BRANCH  23  26
HETATM   26  C   UNL     3     -11.250  15.224  66.665  1.00  0.00    -0.232 C  
HETATM   27  O   UNL     3     -11.004  16.547  67.149  1.00  0.00    -0.202 OA 
HETATM   28  H   UNL     3     -11.084  17.192  66.456  1.00  0.00     0.000 HD 
BRANCH  26  29
HETATM   29  C   UNL     3     -10.446  15.014  65.364  1.00  0.00    -0.384 C  
HETATM   30  O   UNL     3     -10.680  16.052  64.398  1.00  0.00    -0.819 OA 
HETATM   31  H   UNL     3     -10.185  15.922  63.598  1.00  0.00     0.000 HD 
BRANCH  29  32
HETATM   32  C   UNL     3     -10.611  13.673  64.657  1.00  0.00    -0.430 C  
HETATM   33  C   UNL     3     -12.074  13.273  64.393  1.00  0.00    -0.415 C  
HETATM   34  O   UNL     3     -10.014  12.602  65.509  1.00  0.00    -0.275 OA 
HETATM   35  O   UNL     3     -12.552  12.522  65.341  1.00  0.00    -0.656 OA 
HETATM   36  O   UNL     3     -12.484  13.363  63.220  1.00  0.00    -0.739 OA 
HETATM   37  H   UNL     3     -10.117  11.767  65.069  1.00  0.00     0.000 HD 
ENDBRANCH  29  32
ENDBRANCH  26  29
ENDBRANCH  23  26
ENDBRANCH   7  23
TORSDOF 8
ENDMDL
MODEL      280
REMARK 921   NORMALIZED FREE ENERGY PREDICTED BY IDOCK:   -4.20 KCAL/MOL
REMARK 922        TOTAL FREE ENERGY PREDICTED BY IDOCK:   -8.24 KCAL/MOL
REMARK 923 INTER-LIGAND FREE ENERGY PREDICTED BY IDOCK:   -6.62 KCAL/MOL
REMARK 924 INTRA-LIGAND FREE ENERGY PREDICTED BY IDOCK:   -1.62 KCAL/MOL
REMARK 927      BINDING AFFINITY PREDICTED BY RF-SCORE:    0.00 PKD
ROOT
HETATM    1 CU   UNL     1      -9.782   7.941  69.259  1.00  0.00    -0.151 Cu 
HETATM    2  O   UNL     2      -9.073   5.112  74.506  1.00  0.00    -0.113 OA 
HETATM    3  C   UNL     2     -10.003   6.204  74.552  1.00  0.00    -0.330 C  
HETATM    4  H   UNL     2      -8.878   4.873  75.405  1.00  0.00     0.000 HD 
HETATM    5  O   UNL     3      -9.989  13.901  65.039  1.00  0.00    -0.563 OA 
HETATM    6  H   UNL     3      -9.685  14.475  65.733  1.00  0.00     0.000 HD 
HETATM    7  C   UNL     3      -9.705  12.538  65.413  1.00  0.00    -0.086 C  
ENDROOT
BRANCH   3   8
HETATM    8  C   UNL     2     -10.317   6.587  73.109  1.00  0.00    -0.231 C  
HETATM    9  O   UNL     2     -11.632   6.115  72.757  1.00  0.00    -0.444 OA 
HETATM   10  H   UNL     2     -11.827   6.354  71.858  1.00  0.00     0.000 HD 
BRANCH   8  11
HETATM   11  C   UNL     2     -10.188   8.105  72.866  1.00  0.00    -0.270 C  
HETATM   12  O   UNL     2      -8.837   8.354  72.469  1.00  0.00    -0.210 OA 
HETATM   13  H   UNL     2      -8.757   9.288  72.320  1.00  0.00     0.000 HD 
BRANCH  11  14
HETATM   14  C   UNL     2     -11.181   8.515  71.760  1.00  0.00    -0.309 C  
HETATM   15  H   UNL     2     -11.876   7.687  70.103  1.00  0.00     0.000 HD 
HETATM   16  O   UNL     2     -11.264   7.434  70.784  1.00  0.00    -0.260 OA 
BRANCH  14  17
HETATM   17  C   UNL     2     -10.946   9.862  71.076  1.00  0.00    -0.290 C  
HETATM   18  C   UNL     2     -12.147  10.188  70.151  1.00  0.00    -0.149 C  
HETATM   19  H   UNL     2      -9.524  10.695  70.000  1.00  0.00     0.000 HD 
HETATM   20  O   UNL     2      -9.670   9.858  70.425  1.00  0.00    -0.234 OA 
HETATM   21  O   UNL     2     -13.254  10.027  70.760  1.00  0.00    -0.348 OA 
HETATM   22  O   UNL     2     -11.864  10.584  69.004  1.00  0.00    -0.227 OA 
ENDBRANCH  14  17
ENDBRANCH  11  14
ENDBRANCH   8  11
ENDBRANCH   3   8
BRANCH   7  23
HETATM   23  C   UNL     3     -10.195  11.612  64.292  1.00  0.00    -0.311 C  
HETATM   24  O   UNL     3      -9.657  12.093  63.043  1.00  0.00    -0.556 OA 
HETATM   25  H   UNL     3      -9.961  11.520  62.349  1.00  0.00     0.000 HD 
BRANCH  23  26
HETATM   26  C   UNL     3      -9.759  10.136  64.370  1.00  0.00    -0.277 C  
HETATM   27  O   UNL     3      -9.825   9.501  63.090  1.00  0.00    -0.330 OA 
HETATM   28  H   UNL     3      -9.555   8.591  63.139  1.00  0.00     0.000 HD 
BRANCH  26  29
HETATM   29  C   UNL     3      -8.398   9.803  65.019  1.00  0.00    -0.145 C  
HETATM   30  O   UNL     3      -7.290  10.069  64.143  1.00  0.00    -0.131 OA 
HETATM   31  H   UNL     3      -6.453   9.864  64.543  1.00  0.00     0.000 HD 
BRANCH  29  32
HETATM   32  C   UNL     3      -8.224   8.394  65.576  1.00  0.00    -0.140 C  
HETATM   33  C   UNL     3      -6.799   8.078  66.065  1.00  0.00    -0.057 C  
HETATM   34  O   UNL     3      -8.545   7.408  64.502  1.00  0.00    -0.365 OA 
HETATM   35  O   UNL     3      -6.084   7.506  65.141  1.00  0.00    -0.037 OA 
HETATM   36  O   UNL     3      -6.617   8.037  67.297  1.00  0.00    -0.055 OA 
HETATM   37  H   UNL     3      -8.436   6.530  64.849  1.00  0.00     0.000 HD 
ENDBRANCH  29  32
ENDBRANCH  26  29
ENDBRANCH  23  26
ENDBRANCH   7  23
TORSDOF 8
ENDMDL
MODEL      281
REMARK 921   NORMALIZED FREE ENERGY PREDICTED BY IDOCK:   -4.20 KCAL/MOL
REMARK 922        TOTAL FREE ENERGY PREDICTED BY IDOCK:   -8.23 KCAL/MOL
REMARK 923 INTER-LIGAND FREE ENERGY PREDICTED BY IDOCK:   -6.23 KCAL/MOL
REMARK 924 INTRA-LIGAND FREE ENERGY PREDICTED BY IDOCK:   -2.00 KCAL/MOL
REMARK 927      BINDING AFFINITY PREDICTED BY RF-SCORE:    0.00 PKD
ROOT
HETATM    1 CU   UNL     1     -10.272  11.556  69.156  1.00  0.00    -0.184 Cu 
HETATM    2  O   UNL     2     -12.018  14.569  74.046  1.00  0.00    -0.368 OA 
HETATM    3  C   UNL     2     -12.336  15.226  72.811  1.00  0.00    -0.396 C  
HETATM    4  H   UNL     2     -12.141  15.206  74.741  1.00  0.00     0.000 HD 
HETATM    5  O   UNL     3      -6.878  10.987  62.711  1.00  0.00    -0.357 OA 
HETATM    6  H   UNL     3      -6.496  11.855  62.770  1.00  0.00     0.000 HD 
HETATM    7  C   UNL     3      -7.328  10.595  64.024  1.00  0.00     0.238 C  
ENDROOT
BRANCH   3   8
HETATM    8  C   UNL     2     -12.139  14.203  71.695  1.00  0.00    -0.107 C  
HETATM    9  O   UNL     2     -12.539  12.898  72.157  1.00  0.00    -0.014 OA 
HETATM   10  H   UNL     2     -12.416  12.262  71.462  1.00  0.00     0.000 HD 
BRANCH   8  11
HETATM   11  C   UNL     2     -12.893  14.592  70.406  1.00  0.00    -0.262 C  
HETATM   12  O   UNL     2     -13.393  15.918  70.595  1.00  0.00    -0.736 OA 
HETATM   13  H   UNL     2     -13.857  16.157  69.802  1.00  0.00     0.000 HD 
BRANCH  11  14
HETATM   14  C   UNL     2     -11.910  14.527  69.220  1.00  0.00    -0.323 C  
HETATM   15  H   UNL     2     -11.490  13.217  67.798  1.00  0.00     0.000 HD 
HETATM   16  O   UNL     2     -12.095  13.257  68.529  1.00  0.00    -0.341 OA 
BRANCH  14  17
HETATM   17  C   UNL     2     -10.433  14.782  69.523  1.00  0.00    -0.152 C  
HETATM   18  C   UNL     2     -10.058  16.224  69.096  1.00  0.00    -0.264 C  
HETATM   19  H   UNL     2      -8.715  13.910  69.119  1.00  0.00     0.000 HD 
HETATM   20  O   UNL     2      -9.633  13.751  68.931  1.00  0.00    -0.092 OA 
HETATM   21  O   UNL     2     -10.900  17.069  69.541  1.00  0.00    -0.264 OA 
HETATM   22  O   UNL     2      -9.006  16.345  68.439  1.00  0.00    -0.200 OA 
ENDBRANCH  14  17
ENDBRANCH  11  14
ENDBRANCH   8  11
ENDBRANCH   3   8
BRANCH   7  23
HETATM   23  C   UNL     3      -7.946   9.193  63.929  1.00  0.00    -0.142 C  
HETATM   24  O   UNL     3      -6.939   8.292  63.423  1.00  0.00    -0.083 OA 
HETATM   25  H   UNL     3      -7.321   7.423  63.364  1.00  0.00     0.000 HD 
BRANCH  23  26
HETATM   26  C   UNL     3      -8.424   8.555  65.247  1.00  0.00    -0.174 C  
HETATM   27  O   UNL     3      -9.776   8.913  65.544  1.00  0.00    -0.458 OA 
HETATM   28  H   UNL     3     -10.070   8.519  66.357  1.00  0.00     0.000 HD 
BRANCH  26  29
HETATM   29  C   UNL     3      -8.265   7.029  65.428  1.00  0.00    -0.133 C  
HETATM   30  O   UNL     3      -8.766   6.286  64.305  1.00  0.00    -0.336 OA 
HETATM   31  H   UNL     3      -8.668   5.348  64.417  1.00  0.00     0.000 HD 
BRANCH  29  32
HETATM   32  C   UNL     3      -8.856   6.417  66.694  1.00  0.00    -0.130 C  
HETATM   33  C   UNL     3     -10.319   5.961  66.552  1.00  0.00    -0.179 C  
HETATM   34  O   UNL     3      -8.822   7.438  67.784  1.00  0.00    -0.128 OA 
HETATM   35  O   UNL     3     -11.155   6.880  66.935  1.00  0.00    -0.379 OA 
HETATM   36  O   UNL     3     -10.526   4.734  66.476  1.00  0.00    -0.268 OA 
HETATM   37  H   UNL     3      -9.190   7.057  68.572  1.00  0.00     0.000 HD 
ENDBRANCH  29  32
ENDBRANCH  26  29
ENDBRANCH  23  26
ENDBRANCH   7  23
TORSDOF 8
ENDMDL
MODEL      282
REMARK 921   NORMALIZED FREE ENERGY PREDICTED BY IDOCK:   -4.14 KCAL/MOL
REMARK 922        TOTAL FREE ENERGY PREDICTED BY IDOCK:   -8.15 KCAL/MOL
REMARK 923 INTER-LIGAND FREE ENERGY PREDICTED BY IDOCK:   -6.76 KCAL/MOL
REMARK 924 INTRA-LIGAND FREE ENERGY PREDICTED BY IDOCK:   -1.39 KCAL/MOL
REMARK 927      BINDING AFFINITY PREDICTED BY RF-SCORE:    0.00 PKD
ROOT
HETATM    1 CU   UNL     1      -7.814  13.588  66.757  1.00  0.00    -0.239 Cu 
HETATM    2  O   UNL     2      -7.570   7.602  67.136  1.00  0.00    -0.099 OA 
HETATM    3  C   UNL     2      -8.021   8.089  65.863  1.00  0.00    -0.107 C  
HETATM    4  H   UNL     2      -7.764   6.672  67.164  1.00  0.00     0.000 HD 
HETATM    5  O   UNL     3     -11.178  19.896  65.246  1.00  0.00    -0.301 OA 
HETATM    6  H   UNL     3     -12.017  19.478  65.088  1.00  0.00     0.000 HD 
HETATM    7  C   UNL     3     -10.331  18.970  65.956  1.00  0.00    -0.446 C  
ENDROOT
BRANCH   3   8
HETATM    8  C   UNL     2      -7.709   9.583  65.819  1.00  0.00    -0.100 C  
HETATM    9  O   UNL     2      -6.497   9.803  65.072  1.00  0.00    -0.085 OA 
HETATM   10  H   UNL     2      -6.303  10.733  65.044  1.00  0.00     0.000 HD 
BRANCH   8  11
HETATM   11  C   UNL     2      -8.877  10.405  65.237  1.00  0.00    -0.186 C  
HETATM   12  O   UNL     2      -9.813   9.476  64.685  1.00  0.00    -0.390 OA 
HETATM   13  H   UNL     2     -10.532   9.982  64.326  1.00  0.00     0.000 HD 
BRANCH  11  14
HETATM   14  C   UNL     2      -9.514  11.231  66.373  1.00  0.00    -0.200 C  
HETATM   15  H   UNL     2      -9.786  10.990  68.318  1.00  0.00     0.000 HD 
HETATM   16  O   UNL     2      -9.394  10.482  67.618  1.00  0.00    -0.148 OA 
BRANCH  14  17
HETATM   17  C   UNL     2     -10.945  11.725  66.159  1.00  0.00    -0.307 C  
HETATM   18  C   UNL     2     -10.962  13.275  66.149  1.00  0.00    -0.279 C  
HETATM   19  H   UNL     2     -12.704  11.426  66.991  1.00  0.00     0.000 HD 
HETATM   20  O   UNL     2     -11.814  11.119  67.124  1.00  0.00    -0.466 OA 
HETATM   21  O   UNL     2     -10.062  13.739  65.377  1.00  0.00    -0.313 OA 
HETATM   22  O   UNL     2     -11.846  13.818  66.841  1.00  0.00    -0.366 OA 
ENDBRANCH  14  17
ENDBRANCH  11  14
ENDBRANCH   8  11
ENDBRANCH   3   8
BRANCH   7  23
HETATM   23  C   UNL     3      -8.977  19.644  66.211  1.00  0.00    -0.375 C  
HETATM   24  O   UNL     3      -9.224  20.967  66.731  1.00  0.00    -0.616 OA 
HETATM   25  H   UNL     3      -8.385  21.385  66.889  1.00  0.00     0.000 HD 
BRANCH  23  26
HETATM   26  C   UNL     3      -8.053  18.977  67.249  1.00  0.00    -0.262 C  
HETATM   27  O   UNL     3      -8.432  19.318  68.585  1.00  0.00    -0.355 OA 
HETATM   28  H   UNL     3      -7.863  18.906  69.224  1.00  0.00     0.000 HD 
BRANCH  26  29
HETATM   29  C   UNL     3      -7.837  17.450  67.170  1.00  0.00    -0.202 C  
HETATM   30  O   UNL     3      -8.898  16.710  67.795  1.00  0.00    -0.202 OA 
HETATM   31  H   UNL     3      -8.764  15.770  67.745  1.00  0.00     0.000 HD 
BRANCH  29  32
HETATM   32  C   UNL     3      -6.514  16.910  67.704  1.00  0.00    -0.145 C  
HETATM   33  C   UNL     3      -6.622  16.211  69.070  1.00  0.00    -0.160 C  
HETATM   34  O   UNL     3      -5.562  18.047  67.870  1.00  0.00    -0.151 OA 
HETATM   35  O   UNL     3      -6.373  17.024  70.054  1.00  0.00    -0.161 OA 
HETATM   36  O   UNL     3      -6.546  14.966  69.079  1.00  0.00    -0.099 OA 
HETATM   37  H   UNL     3      -4.738  17.711  68.203  1.00  0.00     0.000 HD 
ENDBRANCH  29  32
ENDBRANCH  26  29
ENDBRANCH  23  26
ENDBRANCH   7  23
TORSDOF 8
ENDMDL
MODEL      283
REMARK 921   NORMALIZED FREE ENERGY PREDICTED BY IDOCK:   -4.13 KCAL/MOL
REMARK 922        TOTAL FREE ENERGY PREDICTED BY IDOCK:   -8.14 KCAL/MOL
REMARK 923 INTER-LIGAND FREE ENERGY PREDICTED BY IDOCK:   -7.20 KCAL/MOL
REMARK 924 INTRA-LIGAND FREE ENERGY PREDICTED BY IDOCK:   -0.94 KCAL/MOL
REMARK 927      BINDING AFFINITY PREDICTED BY RF-SCORE:    0.00 PKD
ROOT
HETATM    1 CU   UNL     1      -8.174  12.784  67.949  1.00  0.00    -0.112 Cu 
HETATM    2  O   UNL     2      -6.100  18.120  66.142  1.00  0.00    -0.170 OA 
HETATM    3  C   UNL     2      -7.485  17.898  65.838  1.00  0.00    -0.177 C  
HETATM    4  H   UNL     2      -5.823  18.880  65.643  1.00  0.00     0.000 HD 
HETATM    5  O   UNL     3     -11.624   6.430  66.895  1.00  0.00    -0.677 OA 
HETATM    6  H   UNL     3     -11.711   6.566  65.958  1.00  0.00     0.000 HD 
HETATM    7  C   UNL     3     -10.627   7.342  67.399  1.00  0.00    -0.301 C  
ENDROOT
BRANCH   3   8
HETATM    8  C   UNL     2      -7.931  16.678  66.640  1.00  0.00    -0.280 C  
HETATM    9  O   UNL     2      -6.810  16.144  67.372  1.00  0.00    -0.148 OA 
HETATM   10  H   UNL     2      -7.088  15.384  67.871  1.00  0.00     0.000 HD 
BRANCH   8  11
HETATM   11  C   UNL     2      -9.109  16.997  67.583  1.00  0.00    -0.229 C  
HETATM   12  O   UNL     2      -9.136  18.416  67.757  1.00  0.00    -0.271 OA 
HETATM   13  H   UNL     2      -9.862  18.613  68.337  1.00  0.00     0.000 HD 
BRANCH  11  14
HETATM   14  C   UNL     2     -10.412  16.487  66.935  1.00  0.00    -0.282 C  
HETATM   15  H   UNL     2     -12.087  15.658  67.586  1.00  0.00     0.000 HD 
HETATM   16  O   UNL     2     -11.284  15.972  67.985  1.00  0.00    -0.344 OA 
BRANCH  14  17
HETATM   17  C   UNL     2     -10.276  15.485  65.788  1.00  0.00    -0.366 C  
HETATM   18  C   UNL     2     -11.289  15.840  64.669  1.00  0.00    -0.337 C  
HETATM   19  H   UNL     2     -10.299  13.528  65.584  1.00  0.00     0.000 HD 
HETATM   20  O   UNL     2     -10.383  14.150  66.297  1.00  0.00    -0.279 OA 
HETATM   21  O   UNL     2     -11.234  17.077  64.374  1.00  0.00    -1.167 OA 
HETATM   22  O   UNL     2     -11.955  14.890  64.212  1.00  0.00    -0.431 OA 
ENDBRANCH  14  17
ENDBRANCH  11  14
ENDBRANCH   8  11
ENDBRANCH   3   8
BRANCH   7  23
HETATM   23  C   UNL     3     -10.486   7.122  68.911  1.00  0.00    -0.207 C  
HETATM   24  O   UNL     3     -11.771   6.724  69.430  1.00  0.00    -0.619 OA 
HETATM   25  H   UNL     3     -11.684   6.588  70.367  1.00  0.00     0.000 HD 
BRANCH  23  26
HETATM   26  C   UNL     3      -9.515   6.014  69.364  1.00  0.00    -0.134 C  
HETATM   27  O   UNL     3     -10.114   5.159  70.341  1.00  0.00    -0.223 OA 
HETATM   28  H   UNL     3      -9.515   4.476  70.620  1.00  0.00     0.000 HD 
BRANCH  26  29
HETATM   29  C   UNL     3      -8.840   5.139  68.286  1.00  0.00    -0.102 C  
HETATM   30  O   UNL     3      -9.149   3.744  68.437  1.00  0.00    -0.118 OA 
HETATM   31  H   UNL     3      -8.734   3.205  67.773  1.00  0.00     0.000 HD 
BRANCH  29  32
HETATM   32  C   UNL     3      -7.328   5.269  68.136  1.00  0.00    -0.072 C  
HETATM   33  C   UNL     3      -6.563   3.940  68.264  1.00  0.00    -0.045 C  
HETATM   34  O   UNL     3      -6.814   6.172  69.207  1.00  0.00    -0.057 OA 
HETATM   35  O   UNL     3      -6.150   3.731  69.479  1.00  0.00    -0.025 OA 
HETATM   36  O   UNL     3      -6.111   3.441  67.214  1.00  0.00    -0.027 OA 
HETATM   37  H   UNL     3      -5.872   6.253  69.114  1.00  0.00     0.000 HD 
ENDBRANCH  29  32
ENDBRANCH  26  29
ENDBRANCH  23  26
ENDBRANCH   7  23
TORSDOF 8
ENDMDL
MODEL      284
REMARK 921   NORMALIZED FREE ENERGY PREDICTED BY IDOCK:   -4.12 KCAL/MOL
REMARK 922        TOTAL FREE ENERGY PREDICTED BY IDOCK:   -8.12 KCAL/MOL
REMARK 923 INTER-LIGAND FREE ENERGY PREDICTED BY IDOCK:   -8.22 KCAL/MOL
REMARK 924 INTRA-LIGAND FREE ENERGY PREDICTED BY IDOCK:    0.10 KCAL/MOL
REMARK 927      BINDING AFFINITY PREDICTED BY RF-SCORE:    0.00 PKD
ROOT
HETATM    1 CU   UNL     1     -11.078  10.017  66.290  1.00  0.00    -0.154 Cu 
HETATM    2  O   UNL     2     -10.397   4.112  67.130  1.00  0.00    -0.131 OA 
HETATM    3  C   UNL     2      -9.810   4.919  68.160  1.00  0.00    -0.138 C  
HETATM    4  H   UNL     2     -10.062   3.230  67.241  1.00  0.00     0.000 HD 
HETATM    5  O   UNL     3      -8.582  16.867  65.811  1.00  0.00    -0.505 OA 
HETATM    6  H   UNL     3      -7.671  16.600  65.865  1.00  0.00     0.000 HD 
HETATM    7  C   UNL     3      -9.380  15.709  65.489  1.00  0.00    -0.037 C  
ENDROOT
BRANCH   3   8
HETATM    8  C   UNL     2     -10.350   6.336  67.982  1.00  0.00    -0.192 C  
HETATM    9  O   UNL     2     -11.654   6.285  67.372  1.00  0.00    -0.606 OA 
HETATM   10  H   UNL     2     -11.990   7.167  67.261  1.00  0.00     0.000 HD 
BRANCH   8  11
HETATM   11  C   UNL     2     -10.388   7.118  69.310  1.00  0.00    -0.203 C  
HETATM   12  O   UNL     2     -11.250   8.242  69.112  1.00  0.00    -0.423 OA 
HETATM   13  H   UNL     2     -11.273   8.724  69.930  1.00  0.00     0.000 HD 
BRANCH  11  14
HETATM   14  C   UNL     2     -10.926   6.188  70.416  1.00  0.00    -0.337 C  
HETATM   15  H   UNL     2     -12.714   5.697  71.108  1.00  0.00     0.000 HD 
HETATM   16  O   UNL     2     -12.382   6.270  70.426  1.00  0.00     0.051 OA 
BRANCH  14  17
HETATM   17  C   UNL     2     -10.352   6.371  71.822  1.00  0.00    -0.203 C  
HETATM   18  C   UNL     2     -10.802   7.742  72.389  1.00  0.00    -0.303 C  
HETATM   19  H   UNL     2      -8.578   6.279  72.670  1.00  0.00     0.000 HD 
HETATM   20  O   UNL     2      -8.935   6.165  71.796  1.00  0.00    -0.141 OA 
HETATM   21  O   UNL     2     -12.055   7.912  72.243  1.00  0.00    -0.321 OA 
HETATM   22  O   UNL     2      -9.911   8.433  72.922  1.00  0.00    -0.262 OA 
ENDBRANCH  14  17
ENDBRANCH  11  14
ENDBRANCH   8  11
ENDBRANCH   3   8
BRANCH   7  23
HETATM   23  C   UNL     3     -10.850  16.139  65.401  1.00  0.00    -0.307 C  
HETATM   24  O   UNL     3     -11.073  16.716  64.099  1.00  0.00    -1.338 OA 
HETATM   25  H   UNL     3     -11.984  16.982  64.044  1.00  0.00     0.000 HD 
BRANCH  23  26
HETATM   26  C   UNL     3     -11.907  15.025  65.528  1.00  0.00    -0.071 C  
HETATM   27  O   UNL     3     -11.741  14.027  64.518  1.00  0.00    -0.381 OA 
HETATM   28  H   UNL     3     -12.393  13.340  64.596  1.00  0.00     0.000 HD 
BRANCH  26  29
HETATM   29  C   UNL     3     -12.081  14.324  66.893  1.00  0.00    -0.409 C  
HETATM   30  O   UNL     3     -11.200  14.851  67.898  1.00  0.00    -0.290 OA 
HETATM   31  H   UNL     3     -11.308  14.419  68.738  1.00  0.00     0.000 HD 
BRANCH  29  32
HETATM   32  C   UNL     3     -11.954  12.804  66.912  1.00  0.00    -0.310 C  
HETATM   33  C   UNL     3     -10.579  12.290  67.370  1.00  0.00    -0.222 C  
HETATM   34  O   UNL     3     -12.175  12.285  65.529  1.00  0.00    -0.577 OA 
HETATM   35  O   UNL     3      -9.782  12.070  66.366  1.00  0.00    -0.214 OA 
HETATM   36  O   UNL     3     -10.508  11.799  68.514  1.00  0.00    -0.203 OA 
HETATM   37  H   UNL     3     -12.096  11.339  65.541  1.00  0.00     0.000 HD 
ENDBRANCH  29  32
ENDBRANCH  26  29
ENDBRANCH  23  26
ENDBRANCH   7  23
TORSDOF 8
ENDMDL
MODEL      285
REMARK 921   NORMALIZED FREE ENERGY PREDICTED BY IDOCK:   -4.09 KCAL/MOL
REMARK 922        TOTAL FREE ENERGY PREDICTED BY IDOCK:   -8.08 KCAL/MOL
REMARK 923 INTER-LIGAND FREE ENERGY PREDICTED BY IDOCK:   -7.24 KCAL/MOL
REMARK 924 INTRA-LIGAND FREE ENERGY PREDICTED BY IDOCK:   -0.84 KCAL/MOL
REMARK 927      BINDING AFFINITY PREDICTED BY RF-SCORE:    0.00 PKD
ROOT
HETATM    1 CU   UNL     1     -10.765   7.592  65.680  1.00  0.00    -0.257 Cu 
HETATM    2  O   UNL     2     -11.097   1.823  64.056  1.00  0.00    -0.372 OA 
HETATM    3  C   UNL     2     -10.745   2.711  62.986  1.00  0.00    -0.209 C  
HETATM    4  H   UNL     2     -11.324   0.988  63.663  1.00  0.00     0.000 HD 
HETATM    5  O   UNL     3     -12.391  14.678  64.949  1.00  0.00    -0.394 OA 
HETATM    6  H   UNL     3     -13.025  14.521  64.259  1.00  0.00     0.000 HD 
HETATM    7  C   UNL     3     -12.127  13.430  65.621  1.00  0.00    -0.434 C  
ENDROOT
BRANCH   3   8
HETATM    8  C   UNL     2     -10.380   4.052  63.618  1.00  0.00    -0.128 C  
HETATM    9  O   UNL     2     -11.226   4.297  64.758  1.00  0.00    -0.838 OA 
HETATM   10  H   UNL     2     -10.998   5.132  65.151  1.00  0.00     0.000 HD 
BRANCH   8  11
HETATM   11  C   UNL     2      -8.889   4.128  64.005  1.00  0.00    -0.126 C  
HETATM   12  O   UNL     2      -8.375   5.348  63.464  1.00  0.00    -0.123 OA 
HETATM   13  H   UNL     2      -7.457   5.395  63.702  1.00  0.00     0.000 HD 
BRANCH  11  14
HETATM   14  C   UNL     2      -8.776   4.107  65.543  1.00  0.00    -0.120 C  
HETATM   15  H   UNL     2      -9.540   3.012  67.004  1.00  0.00     0.000 HD 
HETATM   16  O   UNL     2      -9.609   3.026  66.057  1.00  0.00    -0.058 OA 
BRANCH  14  17
HETATM   17  C   UNL     2      -9.053   5.417  66.281  1.00  0.00    -0.143 C  
HETATM   18  C   UNL     2      -7.773   5.871  67.027  1.00  0.00    -0.101 C  
HETATM   19  H   UNL     2     -10.385   6.084  67.568  1.00  0.00     0.000 HD 
HETATM   20  O   UNL     2     -10.213   5.270  67.109  1.00  0.00    -0.189 OA 
HETATM   21  O   UNL     2      -6.757   5.835  66.261  1.00  0.00    -0.054 OA 
HETATM   22  O   UNL     2      -7.926   6.229  68.212  1.00  0.00    -0.106 OA 
ENDBRANCH  14  17
ENDBRANCH  11  14
ENDBRANCH   8  11
ENDBRANCH   3   8
BRANCH   7  23
HETATM   23  C   UNL     3     -11.102  13.683  66.735  1.00  0.00    -0.307 C  
HETATM   24  O   UNL     3      -9.805  13.842  66.125  1.00  0.00    -0.294 OA 
HETATM   25  H   UNL     3      -9.170  13.999  66.815  1.00  0.00     0.000 HD 
BRANCH  23  26
HETATM   26  C   UNL     3     -11.300  14.954  67.584  1.00  0.00    -0.337 C  
HETATM   27  O   UNL     3     -12.216  14.730  68.659  1.00  0.00    -0.556 OA 
HETATM   28  H   UNL     3     -12.337  15.514  69.182  1.00  0.00     0.000 HD 
BRANCH  26  29
HETATM   29  C   UNL     3     -10.051  15.673  68.139  1.00  0.00    -0.222 C  
HETATM   30  O   UNL     3     -10.273  16.239  69.440  1.00  0.00    -0.245 OA 
HETATM   31  H   UNL     3      -9.505  16.681  69.781  1.00  0.00     0.000 HD 
BRANCH  29  32
HETATM   32  C   UNL     3      -9.427  16.752  67.261  1.00  0.00    -0.230 C  
HETATM   33  C   UNL     3      -9.508  18.171  67.850  1.00  0.00    -0.281 C  
HETATM   34  O   UNL     3     -10.144  16.782  65.951  1.00  0.00    -0.405 OA 
HETATM   35  O   UNL     3     -10.554  18.816  67.425  1.00  0.00    -0.411 OA 
HETATM   36  O   UNL     3      -8.455  18.656  68.309  1.00  0.00    -0.304 OA 
HETATM   37  H   UNL     3      -9.755  17.455  65.404  1.00  0.00     0.000 HD 
ENDBRANCH  29  32
ENDBRANCH  26  29
ENDBRANCH  23  26
ENDBRANCH   7  23
TORSDOF 8
ENDMDL
MODEL      286
REMARK 921   NORMALIZED FREE ENERGY PREDICTED BY IDOCK:   -4.09 KCAL/MOL
REMARK 922        TOTAL FREE ENERGY PREDICTED BY IDOCK:   -8.08 KCAL/MOL
REMARK 923 INTER-LIGAND FREE ENERGY PREDICTED BY IDOCK:   -7.46 KCAL/MOL
REMARK 924 INTRA-LIGAND FREE ENERGY PREDICTED BY IDOCK:   -0.61 KCAL/MOL
REMARK 927      BINDING AFFINITY PREDICTED BY RF-SCORE:    0.00 PKD
ROOT
HETATM    1 CU   UNL     1     -11.772   9.907  69.781  1.00  0.00    -0.233 Cu 
HETATM    2  O   UNL     2     -11.272   5.385  73.697  1.00  0.00    -0.448 OA 
HETATM    3  C   UNL     2     -10.382   5.287  72.576  1.00  0.00    -0.201 C  
HETATM    4  H   UNL     2     -11.264   4.541  74.134  1.00  0.00     0.000 HD 
HETATM    5  O   UNL     3     -12.624  12.653  63.064  1.00  0.00    -0.673 OA 
HETATM    6  H   UNL     3     -12.788  11.802  62.674  1.00  0.00     0.000 HD 
HETATM    7  C   UNL     3     -12.787  12.541  64.492  1.00  0.00    -0.262 C  
ENDROOT
BRANCH   3   8
HETATM    8  C   UNL     2     -10.393   6.643  71.875  1.00  0.00    -0.198 C  
HETATM    9  O   UNL     2      -9.628   7.592  72.643  1.00  0.00    -0.153 OA 
HETATM   10  H   UNL     2      -9.636   8.436  72.206  1.00  0.00     0.000 HD 
BRANCH   8  11
HETATM   11  C   UNL     2      -9.875   6.555  70.425  1.00  0.00    -0.175 C  
HETATM   12  O   UNL     2      -8.851   7.543  70.283  1.00  0.00    -0.144 OA 
HETATM   13  H   UNL     2      -8.532   7.489  69.391  1.00  0.00     0.000 HD 
BRANCH  11  14
HETATM   14  C   UNL     2      -9.321   5.136  70.183  1.00  0.00    -0.154 C  
HETATM   15  H   UNL     2      -7.549   4.266  70.317  1.00  0.00     0.000 HD 
HETATM   16  O   UNL     2      -7.890   5.140  70.466  1.00  0.00    -0.078 OA 
BRANCH  14  17
HETATM   17  C   UNL     2      -9.615   4.495  68.826  1.00  0.00    -0.159 C  
HETATM   18  C   UNL     2      -9.149   3.016  68.843  1.00  0.00    -0.149 C  
HETATM   19  H   UNL     2      -9.231   4.894  66.938  1.00  0.00     0.000 HD 
HETATM   20  O   UNL     2      -9.048   5.293  67.781  1.00  0.00    -0.109 OA 
HETATM   21  O   UNL     2      -9.573   2.411  69.880  1.00  0.00    -0.092 OA 
HETATM   22  O   UNL     2      -8.486   2.639  67.856  1.00  0.00    -0.077 OA 
ENDBRANCH  14  17
ENDBRANCH  11  14
ENDBRANCH   8  11
ENDBRANCH   3   8
BRANCH   7  23
HETATM   23  C   UNL     3     -12.523  13.915  65.123  1.00  0.00    -0.453 C  
HETATM   24  O   UNL     3     -11.997  13.707  66.450  1.00  0.00    -0.380 OA 
HETATM   25  H   UNL     3     -11.833  14.558  66.840  1.00  0.00     0.000 HD 
BRANCH  23  26
HETATM   26  C   UNL     3     -11.485  14.812  64.421  1.00  0.00    -0.253 C  
HETATM   27  O   UNL     3     -12.055  16.061  64.022  1.00  0.00    -1.080 OA 
HETATM   28  H   UNL     3     -11.415  16.614  63.589  1.00  0.00     0.000 HD 
BRANCH  26  29
HETATM   29  C   UNL     3     -10.143  15.086  65.135  1.00  0.00    -0.315 C  
HETATM   30  O   UNL     3      -9.678  13.954  65.887  1.00  0.00    -0.406 OA 
HETATM   31  H   UNL     3      -8.853  14.122  66.326  1.00  0.00     0.000 HD 
BRANCH  29  32
HETATM   32  C   UNL     3     -10.081  16.308  66.046  1.00  0.00    -0.356 C  
HETATM   33  C   UNL     3      -8.702  16.553  66.683  1.00  0.00    -0.251 C  
HETATM   34  O   UNL     3     -11.052  16.124  67.166  1.00  0.00    -0.206 OA 
HETATM   35  O   UNL     3      -8.607  16.010  67.861  1.00  0.00    -0.162 OA 
HETATM   36  O   UNL     3      -8.025  17.494  66.226  1.00  0.00    -0.295 OA 
HETATM   37  H   UNL     3     -11.013  16.885  67.733  1.00  0.00     0.000 HD 
ENDBRANCH  29  32
ENDBRANCH  26  29
ENDBRANCH  23  26
ENDBRANCH   7  23
TORSDOF 8
ENDMDL
MODEL      287
REMARK 921   NORMALIZED FREE ENERGY PREDICTED BY IDOCK:   -4.08 KCAL/MOL
REMARK 922        TOTAL FREE ENERGY PREDICTED BY IDOCK:   -8.07 KCAL/MOL
REMARK 923 INTER-LIGAND FREE ENERGY PREDICTED BY IDOCK:   -6.29 KCAL/MOL
REMARK 924 INTRA-LIGAND FREE ENERGY PREDICTED BY IDOCK:   -1.78 KCAL/MOL
REMARK 927      BINDING AFFINITY PREDICTED BY RF-SCORE:    0.00 PKD
ROOT
HETATM    1 CU   UNL     1      -9.702   8.557  66.830  1.00  0.00    -0.139 Cu 
HETATM    2  O   UNL     2      -9.766   2.554  66.837  1.00  0.00    -0.391 OA 
HETATM    3  C   UNL     2      -9.372   3.133  65.585  1.00  0.00    -0.112 C  
HETATM    4  H   UNL     2      -9.944   1.635  66.676  1.00  0.00     0.000 HD 
HETATM    5  O   UNL     3     -11.479  15.095  64.096  1.00  0.00    -0.660 OA 
HETATM    6  H   UNL     3     -12.063  14.728  63.442  1.00  0.00     0.000 HD 
HETATM    7  C   UNL     3     -11.223  14.091  65.098  1.00  0.00    -0.329 C  
ENDROOT
BRANCH   3   8
HETATM    8  C   UNL     2      -9.086   4.610  65.842  1.00  0.00    -0.135 C  
HETATM    9  O   UNL     2      -8.293   5.145  64.765  1.00  0.00    -0.130 OA 
HETATM   10  H   UNL     2      -8.114   6.064  64.926  1.00  0.00     0.000 HD 
BRANCH   8  11
HETATM   11  C   UNL     2     -10.378   5.429  66.041  1.00  0.00    -0.069 C  
HETATM   12  O   UNL     2     -11.459   4.635  65.548  1.00  0.00    -0.924 OA 
HETATM   13  H   UNL     2     -12.255   5.139  65.670  1.00  0.00     0.000 HD 
BRANCH  11  14
HETATM   14  C   UNL     2     -10.545   5.731  67.544  1.00  0.00    -0.253 C  
HETATM   15  H   UNL     2     -11.505   7.088  68.618  1.00  0.00     0.000 HD 
HETATM   16  O   UNL     2     -11.402   6.902  67.692  1.00  0.00    -0.149 OA 
BRANCH  14  17
HETATM   17  C   UNL     2      -9.268   5.872  68.374  1.00  0.00    -0.117 C  
HETATM   18  C   UNL     2      -9.387   5.009  69.656  1.00  0.00    -0.127 C  
HETATM   19  H   UNL     2      -8.199   7.346  69.121  1.00  0.00     0.000 HD 
HETATM   20  O   UNL     2      -8.992   7.258  68.605  1.00  0.00    -0.129 OA 
HETATM   21  O   UNL     2      -9.779   3.829  69.382  1.00  0.00    -0.181 OA 
HETATM   22  O   UNL     2      -9.057   5.563  70.723  1.00  0.00    -0.142 OA 
ENDBRANCH  14  17
ENDBRANCH  11  14
ENDBRANCH   8  11
ENDBRANCH   3   8
BRANCH   7  23
HETATM   23  C   UNL     3     -10.279  14.683  66.153  1.00  0.00    -0.301 C  
HETATM   24  O   UNL     3     -11.080  15.181  67.244  1.00  0.00    -0.321 OA 
HETATM   25  H   UNL     3     -10.496  15.548  67.898  1.00  0.00     0.000 HD 
BRANCH  23  26
HETATM   26  C   UNL     3      -9.274  13.715  66.807  1.00  0.00    -0.241 C  
HETATM   27  O   UNL     3      -9.030  12.575  65.981  1.00  0.00    -0.423 OA 
HETATM   28  H   UNL     3      -8.410  11.978  66.385  1.00  0.00     0.000 HD 
BRANCH  26  29
HETATM   29  C   UNL     3      -7.919  14.276  67.293  1.00  0.00    -0.168 C  
HETATM   30  O   UNL     3      -7.409  15.305  66.431  1.00  0.00    -0.092 OA 
HETATM   31  H   UNL     3      -6.575  15.649  66.730  1.00  0.00     0.000 HD 
BRANCH  29  32
HETATM   32  C   UNL     3      -6.800  13.268  67.531  1.00  0.00    -0.146 C  
HETATM   33  C   UNL     3      -6.946  12.453  68.828  1.00  0.00    -0.094 C  
HETATM   34  O   UNL     3      -5.503  14.002  67.622  1.00  0.00    -0.306 OA 
HETATM   35  O   UNL     3      -6.299  12.994  69.818  1.00  0.00    -0.119 OA 
HETATM   36  O   UNL     3      -7.299  11.263  68.714  1.00  0.00    -0.094 OA 
HETATM   37  H   UNL     3      -4.805  13.375  67.770  1.00  0.00     0.000 HD 
ENDBRANCH  29  32
ENDBRANCH  26  29
ENDBRANCH  23  26
ENDBRANCH   7  23
TORSDOF 8
ENDMDL
MODEL      288
REMARK 921   NORMALIZED FREE ENERGY PREDICTED BY IDOCK:   -4.07 KCAL/MOL
REMARK 922        TOTAL FREE ENERGY PREDICTED BY IDOCK:   -8.05 KCAL/MOL
REMARK 923 INTER-LIGAND FREE ENERGY PREDICTED BY IDOCK:   -6.66 KCAL/MOL
REMARK 924 INTRA-LIGAND FREE ENERGY PREDICTED BY IDOCK:   -1.38 KCAL/MOL
REMARK 927      BINDING AFFINITY PREDICTED BY RF-SCORE:    0.00 PKD
ROOT
HETATM    1 CU   UNL     1      -9.731  10.609  67.313  1.00  0.00    -0.153 Cu 
HETATM    2  O   UNL     2     -12.643  13.904  63.227  1.00  0.00    -1.049 OA 
HETATM    3  C   UNL     2     -12.121  14.665  64.326  1.00  0.00    -0.415 C  
HETATM    4  H   UNL     2     -13.249  14.468  62.760  1.00  0.00     0.000 HD 
HETATM    5  O   UNL     3      -8.390   8.378  74.140  1.00  0.00    -0.266 OA 
HETATM    6  H   UNL     3      -9.128   8.854  74.503  1.00  0.00     0.000 HD 
HETATM    7  C   UNL     3      -8.566   8.279  72.712  1.00  0.00    -0.203 C  
ENDROOT
BRANCH   3   8
HETATM    8  C   UNL     2     -11.147  13.759  65.076  1.00  0.00    -0.346 C  
HETATM    9  O   UNL     2      -9.820  14.318  65.014  1.00  0.00    -0.555 OA 
HETATM   10  H   UNL     2      -9.214  13.754  65.480  1.00  0.00     0.000 HD 
BRANCH   8  11
HETATM   11  C   UNL     2     -11.581  13.517  66.536  1.00  0.00    -0.359 C  
HETATM   12  O   UNL     2     -11.735  12.106  66.701  1.00  0.00    -0.493 OA 
HETATM   13  H   UNL     2     -12.002  11.956  67.600  1.00  0.00     0.000 HD 
BRANCH  11  14
HETATM   14  C   UNL     2     -10.491  14.075  67.474  1.00  0.00    -0.252 C  
HETATM   15  H   UNL     2      -8.840  13.367  68.305  1.00  0.00     0.000 HD 
HETATM   16  O   UNL     2      -9.512  13.024  67.727  1.00  0.00    -0.195 OA 
BRANCH  14  17
HETATM   17  C   UNL     2     -10.957  14.722  68.778  1.00  0.00    -0.259 C  
HETATM   18  C   UNL     2     -11.977  13.791  69.482  1.00  0.00    -0.345 C  
HETATM   19  H   UNL     2     -11.723  16.450  69.327  1.00  0.00     0.000 HD 
HETATM   20  O   UNL     2     -11.433  16.048  68.517  1.00  0.00    -0.370 OA 
HETATM   21  O   UNL     2     -11.542  12.596  69.545  1.00  0.00    -0.287 OA 
HETATM   22  O   UNL     2     -13.017  14.335  69.902  1.00  0.00    -0.068 OA 
ENDBRANCH  14  17
ENDBRANCH  11  14
ENDBRANCH   8  11
ENDBRANCH   3   8
BRANCH   7  23
HETATM   23  C   UNL     3      -7.374   7.510  72.126  1.00  0.00    -0.069 C  
HETATM   24  O   UNL     3      -6.250   7.678  73.014  1.00  0.00    -0.057 OA 
HETATM   25  H   UNL     3      -5.512   7.202  72.651  1.00  0.00     0.000 HD 
BRANCH  23  26
HETATM   26  C   UNL     3      -7.538   5.985  71.979  1.00  0.00    -0.097 C  
HETATM   27  O   UNL     3      -7.938   5.378  73.210  1.00  0.00    -0.109 OA 
HETATM   28  H   UNL     3      -8.039   4.438  73.119  1.00  0.00     0.000 HD 
BRANCH  26  29
HETATM   29  C   UNL     3      -8.438   5.446  70.845  1.00  0.00    -0.119 C  
HETATM   30  O   UNL     3      -9.776   5.169  71.289  1.00  0.00    -0.155 OA 
HETATM   31  H   UNL     3     -10.329   4.837  70.592  1.00  0.00     0.000 HD 
BRANCH  29  32
HETATM   32  C   UNL     3      -7.936   4.222  70.086  1.00  0.00    -0.058 C  
HETATM   33  C   UNL     3      -9.027   3.471  69.304  1.00  0.00    -0.119 C  
HETATM   34  O   UNL     3      -7.354   3.254  71.062  1.00  0.00    -0.033 OA 
HETATM   35  O   UNL     3      -9.535   2.493  69.996  1.00  0.00    -0.127 OA 
HETATM   36  O   UNL     3      -9.032   3.604  68.065  1.00  0.00    -0.108 OA 
HETATM   37  H   UNL     3      -7.041   2.492  70.590  1.00  0.00     0.000 HD 
ENDBRANCH  29  32
ENDBRANCH  26  29
ENDBRANCH  23  26
ENDBRANCH   7  23
TORSDOF 8
ENDMDL
MODEL      289
REMARK 921   NORMALIZED FREE ENERGY PREDICTED BY IDOCK:   -4.06 KCAL/MOL
REMARK 922        TOTAL FREE ENERGY PREDICTED BY IDOCK:   -8.04 KCAL/MOL
REMARK 923 INTER-LIGAND FREE ENERGY PREDICTED BY IDOCK:   -7.12 KCAL/MOL
REMARK 924 INTRA-LIGAND FREE ENERGY PREDICTED BY IDOCK:   -0.92 KCAL/MOL
REMARK 927      BINDING AFFINITY PREDICTED BY RF-SCORE:    0.00 PKD
ROOT
HETATM    1 CU   UNL     1     -10.061  13.136  67.648  1.00  0.00    -0.198 Cu 
HETATM    2  O   UNL     2      -9.652   7.244  68.719  1.00  0.00    -0.142 OA 
HETATM    3  C   UNL     2     -10.692   7.900  69.457  1.00  0.00    -0.192 C  
HETATM    4  H   UNL     2      -9.535   6.384  69.105  1.00  0.00     0.000 HD 
HETATM    5  O   UNL     3     -10.426  20.132  69.723  1.00  0.00    -0.570 OA 
HETATM    6  H   UNL     3     -10.265  19.930  70.638  1.00  0.00     0.000 HD 
HETATM    7  C   UNL     3     -10.042  18.993  68.927  1.00  0.00    -0.331 C  
ENDROOT
BRANCH   3   8
HETATM    8  C   UNL     2     -10.880   9.282  68.836  1.00  0.00    -0.099 C  
HETATM    9  O   UNL     2     -10.919   9.166  67.400  1.00  0.00    -0.434 OA 
HETATM   10  H   UNL     2     -11.036  10.026  67.013  1.00  0.00     0.000 HD 
BRANCH   8  11
HETATM   11  C   UNL     2     -12.138   9.996  69.370  1.00  0.00     0.322 C  
HETATM   12  O   UNL     2     -12.302   9.597  70.733  1.00  0.00    -0.397 OA 
HETATM   13  H   UNL     2     -13.077  10.036  71.062  1.00  0.00     0.000 HD 
BRANCH  11  14
HETATM   14  C   UNL     2     -11.928  11.520  69.255  1.00  0.00    -0.330 C  
HETATM   15  H   UNL     2     -10.375  12.744  69.324  1.00  0.00     0.000 HD 
HETATM   16  O   UNL     2     -10.505  11.806  69.395  1.00  0.00    -0.030 OA 
BRANCH  14  17
HETATM   17  C   UNL     2     -12.764  12.411  70.174  1.00  0.00     0.261 C  
HETATM   18  C   UNL     2     -12.396  13.897  69.928  1.00  0.00    -0.300 C  
HETATM   19  H   UNL     2     -13.144  12.526  72.102  1.00  0.00     0.000 HD 
HETATM   20  O   UNL     2     -12.625  11.972  71.531  1.00  0.00    -0.279 OA 
HETATM   21  O   UNL     2     -12.400  14.172  68.685  1.00  0.00    -0.257 OA 
HETATM   22  O   UNL     2     -12.197  14.588  70.947  1.00  0.00    -0.296 OA 
ENDBRANCH  14  17
ENDBRANCH  11  14
ENDBRANCH   8  11
ENDBRANCH   3   8
BRANCH   7  23
HETATM   23  C   UNL     3     -10.301  19.319  67.451  1.00  0.00    -0.438 C  
HETATM   24  O   UNL     3      -9.795  20.644  67.187  1.00  0.00    -0.507 OA 
HETATM   25  H   UNL     3      -9.956  20.846  66.273  1.00  0.00     0.000 HD 
BRANCH  23  26
HETATM   26  C   UNL     3      -9.612  18.417  66.409  1.00  0.00    -0.310 C  
HETATM   27  O   UNL     3      -8.506  19.079  65.791  1.00  0.00    -0.428 OA 
HETATM   28  H   UNL     3      -8.081  18.522  65.149  1.00  0.00     0.000 HD 
BRANCH  26  29
HETATM   29  C   UNL     3      -9.166  17.002  66.838  1.00  0.00    -0.240 C  
HETATM   30  O   UNL     3      -7.762  16.934  67.137  1.00  0.00    -0.159 OA 
HETATM   31  H   UNL     3      -7.488  16.063  67.401  1.00  0.00     0.000 HD 
BRANCH  29  32
HETATM   32  C   UNL     3      -9.497  15.855  65.890  1.00  0.00    -0.337 C  
HETATM   33  C   UNL     3     -11.004  15.600  65.706  1.00  0.00    -0.248 C  
HETATM   34  O   UNL     3      -8.906  14.595  66.432  1.00  0.00    -0.443 OA 
HETATM   35  O   UNL     3     -11.447  14.690  66.523  1.00  0.00    -0.349 OA 
HETATM   36  O   UNL     3     -11.513  15.962  64.627  1.00  0.00    -0.384 OA 
HETATM   37  H   UNL     3      -9.112  13.880  65.841  1.00  0.00     0.000 HD 
ENDBRANCH  29  32
ENDBRANCH  26  29
ENDBRANCH  23  26
ENDBRANCH   7  23
TORSDOF 8
ENDMDL
MODEL      290
REMARK 921   NORMALIZED FREE ENERGY PREDICTED BY IDOCK:   -4.05 KCAL/MOL
REMARK 922        TOTAL FREE ENERGY PREDICTED BY IDOCK:   -8.02 KCAL/MOL
REMARK 923 INTER-LIGAND FREE ENERGY PREDICTED BY IDOCK:   -5.66 KCAL/MOL
REMARK 924 INTRA-LIGAND FREE ENERGY PREDICTED BY IDOCK:   -2.36 KCAL/MOL
REMARK 927      BINDING AFFINITY PREDICTED BY RF-SCORE:    0.00 PKD
ROOT
HETATM    1 CU   UNL     1      -9.866   8.879  66.189  1.00  0.00    -0.167 Cu 
HETATM    2  O   UNL     2     -11.289  14.539  67.597  1.00  0.00    -0.306 OA 
HETATM    3  C   UNL     2     -12.161  13.556  68.175  1.00  0.00    -0.255 C  
HETATM    4  H   UNL     2     -11.711  15.383  67.702  1.00  0.00     0.000 HD 
HETATM    5  O   UNL     3     -11.428   2.184  63.714  1.00  0.00    -0.601 OA 
HETATM    6  H   UNL     3     -12.307   2.425  63.446  1.00  0.00     0.000 HD 
HETATM    7  C   UNL     3     -10.663   3.391  63.914  1.00  0.00    -0.218 C  
ENDROOT
BRANCH   3   8
HETATM    8  C   UNL     2     -11.482  12.199  68.006  1.00  0.00    -0.319 C  
HETATM    9  O   UNL     2     -12.168  11.213  68.802  1.00  0.00    -0.612 OA 
HETATM   10  H   UNL     2     -11.745  10.368  68.697  1.00  0.00     0.000 HD 
BRANCH   8  11
HETATM   11  C   UNL     2     -11.405  11.765  66.528  1.00  0.00    -0.305 C  
HETATM   12  O   UNL     2     -12.328  12.580  65.801  1.00  0.00    -0.627 OA 
HETATM   13  H   UNL     2     -12.280  12.313  64.891  1.00  0.00     0.000 HD 
BRANCH  11  14
HETATM   14  C   UNL     2      -9.961  11.970  66.027  1.00  0.00    -0.234 C  
HETATM   15  H   UNL     2      -8.883  11.310  64.505  1.00  0.00     0.000 HD 
HETATM   16  O   UNL     2      -9.772  11.184  64.813  1.00  0.00    -0.231 OA 
BRANCH  14  17
HETATM   17  C   UNL     2      -8.833  11.721  67.029  1.00  0.00    -0.182 C  
HETATM   18  C   UNL     2      -7.854  12.922  67.014  1.00  0.00     0.004 C  
HETATM   19  H   UNL     2      -7.528  10.293  67.392  1.00  0.00     0.000 HD 
HETATM   20  O   UNL     2      -8.229  10.448  66.770  1.00  0.00    -0.122 OA 
HETATM   21  O   UNL     2      -8.479  14.027  67.102  1.00  0.00    -0.207 OA 
HETATM   22  O   UNL     2      -6.640  12.639  66.960  1.00  0.00    -0.125 OA 
ENDBRANCH  14  17
ENDBRANCH  11  14
ENDBRANCH   8  11
ENDBRANCH   3   8
BRANCH   7  23
HETATM   23  C   UNL     3      -9.243   3.002  64.347  1.00  0.00    -0.137 C  
HETATM   24  O   UNL     3      -8.526   2.550  63.180  1.00  0.00    -0.083 OA 
HETATM   25  H   UNL     3      -7.646   2.309  63.448  1.00  0.00     0.000 HD 
BRANCH  23  26
HETATM   26  C   UNL     3      -8.368   4.122  64.942  1.00  0.00    -0.106 C  
HETATM   27  O   UNL     3      -8.995   5.400  64.817  1.00  0.00    -0.320 OA 
HETATM   28  H   UNL     3      -8.455   6.091  65.184  1.00  0.00     0.000 HD 
BRANCH  26  29
HETATM   29  C   UNL     3      -7.849   3.963  66.387  1.00  0.00    -0.090 C  
HETATM   30  O   UNL     3      -8.898   4.060  67.363  1.00  0.00    -0.108 OA 
HETATM   31  H   UNL     3      -8.579   3.963  68.253  1.00  0.00     0.000 HD 
BRANCH  29  32
HETATM   32  C   UNL     3      -6.720   4.892  66.823  1.00  0.00    -0.054 C  
HETATM   33  C   UNL     3      -7.160   6.024  67.767  1.00  0.00    -0.074 C  
HETATM   34  O   UNL     3      -6.133   5.538  65.611  1.00  0.00    -0.027 OA 
HETATM   35  O   UNL     3      -7.440   7.116  67.119  1.00  0.00    -0.093 OA 
HETATM   36  O   UNL     3      -6.847   5.916  68.968  1.00  0.00    -0.058 OA 
HETATM   37  H   UNL     3      -5.430   6.116  65.882  1.00  0.00     0.000 HD 
ENDBRANCH  29  32
ENDBRANCH  26  29
ENDBRANCH  23  26
ENDBRANCH   7  23
TORSDOF 8
ENDMDL
MODEL      291
REMARK 921   NORMALIZED FREE ENERGY PREDICTED BY IDOCK:   -4.05 KCAL/MOL
REMARK 922        TOTAL FREE ENERGY PREDICTED BY IDOCK:   -8.02 KCAL/MOL
REMARK 923 INTER-LIGAND FREE ENERGY PREDICTED BY IDOCK:   -6.87 KCAL/MOL
REMARK 924 INTRA-LIGAND FREE ENERGY PREDICTED BY IDOCK:   -1.15 KCAL/MOL
REMARK 927      BINDING AFFINITY PREDICTED BY RF-SCORE:    0.00 PKD
ROOT
HETATM    1 CU   UNL     1     -11.638   9.495  69.318  1.00  0.00    -0.333 Cu 
HETATM    2  O   UNL     2     -11.668   5.457  73.760  1.00  0.00    -0.262 OA 
HETATM    3  C   UNL     2     -11.079   4.980  72.541  1.00  0.00    -0.150 C  
HETATM    4  H   UNL     2     -11.811   4.700  74.316  1.00  0.00     0.000 HD 
HETATM    5  O   UNL     3     -12.987  11.674  62.476  1.00  0.00    -0.407 OA 
HETATM    6  H   UNL     3     -13.456  10.878  62.253  1.00  0.00     0.000 HD 
HETATM    7  C   UNL     3     -12.891  11.762  63.912  1.00  0.00    -0.139 C  
ENDROOT
BRANCH   3   8
HETATM    8  C   UNL     2     -10.847   6.197  71.649  1.00  0.00    -0.258 C  
HETATM    9  O   UNL     2     -10.598   7.357  72.466  1.00  0.00    -0.225 OA 
HETATM   10  H   UNL     2     -10.454   8.114  71.911  1.00  0.00     0.000 HD 
BRANCH   8  11
HETATM   11  C   UNL     2      -9.702   5.972  70.640  1.00  0.00    -0.174 C  
HETATM   12  O   UNL     2     -10.253   5.256  69.532  1.00  0.00    -0.231 OA 
HETATM   13  H   UNL     2      -9.548   5.117  68.911  1.00  0.00     0.000 HD 
BRANCH  11  14
HETATM   14  C   UNL     2      -9.151   7.344  70.203  1.00  0.00    -0.148 C  
HETATM   15  H   UNL     2      -9.259   8.459  68.572  1.00  0.00     0.000 HD 
HETATM   16  O   UNL     2      -9.598   7.613  68.841  1.00  0.00    -0.149 OA 
BRANCH  14  17
HETATM   17  C   UNL     2      -7.646   7.569  70.346  1.00  0.00    -0.090 C  
HETATM   18  C   UNL     2      -6.891   6.265  69.982  1.00  0.00    -0.058 C  
HETATM   19  H   UNL     2      -6.420   8.229  71.738  1.00  0.00     0.000 HD 
HETATM   20  O   UNL     2      -7.356   8.089  71.649  1.00  0.00    -0.065 OA 
HETATM   21  O   UNL     2      -7.308   5.784  68.880  1.00  0.00    -0.079 OA 
HETATM   22  O   UNL     2      -5.993   5.912  70.772  1.00  0.00    -0.027 OA 
ENDBRANCH  14  17
ENDBRANCH  11  14
ENDBRANCH   8  11
ENDBRANCH   3   8
BRANCH   7  23
HETATM   23  C   UNL     3     -12.133  13.047  64.272  1.00  0.00    -0.414 C  
HETATM   24  O   UNL     3     -12.999  13.867  65.084  1.00  0.00    -0.744 OA 
HETATM   25  H   UNL     3     -12.530  14.663  65.307  1.00  0.00     0.000 HD 
BRANCH  23  26
HETATM   26  C   UNL     3     -10.846  12.884  65.104  1.00  0.00    -0.296 C  
HETATM   27  O   UNL     3      -9.735  13.536  64.484  1.00  0.00    -0.602 OA 
HETATM   28  H   UNL     3      -8.941  13.435  64.997  1.00  0.00     0.000 HD 
BRANCH  26  29
HETATM   29  C   UNL     3     -10.879  13.274  66.598  1.00  0.00    -0.281 C  
HETATM   30  O   UNL     3      -9.569  13.307  67.187  1.00  0.00    -0.225 OA 
HETATM   31  H   UNL     3      -9.590  13.547  68.106  1.00  0.00     0.000 HD 
BRANCH  29  32
HETATM   32  C   UNL     3     -11.779  12.447  67.509  1.00  0.00    -0.357 C  
HETATM   33  C   UNL     3     -11.490  12.619  69.010  1.00  0.00    -0.303 C  
HETATM   34  O   UNL     3     -11.588  11.001  67.191  1.00  0.00    -0.469 OA 
HETATM   35  O   UNL     3     -10.669  11.713  69.455  1.00  0.00    -0.156 OA 
HETATM   36  O   UNL     3     -12.303  13.294  69.672  1.00  0.00    -0.224 OA 
HETATM   37  H   UNL     3     -12.149  10.485  67.759  1.00  0.00     0.000 HD 
ENDBRANCH  29  32
ENDBRANCH  26  29
ENDBRANCH  23  26
ENDBRANCH   7  23
TORSDOF 8
ENDMDL
MODEL      292
REMARK 921   NORMALIZED FREE ENERGY PREDICTED BY IDOCK:   -4.04 KCAL/MOL
REMARK 922        TOTAL FREE ENERGY PREDICTED BY IDOCK:   -8.00 KCAL/MOL
REMARK 923 INTER-LIGAND FREE ENERGY PREDICTED BY IDOCK:   -6.30 KCAL/MOL
REMARK 924 INTRA-LIGAND FREE ENERGY PREDICTED BY IDOCK:   -1.70 KCAL/MOL
REMARK 927      BINDING AFFINITY PREDICTED BY RF-SCORE:    0.00 PKD
ROOT
HETATM    1 CU   UNL     1      -8.809   8.234  66.870  1.00  0.00    -0.118 Cu 
HETATM    2  O   UNL     2      -7.453   2.406  67.354  1.00  0.00    -0.059 OA 
HETATM    3  C   UNL     2      -7.877   2.800  66.041  1.00  0.00    -0.081 C  
HETATM    4  H   UNL     2      -7.465   1.456  67.378  1.00  0.00     0.000 HD 
HETATM    5  O   UNL     3     -13.180  13.779  64.990  1.00  0.00    -0.733 OA 
HETATM    6  H   UNL     3     -13.906  13.208  64.768  1.00  0.00     0.000 HD 
HETATM    7  C   UNL     3     -12.235  13.031  65.783  1.00  0.00    -0.453 C  
ENDROOT
BRANCH   3   8
HETATM    8  C   UNL     2      -7.856   4.326  66.001  1.00  0.00    -0.094 C  
HETATM    9  O   UNL     2      -7.432   4.771  64.698  1.00  0.00    -0.069 OA 
HETATM   10  H   UNL     2      -7.419   5.721  64.674  1.00  0.00     0.000 HD 
BRANCH   8  11
HETATM   11  C   UNL     2      -9.220   4.939  66.381  1.00  0.00    -0.138 C  
HETATM   12  O   UNL     2     -10.187   3.888  66.314  1.00  0.00    -0.412 OA 
HETATM   13  H   UNL     2     -11.026   4.264  66.548  1.00  0.00     0.000 HD 
BRANCH  11  14
HETATM   14  C   UNL     2      -9.121   5.518  67.807  1.00  0.00    -0.107 C  
HETATM   15  H   UNL     2      -7.965   5.210  69.384  1.00  0.00     0.000 HD 
HETATM   16  O   UNL     2      -8.026   4.854  68.506  1.00  0.00    -0.084 OA 
BRANCH  14  17
HETATM   17  C   UNL     2     -10.396   5.518  68.650  1.00  0.00    -0.185 C  
HETATM   18  C   UNL     2     -10.851   6.979  68.899  1.00  0.00    -0.167 C  
HETATM   19  H   UNL     2     -10.985   4.741  70.360  1.00  0.00     0.000 HD 
HETATM   20  O   UNL     2     -10.192   4.741  69.836  1.00  0.00    -0.252 OA 
HETATM   21  O   UNL     2     -10.867   7.647  67.815  1.00  0.00    -0.170 OA 
HETATM   22  O   UNL     2     -11.162   7.264  70.072  1.00  0.00    -0.263 OA 
ENDBRANCH  14  17
ENDBRANCH  11  14
ENDBRANCH   8  11
ENDBRANCH   3   8
BRANCH   7  23
HETATM   23  C   UNL     3     -11.062  13.954  66.142  1.00  0.00    -0.299 C  
HETATM   24  O   UNL     3     -11.287  15.233  65.515  1.00  0.00    -0.311 OA 
HETATM   25  H   UNL     3     -10.561  15.804  65.737  1.00  0.00     0.000 HD 
BRANCH  23  26
HETATM   26  C   UNL     3     -10.864  14.274  67.637  1.00  0.00    -0.268 C  
HETATM   27  O   UNL     3     -12.111  14.302  68.337  1.00  0.00    -0.500 OA 
HETATM   28  H   UNL     3     -11.988  14.500  69.258  1.00  0.00     0.000 HD 
BRANCH  26  29
HETATM   29  C   UNL     3      -9.860  13.426  68.446  1.00  0.00    -0.216 C  
HETATM   30  O   UNL     3      -9.031  14.226  69.305  1.00  0.00    -0.383 OA 
HETATM   31  H   UNL     3      -8.413  13.704  69.803  1.00  0.00     0.000 HD 
BRANCH  29  32
HETATM   32  C   UNL     3      -8.949  12.492  67.657  1.00  0.00    -0.185 C  
HETATM   33  C   UNL     3      -8.306  11.375  68.498  1.00  0.00    -0.153 C  
HETATM   34  O   UNL     3      -7.834  13.290  67.067  1.00  0.00    -0.378 OA 
HETATM   35  O   UNL     3      -7.127  11.712  68.933  1.00  0.00    -0.102 OA 
HETATM   36  O   UNL     3      -8.759  10.223  68.355  1.00  0.00    -0.122 OA 
HETATM   37  H   UNL     3      -7.266  12.709  66.576  1.00  0.00     0.000 HD 
ENDBRANCH  29  32
ENDBRANCH  26  29
ENDBRANCH  23  26
ENDBRANCH   7  23
TORSDOF 8
ENDMDL
MODEL      293
REMARK 921   NORMALIZED FREE ENERGY PREDICTED BY IDOCK:   -4.04 KCAL/MOL
REMARK 922        TOTAL FREE ENERGY PREDICTED BY IDOCK:   -8.00 KCAL/MOL
REMARK 923 INTER-LIGAND FREE ENERGY PREDICTED BY IDOCK:   -6.89 KCAL/MOL
REMARK 924 INTRA-LIGAND FREE ENERGY PREDICTED BY IDOCK:   -1.11 KCAL/MOL
REMARK 927      BINDING AFFINITY PREDICTED BY RF-SCORE:    0.00 PKD
ROOT
HETATM    1 CU   UNL     1     -10.395   8.795  68.275  1.00  0.00    -0.166 Cu 
HETATM    2  O   UNL     2     -12.401  13.674  71.141  1.00  0.00    -0.355 OA 
HETATM    3  C   UNL     2     -13.171  12.490  71.394  1.00  0.00    -0.112 C  
HETATM    4  H   UNL     2     -12.908  14.411  71.461  1.00  0.00     0.000 HD 
HETATM    5  O   UNL     3     -11.244   2.936  63.993  1.00  0.00    -0.603 OA 
HETATM    6  H   UNL     3     -12.142   3.156  63.771  1.00  0.00     0.000 HD 
HETATM    7  C   UNL     3     -10.609   4.107  64.546  1.00  0.00    -0.146 C  
ENDROOT
BRANCH   3   8
HETATM    8  C   UNL     2     -12.356  11.306  70.880  1.00  0.00    -0.388 C  
HETATM    9  O   UNL     2     -13.241  10.315  70.322  1.00  0.00    -0.538 OA 
HETATM   10  H   UNL     2     -12.733   9.578  70.003  1.00  0.00     0.000 HD 
BRANCH   8  11
HETATM   11  C   UNL     2     -11.285  11.734  69.857  1.00  0.00    -0.014 C  
HETATM   12  O   UNL     2     -10.296  10.701  69.826  1.00  0.00    -0.381 OA 
HETATM   13  H   UNL     2      -9.636  10.965  69.196  1.00  0.00     0.000 HD 
BRANCH  11  14
HETATM   14  C   UNL     2     -11.957  11.907  68.480  1.00  0.00    -0.212 C  
HETATM   15  H   UNL     2     -11.920  10.939  66.755  1.00  0.00     0.000 HD 
HETATM   16  O   UNL     2     -11.506  10.833  67.603  1.00  0.00    -0.477 OA 
BRANCH  14  17
HETATM   17  C   UNL     2     -11.818  13.270  67.802  1.00  0.00    -0.353 C  
HETATM   18  C   UNL     2     -11.645  13.072  66.274  1.00  0.00    -0.360 C  
HETATM   19  H   UNL     2     -10.688  14.868  68.013  1.00  0.00     0.000 HD 
HETATM   20  O   UNL     2     -10.774  14.021  68.434  1.00  0.00    -0.238 OA 
HETATM   21  O   UNL     2     -12.524  12.276  65.811  1.00  0.00    -0.564 OA 
HETATM   22  O   UNL     2     -10.731  13.728  65.737  1.00  0.00    -0.273 OA 
ENDBRANCH  14  17
ENDBRANCH  11  14
ENDBRANCH   8  11
ENDBRANCH   3   8
BRANCH   7  23
HETATM   23  C   UNL     3      -9.159   3.753  64.903  1.00  0.00    -0.140 C  
HETATM   24  O   UNL     3      -8.521   3.225  63.723  1.00  0.00    -0.089 OA 
HETATM   25  H   UNL     3      -7.623   3.005  63.944  1.00  0.00     0.000 HD 
BRANCH  23  26
HETATM   26  C   UNL     3      -8.253   4.913  65.360  1.00  0.00    -0.121 C  
HETATM   27  O   UNL     3      -8.827   6.183  65.041  1.00  0.00    -0.356 OA 
HETATM   28  H   UNL     3      -8.268   6.898  65.322  1.00  0.00     0.000 HD 
BRANCH  26  29
HETATM   29  C   UNL     3      -7.772   4.940  66.827  1.00  0.00    -0.092 C  
HETATM   30  O   UNL     3      -7.803   3.642  67.441  1.00  0.00    -0.078 OA 
HETATM   31  H   UNL     3      -7.507   3.659  68.343  1.00  0.00     0.000 HD 
BRANCH  29  32
HETATM   32  C   UNL     3      -8.473   5.917  67.766  1.00  0.00    -0.107 C  
HETATM   33  C   UNL     3      -9.929   5.544  68.095  1.00  0.00    -0.153 C  
HETATM   34  O   UNL     3      -8.502   7.265  67.125  1.00  0.00    -0.116 OA 
HETATM   35  O   UNL     3     -10.773   6.131  67.299  1.00  0.00    -0.258 OA 
HETATM   36  O   UNL     3     -10.155   5.084  69.232  1.00  0.00    -0.204 OA 
HETATM   37  H   UNL     3      -8.938   7.873  67.710  1.00  0.00     0.000 HD 
ENDBRANCH  29  32
ENDBRANCH  26  29
ENDBRANCH  23  26
ENDBRANCH   7  23
TORSDOF 8
ENDMDL
MODEL      294
REMARK 921   NORMALIZED FREE ENERGY PREDICTED BY IDOCK:   -4.01 KCAL/MOL
REMARK 922        TOTAL FREE ENERGY PREDICTED BY IDOCK:   -7.97 KCAL/MOL
REMARK 923 INTER-LIGAND FREE ENERGY PREDICTED BY IDOCK:   -6.07 KCAL/MOL
REMARK 924 INTRA-LIGAND FREE ENERGY PREDICTED BY IDOCK:   -1.90 KCAL/MOL
REMARK 927      BINDING AFFINITY PREDICTED BY RF-SCORE:    0.00 PKD
ROOT
HETATM    1 CU   UNL     1     -11.153  11.663  70.237  1.00  0.00    -0.345 Cu 
HETATM    2  O   UNL     2     -12.039   6.320  72.827  1.00  0.00    -0.502 OA 
HETATM    3  C   UNL     2     -10.689   6.797  72.919  1.00  0.00    -0.261 C  
HETATM    4  H   UNL     2     -12.029   5.402  73.073  1.00  0.00     0.000 HD 
HETATM    5  O   UNL     3      -7.642  16.230  65.743  1.00  0.00     0.414 OA 
HETATM    6  H   UNL     3      -7.096  15.543  65.376  1.00  0.00     0.000 HD 
HETATM    7  C   UNL     3      -8.757  15.617  66.422  1.00  0.00    -0.318 C  
ENDROOT
BRANCH   3   8
HETATM    8  C   UNL     2     -10.706   8.272  72.526  1.00  0.00    -0.341 C  
HETATM    9  O   UNL     2      -9.546   8.931  73.071  1.00  0.00     0.014 OA 
HETATM   10  H   UNL     2      -9.557   9.850  72.826  1.00  0.00     0.000 HD 
BRANCH   8  11
HETATM   11  C   UNL     2     -10.790   8.468  70.998  1.00  0.00    -0.241 C  
HETATM   12  O   UNL     2     -11.792   9.459  70.756  1.00  0.00    -0.276 OA 
HETATM   13  H   UNL     2     -11.844   9.580  69.816  1.00  0.00     0.000 HD 
BRANCH  11  14
HETATM   14  C   UNL     2      -9.412   8.928  70.482  1.00  0.00    -0.204 C  
HETATM   15  H   UNL     2      -8.760  10.302  69.216  1.00  0.00     0.000 HD 
HETATM   16  O   UNL     2      -9.609  10.019  69.534  1.00  0.00    -0.207 OA 
BRANCH  14  17
HETATM   17  C   UNL     2      -8.489   7.854  69.905  1.00  0.00    -0.127 C  
HETATM   18  C   UNL     2      -7.096   7.952  70.580  1.00  0.00    -0.049 C  
HETATM   19  H   UNL     2      -7.899   7.280  68.117  1.00  0.00     0.000 HD 
HETATM   20  O   UNL     2      -8.473   7.947  68.476  1.00  0.00    -0.127 OA 
HETATM   21  O   UNL     2      -7.203   8.013  71.847  1.00  0.00    -0.068 OA 
HETATM   22  O   UNL     2      -6.113   7.919  69.815  1.00  0.00    -0.026 OA 
ENDBRANCH  14  17
ENDBRANCH  11  14
ENDBRANCH   8  11
ENDBRANCH   3   8
BRANCH   7  23
HETATM   23  C   UNL     3      -9.637  16.726  67.013  1.00  0.00    -0.239 C  
HETATM   24  O   UNL     3      -9.701  17.806  66.059  1.00  0.00    -0.496 OA 
HETATM   25  H   UNL     3     -10.246  18.493  66.426  1.00  0.00     0.000 HD 
BRANCH  23  26
HETATM   26  C   UNL     3     -11.107  16.365  67.303  1.00  0.00    -0.019 C  
HETATM   27  O   UNL     3     -11.492  15.160  66.637  1.00  0.00    -0.300 OA 
HETATM   28  H   UNL     3     -12.399  14.938  66.816  1.00  0.00     0.000 HD 
BRANCH  26  29
HETATM   29  C   UNL     3     -11.571  16.288  68.774  1.00  0.00    -0.223 C  
HETATM   30  O   UNL     3     -10.884  17.225  69.618  1.00  0.00    -0.364 OA 
HETATM   31  H   UNL     3     -11.170  17.178  70.523  1.00  0.00     0.000 HD 
BRANCH  29  32
HETATM   32  C   UNL     3     -11.510  14.921  69.449  1.00  0.00    -0.299 C  
HETATM   33  C   UNL     3     -12.228  14.854  70.808  1.00  0.00    -0.325 C  
HETATM   34  O   UNL     3     -10.080  14.568  69.693  1.00  0.00    -0.425 OA 
HETATM   35  O   UNL     3     -11.415  15.075  71.799  1.00  0.00    -0.381 OA 
HETATM   36  O   UNL     3     -13.320  14.255  70.844  1.00  0.00    -0.330 OA 
HETATM   37  H   UNL     3     -10.041  13.717  70.113  1.00  0.00     0.000 HD 
ENDBRANCH  29  32
ENDBRANCH  26  29
ENDBRANCH  23  26
ENDBRANCH   7  23
TORSDOF 8
ENDMDL
MODEL      295
REMARK 921   NORMALIZED FREE ENERGY PREDICTED BY IDOCK:   -4.00 KCAL/MOL
REMARK 922        TOTAL FREE ENERGY PREDICTED BY IDOCK:   -7.95 KCAL/MOL
REMARK 923 INTER-LIGAND FREE ENERGY PREDICTED BY IDOCK:   -7.26 KCAL/MOL
REMARK 924 INTRA-LIGAND FREE ENERGY PREDICTED BY IDOCK:   -0.69 KCAL/MOL
REMARK 927      BINDING AFFINITY PREDICTED BY RF-SCORE:    0.00 PKD
ROOT
HETATM    1 CU   UNL     1      -7.966  14.244  68.429  1.00  0.00    -0.103 Cu 
HETATM    2  O   UNL     2      -7.190  20.169  67.851  1.00  0.00    -0.282 OA 
HETATM    3  C   UNL     2      -8.452  19.695  67.359  1.00  0.00    -0.305 C  
HETATM    4  H   UNL     2      -7.081  21.057  67.530  1.00  0.00     0.000 HD 
HETATM    5  O   UNL     3      -9.630   7.604  65.875  1.00  0.00    -0.424 OA 
HETATM    6  H   UNL     3      -9.688   7.902  64.974  1.00  0.00     0.000 HD 
HETATM    7  C   UNL     3      -8.929   8.604  66.643  1.00  0.00    -0.145 C  
ENDROOT
BRANCH   3   8
HETATM    8  C   UNL     2      -8.627  18.269  67.874  1.00  0.00    -0.258 C  
HETATM    9  O   UNL     2      -7.537  17.935  68.757  1.00  0.00    -0.284 OA 
HETATM   10  H   UNL     2      -7.646  17.047  69.077  1.00  0.00     0.000 HD 
BRANCH   8  11
HETATM   11  C   UNL     2      -9.988  18.061  68.569  1.00  0.00    -0.390 C  
HETATM   12  O   UNL     2     -10.997  18.510  67.661  1.00  0.00    -0.355 OA 
HETATM   13  H   UNL     2     -11.835  18.383  68.089  1.00  0.00     0.000 HD 
BRANCH  11  14
HETATM   14  C   UNL     2     -10.154  16.563  68.895  1.00  0.00    -0.266 C  
HETATM   15  H   UNL     2      -9.453  14.867  68.154  1.00  0.00     0.000 HD 
HETATM   16  O   UNL     2      -9.350  15.790  67.954  1.00  0.00    -0.198 OA 
BRANCH  14  17
HETATM   17  C   UNL     2     -11.581  16.022  68.978  1.00  0.00    -0.349 C  
HETATM   18  C   UNL     2     -11.739  15.176  70.268  1.00  0.00    -0.300 C  
HETATM   19  H   UNL     2     -12.797  14.999  67.816  1.00  0.00     0.000 HD 
HETATM   20  O   UNL     2     -11.910  15.336  67.764  1.00  0.00    -0.287 OA 
HETATM   21  O   UNL     2     -11.289  15.797  71.283  1.00  0.00    -0.358 OA 
HETATM   22  O   UNL     2     -12.297  14.069  70.132  1.00  0.00    -0.329 OA 
ENDBRANCH  14  17
ENDBRANCH  11  14
ENDBRANCH   8  11
ENDBRANCH   3   8
BRANCH   7  23
HETATM   23  C   UNL     3      -8.835   8.124  68.097  1.00  0.00    -0.132 C  
HETATM   24  O   UNL     3      -9.884   8.766  68.852  1.00  0.00    -0.169 OA 
HETATM   25  H   UNL     3      -9.826   8.469  69.753  1.00  0.00     0.000 HD 
BRANCH  23  26
HETATM   26  C   UNL     3      -9.035   6.616  68.345  1.00  0.00    -0.123 C  
HETATM   27  O   UNL     3      -8.224   6.150  69.426  1.00  0.00    -0.110 OA 
HETATM   28  H   UNL     3      -8.348   5.220  69.579  1.00  0.00     0.000 HD 
BRANCH  26  29
HETATM   29  C   UNL     3     -10.472   6.085  68.538  1.00  0.00    -0.234 C  
HETATM   30  O   UNL     3     -11.446   6.853  67.813  1.00  0.00    -0.548 OA 
HETATM   31  H   UNL     3     -12.330   6.526  67.931  1.00  0.00     0.000 HD 
BRANCH  29  32
HETATM   32  C   UNL     3     -10.969   5.936  69.972  1.00  0.00    -0.360 C  
HETATM   33  C   UNL     3     -11.025   7.256  70.761  1.00  0.00    -0.251 C  
HETATM   34  O   UNL     3     -10.044   5.026  70.710  1.00  0.00    -0.213 OA 
HETATM   35  O   UNL     3      -9.939   7.459  71.448  1.00  0.00    -0.186 OA 
HETATM   36  O   UNL     3     -12.152   7.749  70.963  1.00  0.00    -0.302 OA 
HETATM   37  H   UNL     3     -10.352   4.934  71.604  1.00  0.00     0.000 HD 
ENDBRANCH  29  32
ENDBRANCH  26  29
ENDBRANCH  23  26
ENDBRANCH   7  23
TORSDOF 8
ENDMDL
MODEL      296
REMARK 921   NORMALIZED FREE ENERGY PREDICTED BY IDOCK:   -3.99 KCAL/MOL
REMARK 922        TOTAL FREE ENERGY PREDICTED BY IDOCK:   -7.94 KCAL/MOL
REMARK 923 INTER-LIGAND FREE ENERGY PREDICTED BY IDOCK:   -6.56 KCAL/MOL
REMARK 924 INTRA-LIGAND FREE ENERGY PREDICTED BY IDOCK:   -1.38 KCAL/MOL
REMARK 927      BINDING AFFINITY PREDICTED BY RF-SCORE:    0.00 PKD
ROOT
HETATM    1 CU   UNL     1      -9.788   9.033  64.343  1.00  0.00    -0.414 Cu 
HETATM    2  O   UNL     2     -12.406  14.261  62.980  1.00  0.00    -0.967 OA 
HETATM    3  C   UNL     2     -12.516  13.895  64.363  1.00  0.00    -0.279 C  
HETATM    4  H   UNL     2     -13.014  14.975  62.831  1.00  0.00     0.000 HD 
HETATM    5  O   UNL     3      -9.719   2.346  67.287  1.00  0.00    -0.403 OA 
HETATM    6  H   UNL     3     -10.648   2.361  67.488  1.00  0.00     0.000 HD 
HETATM    7  C   UNL     3      -9.440   3.388  66.329  1.00  0.00    -0.113 C  
ENDROOT
BRANCH   3   8
HETATM    8  C   UNL     2     -11.538  12.749  64.605  1.00  0.00    -0.338 C  
HETATM    9  O   UNL     2     -11.325  12.027  63.376  1.00  0.00    -0.563 OA 
HETATM   10  H   UNL     2     -10.716  11.313  63.526  1.00  0.00     0.000 HD 
BRANCH   8  11
HETATM   11  C   UNL     2     -10.202  13.237  65.201  1.00  0.00    -0.287 C  
HETATM   12  O   UNL     2     -10.058  14.613  64.842  1.00  0.00    -0.416 OA 
HETATM   13  H   UNL     2      -9.236  14.914  65.209  1.00  0.00     0.000 HD 
BRANCH  11  14
HETATM   14  C   UNL     2     -10.250  13.060  66.732  1.00  0.00    -0.246 C  
HETATM   15  H   UNL     2      -9.095  12.212  68.097  1.00  0.00     0.000 HD 
HETATM   16  O   UNL     2      -9.065  12.321  67.153  1.00  0.00    -0.180 OA 
BRANCH  14  17
HETATM   17  C   UNL     2     -11.521  12.452  67.325  1.00  0.00    -0.354 C  
HETATM   18  C   UNL     2     -11.811  13.101  68.703  1.00  0.00    -0.328 C  
HETATM   19  H   UNL     2     -12.202  10.646  67.711  1.00  0.00     0.000 HD 
HETATM   20  O   UNL     2     -11.412  11.024  67.342  1.00  0.00    -0.475 OA 
HETATM   21  O   UNL     2     -11.746  14.370  68.636  1.00  0.00    -0.299 OA 
HETATM   22  O   UNL     2     -12.093  12.316  69.629  1.00  0.00    -0.279 OA 
ENDBRANCH  14  17
ENDBRANCH  11  14
ENDBRANCH   8  11
ENDBRANCH   3   8
BRANCH   7  23
HETATM   23  C   UNL     3      -7.940   3.363  66.005  1.00  0.00    -0.092 C  
HETATM   24  O   UNL     3      -7.762   3.866  64.665  1.00  0.00    -0.079 OA 
HETATM   25  H   UNL     3      -6.833   3.851  64.463  1.00  0.00     0.000 HD 
BRANCH  23  26
HETATM   26  C   UNL     3      -7.026   4.239  66.882  1.00  0.00    -0.059 C  
HETATM   27  O   UNL     3      -7.501   5.585  66.955  1.00  0.00    -0.085 OA 
HETATM   28  H   UNL     3      -6.937   6.125  67.497  1.00  0.00     0.000 HD 
BRANCH  26  29
HETATM   29  C   UNL     3      -6.688   3.755  68.309  1.00  0.00    -0.046 C  
HETATM   30  O   UNL     3      -6.988   2.363  68.504  1.00  0.00    -0.043 OA 
HETATM   31  H   UNL     3      -6.781   2.065  69.382  1.00  0.00     0.000 HD 
BRANCH  29  32
HETATM   32  C   UNL     3      -7.305   4.531  69.468  1.00  0.00    -0.051 C  
HETATM   33  C   UNL     3      -6.769   4.132  70.854  1.00  0.00    -0.032 C  
HETATM   34  O   UNL     3      -8.777   4.286  69.483  1.00  0.00    -0.078 OA 
HETATM   35  O   UNL     3      -7.513   3.230  71.422  1.00  0.00    -0.039 OA 
HETATM   36  O   UNL     3      -5.985   4.926  71.409  1.00  0.00    -0.016 OA 
HETATM   37  H   UNL     3      -9.162   4.769  70.204  1.00  0.00     0.000 HD 
ENDBRANCH  29  32
ENDBRANCH  26  29
ENDBRANCH  23  26
ENDBRANCH   7  23
TORSDOF 8
ENDMDL
MODEL      297
REMARK 921   NORMALIZED FREE ENERGY PREDICTED BY IDOCK:   -3.98 KCAL/MOL
REMARK 922        TOTAL FREE ENERGY PREDICTED BY IDOCK:   -7.92 KCAL/MOL
REMARK 923 INTER-LIGAND FREE ENERGY PREDICTED BY IDOCK:   -7.29 KCAL/MOL
REMARK 924 INTRA-LIGAND FREE ENERGY PREDICTED BY IDOCK:   -0.64 KCAL/MOL
REMARK 927      BINDING AFFINITY PREDICTED BY RF-SCORE:    0.00 PKD
ROOT
HETATM    1 CU   UNL     1     -11.020   7.579  65.716  1.00  0.00    -0.213 Cu 
HETATM    2  O   UNL     2     -11.519   1.890  63.865  1.00  0.00    -0.481 OA 
HETATM    3  C   UNL     2     -10.297   2.529  63.466  1.00  0.00    -0.173 C  
HETATM    4  H   UNL     2     -11.593   1.089  63.359  1.00  0.00     0.000 HD 
HETATM    5  O   UNL     3      -9.763  14.698  64.652  1.00  0.00    -0.450 OA 
HETATM    6  H   UNL     3      -9.717  14.608  63.707  1.00  0.00     0.000 HD 
HETATM    7  C   UNL     3     -10.389  13.518  65.194  1.00  0.00    -0.353 C  
ENDROOT
BRANCH   3   8
HETATM    8  C   UNL     2     -10.178   3.816  64.279  1.00  0.00    -0.235 C  
HETATM    9  O   UNL     2     -11.484   4.230  64.726  1.00  0.00    -0.995 OA 
HETATM   10  H   UNL     2     -11.409   5.031  65.232  1.00  0.00     0.000 HD 
BRANCH   8  11
HETATM   11  C   UNL     2      -9.205   3.668  65.467  1.00  0.00    -0.155 C  
HETATM   12  O   UNL     2      -9.683   2.586  66.270  1.00  0.00    -0.365 OA 
HETATM   13  H   UNL     2      -9.085   2.495  67.002  1.00  0.00     0.000 HD 
BRANCH  11  14
HETATM   14  C   UNL     2      -7.794   3.376  64.917  1.00  0.00    -0.082 C  
HETATM   15  H   UNL     2      -6.453   1.940  65.151  1.00  0.00     0.000 HD 
HETATM   16  O   UNL     2      -7.322   2.120  65.489  1.00  0.00    -0.062 OA 
BRANCH  14  17
HETATM   17  C   UNL     2      -6.746   4.479  65.064  1.00  0.00    -0.048 C  
HETATM   18  C   UNL     2      -6.870   5.127  66.467  1.00  0.00    -0.062 C  
HETATM   19  H   UNL     2      -6.199   6.080  64.059  1.00  0.00     0.000 HD 
HETATM   20  O   UNL     2      -6.850   5.395  63.967  1.00  0.00    -0.044 OA 
HETATM   21  O   UNL     2      -6.918   4.241  67.380  1.00  0.00    -0.060 OA 
HETATM   22  O   UNL     2      -6.865   6.373  66.498  1.00  0.00    -0.058 OA 
ENDBRANCH  14  17
ENDBRANCH  11  14
ENDBRANCH   8  11
ENDBRANCH   3   8
BRANCH   7  23
HETATM   23  C   UNL     3     -10.464  13.662  66.720  1.00  0.00    -0.270 C  
HETATM   24  O   UNL     3     -10.790  15.034  67.026  1.00  0.00    -0.299 OA 
HETATM   25  H   UNL     3     -10.835  15.124  67.971  1.00  0.00     0.000 HD 
BRANCH  23  26
HETATM   26  C   UNL     3     -11.537  12.828  67.445  1.00  0.00    -0.356 C  
HETATM   27  O   UNL     3     -12.583  12.430  66.554  1.00  0.00    -0.161 OA 
HETATM   28  H   UNL     3     -13.245  11.916  67.002  1.00  0.00     0.000 HD 
BRANCH  26  29
HETATM   29  C   UNL     3     -11.088  11.598  68.263  1.00  0.00    -0.234 C  
HETATM   30  O   UNL     3     -11.778  10.398  67.878  1.00  0.00    -0.714 OA 
HETATM   31  H   UNL     3     -11.502   9.642  68.382  1.00  0.00     0.000 HD 
BRANCH  29  32
HETATM   32  C   UNL     3     -11.163  11.712  69.782  1.00  0.00    -0.127 C  
HETATM   33  C   UNL     3     -11.979  10.598  70.461  1.00  0.00    -0.352 C  
HETATM   34  O   UNL     3     -11.816  13.007  70.136  1.00  0.00    -0.440 OA 
HETATM   35  O   UNL     3     -13.218  10.946  70.647  1.00  0.00    -0.168 OA 
HETATM   36  O   UNL     3     -11.340   9.717  71.070  1.00  0.00    -0.329 OA 
HETATM   37  H   UNL     3     -11.864  13.079  71.082  1.00  0.00     0.000 HD 
ENDBRANCH  29  32
ENDBRANCH  26  29
ENDBRANCH  23  26
ENDBRANCH   7  23
TORSDOF 8
ENDMDL
MODEL      298
REMARK 921   NORMALIZED FREE ENERGY PREDICTED BY IDOCK:   -3.98 KCAL/MOL
REMARK 922        TOTAL FREE ENERGY PREDICTED BY IDOCK:   -7.92 KCAL/MOL
REMARK 923 INTER-LIGAND FREE ENERGY PREDICTED BY IDOCK:   -6.81 KCAL/MOL
REMARK 924 INTRA-LIGAND FREE ENERGY PREDICTED BY IDOCK:   -1.11 KCAL/MOL
REMARK 927      BINDING AFFINITY PREDICTED BY RF-SCORE:    0.00 PKD
ROOT
HETATM    1 CU   UNL     1      -8.846  12.792  69.576  1.00  0.00    -0.319 Cu 
HETATM    2  O   UNL     2      -6.644  17.476  66.536  1.00  0.00    -0.188 OA 
HETATM    3  C   UNL     2      -8.062  17.305  66.398  1.00  0.00    -0.293 C  
HETATM    4  H   UNL     2      -6.372  18.096  65.869  1.00  0.00     0.000 HD 
HETATM    5  O   UNL     3     -12.748   6.642  70.152  1.00  0.00    -0.282 OA 
HETATM    6  H   UNL     3     -12.916   6.592  69.218  1.00  0.00     0.000 HD 
HETATM    7  C   UNL     3     -11.656   7.557  70.373  1.00  0.00    -0.149 C  
ENDROOT
BRANCH   3   8
HETATM    8  C   UNL     2      -8.500  16.311  67.470  1.00  0.00    -0.169 C  
HETATM    9  O   UNL     2      -8.338  16.901  68.774  1.00  0.00    -0.242 OA 
HETATM   10  H   UNL     2      -8.610  16.282  69.442  1.00  0.00     0.000 HD 
BRANCH   8  11
HETATM   11  C   UNL     2      -9.948  15.822  67.257  1.00  0.00    -0.238 C  
HETATM   12  O   UNL     2     -10.443  16.474  66.085  1.00  0.00    -0.318 OA 
HETATM   13  H   UNL     2     -11.334  16.173  65.954  1.00  0.00     0.000 HD 
BRANCH  11  14
HETATM   14  C   UNL     2      -9.932  14.290  67.082  1.00  0.00    -0.255 C  
HETATM   15  H   UNL     2      -9.660  13.040  65.573  1.00  0.00     0.000 HD 
HETATM   16  O   UNL     2      -9.670  13.984  65.681  1.00  0.00    -0.251 OA 
BRANCH  14  17
HETATM   17  C   UNL     2     -11.145  13.517  67.600  1.00  0.00    -0.269 C  
HETATM   18  C   UNL     2     -10.861  11.995  67.517  1.00  0.00    -0.241 C  
HETATM   19  H   UNL     2     -13.078  13.467  67.233  1.00  0.00     0.000 HD 
HETATM   20  O   UNL     2     -12.324  13.948  66.911  1.00  0.00    -0.410 OA 
HETATM   21  O   UNL     2      -9.727  11.710  68.020  1.00  0.00    -0.171 OA 
HETATM   22  O   UNL     2     -11.767  11.295  67.023  1.00  0.00    -0.503 OA 
ENDBRANCH  14  17
ENDBRANCH  11  14
ENDBRANCH   8  11
ENDBRANCH   3   8
BRANCH   7  23
HETATM   23  C   UNL     3     -11.384   7.638  71.881  1.00  0.00    -0.266 C  
HETATM   24  O   UNL     3     -12.082   6.550  72.522  1.00  0.00    -0.504 OA 
HETATM   25  H   UNL     3     -11.914   6.600  73.457  1.00  0.00     0.000 HD 
BRANCH  23  26
HETATM   26  C   UNL     3      -9.918   7.488  72.331  1.00  0.00    -0.184 C  
HETATM   27  O   UNL     3      -9.219   8.733  72.264  1.00  0.00    -0.340 OA 
HETATM   28  H   UNL     3      -8.314   8.640  72.541  1.00  0.00     0.000 HD 
BRANCH  26  29
HETATM   29  C   UNL     3      -9.629   6.831  73.698  1.00  0.00    -0.198 C  
HETATM   30  O   UNL     3      -8.694   7.586  74.486  1.00  0.00    -0.335 OA 
HETATM   31  H   UNL     3      -8.517   7.181  75.327  1.00  0.00     0.000 HD 
BRANCH  29  32
HETATM   32  C   UNL     3      -9.161   5.379  73.683  1.00  0.00    -0.130 C  
HETATM   33  C   UNL     3      -8.873   4.822  72.279  1.00  0.00    -0.123 C  
HETATM   34  O   UNL     3     -10.228   4.523  74.281  1.00  0.00    -0.184 OA 
HETATM   35  O   UNL     3      -9.904   4.208  71.777  1.00  0.00    -0.166 OA 
HETATM   36  O   UNL     3      -7.676   4.676  71.960  1.00  0.00    -0.086 OA 
HETATM   37  H   UNL     3      -9.937   3.619  74.272  1.00  0.00     0.000 HD 
ENDBRANCH  29  32
ENDBRANCH  26  29
ENDBRANCH  23  26
ENDBRANCH   7  23
TORSDOF 8
ENDMDL
MODEL      299
REMARK 921   NORMALIZED FREE ENERGY PREDICTED BY IDOCK:   -3.98 KCAL/MOL
REMARK 922        TOTAL FREE ENERGY PREDICTED BY IDOCK:   -7.91 KCAL/MOL
REMARK 923 INTER-LIGAND FREE ENERGY PREDICTED BY IDOCK:   -6.29 KCAL/MOL
REMARK 924 INTRA-LIGAND FREE ENERGY PREDICTED BY IDOCK:   -1.63 KCAL/MOL
REMARK 927      BINDING AFFINITY PREDICTED BY RF-SCORE:    0.00 PKD
ROOT
HETATM    1 CU   UNL     1      -9.647  11.903  68.897  1.00  0.00    -0.182 Cu 
HETATM    2  O   UNL     2      -9.025  17.597  67.102  1.00  0.00    -0.236 OA 
HETATM    3  C   UNL     2      -7.937  16.743  66.720  1.00  0.00    -0.240 C  
HETATM    4  H   UNL     2      -8.739  18.493  66.960  1.00  0.00     0.000 HD 
HETATM    5  O   UNL     3      -7.309   5.804  72.171  1.00  0.00    -0.090 OA 
HETATM    6  H   UNL     3      -6.521   6.217  72.507  1.00  0.00     0.000 HD 
HETATM    7  C   UNL     3      -8.233   6.837  71.772  1.00  0.00    -0.106 C  
ENDROOT
BRANCH   3   8
HETATM    8  C   UNL     2      -8.395  15.305  66.948  1.00  0.00    -0.243 C  
HETATM    9  O   UNL     2      -9.062  14.816  65.767  1.00  0.00    -0.483 OA 
HETATM   10  H   UNL     2      -9.347  13.921  65.909  1.00  0.00     0.000 HD 
BRANCH   8  11
HETATM   11  C   UNL     2      -7.231  14.377  67.352  1.00  0.00    -0.122 C  
HETATM   12  O   UNL     2      -6.033  15.156  67.293  1.00  0.00    -0.325 OA 
HETATM   13  H   UNL     2      -5.316  14.585  67.542  1.00  0.00     0.000 HD 
BRANCH  11  14
HETATM   14  C   UNL     2      -7.488  13.854  68.779  1.00  0.00    -0.114 C  
HETATM   15  H   UNL     2      -7.812  14.674  70.551  1.00  0.00     0.000 HD 
HETATM   16  O   UNL     2      -7.653  14.996  69.672  1.00  0.00    -0.198 OA 
BRANCH  14  17
HETATM   17  C   UNL     2      -6.485  12.849  69.346  1.00  0.00    -0.091 C  
HETATM   18  C   UNL     2      -7.057  11.415  69.212  1.00  0.00    -0.100 C  
HETATM   19  H   UNL     2      -5.495  12.605  71.029  1.00  0.00     0.000 HD 
HETATM   20  O   UNL     2      -6.119  13.230  70.678  1.00  0.00    -0.131 OA 
HETATM   21  O   UNL     2      -7.496  11.203  68.036  1.00  0.00    -0.089 OA 
HETATM   22  O   UNL     2      -6.971  10.693  70.225  1.00  0.00    -0.233 OA 
ENDBRANCH  14  17
ENDBRANCH  11  14
ENDBRANCH   8  11
ENDBRANCH   3   8
BRANCH   7  23
HETATM   23  C   UNL     3      -9.504   6.170  71.230  1.00  0.00    -0.163 C  
HETATM   24  O   UNL     3     -10.240   5.629  72.346  1.00  0.00    -0.184 OA 
HETATM   25  H   UNL     3     -11.027   5.216  72.010  1.00  0.00     0.000 HD 
BRANCH  23  26
HETATM   26  C   UNL     3     -10.508   7.083  70.498  1.00  0.00    -0.208 C  
HETATM   27  O   UNL     3     -11.276   6.354  69.538  1.00  0.00    -0.362 OA 
HETATM   28  H   UNL     3     -11.895   6.917  69.087  1.00  0.00     0.000 HD 
BRANCH  26  29
HETATM   29  C   UNL     3     -11.465   7.952  71.343  1.00  0.00    -0.260 C  
HETATM   30  O   UNL     3     -12.842   7.771  70.975  1.00  0.00    -0.521 OA 
HETATM   31  H   UNL     3     -13.431   8.306  71.495  1.00  0.00     0.000 HD 
BRANCH  29  32
HETATM   32  C   UNL     3     -11.186   9.451  71.381  1.00  0.00    -0.381 C  
HETATM   33  C   UNL     3     -12.138  10.294  70.514  1.00  0.00    -0.310 C  
HETATM   34  O   UNL     3      -9.803   9.697  70.876  1.00  0.00    -0.278 OA 
HETATM   35  O   UNL     3     -11.651  10.511  69.328  1.00  0.00    -0.261 OA 
HETATM   36  O   UNL     3     -13.008  10.959  71.109  1.00  0.00    -0.374 OA 
HETATM   37  H   UNL     3      -9.629  10.630  70.899  1.00  0.00     0.000 HD 
ENDBRANCH  29  32
ENDBRANCH  26  29
ENDBRANCH  23  26
ENDBRANCH   7  23
TORSDOF 8
ENDMDL
MODEL      300
REMARK 921   NORMALIZED FREE ENERGY PREDICTED BY IDOCK:   -3.98 KCAL/MOL
REMARK 922        TOTAL FREE ENERGY PREDICTED BY IDOCK:   -7.91 KCAL/MOL
REMARK 923 INTER-LIGAND FREE ENERGY PREDICTED BY IDOCK:   -7.20 KCAL/MOL
REMARK 924 INTRA-LIGAND FREE ENERGY PREDICTED BY IDOCK:   -0.71 KCAL/MOL
REMARK 927      BINDING AFFINITY PREDICTED BY RF-SCORE:    0.00 PKD
ROOT
HETATM    1 CU   UNL     1      -9.330  11.125  67.822  1.00  0.00    -0.146 Cu 
HETATM    2  O   UNL     2      -5.723   6.973  65.416  1.00  0.00    -0.030 OA 
HETATM    3  C   UNL     2      -7.069   6.525  65.628  1.00  0.00    -0.061 C  
HETATM    4  H   UNL     2      -5.197   6.203  65.236  1.00  0.00     0.000 HD 
HETATM    5  O   UNL     3     -14.171  13.490  72.757  1.00  0.00    -0.692 OA 
HETATM    6  H   UNL     3     -14.105  12.703  73.285  1.00  0.00     0.000 HD 
HETATM    7  C   UNL     3     -13.040  13.540  71.864  1.00  0.00    -0.384 C  
ENDROOT
BRANCH   3   8
HETATM    8  C   UNL     2      -7.915   7.763  65.917  1.00  0.00    -0.107 C  
HETATM    9  O   UNL     2      -8.807   8.008  64.813  1.00  0.00    -0.387 OA 
HETATM   10  H   UNL     2      -9.333   8.779  64.993  1.00  0.00     0.000 HD 
BRANCH   8  11
HETATM   11  C   UNL     2      -8.692   7.643  67.244  1.00  0.00    -0.124 C  
HETATM   12  O   UNL     2      -8.604   8.910  67.899  1.00  0.00    -0.125 OA 
HETATM   13  H   UNL     2      -9.083   8.837  68.716  1.00  0.00     0.000 HD 
BRANCH  11  14
HETATM   14  C   UNL     2     -10.156   7.277  66.927  1.00  0.00    -0.247 C  
HETATM   15  H   UNL     2     -11.905   8.196  67.054  1.00  0.00     0.000 HD 
HETATM   16  O   UNL     2     -11.003   8.421  67.249  1.00  0.00    -0.124 OA 
BRANCH  14  17
HETATM   17  C   UNL     2     -10.704   5.992  67.548  1.00  0.00    -0.301 C  
HETATM   18  C   UNL     2     -10.668   6.108  69.094  1.00  0.00    -0.316 C  
HETATM   19  H   UNL     2     -10.348   4.062  67.399  1.00  0.00     0.000 HD 
HETATM   20  O   UNL     2     -10.008   4.860  67.013  1.00  0.00    -0.178 OA 
HETATM   21  O   UNL     2     -11.175   7.208  69.484  1.00  0.00    -0.188 OA 
HETATM   22  O   UNL     2     -10.202   5.127  69.706  1.00  0.00    -0.254 OA 
ENDBRANCH  14  17
ENDBRANCH  11  14
ENDBRANCH   8  11
ENDBRANCH   3   8
BRANCH   7  23
HETATM   23  C   UNL     3     -13.148  14.811  71.011  1.00  0.00    -0.375 C  
HETATM   24  O   UNL     3     -13.634  15.877  71.851  1.00  0.00    -0.385 OA 
HETATM   25  H   UNL     3     -13.701  16.664  71.323  1.00  0.00     0.000 HD 
BRANCH  23  26
HETATM   26  C   UNL     3     -11.839  15.351  70.402  1.00  0.00    -0.335 C  
HETATM   27  O   UNL     3     -10.696  14.903  71.133  1.00  0.00    -0.535 OA 
HETATM   28  H   UNL     3      -9.889  15.236  70.758  1.00  0.00     0.000 HD 
BRANCH  26  29
HETATM   29  C   UNL     3     -11.581  15.131  68.895  1.00  0.00    -0.341 C  
HETATM   30  O   UNL     3     -12.568  14.286  68.284  1.00  0.00    -0.494 OA 
HETATM   31  H   UNL     3     -12.409  14.151  67.357  1.00  0.00     0.000 HD 
BRANCH  29  32
HETATM   32  C   UNL     3     -10.206  14.604  68.498  1.00  0.00    -0.240 C  
HETATM   33  C   UNL     3      -9.256  15.676  67.936  1.00  0.00    -0.190 C  
HETATM   34  O   UNL     3     -10.375  13.570  67.435  1.00  0.00    -0.235 OA 
HETATM   35  O   UNL     3      -9.304  15.737  66.638  1.00  0.00    -0.224 OA 
HETATM   36  O   UNL     3      -8.330  16.060  68.678  1.00  0.00    -0.179 OA 
HETATM   37  H   UNL     3      -9.518  13.242  67.187  1.00  0.00     0.000 HD 
ENDBRANCH  29  32
ENDBRANCH  26  29
ENDBRANCH  23  26
ENDBRANCH   7  23
TORSDOF 8
ENDMDL
MODEL      301
REMARK 921   NORMALIZED FREE ENERGY PREDICTED BY IDOCK:   -3.96 KCAL/MOL
REMARK 922        TOTAL FREE ENERGY PREDICTED BY IDOCK:   -7.89 KCAL/MOL
REMARK 923 INTER-LIGAND FREE ENERGY PREDICTED BY IDOCK:   -7.67 KCAL/MOL
REMARK 924 INTRA-LIGAND FREE ENERGY PREDICTED BY IDOCK:   -0.22 KCAL/MOL
REMARK 927      BINDING AFFINITY PREDICTED BY RF-SCORE:    0.00 PKD
ROOT
HETATM    1 CU   UNL     1     -11.675  10.621  70.866  1.00  0.00    -0.236 Cu 
HETATM    2  O   UNL     2     -12.525   5.128  73.133  1.00  0.00    -0.374 OA 
HETATM    3  C   UNL     2     -11.146   5.509  73.026  1.00  0.00    -0.300 C  
HETATM    4  H   UNL     2     -12.545   4.193  73.298  1.00  0.00     0.000 HD 
HETATM    5  O   UNL     3      -8.626  15.355  66.210  1.00  0.00    -0.397 OA 
HETATM    6  H   UNL     3      -8.205  14.672  65.701  1.00  0.00     0.000 HD 
HETATM    7  C   UNL     3      -9.655  14.753  67.022  1.00  0.00    -0.241 C  
ENDROOT
BRANCH   3   8
HETATM    8  C   UNL     2     -11.114   7.012  72.762  1.00  0.00    -0.284 C  
HETATM    9  O   UNL     2     -10.011   7.606  73.474  1.00  0.00    -0.315 OA 
HETATM   10  H   UNL     2      -9.992   8.541  73.310  1.00  0.00     0.000 HD 
BRANCH   8  11
HETATM   11  C   UNL     2     -11.043   7.338  71.256  1.00  0.00    -0.247 C  
HETATM   12  O   UNL     2     -11.368   8.723  71.110  1.00  0.00    -0.258 OA 
HETATM   13  H   UNL     2     -11.325   8.925  70.183  1.00  0.00     0.000 HD 
BRANCH  11  14
HETATM   14  C   UNL     2      -9.616   7.043  70.753  1.00  0.00    -0.164 C  
HETATM   15  H   UNL     2      -7.805   7.741  71.140  1.00  0.00     0.000 HD 
HETATM   16  O   UNL     2      -8.684   7.923  71.449  1.00  0.00    -0.120 OA 
BRANCH  14  17
HETATM   17  C   UNL     2      -9.387   7.081  69.241  1.00  0.00    -0.145 C  
HETATM   18  C   UNL     2      -9.942   5.782  68.602  1.00  0.00    -0.155 C  
HETATM   19  H   UNL     2      -7.864   7.367  68.028  1.00  0.00     0.000 HD 
HETATM   20  O   UNL     2      -8.006   7.344  68.967  1.00  0.00    -0.118 OA 
HETATM   21  O   UNL     2     -11.123   5.538  69.009  1.00  0.00    -0.115 OA 
HETATM   22  O   UNL     2      -9.194   5.211  67.784  1.00  0.00    -0.110 OA 
ENDBRANCH  14  17
ENDBRANCH  11  14
ENDBRANCH   8  11
ENDBRANCH   3   8
BRANCH   7  23
HETATM   23  C   UNL     3     -10.334  15.856  67.845  1.00  0.00    -0.269 C  
HETATM   24  O   UNL     3     -10.495  17.014  67.000  1.00  0.00    -0.315 OA 
HETATM   25  H   UNL     3     -10.916  17.697  67.510  1.00  0.00     0.000 HD 
BRANCH  23  26
HETATM   26  C   UNL     3     -11.749  15.553  68.376  1.00  0.00    -0.309 C  
HETATM   27  O   UNL     3     -12.065  14.163  68.266  1.00  0.00    -0.474 OA 
HETATM   28  H   UNL     3     -12.937  13.977  68.594  1.00  0.00     0.000 HD 
BRANCH  26  29
HETATM   29  C   UNL     3     -12.123  16.035  69.795  1.00  0.00    -0.107 C  
HETATM   30  O   UNL     3     -11.100  16.853  70.386  1.00  0.00    -0.410 OA 
HETATM   31  H   UNL     3     -11.331  17.149  71.259  1.00  0.00     0.000 HD 
BRANCH  29  32
HETATM   32  C   UNL     3     -12.510  14.965  70.810  1.00  0.00    -0.339 C  
HETATM   33  C   UNL     3     -12.719  15.495  72.239  1.00  0.00    -0.400 C  
HETATM   34  O   UNL     3     -11.419  13.948  70.877  1.00  0.00    -0.485 OA 
HETATM   35  O   UNL     3     -11.639  15.397  72.957  1.00  0.00    -0.446 OA 
HETATM   36  O   UNL     3     -13.894  15.581  72.647  1.00  0.00    -0.534 OA 
HETATM   37  H   UNL     3     -11.659  13.281  71.510  1.00  0.00     0.000 HD 
ENDBRANCH  29  32
ENDBRANCH  26  29
ENDBRANCH  23  26
ENDBRANCH   7  23
TORSDOF 8
ENDMDL
MODEL      302
REMARK 921   NORMALIZED FREE ENERGY PREDICTED BY IDOCK:   -3.96 KCAL/MOL
REMARK 922        TOTAL FREE ENERGY PREDICTED BY IDOCK:   -7.89 KCAL/MOL
REMARK 923 INTER-LIGAND FREE ENERGY PREDICTED BY IDOCK:   -6.41 KCAL/MOL
REMARK 924 INTRA-LIGAND FREE ENERGY PREDICTED BY IDOCK:   -1.47 KCAL/MOL
REMARK 927      BINDING AFFINITY PREDICTED BY RF-SCORE:    0.00 PKD
ROOT
HETATM    1 CU   UNL     1      -6.934  13.471  66.686  1.00  0.00    -0.333 Cu 
HETATM    2  O   UNL     2      -5.525  18.769  64.241  1.00  0.00    -0.232 OA 
HETATM    3  C   UNL     2      -6.161  18.868  65.523  1.00  0.00    -0.257 C  
HETATM    4  H   UNL     2      -5.535  19.638  63.856  1.00  0.00     0.000 HD 
HETATM    5  O   UNL     3     -11.548   8.762  69.835  1.00  0.00    -0.452 OA 
HETATM    6  H   UNL     3     -12.302   9.327  69.710  1.00  0.00     0.000 HD 
HETATM    7  C   UNL     3     -10.486   9.218  68.974  1.00  0.00    -0.216 C  
ENDROOT
BRANCH   3   8
HETATM    8  C   UNL     2      -6.145  17.473  66.141  1.00  0.00    -0.200 C  
HETATM    9  O   UNL     2      -5.466  17.514  67.411  1.00  0.00    -0.125 OA 
HETATM   10  H   UNL     2      -5.455  16.645  67.796  1.00  0.00     0.000 HD 
BRANCH   8  11
HETATM   11  C   UNL     2      -7.563  16.883  66.289  1.00  0.00    -0.277 C  
HETATM   12  O   UNL     2      -7.424  15.612  66.930  1.00  0.00    -0.209 OA 
HETATM   13  H   UNL     2      -8.297  15.248  67.021  1.00  0.00     0.000 HD 
BRANCH  11  14
HETATM   14  C   UNL     2      -8.415  17.848  67.136  1.00  0.00    -0.233 C  
HETATM   15  H   UNL     2      -8.717  18.145  69.070  1.00  0.00     0.000 HD 
HETATM   16  O   UNL     2      -8.192  17.550  68.547  1.00  0.00    -0.265 OA 
BRANCH  14  17
HETATM   17  C   UNL     2      -9.908  17.926  66.816  1.00  0.00    -0.333 C  
HETATM   18  C   UNL     2     -10.337  19.412  66.708  1.00  0.00    -0.443 C  
HETATM   19  H   UNL     2     -11.576  17.202  67.570  1.00  0.00     0.000 HD 
HETATM   20  O   UNL     2     -10.648  17.153  67.769  1.00  0.00    -0.352 OA 
HETATM   21  O   UNL     2      -9.543  20.066  65.958  1.00  0.00    -0.409 OA 
HETATM   22  O   UNL     2     -11.378  19.727  67.316  1.00  0.00    -0.126 OA 
ENDBRANCH  14  17
ENDBRANCH  11  14
ENDBRANCH   8  11
ENDBRANCH   3   8
BRANCH   7  23
HETATM   23  C   UNL     3      -9.268   8.306  69.176  1.00  0.00    -0.151 C  
HETATM   24  O   UNL     3      -8.220   8.752  68.292  1.00  0.00    -0.116 OA 
HETATM   25  H   UNL     3      -7.466   8.187  68.417  1.00  0.00     0.000 HD 
BRANCH  23  26
HETATM   26  C   UNL     3      -8.629   8.303  70.579  1.00  0.00    -0.131 C  
HETATM   27  O   UNL     3      -8.838   9.546  71.253  1.00  0.00    -0.312 OA 
HETATM   28  H   UNL     3      -8.444   9.544  72.118  1.00  0.00     0.000 HD 
BRANCH  26  29
HETATM   29  C   UNL     3      -8.977   7.150  71.545  1.00  0.00    -0.134 C  
HETATM   30  O   UNL     3     -10.389   6.891  71.608  1.00  0.00    -0.200 OA 
HETATM   31  H   UNL     3     -10.602   6.181  72.203  1.00  0.00     0.000 HD 
BRANCH  29  32
HETATM   32  C   UNL     3      -8.460   7.266  72.975  1.00  0.00    -0.122 C  
HETATM   33  C   UNL     3      -8.933   6.141  73.912  1.00  0.00    -0.128 C  
HETATM   34  O   UNL     3      -8.944   8.552  73.559  1.00  0.00    -0.240 OA 
HETATM   35  O   UNL     3     -10.009   6.472  74.565  1.00  0.00    -0.315 OA 
HETATM   36  O   UNL     3      -8.096   5.272  74.224  1.00  0.00    -0.102 OA 
HETATM   37  H   UNL     3      -8.622   8.625  74.450  1.00  0.00     0.000 HD 
ENDBRANCH  29  32
ENDBRANCH  26  29
ENDBRANCH  23  26
ENDBRANCH   7  23
TORSDOF 8
ENDMDL
MODEL      303
REMARK 921   NORMALIZED FREE ENERGY PREDICTED BY IDOCK:   -3.95 KCAL/MOL
REMARK 922        TOTAL FREE ENERGY PREDICTED BY IDOCK:   -7.87 KCAL/MOL
REMARK 923 INTER-LIGAND FREE ENERGY PREDICTED BY IDOCK:   -7.28 KCAL/MOL
REMARK 924 INTRA-LIGAND FREE ENERGY PREDICTED BY IDOCK:   -0.59 KCAL/MOL
REMARK 927      BINDING AFFINITY PREDICTED BY RF-SCORE:    0.00 PKD
ROOT
HETATM    1 CU   UNL     1      -9.125  14.198  65.258  1.00  0.00    -0.480 Cu 
HETATM    2  O   UNL     2      -8.627   8.613  63.116  1.00  0.00    -0.380 OA 
HETATM    3  C   UNL     2      -8.248   8.746  64.493  1.00  0.00    -0.167 C  
HETATM    4  H   UNL     2      -8.321   7.762  62.823  1.00  0.00     0.000 HD 
HETATM    5  O   UNL     3      -6.572  20.112  68.707  1.00  0.00    -0.307 OA 
HETATM    6  H   UNL     3      -5.689  19.766  68.770  1.00  0.00     0.000 HD 
HETATM    7  C   UNL     3      -7.295  19.348  67.720  1.00  0.00    -0.254 C  
ENDROOT
BRANCH   3   8
HETATM    8  C   UNL     2      -8.741  10.111  64.964  1.00  0.00    -0.173 C  
HETATM    9  O   UNL     2     -10.127  10.275  64.608  1.00  0.00    -0.345 OA 
HETATM   10  H   UNL     2     -10.434  11.126  64.901  1.00  0.00     0.000 HD 
BRANCH   8  11
HETATM   11  C   UNL     2      -8.528  10.319  66.478  1.00  0.00    -0.125 C  
HETATM   12  O   UNL     2      -9.059  11.605  66.805  1.00  0.00    -0.174 OA 
HETATM   13  H   UNL     2      -8.928  11.733  67.737  1.00  0.00     0.000 HD 
BRANCH  11  14
HETATM   14  C   UNL     2      -9.266   9.199  67.239  1.00  0.00    -0.133 C  
HETATM   15  H   UNL     2     -11.139   8.845  67.772  1.00  0.00     0.000 HD 
HETATM   16  O   UNL     2     -10.684   9.535  67.304  1.00  0.00    -0.263 OA 
BRANCH  14  17
HETATM   17  C   UNL     2      -8.725   8.818  68.617  1.00  0.00    -0.134 C  
HETATM   18  C   UNL     2      -7.234   9.231  68.719  1.00  0.00    -0.074 C  
HETATM   19  H   UNL     2      -8.648   7.196  69.730  1.00  0.00     0.000 HD 
HETATM   20  O   UNL     2      -8.985   7.432  68.873  1.00  0.00    -0.132 OA 
HETATM   21  O   UNL     2      -7.062  10.432  68.335  1.00  0.00    -0.075 OA 
HETATM   22  O   UNL     2      -6.458   8.372  69.182  1.00  0.00    -0.042 OA 
ENDBRANCH  14  17
ENDBRANCH  11  14
ENDBRANCH   8  11
ENDBRANCH   3   8
BRANCH   7  23
HETATM   23  C   UNL     3      -8.720  19.907  67.619  1.00  0.00    -0.334 C  
HETATM   24  O   UNL     3      -8.806  20.706  66.421  1.00  0.00    -0.545 OA 
HETATM   25  H   UNL     3      -9.689  21.052  66.358  1.00  0.00     0.000 HD 
BRANCH  23  26
HETATM   26  C   UNL     3      -9.861  18.879  67.492  1.00  0.00    -0.327 C  
HETATM   27  O   UNL     3     -11.083  19.498  67.083  1.00  0.00    -0.446 OA 
HETATM   28  H   UNL     3     -11.786  18.864  67.005  1.00  0.00     0.000 HD 
BRANCH  26  29
HETATM   29  C   UNL     3      -9.628  17.622  66.624  1.00  0.00    -0.295 C  
HETATM   30  O   UNL     3     -10.554  17.529  65.530  1.00  0.00    -0.612 OA 
HETATM   31  H   UNL     3     -10.411  16.756  64.996  1.00  0.00     0.000 HD 
BRANCH  29  32
HETATM   32  C   UNL     3      -9.620  16.277  67.343  1.00  0.00    -0.230 C  
HETATM   33  C   UNL     3     -10.981  15.561  67.361  1.00  0.00    -0.306 C  
HETATM   34  O   UNL     3      -9.223  16.494  68.766  1.00  0.00    -0.234 OA 
HETATM   35  O   UNL     3     -11.656  15.824  68.441  1.00  0.00    -0.373 OA 
HETATM   36  O   UNL     3     -11.116  14.578  66.606  1.00  0.00    -0.318 OA 
HETATM   37  H   UNL     3      -9.218  15.657  69.215  1.00  0.00     0.000 HD 
ENDBRANCH  29  32
ENDBRANCH  26  29
ENDBRANCH  23  26
ENDBRANCH   7  23
TORSDOF 8
ENDMDL
MODEL      304
REMARK 921   NORMALIZED FREE ENERGY PREDICTED BY IDOCK:   -3.94 KCAL/MOL
REMARK 922        TOTAL FREE ENERGY PREDICTED BY IDOCK:   -7.86 KCAL/MOL
REMARK 923 INTER-LIGAND FREE ENERGY PREDICTED BY IDOCK:   -6.33 KCAL/MOL
REMARK 924 INTRA-LIGAND FREE ENERGY PREDICTED BY IDOCK:   -1.54 KCAL/MOL
REMARK 927      BINDING AFFINITY PREDICTED BY RF-SCORE:    0.00 PKD
ROOT
HETATM    1 CU   UNL     1      -9.134   8.942  67.045  1.00  0.00    -0.120 Cu 
HETATM    2  O   UNL     2      -7.038   3.666  68.995  1.00  0.00    -0.048 OA 
HETATM    3  C   UNL     2      -7.452   4.553  70.043  1.00  0.00    -0.054 C  
HETATM    4  H   UNL     2      -6.541   2.965  69.401  1.00  0.00     0.000 HD 
HETATM    5  O   UNL     3      -9.367  16.245  66.976  1.00  0.00    -0.213 OA 
HETATM    6  H   UNL     3      -8.619  16.332  67.555  1.00  0.00     0.000 HD 
HETATM    7  C   UNL     3      -9.386  14.902  66.450  1.00  0.00    -0.297 C  
ENDROOT
BRANCH   3   8
HETATM    8  C   UNL     2      -8.251   5.678  69.390  1.00  0.00    -0.103 C  
HETATM    9  O   UNL     2      -9.292   5.118  68.567  1.00  0.00    -0.115 OA 
HETATM   10  H   UNL     2      -9.789   5.818  68.160  1.00  0.00     0.000 HD 
BRANCH   8  11
HETATM   11  C   UNL     2      -8.832   6.661  70.428  1.00  0.00    -0.152 C  
HETATM   12  O   UNL     2      -7.998   7.822  70.419  1.00  0.00    -0.093 OA 
HETATM   13  H   UNL     2      -8.356   8.427  71.058  1.00  0.00     0.000 HD 
BRANCH  11  14
HETATM   14  C   UNL     2     -10.279   7.007  70.024  1.00  0.00    -0.194 C  
HETATM   15  H   UNL     2     -11.140   7.953  68.514  1.00  0.00     0.000 HD 
HETATM   16  O   UNL     2     -10.249   7.739  68.763  1.00  0.00    -0.193 OA 
BRANCH  14  17
HETATM   17  C   UNL     2     -11.139   7.729  71.062  1.00  0.00    -0.257 C  
HETATM   18  C   UNL     2     -12.136   6.725  71.696  1.00  0.00    -0.359 C  
HETATM   19  H   UNL     2     -12.278   9.334  71.115  1.00  0.00     0.000 HD 
HETATM   20  O   UNL     2     -11.744   8.885  70.470  1.00  0.00    -0.228 OA 
HETATM   21  O   UNL     2     -11.544   5.661  72.066  1.00  0.00    -0.207 OA 
HETATM   22  O   UNL     2     -13.319   7.109  71.784  1.00  0.00    -0.353 OA 
ENDBRANCH  14  17
ENDBRANCH  11  14
ENDBRANCH   8  11
ENDBRANCH   3   8
BRANCH   7  23
HETATM   23  C   UNL     3     -10.594  14.761  65.515  1.00  0.00    -0.359 C  
HETATM   24  O   UNL     3     -10.489  15.770  64.490  1.00  0.00    -0.658 OA 
HETATM   25  H   UNL     3     -11.238  15.682  63.910  1.00  0.00     0.000 HD 
BRANCH  23  26
HETATM   26  C   UNL     3     -10.727  13.430  64.750  1.00  0.00    -0.390 C  
HETATM   27  O   UNL     3     -10.123  13.505  63.456  1.00  0.00    -0.193 OA 
HETATM   28  H   UNL     3     -10.205  12.684  62.985  1.00  0.00     0.000 HD 
BRANCH  26  29
HETATM   29  C   UNL     3     -10.258  12.131  65.441  1.00  0.00    -0.270 C  
HETATM   30  O   UNL     3      -8.829  12.063  65.574  1.00  0.00    -0.401 OA 
HETATM   31  H   UNL     3      -8.541  11.264  66.000  1.00  0.00     0.000 HD 
BRANCH  29  32
HETATM   32  C   UNL     3     -10.733  10.814  64.835  1.00  0.00    -0.096 C  
HETATM   33  C   UNL     3      -9.618   9.980  64.181  1.00  0.00    -0.208 C  
HETATM   34  O   UNL     3     -11.739  11.109  63.772  1.00  0.00    -0.344 OA 
HETATM   35  O   UNL     3      -9.519  10.215  62.905  1.00  0.00    -0.299 OA 
HETATM   36  O   UNL     3      -9.231   8.968  64.796  1.00  0.00    -0.123 OA 
HETATM   37  H   UNL     3     -12.035  10.289  63.394  1.00  0.00     0.000 HD 
ENDBRANCH  29  32
ENDBRANCH  26  29
ENDBRANCH  23  26
ENDBRANCH   7  23
TORSDOF 8
ENDMDL
MODEL      305
REMARK 921   NORMALIZED FREE ENERGY PREDICTED BY IDOCK:   -3.94 KCAL/MOL
REMARK 922        TOTAL FREE ENERGY PREDICTED BY IDOCK:   -7.86 KCAL/MOL
REMARK 923 INTER-LIGAND FREE ENERGY PREDICTED BY IDOCK:   -6.00 KCAL/MOL
REMARK 924 INTRA-LIGAND FREE ENERGY PREDICTED BY IDOCK:   -1.86 KCAL/MOL
REMARK 927      BINDING AFFINITY PREDICTED BY RF-SCORE:    0.00 PKD
ROOT
HETATM    1 CU   UNL     1      -7.522  11.078  68.640  1.00  0.00    -0.073 Cu 
HETATM    2  O   UNL     2      -6.333  16.892  69.544  1.00  0.00    -0.220 OA 
HETATM    3  C   UNL     2      -7.573  16.649  68.863  1.00  0.00    -0.240 C  
HETATM    4  H   UNL     2      -6.142  17.819  69.452  1.00  0.00     0.000 HD 
HETATM    5  O   UNL     3      -9.357   5.368  64.466  1.00  0.00    -0.349 OA 
HETATM    6  H   UNL     3      -9.316   5.870  63.660  1.00  0.00     0.000 HD 
HETATM    7  C   UNL     3      -8.668   6.102  65.499  1.00  0.00    -0.098 C  
ENDROOT
BRANCH   3   8
HETATM    8  C   UNL     2      -7.881  15.161  69.011  1.00  0.00    -0.181 C  
HETATM    9  O   UNL     2      -9.069  14.989  69.807  1.00  0.00    -0.448 OA 
HETATM   10  H   UNL     2      -9.261  14.063  69.899  1.00  0.00     0.000 HD 
BRANCH   8  11
HETATM   11  C   UNL     2      -8.020  14.455  67.647  1.00  0.00    -0.179 C  
HETATM   12  O   UNL     2      -7.054  13.401  67.618  1.00  0.00    -0.138 OA 
HETATM   13  H   UNL     2      -7.139  12.966  66.778  1.00  0.00     0.000 HD 
BRANCH  11  14
HETATM   14  C   UNL     2      -9.454  13.903  67.519  1.00  0.00    -0.216 C  
HETATM   15  H   UNL     2     -10.263  12.152  67.080  1.00  0.00     0.000 HD 
HETATM   16  O   UNL     2      -9.380  12.492  67.158  1.00  0.00    -0.189 OA 
BRANCH  14  17
HETATM   17  C   UNL     2     -10.413  14.659  66.599  1.00  0.00    -0.278 C  
HETATM   18  C   UNL     2     -11.789  13.946  66.589  1.00  0.00    -0.420 C  
HETATM   19  H   UNL     2     -10.410  15.299  64.738  1.00  0.00     0.000 HD 
HETATM   20  O   UNL     2      -9.813  14.829  65.309  1.00  0.00    -0.329 OA 
HETATM   21  O   UNL     2     -12.188  13.699  67.772  1.00  0.00    -0.321 OA 
HETATM   22  O   UNL     2     -12.303  13.763  65.468  1.00  0.00    -0.415 OA 
ENDBRANCH  14  17
ENDBRANCH  11  14
ENDBRANCH   8  11
ENDBRANCH   3   8
BRANCH   7  23
HETATM   23  C   UNL     3      -8.734   5.293  66.800  1.00  0.00    -0.112 C  
HETATM   24  O   UNL     3      -7.385   5.064  67.257  1.00  0.00    -0.079 OA 
HETATM   25  H   UNL     3      -7.426   4.562  68.064  1.00  0.00     0.000 HD 
BRANCH  23  26
HETATM   26  C   UNL     3      -9.450   5.954  67.994  1.00  0.00    -0.108 C  
HETATM   27  O   UNL     3      -9.557   5.059  69.104  1.00  0.00    -0.129 OA 
HETATM   28  H   UNL     3      -9.998   5.468  69.840  1.00  0.00     0.000 HD 
BRANCH  26  29
HETATM   29  C   UNL     3      -8.931   7.316  68.503  1.00  0.00    -0.130 C  
HETATM   30  O   UNL     3      -8.597   7.291  69.900  1.00  0.00    -0.138 OA 
HETATM   31  H   UNL     3      -8.278   8.129  70.213  1.00  0.00     0.000 HD 
BRANCH  29  32
HETATM   32  C   UNL     3      -9.819   8.531  68.258  1.00  0.00    -0.169 C  
HETATM   33  C   UNL     3     -10.205   9.301  69.533  1.00  0.00    -0.207 C  
HETATM   34  O   UNL     3     -11.090   8.078  67.620  1.00  0.00    -0.495 OA 
HETATM   35  O   UNL     3     -11.348   8.905  70.013  1.00  0.00    -0.175 OA 
HETATM   36  O   UNL     3      -9.639  10.393  69.730  1.00  0.00    -0.165 OA 
HETATM   37  H   UNL     3     -11.644   8.834  67.467  1.00  0.00     0.000 HD 
ENDBRANCH  29  32
ENDBRANCH  26  29
ENDBRANCH  23  26
ENDBRANCH   7  23
TORSDOF 8
ENDMDL
MODEL      306
REMARK 921   NORMALIZED FREE ENERGY PREDICTED BY IDOCK:   -3.94 KCAL/MOL
REMARK 922        TOTAL FREE ENERGY PREDICTED BY IDOCK:   -7.86 KCAL/MOL
REMARK 923 INTER-LIGAND FREE ENERGY PREDICTED BY IDOCK:   -6.80 KCAL/MOL
REMARK 924 INTRA-LIGAND FREE ENERGY PREDICTED BY IDOCK:   -1.06 KCAL/MOL
REMARK 927      BINDING AFFINITY PREDICTED BY RF-SCORE:    0.00 PKD
ROOT
HETATM    1 CU   UNL     1      -9.165   9.757  67.337  1.00  0.00    -0.127 Cu 
HETATM    2  O   UNL     2      -8.478  15.072  70.042  1.00  0.00    -0.378 OA 
HETATM    3  C   UNL     2      -8.289  15.112  68.620  1.00  0.00    -0.160 C  
HETATM    4  H   UNL     2      -8.150  15.893  70.390  1.00  0.00     0.000 HD 
HETATM    5  O   UNL     3      -7.005   4.371  62.897  1.00  0.00    -0.037 OA 
HETATM    6  H   UNL     3      -6.146   4.752  62.758  1.00  0.00     0.000 HD 
HETATM    7  C   UNL     3      -7.599   4.991  64.057  1.00  0.00    -0.067 C  
ENDROOT
BRANCH   3   8
HETATM    8  C   UNL     2      -8.818  13.794  68.060  1.00  0.00    -0.182 C  
HETATM    9  O   UNL     2      -8.616  12.742  69.024  1.00  0.00    -0.331 OA 
HETATM   10  H   UNL     2      -8.944  11.922  68.675  1.00  0.00     0.000 HD 
BRANCH   8  11
HETATM   11  C   UNL     2     -10.300  13.888  67.644  1.00  0.00    -0.242 C  
HETATM   12  O   UNL     2     -10.834  15.067  68.253  1.00  0.00    -0.246 OA 
HETATM   13  H   UNL     2     -11.746  15.125  67.997  1.00  0.00     0.000 HD 
BRANCH  11  14
HETATM   14  C   UNL     2     -10.377  13.969  66.106  1.00  0.00    -0.297 C  
HETATM   15  H   UNL     2      -9.258  14.747  64.671  1.00  0.00     0.000 HD 
HETATM   16  O   UNL     2      -9.211  14.697  65.618  1.00  0.00    -0.065 OA 
BRANCH  14  17
HETATM   17  C   UNL     2     -11.667  14.523  65.500  1.00  0.00    -0.343 C  
HETATM   18  C   UNL     2     -12.344  13.427  64.637  1.00  0.00    -0.382 C  
HETATM   19  H   UNL     2     -12.193  16.092  64.434  1.00  0.00     0.000 HD 
HETATM   20  O   UNL     2     -11.391  15.748  64.811  1.00  0.00    -0.392 OA 
HETATM   21  O   UNL     2     -12.421  12.325  65.269  1.00  0.00    -0.585 OA 
HETATM   22  O   UNL     2     -12.735  13.783  63.508  1.00  0.00    -0.774 OA 
ENDBRANCH  14  17
ENDBRANCH  11  14
ENDBRANCH   8  11
ENDBRANCH   3   8
BRANCH   7  23
HETATM   23  C   UNL     3      -8.987   4.376  64.281  1.00  0.00    -0.151 C  
HETATM   24  O   UNL     3      -9.078   3.172  63.493  1.00  0.00    -0.095 OA 
HETATM   25  H   UNL     3      -9.938   2.791  63.632  1.00  0.00     0.000 HD 
BRANCH  23  26
HETATM   26  C   UNL     3      -9.326   3.936  65.719  1.00  0.00    -0.162 C  
HETATM   27  O   UNL     3      -8.198   4.063  66.587  1.00  0.00    -0.100 OA 
HETATM   28  H   UNL     3      -8.408   3.791  67.473  1.00  0.00     0.000 HD 
BRANCH  26  29
HETATM   29  C   UNL     3     -10.557   4.562  66.411  1.00  0.00     0.093 C  
HETATM   30  O   UNL     3     -11.521   5.065  65.471  1.00  0.00    -0.830 OA 
HETATM   31  H   UNL     3     -12.277   5.450  65.897  1.00  0.00     0.000 HD 
BRANCH  29  32
HETATM   32  C   UNL     3     -10.290   5.659  67.436  1.00  0.00    -0.230 C  
HETATM   33  C   UNL     3      -9.861   7.005  66.827  1.00  0.00    -0.186 C  
HETATM   34  O   UNL     3      -9.185   5.217  68.338  1.00  0.00    -0.110 OA 
HETATM   35  O   UNL     3      -8.567   7.123  66.770  1.00  0.00    -0.117 OA 
HETATM   36  O   UNL     3     -10.705   7.922  66.824  1.00  0.00    -0.304 OA 
HETATM   37  H   UNL     3      -9.018   5.900  68.977  1.00  0.00     0.000 HD 
ENDBRANCH  29  32
ENDBRANCH  26  29
ENDBRANCH  23  26
ENDBRANCH   7  23
TORSDOF 8
ENDMDL
MODEL      307
REMARK 921   NORMALIZED FREE ENERGY PREDICTED BY IDOCK:   -3.94 KCAL/MOL
REMARK 922        TOTAL FREE ENERGY PREDICTED BY IDOCK:   -7.86 KCAL/MOL
REMARK 923 INTER-LIGAND FREE ENERGY PREDICTED BY IDOCK:   -6.07 KCAL/MOL
REMARK 924 INTRA-LIGAND FREE ENERGY PREDICTED BY IDOCK:   -1.79 KCAL/MOL
REMARK 927      BINDING AFFINITY PREDICTED BY RF-SCORE:    0.00 PKD
ROOT
HETATM    1 CU   UNL     1      -8.913   9.802  68.030  1.00  0.00    -0.115 Cu 
HETATM    2  O   UNL     2      -9.554   3.932  66.947  1.00  0.00    -0.200 OA 
HETATM    3  C   UNL     2      -8.189   4.374  66.980  1.00  0.00    -0.101 C  
HETATM    4  H   UNL     2      -9.556   3.059  66.571  1.00  0.00     0.000 HD 
HETATM    5  O   UNL     3      -6.267  16.453  66.568  1.00  0.00    -0.261 OA 
HETATM    6  H   UNL     3      -5.884  16.183  65.741  1.00  0.00     0.000 HD 
HETATM    7  C   UNL     3      -7.225  15.456  66.977  1.00  0.00    -0.037 C  
ENDROOT
BRANCH   3   8
HETATM    8  C   UNL     2      -8.186   5.775  67.585  1.00  0.00    -0.101 C  
HETATM    9  O   UNL     2      -6.828   6.202  67.811  1.00  0.00    -0.059 OA 
HETATM   10  H   UNL     2      -6.827   7.074  68.188  1.00  0.00     0.000 HD 
BRANCH   8  11
HETATM   11  C   UNL     2      -8.950   6.791  66.711  1.00  0.00    -0.134 C  
HETATM   12  O   UNL     2      -9.235   6.146  65.467  1.00  0.00    -0.366 OA 
HETATM   13  H   UNL     2      -9.705   6.771  64.929  1.00  0.00     0.000 HD 
BRANCH  11  14
HETATM   14  C   UNL     2     -10.245   7.197  67.441  1.00  0.00    -0.226 C  
HETATM   15  H   UNL     2     -11.542   8.685  67.304  1.00  0.00     0.000 HD 
HETATM   16  O   UNL     2     -10.744   8.435  66.854  1.00  0.00    -0.279 OA 
BRANCH  14  17
HETATM   17  C   UNL     2     -10.186   7.293  68.966  1.00  0.00    -0.197 C  
HETATM   18  C   UNL     2     -11.156   6.255  69.588  1.00  0.00    -0.412 C  
HETATM   19  H   UNL     2     -10.373   8.707  70.323  1.00  0.00     0.000 HD 
HETATM   20  O   UNL     2     -10.410   8.647  69.375  1.00  0.00    -0.210 OA 
HETATM   21  O   UNL     2     -10.993   5.105  69.068  1.00  0.00     0.130 OA 
HETATM   22  O   UNL     2     -11.896   6.674  70.499  1.00  0.00    -0.390 OA 
ENDBRANCH  14  17
ENDBRANCH  11  14
ENDBRANCH   8  11
ENDBRANCH   3   8
BRANCH   7  23
HETATM   23  C   UNL     3      -7.843  15.892  68.313  1.00  0.00    -0.138 C  
HETATM   24  O   UNL     3      -8.161  17.296  68.224  1.00  0.00    -0.227 OA 
HETATM   25  H   UNL     3      -8.543  17.567  69.051  1.00  0.00     0.000 HD 
BRANCH  23  26
HETATM   26  C   UNL     3      -9.163  15.212  68.722  1.00  0.00    -0.200 C  
HETATM   27  O   UNL     3      -9.717  15.805  69.899  1.00  0.00    -0.250 OA 
HETATM   28  H   UNL     3     -10.531  15.385  70.151  1.00  0.00     0.000 HD 
BRANCH  26  29
HETATM   29  C   UNL     3     -10.280  15.073  67.664  1.00  0.00    -0.236 C  
HETATM   30  O   UNL     3     -10.550  16.309  66.983  1.00  0.00    -0.314 OA 
HETATM   31  H   UNL     3     -11.237  16.223  66.333  1.00  0.00     0.000 HD 
BRANCH  29  32
HETATM   32  C   UNL     3     -11.613  14.500  68.136  1.00  0.00    -0.331 C  
HETATM   33  C   UNL     3     -11.500  13.141  68.848  1.00  0.00    -0.298 C  
HETATM   34  O   UNL     3     -12.498  14.300  66.951  1.00  0.00    -0.581 OA 
HETATM   35  O   UNL     3     -11.675  12.146  68.028  1.00  0.00    -0.331 OA 
HETATM   36  O   UNL     3     -11.642  13.135  70.087  1.00  0.00    -0.209 OA 
HETATM   37  H   UNL     3     -13.328  13.943  67.245  1.00  0.00     0.000 HD 
ENDBRANCH  29  32
ENDBRANCH  26  29
ENDBRANCH  23  26
ENDBRANCH   7  23
TORSDOF 8
ENDMDL
MODEL      308
REMARK 921   NORMALIZED FREE ENERGY PREDICTED BY IDOCK:   -3.94 KCAL/MOL
REMARK 922        TOTAL FREE ENERGY PREDICTED BY IDOCK:   -7.85 KCAL/MOL
REMARK 923 INTER-LIGAND FREE ENERGY PREDICTED BY IDOCK:   -6.36 KCAL/MOL
REMARK 924 INTRA-LIGAND FREE ENERGY PREDICTED BY IDOCK:   -1.49 KCAL/MOL
REMARK 927      BINDING AFFINITY PREDICTED BY RF-SCORE:    0.00 PKD
ROOT
HETATM    1 CU   UNL     1     -11.258   8.980  70.868  1.00  0.00    -0.222 Cu 
HETATM    2  O   UNL     2      -9.786   3.256  71.915  1.00  0.00    -0.161 OA 
HETATM    3  C   UNL     2     -10.684   3.814  72.885  1.00  0.00    -0.110 C  
HETATM    4  H   UNL     2      -9.458   2.440  72.275  1.00  0.00     0.000 HD 
HETATM    5  O   UNL     3     -12.036  15.977  72.824  1.00  0.00    -0.447 OA 
HETATM    6  H   UNL     3     -11.622  15.847  73.669  1.00  0.00     0.000 HD 
HETATM    7  C   UNL     3     -11.716  14.853  71.979  1.00  0.00    -0.289 C  
ENDROOT
BRANCH   3   8
HETATM    8  C   UNL     2     -11.211   5.124  72.306  1.00  0.00    -0.053 C  
HETATM    9  O   UNL     2     -12.527   5.391  72.830  1.00  0.00    -0.472 OA 
HETATM   10  H   UNL     2     -12.855   6.207  72.469  1.00  0.00     0.000 HD 
BRANCH   8  11
HETATM   11  C   UNL     2     -10.257   6.307  72.571  1.00  0.00    -0.184 C  
HETATM   12  O   UNL     2      -9.284   5.858  73.517  1.00  0.00    -0.132 OA 
HETATM   13  H   UNL     2      -8.696   6.585  73.681  1.00  0.00     0.000 HD 
BRANCH  11  14
HETATM   14  C   UNL     2      -9.596   6.717  71.240  1.00  0.00    -0.169 C  
HETATM   15  H   UNL     2      -9.411   5.910  69.442  1.00  0.00     0.000 HD 
HETATM   16  O   UNL     2      -9.818   5.657  70.263  1.00  0.00    -0.175 OA 
BRANCH  14  17
HETATM   17  C   UNL     2      -8.123   7.125  71.288  1.00  0.00    -0.107 C  
HETATM   18  C   UNL     2      -7.841   8.174  70.182  1.00  0.00    -0.098 C  
HETATM   19  H   UNL     2      -6.381   6.210  71.266  1.00  0.00     0.000 HD 
HETATM   20  O   UNL     2      -7.296   5.956  71.236  1.00  0.00    -0.076 OA 
HETATM   21  O   UNL     2      -8.706   9.107  70.201  1.00  0.00    -0.145 OA 
HETATM   22  O   UNL     2      -6.823   7.978  69.489  1.00  0.00    -0.045 OA 
ENDBRANCH  14  17
ENDBRANCH  11  14
ENDBRANCH   8  11
ENDBRANCH   3   8
BRANCH   7  23
HETATM   23  C   UNL     3     -12.385  15.062  70.614  1.00  0.00    -0.348 C  
HETATM   24  O   UNL     3     -13.619  15.779  70.823  1.00  0.00    -0.766 OA 
HETATM   25  H   UNL     3     -14.034  15.908  69.978  1.00  0.00     0.000 HD 
BRANCH  23  26
HETATM   26  C   UNL     3     -11.609  15.903  69.582  1.00  0.00    -0.336 C  
HETATM   27  O   UNL     3     -11.250  17.182  70.110  1.00  0.00    -0.237 OA 
HETATM   28  H   UNL     3     -10.771  17.700  69.473  1.00  0.00     0.000 HD 
BRANCH  26  29
HETATM   29  C   UNL     3     -10.368  15.280  68.906  1.00  0.00    -0.243 C  
HETATM   30  O   UNL     3      -9.256  15.153  69.806  1.00  0.00    -0.442 OA 
HETATM   31  H   UNL     3      -8.493  14.769  69.390  1.00  0.00     0.000 HD 
BRANCH  29  32
HETATM   32  C   UNL     3      -9.863  15.951  67.633  1.00  0.00    -0.233 C  
HETATM   33  C   UNL     3     -10.082  15.125  66.353  1.00  0.00    -0.273 C  
HETATM   34  O   UNL     3      -8.393  16.179  67.759  1.00  0.00    -0.152 OA 
HETATM   35  O   UNL     3      -9.042  14.402  66.057  1.00  0.00    -0.117 OA 
HETATM   36  O   UNL     3     -10.986  15.500  65.582  1.00  0.00    -0.333 OA 
HETATM   37  H   UNL     3      -8.079  16.597  66.966  1.00  0.00     0.000 HD 
ENDBRANCH  29  32
ENDBRANCH  26  29
ENDBRANCH  23  26
ENDBRANCH   7  23
TORSDOF 8
ENDMDL
MODEL      309
REMARK 921   NORMALIZED FREE ENERGY PREDICTED BY IDOCK:   -3.93 KCAL/MOL
REMARK 922        TOTAL FREE ENERGY PREDICTED BY IDOCK:   -7.85 KCAL/MOL
REMARK 923 INTER-LIGAND FREE ENERGY PREDICTED BY IDOCK:   -6.42 KCAL/MOL
REMARK 924 INTRA-LIGAND FREE ENERGY PREDICTED BY IDOCK:   -1.43 KCAL/MOL
REMARK 927      BINDING AFFINITY PREDICTED BY RF-SCORE:    0.00 PKD
ROOT
HETATM    1 CU   UNL     1      -9.336   9.167  69.014  1.00  0.00    -0.137 Cu 
HETATM    2  O   UNL     2      -8.607   4.349  72.520  1.00  0.00    -0.107 OA 
HETATM    3  C   UNL     2      -8.081   4.191  71.194  1.00  0.00    -0.072 C  
HETATM    4  H   UNL     2      -8.631   3.485  72.915  1.00  0.00     0.000 HD 
HETATM    5  O   UNL     3     -11.459  12.501  62.869  1.00  0.00    -0.680 OA 
HETATM    6  H   UNL     3     -11.867  11.719  62.517  1.00  0.00     0.000 HD 
HETATM    7  C   UNL     3     -11.250  12.312  64.284  1.00  0.00    -0.350 C  
ENDROOT
BRANCH   3   8
HETATM    8  C   UNL     2      -8.042   5.579  70.559  1.00  0.00    -0.104 C  
HETATM    9  O   UNL     2      -7.181   5.558  69.403  1.00  0.00    -0.062 OA 
HETATM   10  H   UNL     2      -7.157   6.422  69.008  1.00  0.00     0.000 HD 
BRANCH   8  11
HETATM   11  C   UNL     2      -9.449   6.095  70.195  1.00  0.00    -0.159 C  
HETATM   12  O   UNL     2     -10.349   4.992  70.329  1.00  0.00    -0.266 OA 
HETATM   13  H   UNL     2     -11.216   5.309  70.105  1.00  0.00     0.000 HD 
BRANCH  11  14
HETATM   14  C   UNL     2      -9.820   7.241  71.158  1.00  0.00    -0.182 C  
HETATM   15  H   UNL     2      -9.034   8.023  72.797  1.00  0.00     0.000 HD 
HETATM   16  O   UNL     2      -8.806   7.317  72.203  1.00  0.00    -0.126 OA 
BRANCH  14  17
HETATM   17  C   UNL     2     -11.228   7.224  71.753  1.00  0.00    -0.247 C  
HETATM   18  C   UNL     2     -11.927   8.577  71.465  1.00  0.00    -0.303 C  
HETATM   19  H   UNL     2     -12.039   6.850  73.507  1.00  0.00     0.000 HD 
HETATM   20  O   UNL     2     -11.164   6.861  73.137  1.00  0.00    -0.230 OA 
HETATM   21  O   UNL     2     -11.814   8.902  70.240  1.00  0.00    -0.064 OA 
HETATM   22  O   UNL     2     -12.509   9.109  72.431  1.00  0.00    -0.352 OA 
ENDBRANCH  14  17
ENDBRANCH  11  14
ENDBRANCH   8  11
ENDBRANCH   3   8
BRANCH   7  23
HETATM   23  C   UNL     3     -10.590  13.575  64.852  1.00  0.00    -0.397 C  
HETATM   24  O   UNL     3     -11.597  14.603  64.951  1.00  0.00    -0.372 OA 
HETATM   25  H   UNL     3     -11.188  15.386  65.303  1.00  0.00     0.000 HD 
BRANCH  23  26
HETATM   26  C   UNL     3      -9.993  13.468  66.269  1.00  0.00    -0.298 C  
HETATM   27  O   UNL     3      -9.844  12.105  66.675  1.00  0.00    -0.203 OA 
HETATM   28  H   UNL     3      -9.476  12.040  67.548  1.00  0.00     0.000 HD 
BRANCH  26  29
HETATM   29  C   UNL     3      -8.681  14.223  66.576  1.00  0.00     0.023 C  
HETATM   30  O   UNL     3      -7.745  13.422  67.317  1.00  0.00    -0.272 OA 
HETATM   31  H   UNL     3      -6.938  13.887  67.505  1.00  0.00     0.000 HD 
BRANCH  29  32
HETATM   32  C   UNL     3      -8.805  15.568  67.282  1.00  0.00    -0.201 C  
HETATM   33  C   UNL     3      -9.228  16.728  66.363  1.00  0.00    -0.279 C  
HETATM   34  O   UNL     3      -7.478  15.933  67.861  1.00  0.00    -0.121 OA 
HETATM   35  O   UNL     3      -8.203  17.378  65.895  1.00  0.00    -0.537 OA 
HETATM   36  O   UNL     3     -10.400  17.140  66.472  1.00  0.00    -0.318 OA 
HETATM   37  H   UNL     3      -7.555  16.772  68.300  1.00  0.00     0.000 HD 
ENDBRANCH  29  32
ENDBRANCH  26  29
ENDBRANCH  23  26
ENDBRANCH   7  23
TORSDOF 8
ENDMDL
MODEL      310
REMARK 921   NORMALIZED FREE ENERGY PREDICTED BY IDOCK:   -3.93 KCAL/MOL
REMARK 922        TOTAL FREE ENERGY PREDICTED BY IDOCK:   -7.84 KCAL/MOL
REMARK 923 INTER-LIGAND FREE ENERGY PREDICTED BY IDOCK:   -7.02 KCAL/MOL
REMARK 924 INTRA-LIGAND FREE ENERGY PREDICTED BY IDOCK:   -0.82 KCAL/MOL
REMARK 927      BINDING AFFINITY PREDICTED BY RF-SCORE:    0.00 PKD
ROOT
HETATM    1 CU   UNL     1      -7.579   9.228  69.088  1.00  0.00    -0.063 Cu 
HETATM    2  O   UNL     2      -7.313   3.613  71.193  1.00  0.00    -0.033 OA 
HETATM    3  C   UNL     2      -7.984   4.532  72.067  1.00  0.00    -0.099 C  
HETATM    4  H   UNL     2      -7.142   2.824  71.696  1.00  0.00     0.000 HD 
HETATM    5  O   UNL     3      -6.647  16.454  69.646  1.00  0.00    -0.214 OA 
HETATM    6  H   UNL     3      -6.203  16.390  70.484  1.00  0.00     0.000 HD 
HETATM    7  C   UNL     3      -6.650  15.150  69.029  1.00  0.00    -0.113 C  
ENDROOT
BRANCH   3   8
HETATM    8  C   UNL     2      -8.258   5.799  71.260  1.00  0.00    -0.122 C  
HETATM    9  O   UNL     2      -7.064   6.192  70.556  1.00  0.00    -0.067 OA 
HETATM   10  H   UNL     2      -7.235   6.981  70.054  1.00  0.00     0.000 HD 
BRANCH   8  11
HETATM   11  C   UNL     2      -9.444   5.627  70.289  1.00  0.00    -0.161 C  
HETATM   12  O   UNL     2      -9.892   4.275  70.407  1.00  0.00    -0.202 OA 
HETATM   13  H   UNL     2     -10.623   4.169  69.809  1.00  0.00     0.000 HD 
BRANCH  11  14
HETATM   14  C   UNL     2     -10.555   6.621  70.685  1.00  0.00    -0.227 C  
HETATM   15  H   UNL     2     -12.384   7.028  70.048  1.00  0.00     0.000 HD 
HETATM   16  O   UNL     2     -11.700   6.416  69.805  1.00  0.00    -0.414 OA 
BRANCH  14  17
HETATM   17  C   UNL     2     -10.173   8.100  70.760  1.00  0.00    -0.194 C  
HETATM   18  C   UNL     2     -11.178   8.847  71.675  1.00  0.00    -0.345 C  
HETATM   19  H   UNL     2      -9.813   9.555  69.484  1.00  0.00     0.000 HD 
HETATM   20  O   UNL     2     -10.050   8.636  69.437  1.00  0.00    -0.193 OA 
HETATM   21  O   UNL     2     -11.345   8.230  72.775  1.00  0.00    -0.381 OA 
HETATM   22  O   UNL     2     -11.627   9.922  71.232  1.00  0.00    -0.360 OA 
ENDBRANCH  14  17
ENDBRANCH  11  14
ENDBRANCH   8  11
ENDBRANCH   3   8
BRANCH   7  23
HETATM   23  C   UNL     3      -7.367  15.252  67.676  1.00  0.00    -0.178 C  
HETATM   24  O   UNL     3      -7.467  13.925  67.119  1.00  0.00    -0.343 OA 
HETATM   25  H   UNL     3      -7.910  13.988  66.281  1.00  0.00     0.000 HD 
BRANCH  23  26
HETATM   26  C   UNL     3      -8.813  15.784  67.696  1.00  0.00    -0.175 C  
HETATM   27  O   UNL     3      -9.656  14.982  68.526  1.00  0.00    -0.197 OA 
HETATM   28  H   UNL     3     -10.548  15.310  68.538  1.00  0.00     0.000 HD 
BRANCH  26  29
HETATM   29  C   UNL     3      -9.048  17.271  68.041  1.00  0.00    -0.249 C  
HETATM   30  O   UNL     3     -10.265  17.481  68.773  1.00  0.00    -0.344 OA 
HETATM   31  H   UNL     3     -10.409  18.396  68.985  1.00  0.00     0.000 HD 
BRANCH  29  32
HETATM   32  C   UNL     3      -9.024  18.262  66.882  1.00  0.00    -0.279 C  
HETATM   33  C   UNL     3     -10.408  18.568  66.283  1.00  0.00    -0.427 C  
HETATM   34  O   UNL     3      -8.188  17.696  65.781  1.00  0.00    -0.543 OA 
HETATM   35  O   UNL     3     -10.677  17.804  65.265  1.00  0.00    -0.649 OA 
HETATM   36  O   UNL     3     -10.910  19.677  66.550  1.00  0.00    -0.447 OA 
HETATM   37  H   UNL     3      -8.173  18.313  65.059  1.00  0.00     0.000 HD 
ENDBRANCH  29  32
ENDBRANCH  26  29
ENDBRANCH  23  26
ENDBRANCH   7  23
TORSDOF 8
ENDMDL
MODEL      311
REMARK 921   NORMALIZED FREE ENERGY PREDICTED BY IDOCK:   -3.92 KCAL/MOL
REMARK 922        TOTAL FREE ENERGY PREDICTED BY IDOCK:   -7.82 KCAL/MOL
REMARK 923 INTER-LIGAND FREE ENERGY PREDICTED BY IDOCK:   -6.03 KCAL/MOL
REMARK 924 INTRA-LIGAND FREE ENERGY PREDICTED BY IDOCK:   -1.79 KCAL/MOL
REMARK 927      BINDING AFFINITY PREDICTED BY RF-SCORE:    0.00 PKD
ROOT
HETATM    1 CU   UNL     1      -9.954  10.975  67.274  1.00  0.00    -0.165 Cu 
HETATM    2  O   UNL     2     -10.879   5.348  65.397  1.00  0.00    -0.229 OA 
HETATM    3  C   UNL     2      -9.932   5.457  66.470  1.00  0.00    -0.196 C  
HETATM    4  H   UNL     2     -10.798   4.470  65.042  1.00  0.00     0.000 HD 
HETATM    5  O   UNL     3      -5.699  16.656  69.004  1.00  0.00    -0.133 OA 
HETATM    6  H   UNL     3      -4.906  16.230  68.698  1.00  0.00     0.000 HD 
HETATM    7  C   UNL     3      -6.835  15.954  68.461  1.00  0.00    -0.124 C  
ENDROOT
BRANCH   3   8
HETATM    8  C   UNL     2     -10.062   6.867  67.041  1.00  0.00    -0.221 C  
HETATM    9  O   UNL     2     -11.268   6.963  67.825  1.00  0.00    -0.534 OA 
HETATM   10  H   UNL     2     -11.349   7.841  68.180  1.00  0.00     0.000 HD 
BRANCH   8  11
HETATM   11  C   UNL     2      -8.827   7.278  67.869  1.00  0.00    -0.128 C  
HETATM   12  O   UNL     2      -7.705   6.577  67.327  1.00  0.00    -0.097 OA 
HETATM   13  H   UNL     2      -6.945   6.830  67.836  1.00  0.00     0.000 HD 
BRANCH  11  14
HETATM   14  C   UNL     2      -8.642   8.805  67.755  1.00  0.00    -0.129 C  
HETATM   15  H   UNL     2      -8.838  10.152  66.319  1.00  0.00     0.000 HD 
HETATM   16  O   UNL     2      -8.952   9.212  66.390  1.00  0.00    -0.136 OA 
BRANCH  14  17
HETATM   17  C   UNL     2      -7.302   9.381  68.214  1.00  0.00    -0.078 C  
HETATM   18  C   UNL     2      -7.543  10.413  69.345  1.00  0.00    -0.140 C  
HETATM   19  H   UNL     2      -5.747  10.242  67.368  1.00  0.00     0.000 HD 
HETATM   20  O   UNL     2      -6.580   9.884  67.083  1.00  0.00    -0.069 OA 
HETATM   21  O   UNL     2      -8.314   9.941  70.242  1.00  0.00    -0.180 OA 
HETATM   22  O   UNL     2      -6.938  11.498  69.235  1.00  0.00    -0.110 OA 
ENDBRANCH  14  17
ENDBRANCH  11  14
ENDBRANCH   8  11
ENDBRANCH   3   8
BRANCH   7  23
HETATM   23  C   UNL     3      -8.115  16.642  68.955  1.00  0.00    -0.235 C  
HETATM   24  O   UNL     3      -8.121  17.995  68.455  1.00  0.00    -0.281 OA 
HETATM   25  H   UNL     3      -8.913  18.421  68.761  1.00  0.00     0.000 HD 
BRANCH  23  26
HETATM   26  C   UNL     3      -9.453  16.039  68.484  1.00  0.00    -0.216 C  
HETATM   27  O   UNL     3      -9.585  16.103  67.062  1.00  0.00    -0.218 OA 
HETATM   28  H   UNL     3     -10.410  15.732  66.771  1.00  0.00     0.000 HD 
BRANCH  26  29
HETATM   29  C   UNL     3      -9.826  14.616  68.952  1.00  0.00    -0.211 C  
HETATM   30  O   UNL     3      -9.075  13.597  68.273  1.00  0.00    -0.191 OA 
HETATM   31  H   UNL     3      -9.306  12.722  68.561  1.00  0.00     0.000 HD 
BRANCH  29  32
HETATM   32  C   UNL     3     -11.301  14.231  68.887  1.00  0.00    -0.274 C  
HETATM   33  C   UNL     3     -11.742  13.644  67.534  1.00  0.00    -0.371 C  
HETATM   34  O   UNL     3     -12.128  15.450  69.124  1.00  0.00    -0.505 OA 
HETATM   35  O   UNL     3     -12.227  14.556  66.744  1.00  0.00    -0.376 OA 
HETATM   36  O   UNL     3     -11.945  12.416  67.487  1.00  0.00    -0.482 OA 
HETATM   37  H   UNL     3     -13.047  15.211  69.083  1.00  0.00     0.000 HD 
ENDBRANCH  29  32
ENDBRANCH  26  29
ENDBRANCH  23  26
ENDBRANCH   7  23
TORSDOF 8
ENDMDL
MODEL      312
REMARK 921   NORMALIZED FREE ENERGY PREDICTED BY IDOCK:   -3.91 KCAL/MOL
REMARK 922        TOTAL FREE ENERGY PREDICTED BY IDOCK:   -7.82 KCAL/MOL
REMARK 923 INTER-LIGAND FREE ENERGY PREDICTED BY IDOCK:   -6.79 KCAL/MOL
REMARK 924 INTRA-LIGAND FREE ENERGY PREDICTED BY IDOCK:   -1.03 KCAL/MOL
REMARK 927      BINDING AFFINITY PREDICTED BY RF-SCORE:    0.00 PKD
ROOT
HETATM    1 CU   UNL     1     -10.970  10.989  68.224  1.00  0.00    -0.163 Cu 
HETATM    2  O   UNL     2     -12.279  16.130  71.034  1.00  0.00    -0.543 OA 
HETATM    3  C   UNL     2     -11.319  16.271  69.977  1.00  0.00    -0.269 C  
HETATM    4  H   UNL     2     -12.260  16.936  71.538  1.00  0.00     0.000 HD 
HETATM    5  O   UNL     3      -6.335   5.981  65.614  1.00  0.00    -0.036 OA 
HETATM    6  H   UNL     3      -5.575   6.396  66.005  1.00  0.00     0.000 HD 
HETATM    7  C   UNL     3      -7.519   6.503  66.249  1.00  0.00    -0.081 C  
ENDROOT
BRANCH   3   8
HETATM    8  C   UNL     2     -11.351  14.977  69.167  1.00  0.00    -0.296 C  
HETATM    9  O   UNL     2     -12.702  14.479  69.103  1.00  0.00    -0.537 OA 
HETATM   10  H   UNL     2     -12.721  13.673  68.600  1.00  0.00     0.000 HD 
BRANCH   8  11
HETATM   11  C   UNL     2     -10.759  15.158  67.754  1.00  0.00    -0.279 C  
HETATM   12  O   UNL     2      -9.336  15.094  67.883  1.00  0.00    -0.184 OA 
HETATM   13  H   UNL     2      -8.971  15.206  67.014  1.00  0.00     0.000 HD 
BRANCH  11  14
HETATM   14  C   UNL     2     -11.290  14.030  66.847  1.00  0.00    -0.329 C  
HETATM   15  H   UNL     2     -12.151  12.271  67.133  1.00  0.00     0.000 HD 
HETATM   16  O   UNL     2     -11.824  12.966  67.691  1.00  0.00    -0.356 OA 
BRANCH  14  17
HETATM   17  C   UNL     2     -10.332  13.472  65.794  1.00  0.00    -0.292 C  
HETATM   18  C   UNL     2     -11.126  13.112  64.512  1.00  0.00    -0.356 C  
HETATM   19  H   UNL     2      -8.977  12.048  65.700  1.00  0.00     0.000 HD 
HETATM   20  O   UNL     2      -9.572  12.394  66.354  1.00  0.00    -0.237 OA 
HETATM   21  O   UNL     2     -11.889  14.068  64.160  1.00  0.00    -0.413 OA 
HETATM   22  O   UNL     2     -10.881  11.997  64.011  1.00  0.00    -0.311 OA 
ENDBRANCH  14  17
ENDBRANCH  11  14
ENDBRANCH   8  11
ENDBRANCH   3   8
BRANCH   7  23
HETATM   23  C   UNL     3      -8.747   5.833  65.619  1.00  0.00    -0.149 C  
HETATM   24  O   UNL     3      -8.328   4.578  65.043  1.00  0.00    -0.116 OA 
HETATM   25  H   UNL     3      -9.089   4.162  64.652  1.00  0.00     0.000 HD 
BRANCH  23  26
HETATM   26  C   UNL     3      -9.903   5.466  66.570  1.00  0.00    -0.176 C  
HETATM   27  O   UNL     3     -10.562   4.267  66.157  1.00  0.00    -0.412 OA 
HETATM   28  H   UNL     3     -11.275   4.041  66.744  1.00  0.00     0.000 HD 
BRANCH  26  29
HETATM   29  C   UNL     3      -9.613   5.377  68.084  1.00  0.00    -0.124 C  
HETATM   30  O   UNL     3      -9.691   4.031  68.581  1.00  0.00    -0.147 OA 
HETATM   31  H   UNL     3      -9.512   3.977  69.513  1.00  0.00     0.000 HD 
BRANCH  29  32
HETATM   32  C   UNL     3     -10.449   6.263  69.002  1.00  0.00    -0.237 C  
HETATM   33  C   UNL     3      -9.958   7.718  69.095  1.00  0.00    -0.182 C  
HETATM   34  O   UNL     3     -10.407   5.699  70.384  1.00  0.00    -0.221 OA 
HETATM   35  O   UNL     3      -9.157   7.898  70.104  1.00  0.00    -0.151 OA 
HETATM   36  O   UNL     3     -10.629   8.583  68.497  1.00  0.00    -0.193 OA 
HETATM   37  H   UNL     3     -10.927   6.251  70.956  1.00  0.00     0.000 HD 
ENDBRANCH  29  32
ENDBRANCH  26  29
ENDBRANCH  23  26
ENDBRANCH   7  23
TORSDOF 8
ENDMDL
MODEL      313
REMARK 921   NORMALIZED FREE ENERGY PREDICTED BY IDOCK:   -3.91 KCAL/MOL
REMARK 922        TOTAL FREE ENERGY PREDICTED BY IDOCK:   -7.82 KCAL/MOL
REMARK 923 INTER-LIGAND FREE ENERGY PREDICTED BY IDOCK:   -5.92 KCAL/MOL
REMARK 924 INTRA-LIGAND FREE ENERGY PREDICTED BY IDOCK:   -1.90 KCAL/MOL
REMARK 927      BINDING AFFINITY PREDICTED BY RF-SCORE:    0.00 PKD
ROOT
HETATM    1 CU   UNL     1     -10.073  10.593  68.457  1.00  0.00    -0.144 Cu 
HETATM    2  O   UNL     2     -11.406  15.454  71.717  1.00  0.00    -0.401 OA 
HETATM    3  C   UNL     2     -11.870  15.516  70.360  1.00  0.00    -0.351 C  
HETATM    4  H   UNL     2     -11.479  16.330  72.077  1.00  0.00     0.000 HD 
HETATM    5  O   UNL     3      -7.336   7.235  62.573  1.00  0.00    -0.080 OA 
HETATM    6  H   UNL     3      -6.977   8.038  62.210  1.00  0.00     0.000 HD 
HETATM    7  C   UNL     3      -7.638   7.458  63.966  1.00  0.00    -0.110 C  
ENDROOT
BRANCH   3   8
HETATM    8  C   UNL     2     -11.755  14.107  69.782  1.00  0.00    -0.311 C  
HETATM    9  O   UNL     2     -10.428  13.907  69.256  1.00  0.00    -0.420 OA 
HETATM   10  H   UNL     2     -10.357  13.031  68.896  1.00  0.00     0.000 HD 
BRANCH   8  11
HETATM   11  C   UNL     2     -12.112  13.020  70.817  1.00  0.00    -0.179 C  
HETATM   12  O   UNL     2     -13.501  13.169  71.120  1.00  0.00    -0.052 OA 
HETATM   13  H   UNL     2     -13.722  12.500  71.757  1.00  0.00     0.000 HD 
BRANCH  11  14
HETATM   14  C   UNL     2     -11.819  11.637  70.201  1.00  0.00    -0.344 C  
HETATM   15  H   UNL     2     -12.193  10.748  68.474  1.00  0.00     0.000 HD 
HETATM   16  O   UNL     2     -12.373  11.599  68.853  1.00  0.00    -0.355 OA 
BRANCH  14  17
HETATM   17  C   UNL     2     -12.243  10.410  71.009  1.00  0.00    -0.393 C  
HETATM   18  C   UNL     2     -11.240   9.255  70.760  1.00  0.00    -0.288 C  
HETATM   19  H   UNL     2     -13.874   9.330  71.224  1.00  0.00     0.000 HD 
HETATM   20  O   UNL     2     -13.610  10.092  70.723  1.00  0.00    -0.233 OA 
HETATM   21  O   UNL     2     -10.038   9.654  70.891  1.00  0.00    -0.279 OA 
HETATM   22  O   UNL     2     -11.738   8.139  70.516  1.00  0.00    -0.201 OA 
ENDBRANCH  14  17
ENDBRANCH  11  14
ENDBRANCH   8  11
ENDBRANCH   3   8
BRANCH   7  23
HETATM   23  C   UNL     3      -8.216   6.163  64.551  1.00  0.00    -0.079 C  
HETATM   24  O   UNL     3      -7.258   5.106  64.341  1.00  0.00    -0.053 OA 
HETATM   25  H   UNL     3      -7.616   4.304  64.703  1.00  0.00     0.000 HD 
BRANCH  23  26
HETATM   26  C   UNL     3      -8.493   6.150  66.067  1.00  0.00    -0.141 C  
HETATM   27  O   UNL     3      -7.440   6.782  66.799  1.00  0.00    -0.079 OA 
HETATM   28  H   UNL     3      -7.611   6.774  67.734  1.00  0.00     0.000 HD 
BRANCH  26  29
HETATM   29  C   UNL     3      -9.846   6.696  66.575  1.00  0.00    -0.104 C  
HETATM   30  O   UNL     3     -10.055   8.071  66.214  1.00  0.00    -0.473 OA 
HETATM   31  H   UNL     3     -10.887   8.407  66.526  1.00  0.00     0.000 HD 
BRANCH  29  32
HETATM   32  C   UNL     3     -10.133   6.557  68.066  1.00  0.00    -0.150 C  
HETATM   33  C   UNL     3      -9.442   5.354  68.733  1.00  0.00    -0.130 C  
HETATM   34  O   UNL     3     -11.602   6.377  68.259  1.00  0.00    -0.524 OA 
HETATM   35  O   UNL     3     -10.213   4.307  68.766  1.00  0.00     0.060 OA 
HETATM   36  O   UNL     3      -8.463   5.596  69.465  1.00  0.00    -0.108 OA 
HETATM   37  H   UNL     3     -11.782   6.290  69.188  1.00  0.00     0.000 HD 
ENDBRANCH  29  32
ENDBRANCH  26  29
ENDBRANCH  23  26
ENDBRANCH   7  23
TORSDOF 8
ENDMDL
MODEL      314
REMARK 921   NORMALIZED FREE ENERGY PREDICTED BY IDOCK:   -3.91 KCAL/MOL
REMARK 922        TOTAL FREE ENERGY PREDICTED BY IDOCK:   -7.81 KCAL/MOL
REMARK 923 INTER-LIGAND FREE ENERGY PREDICTED BY IDOCK:   -7.33 KCAL/MOL
REMARK 924 INTRA-LIGAND FREE ENERGY PREDICTED BY IDOCK:   -0.48 KCAL/MOL
REMARK 927      BINDING AFFINITY PREDICTED BY RF-SCORE:    0.00 PKD
ROOT
HETATM    1 CU   UNL     1      -9.614   9.439  69.291  1.00  0.00    -0.145 Cu 
HETATM    2  O   UNL     2      -6.869   7.563  74.290  1.00  0.00    -0.093 OA 
HETATM    3  C   UNL     2      -8.151   8.165  74.519  1.00  0.00    -0.208 C  
HETATM    4  H   UNL     2      -6.438   7.495  75.134  1.00  0.00     0.000 HD 
HETATM    5  O   UNL     3     -13.067  14.435  65.229  1.00  0.00    -0.629 OA 
HETATM    6  H   UNL     3     -12.920  15.132  65.858  1.00  0.00     0.000 HD 
HETATM    7  C   UNL     3     -12.170  13.347  65.533  1.00  0.00    -0.455 C  
ENDROOT
BRANCH   3   8
HETATM    8  C   UNL     2      -8.844   8.274  73.163  1.00  0.00    -0.222 C  
HETATM    9  O   UNL     2      -7.887   8.667  72.160  1.00  0.00    -0.265 OA 
HETATM   10  H   UNL     2      -8.319   8.735  71.316  1.00  0.00     0.000 HD 
BRANCH   8  11
HETATM   11  C   UNL     2      -9.560   6.967  72.766  1.00  0.00    -0.148 C  
HETATM   12  O   UNL     2     -10.667   6.807  73.658  1.00  0.00    -0.411 OA 
HETATM   13  H   UNL     2     -11.108   6.002  73.414  1.00  0.00     0.000 HD 
BRANCH  11  14
HETATM   14  C   UNL     2     -10.032   7.086  71.303  1.00  0.00    -0.189 C  
HETATM   15  H   UNL     2     -11.762   6.925  70.356  1.00  0.00     0.000 HD 
HETATM   16  O   UNL     2     -11.471   6.852  71.257  1.00  0.00    -0.267 OA 
BRANCH  14  17
HETATM   17  C   UNL     2      -9.300   6.239  70.263  1.00  0.00    -0.161 C  
HETATM   18  C   UNL     2     -10.313   5.732  69.204  1.00  0.00    -0.248 C  
HETATM   19  H   UNL     2      -8.094   4.684  70.271  1.00  0.00     0.000 HD 
HETATM   20  O   UNL     2      -8.549   5.210  70.918  1.00  0.00    -0.118 OA 
HETATM   21  O   UNL     2     -11.044   6.682  68.775  1.00  0.00    -0.263 OA 
HETATM   22  O   UNL     2     -10.239   4.523  68.910  1.00  0.00    -0.060 OA 
ENDBRANCH  14  17
ENDBRANCH  11  14
ENDBRANCH   8  11
ENDBRANCH   3   8
BRANCH   7  23
HETATM   23  C   UNL     3     -12.407  12.221  64.519  1.00  0.00    -0.384 C  
HETATM   24  O   UNL     3     -12.711  12.822  63.243  1.00  0.00    -0.662 OA 
HETATM   25  H   UNL     3     -12.858  12.124  62.614  1.00  0.00     0.000 HD 
BRANCH  23  26
HETATM   26  C   UNL     3     -11.222  11.277  64.240  1.00  0.00    -0.141 C  
HETATM   27  O   UNL     3     -10.964  11.158  62.839  1.00  0.00    -0.809 OA 
HETATM   28  H   UNL     3     -10.232  10.575  62.668  1.00  0.00     0.000 HD 
BRANCH  26  29
HETATM   29  C   UNL     3      -9.886  11.534  64.970  1.00  0.00    -0.257 C  
HETATM   30  O   UNL     3      -8.744  11.200  64.164  1.00  0.00    -0.375 OA 
HETATM   31  H   UNL     3      -7.922  11.359  64.614  1.00  0.00     0.000 HD 
BRANCH  29  32
HETATM   32  C   UNL     3      -9.704  10.875  66.333  1.00  0.00    -0.201 C  
HETATM   33  C   UNL     3      -8.489  11.387  67.127  1.00  0.00    -0.153 C  
HETATM   34  O   UNL     3      -9.508   9.408  66.136  1.00  0.00    -0.187 OA 
HETATM   35  O   UNL     3      -7.435  10.649  66.934  1.00  0.00    -0.104 OA 
HETATM   36  O   UNL     3      -8.719  12.141  68.092  1.00  0.00    -0.174 OA 
HETATM   37  H   UNL     3      -9.394   8.997  66.985  1.00  0.00     0.000 HD 
ENDBRANCH  29  32
ENDBRANCH  26  29
ENDBRANCH  23  26
ENDBRANCH   7  23
TORSDOF 8
ENDMDL
MODEL      315
REMARK 921   NORMALIZED FREE ENERGY PREDICTED BY IDOCK:   -3.91 KCAL/MOL
REMARK 922        TOTAL FREE ENERGY PREDICTED BY IDOCK:   -7.81 KCAL/MOL
REMARK 923 INTER-LIGAND FREE ENERGY PREDICTED BY IDOCK:   -5.66 KCAL/MOL
REMARK 924 INTRA-LIGAND FREE ENERGY PREDICTED BY IDOCK:   -2.15 KCAL/MOL
REMARK 927      BINDING AFFINITY PREDICTED BY RF-SCORE:    0.00 PKD
ROOT
HETATM    1 CU   UNL     1      -9.852   7.868  66.970  1.00  0.00    -0.139 Cu 
HETATM    2  O   UNL     2     -10.564  13.366  69.273  1.00  0.00    -0.438 OA 
HETATM    3  C   UNL     2     -11.747  12.556  69.320  1.00  0.00    -0.321 C  
HETATM    4  H   UNL     2     -10.829  14.259  69.461  1.00  0.00     0.000 HD 
HETATM    5  O   UNL     3     -11.739   2.341  62.580  1.00  0.00    -0.201 OA 
HETATM    6  H   UNL     3     -12.418   2.844  62.143  1.00  0.00     0.000 HD 
HETATM    7  C   UNL     3     -10.871   3.256  63.280  1.00  0.00    -0.194 C  
ENDROOT
BRANCH   3   8
HETATM    8  C   UNL     2     -11.320  11.121  69.019  1.00  0.00    -0.276 C  
HETATM    9  O   UNL     2     -12.138  10.205  69.773  1.00  0.00    -0.473 OA 
HETATM   10  H   UNL     2     -11.872   9.312  69.586  1.00  0.00     0.000 HD 
BRANCH   8  11
HETATM   11  C   UNL     2     -11.372  10.801  67.512  1.00  0.00    -0.205 C  
HETATM   12  O   UNL     2     -12.114  11.849  66.884  1.00  0.00    -0.599 OA 
HETATM   13  H   UNL     2     -12.146  11.651  65.955  1.00  0.00     0.000 HD 
BRANCH  11  14
HETATM   14  C   UNL     2      -9.929  10.735  66.971  1.00  0.00    -0.197 C  
HETATM   15  H   UNL     2      -8.440  12.020  66.749  1.00  0.00     0.000 HD 
HETATM   16  O   UNL     2      -9.329  12.060  67.082  1.00  0.00    -0.179 OA 
BRANCH  14  17
HETATM   17  C   UNL     2      -9.735  10.156  65.569  1.00  0.00    -0.281 C  
HETATM   18  C   UNL     2      -8.221   9.986  65.285  1.00  0.00    -0.148 C  
HETATM   19  H   UNL     2     -10.320  10.596  63.742  1.00  0.00     0.000 HD 
HETATM   20  O   UNL     2     -10.441  10.956  64.613  1.00  0.00    -0.337 OA 
HETATM   21  O   UNL     2      -7.636   9.394  66.248  1.00  0.00    -0.095 OA 
HETATM   22  O   UNL     2      -7.820  10.402  64.180  1.00  0.00    -0.136 OA 
ENDBRANCH  14  17
ENDBRANCH  11  14
ENDBRANCH   8  11
ENDBRANCH   3   8
BRANCH   7  23
HETATM   23  C   UNL     3      -9.775   2.446  63.985  1.00  0.00    -0.140 C  
HETATM   24  O   UNL     3      -8.830   2.006  62.988  1.00  0.00    -0.083 OA 
HETATM   25  H   UNL     3      -8.151   1.504  63.425  1.00  0.00     0.000 HD 
BRANCH  23  26
HETATM   26  C   UNL     3      -8.928   3.191  65.034  1.00  0.00    -0.139 C  
HETATM   27  O   UNL     3      -8.368   4.393  64.499  1.00  0.00    -0.103 OA 
HETATM   28  H   UNL     3      -7.845   4.852  65.147  1.00  0.00     0.000 HD 
BRANCH  26  29
HETATM   29  C   UNL     3      -9.563   3.508  66.406  1.00  0.00    -0.094 C  
HETATM   30  O   UNL     3     -10.659   4.432  66.305  1.00  0.00    -0.397 OA 
HETATM   31  H   UNL     3     -11.049   4.627  67.149  1.00  0.00     0.000 HD 
BRANCH  29  32
HETATM   32  C   UNL     3      -8.629   4.009  67.502  1.00  0.00    -0.101 C  
HETATM   33  C   UNL     3      -8.664   5.533  67.715  1.00  0.00    -0.106 C  
HETATM   34  O   UNL     3      -7.225   3.652  67.139  1.00  0.00    -0.062 OA 
HETATM   35  O   UNL     3      -7.742   6.142  67.030  1.00  0.00    -0.098 OA 
HETATM   36  O   UNL     3      -9.251   5.950  68.733  1.00  0.00    -0.115 OA 
HETATM   37  H   UNL     3      -6.643   3.965  67.821  1.00  0.00     0.000 HD 
ENDBRANCH  29  32
ENDBRANCH  26  29
ENDBRANCH  23  26
ENDBRANCH   7  23
TORSDOF 8
ENDMDL
MODEL      316
REMARK 921   NORMALIZED FREE ENERGY PREDICTED BY IDOCK:   -3.90 KCAL/MOL
REMARK 922        TOTAL FREE ENERGY PREDICTED BY IDOCK:   -7.80 KCAL/MOL
REMARK 923 INTER-LIGAND FREE ENERGY PREDICTED BY IDOCK:   -6.37 KCAL/MOL
REMARK 924 INTRA-LIGAND FREE ENERGY PREDICTED BY IDOCK:   -1.44 KCAL/MOL
REMARK 927      BINDING AFFINITY PREDICTED BY RF-SCORE:    0.00 PKD
ROOT
HETATM    1 CU   UNL     1      -8.047  12.351  68.109  1.00  0.00    -0.108 Cu 
HETATM    2  O   UNL     2      -7.007  18.139  66.904  1.00  0.00    -0.181 OA 
HETATM    3  C   UNL     2      -8.394  17.773  66.859  1.00  0.00    -0.238 C  
HETATM    4  H   UNL     2      -6.932  18.998  66.504  1.00  0.00     0.000 HD 
HETATM    5  O   UNL     3     -10.965   5.810  66.664  1.00  0.00    -0.544 OA 
HETATM    6  H   UNL     3     -11.277   6.074  65.806  1.00  0.00     0.000 HD 
HETATM    7  C   UNL     3      -9.980   6.766  67.107  1.00  0.00    -0.167 C  
ENDROOT
BRANCH   3   8
HETATM    8  C   UNL     2      -8.515  16.394  67.502  1.00  0.00    -0.169 C  
HETATM    9  O   UNL     2      -9.605  16.394  68.445  1.00  0.00    -0.209 OA 
HETATM   10  H   UNL     2      -9.680  15.535  68.846  1.00  0.00     0.000 HD 
BRANCH   8  11
HETATM   11  C   UNL     2      -8.686  15.274  66.455  1.00  0.00    -0.279 C  
HETATM   12  O   UNL     2      -7.919  14.155  66.908  1.00  0.00    -0.377 OA 
HETATM   13  H   UNL     2      -8.024  13.466  66.264  1.00  0.00     0.000 HD 
BRANCH  11  14
HETATM   14  C   UNL     2     -10.183  14.921  66.349  1.00  0.00    -0.284 C  
HETATM   15  H   UNL     2     -11.856  15.928  66.030  1.00  0.00     0.000 HD 
HETATM   16  O   UNL     2     -10.934  16.145  66.096  1.00  0.00    -0.191 OA 
BRANCH  14  17
HETATM   17  C   UNL     2     -10.795  14.124  67.501  1.00  0.00    -0.275 C  
HETATM   18  C   UNL     2     -10.970  12.645  67.071  1.00  0.00    -0.265 C  
HETATM   19  H   UNL     2     -12.375  14.271  68.666  1.00  0.00     0.000 HD 
HETATM   20  O   UNL     2     -11.994  14.767  67.950  1.00  0.00    -0.330 OA 
HETATM   21  O   UNL     2      -9.904  12.189  66.547  1.00  0.00    -0.209 OA 
HETATM   22  O   UNL     2     -12.075  12.127  67.328  1.00  0.00    -0.565 OA 
ENDBRANCH  14  17
ENDBRANCH  11  14
ENDBRANCH   8  11
ENDBRANCH   3   8
BRANCH   7  23
HETATM   23  C   UNL     3      -9.476   6.340  68.492  1.00  0.00    -0.123 C  
HETATM   24  O   UNL     3      -8.309   5.510  68.311  1.00  0.00    -0.099 OA 
HETATM   25  H   UNL     3      -7.997   5.246  69.169  1.00  0.00     0.000 HD 
BRANCH  23  26
HETATM   26  C   UNL     3      -9.018   7.465  69.441  1.00  0.00    -0.139 C  
HETATM   27  O   UNL     3      -7.656   7.293  69.841  1.00  0.00    -0.090 OA 
HETATM   28  H   UNL     3      -7.375   7.987  70.426  1.00  0.00     0.000 HD 
BRANCH  26  29
HETATM   29  C   UNL     3      -9.224   8.930  69.000  1.00  0.00    -0.140 C  
HETATM   30  O   UNL     3      -8.102   9.766  69.326  1.00  0.00    -0.096 OA 
HETATM   31  H   UNL     3      -8.229  10.668  69.054  1.00  0.00     0.000 HD 
BRANCH  29  32
HETATM   32  C   UNL     3     -10.486   9.631  69.494  1.00  0.00    -0.224 C  
HETATM   33  C   UNL     3     -11.122   8.985  70.737  1.00  0.00    -0.272 C  
HETATM   34  O   UNL     3     -11.512   9.594  68.410  1.00  0.00    -0.498 OA 
HETATM   35  O   UNL     3     -12.050   8.130  70.421  1.00  0.00     0.042 OA 
HETATM   36  O   UNL     3     -10.982   9.583  71.822  1.00  0.00    -0.333 OA 
HETATM   37  H   UNL     3     -12.298  10.030  68.717  1.00  0.00     0.000 HD 
ENDBRANCH  29  32
ENDBRANCH  26  29
ENDBRANCH  23  26
ENDBRANCH   7  23
TORSDOF 8
ENDMDL
MODEL      317
REMARK 921   NORMALIZED FREE ENERGY PREDICTED BY IDOCK:   -3.90 KCAL/MOL
REMARK 922        TOTAL FREE ENERGY PREDICTED BY IDOCK:   -7.80 KCAL/MOL
REMARK 923 INTER-LIGAND FREE ENERGY PREDICTED BY IDOCK:   -6.27 KCAL/MOL
REMARK 924 INTRA-LIGAND FREE ENERGY PREDICTED BY IDOCK:   -1.53 KCAL/MOL
REMARK 927      BINDING AFFINITY PREDICTED BY RF-SCORE:    0.00 PKD
ROOT
HETATM    1 CU   UNL     1      -8.863  11.089  67.135  1.00  0.00    -0.130 Cu 
HETATM    2  O   UNL     2      -7.770   5.186  67.201  1.00  0.00    -0.091 OA 
HETATM    3  C   UNL     2      -6.885   5.953  68.030  1.00  0.00    -0.067 C  
HETATM    4  H   UNL     2      -7.392   4.318  67.118  1.00  0.00     0.000 HD 
HETATM    5  O   UNL     3      -6.879  18.081  66.393  1.00  0.00    -0.194 OA 
HETATM    6  H   UNL     3      -5.999  17.862  66.109  1.00  0.00     0.000 HD 
HETATM    7  C   UNL     3      -7.706  16.906  66.270  1.00  0.00    -0.297 C  
ENDROOT
BRANCH   3   8
HETATM    8  C   UNL     2      -7.492   7.348  68.165  1.00  0.00    -0.105 C  
HETATM    9  O   UNL     2      -8.275   7.650  66.993  1.00  0.00    -0.114 OA 
HETATM   10  H   UNL     2      -8.652   8.519  67.077  1.00  0.00     0.000 HD 
BRANCH   8  11
HETATM   11  C   UNL     2      -8.332   7.497  69.449  1.00  0.00    -0.132 C  
HETATM   12  O   UNL     2      -7.991   8.758  70.031  1.00  0.00    -0.097 OA 
HETATM   13  H   UNL     2      -8.509   8.850  70.822  1.00  0.00     0.000 HD 
BRANCH  11  14
HETATM   14  C   UNL     2      -9.826   7.441  69.071  1.00  0.00    -0.168 C  
HETATM   15  H   UNL     2     -11.340   8.716  69.086  1.00  0.00     0.000 HD 
HETATM   16  O   UNL     2     -10.419   8.750  69.319  1.00  0.00    -0.219 OA 
BRANCH  14  17
HETATM   17  C   UNL     2     -10.663   6.327  69.700  1.00  0.00    -0.306 C  
HETATM   18  C   UNL     2     -10.380   6.264  71.223  1.00  0.00    -0.212 C  
HETATM   19  H   UNL     2     -10.963   4.407  69.387  1.00  0.00     0.000 HD 
HETATM   20  O   UNL     2     -10.443   5.099  68.996  1.00  0.00    -0.180 OA 
HETATM   21  O   UNL     2     -10.452   7.420  71.752  1.00  0.00    -0.197 OA 
HETATM   22  O   UNL     2     -10.170   5.129  71.695  1.00  0.00    -0.199 OA 
ENDBRANCH  14  17
ENDBRANCH  11  14
ENDBRANCH   8  11
ENDBRANCH   3   8
BRANCH   7  23
HETATM   23  C   UNL     3      -9.127  17.260  66.728  1.00  0.00    -0.252 C  
HETATM   24  O   UNL     3      -9.965  17.362  65.559  1.00  0.00    -0.555 OA 
HETATM   25  H   UNL     3     -10.846  17.581  65.843  1.00  0.00     0.000 HD 
BRANCH  23  26
HETATM   26  C   UNL     3      -9.837  16.239  67.638  1.00  0.00    -0.238 C  
HETATM   27  O   UNL     3     -11.136  16.695  68.025  1.00  0.00    -0.343 OA 
HETATM   28  H   UNL     3     -11.574  16.064  68.586  1.00  0.00     0.000 HD 
BRANCH  26  29
HETATM   29  C   UNL     3      -9.949  14.775  67.157  1.00  0.00    -0.236 C  
HETATM   30  O   UNL     3     -10.962  14.601  66.154  1.00  0.00    -0.317 OA 
HETATM   31  H   UNL     3     -11.031  13.701  65.858  1.00  0.00     0.000 HD 
BRANCH  29  32
HETATM   32  C   UNL     3     -10.164  13.710  68.227  1.00  0.00    -0.243 C  
HETATM   33  C   UNL     3     -11.543  13.031  68.175  1.00  0.00    -0.341 C  
HETATM   34  O   UNL     3     -10.043  14.347  69.572  1.00  0.00    -0.422 OA 
HETATM   35  O   UNL     3     -12.400  13.607  68.966  1.00  0.00    -0.280 OA 
HETATM   36  O   UNL     3     -11.586  11.866  67.733  1.00  0.00    -0.337 OA 
HETATM   37  H   UNL     3     -10.177  13.684  70.239  1.00  0.00     0.000 HD 
ENDBRANCH  29  32
ENDBRANCH  26  29
ENDBRANCH  23  26
ENDBRANCH   7  23
TORSDOF 8
ENDMDL
MODEL      318
REMARK 921   NORMALIZED FREE ENERGY PREDICTED BY IDOCK:   -3.89 KCAL/MOL
REMARK 922        TOTAL FREE ENERGY PREDICTED BY IDOCK:   -7.79 KCAL/MOL
REMARK 923 INTER-LIGAND FREE ENERGY PREDICTED BY IDOCK:   -6.70 KCAL/MOL
REMARK 924 INTRA-LIGAND FREE ENERGY PREDICTED BY IDOCK:   -1.09 KCAL/MOL
REMARK 927      BINDING AFFINITY PREDICTED BY RF-SCORE:    0.00 PKD
ROOT
HETATM    1 CU   UNL     1      -9.769  11.208  68.512  1.00  0.00    -0.147 Cu 
HETATM    2  O   UNL     2     -11.337  16.744  70.223  1.00  0.00    -0.437 OA 
HETATM    3  C   UNL     2     -11.266  16.571  68.801  1.00  0.00    -0.277 C  
HETATM    4  H   UNL     2     -11.384  17.679  70.389  1.00  0.00     0.000 HD 
HETATM    5  O   UNL     3      -5.717   6.456  64.721  1.00  0.00    -0.021 OA 
HETATM    6  H   UNL     3      -5.121   7.126  64.405  1.00  0.00     0.000 HD 
HETATM    7  C   UNL     3      -6.455   6.989  65.839  1.00  0.00    -0.051 C  
ENDROOT
BRANCH   3   8
HETATM    8  C   UNL     2     -11.192  15.070  68.535  1.00  0.00    -0.287 C  
HETATM    9  O   UNL     2     -12.269  14.402  69.222  1.00  0.00    -0.445 OA 
HETATM   10  H   UNL     2     -12.222  13.468  69.056  1.00  0.00     0.000 HD 
BRANCH   8  11
HETATM   11  C   UNL     2     -11.207  14.742  67.028  1.00  0.00    -0.345 C  
HETATM   12  O   UNL     2     -10.558  15.824  66.356  1.00  0.00    -0.306 OA 
HETATM   13  H   UNL     2     -10.567  15.623  65.428  1.00  0.00     0.000 HD 
BRANCH  11  14
HETATM   14  C   UNL     2     -10.457  13.414  66.803  1.00  0.00    -0.275 C  
HETATM   15  H   UNL     2      -8.718  12.884  66.020  1.00  0.00     0.000 HD 
HETATM   16  O   UNL     2      -9.181  13.702  66.159  1.00  0.00    -0.138 OA 
BRANCH  14  17
HETATM   17  C   UNL     2     -11.209  12.303  66.069  1.00  0.00    -0.332 C  
HETATM   18  C   UNL     2     -12.000  12.912  64.883  1.00  0.00    -0.392 C  
HETATM   19  H   UNL     2     -12.467  10.866  66.544  1.00  0.00     0.000 HD 
HETATM   20  O   UNL     2     -12.000  11.556  67.001  1.00  0.00    -0.556 OA 
HETATM   21  O   UNL     2     -11.264  13.680  64.184  1.00  0.00    -0.367 OA 
HETATM   22  O   UNL     2     -13.186  12.543  64.768  1.00  0.00    -0.839 OA 
ENDBRANCH  14  17
ENDBRANCH  11  14
ENDBRANCH   8  11
ENDBRANCH   3   8
BRANCH   7  23
HETATM   23  C   UNL     3      -7.416   5.906  66.349  1.00  0.00    -0.083 C  
HETATM   24  O   UNL     3      -7.681   6.161  67.744  1.00  0.00    -0.095 OA 
HETATM   25  H   UNL     3      -8.276   5.491  68.060  1.00  0.00     0.000 HD 
BRANCH  23  26
HETATM   26  C   UNL     3      -8.806   5.844  65.686  1.00  0.00    -0.118 C  
HETATM   27  O   UNL     3      -8.707   5.827  64.260  1.00  0.00    -0.344 OA 
HETATM   28  H   UNL     3      -9.564   5.788  63.852  1.00  0.00     0.000 HD 
BRANCH  26  29
HETATM   29  C   UNL     3      -9.785   4.736  66.129  1.00  0.00    -0.196 C  
HETATM   30  O   UNL     3     -10.222   4.897  67.488  1.00  0.00    -0.159 OA 
HETATM   31  H   UNL     3     -10.825   4.214  67.760  1.00  0.00     0.000 HD 
BRANCH  29  32
HETATM   32  C   UNL     3      -9.321   3.293  65.956  1.00  0.00    -0.117 C  
HETATM   33  C   UNL     3      -8.934   2.592  67.270  1.00  0.00    -0.156 C  
HETATM   34  O   UNL     3      -8.112   3.278  65.081  1.00  0.00    -0.089 OA 
HETATM   35  O   UNL     3      -7.660   2.684  67.514  1.00  0.00    -0.060 OA 
HETATM   36  O   UNL     3      -9.731   1.743  67.717  1.00  0.00    -0.072 OA 
HETATM   37  H   UNL     3      -7.822   2.379  64.973  1.00  0.00     0.000 HD 
ENDBRANCH  29  32
ENDBRANCH  26  29
ENDBRANCH  23  26
ENDBRANCH   7  23
TORSDOF 8
ENDMDL
MODEL      319
REMARK 921   NORMALIZED FREE ENERGY PREDICTED BY IDOCK:   -3.88 KCAL/MOL
REMARK 922        TOTAL FREE ENERGY PREDICTED BY IDOCK:   -7.77 KCAL/MOL
REMARK 923 INTER-LIGAND FREE ENERGY PREDICTED BY IDOCK:   -7.34 KCAL/MOL
REMARK 924 INTRA-LIGAND FREE ENERGY PREDICTED BY IDOCK:   -0.43 KCAL/MOL
REMARK 927      BINDING AFFINITY PREDICTED BY RF-SCORE:    0.00 PKD
ROOT
HETATM    1 CU   UNL     1      -8.270  12.271  68.066  1.00  0.00    -0.112 Cu 
HETATM    2  O   UNL     2      -5.868  17.759  67.686  1.00  0.00    -0.138 OA 
HETATM    3  C   UNL     2      -6.689  17.402  66.564  1.00  0.00    -0.249 C  
HETATM    4  H   UNL     2      -5.380  18.536  67.438  1.00  0.00     0.000 HD 
HETATM    5  O   UNL     3      -9.747   5.603  65.469  1.00  0.00    -0.368 OA 
HETATM    6  H   UNL     3      -9.202   5.719  64.698  1.00  0.00     0.000 HD 
HETATM    7  C   UNL     3      -9.393   6.613  66.436  1.00  0.00    -0.139 C  
ENDROOT
BRANCH   3   8
HETATM    8  C   UNL     2      -7.473  16.155  66.962  1.00  0.00    -0.229 C  
HETATM    9  O   UNL     2      -6.559  15.108  67.343  1.00  0.00    -0.243 OA 
HETATM   10  H   UNL     2      -7.048  14.331  67.590  1.00  0.00     0.000 HD 
BRANCH   8  11
HETATM   11  C   UNL     2      -8.492  16.438  68.085  1.00  0.00    -0.188 C  
HETATM   12  O   UNL     2      -7.980  17.531  68.851  1.00  0.00    -0.257 OA 
HETATM   13  H   UNL     2      -8.606  17.706  69.543  1.00  0.00     0.000 HD 
BRANCH  11  14
HETATM   14  C   UNL     2      -9.849  16.792  67.444  1.00  0.00    -0.252 C  
HETATM   15  H   UNL     2     -11.276  15.791  66.507  1.00  0.00     0.000 HD 
HETATM   16  O   UNL     2     -10.440  15.573  66.902  1.00  0.00    -0.289 OA 
BRANCH  14  17
HETATM   17  C   UNL     2      -9.860  17.919  66.410  1.00  0.00    -0.337 C  
HETATM   18  C   UNL     2     -10.481  19.192  67.041  1.00  0.00    -0.438 C  
HETATM   19  H   UNL     2     -10.505  18.169  64.568  1.00  0.00     0.000 HD 
HETATM   20  O   UNL     2     -10.498  17.468  65.210  1.00  0.00    -0.643 OA 
HETATM   21  O   UNL     2      -9.962  19.444  68.175  1.00  0.00    -0.361 OA 
HETATM   22  O   UNL     2     -11.337  19.782  66.353  1.00  0.00    -0.007 OA 
ENDBRANCH  14  17
ENDBRANCH  11  14
ENDBRANCH   8  11
ENDBRANCH   3   8
BRANCH   7  23
HETATM   23  C   UNL     3     -10.271   6.425  67.680  1.00  0.00    -0.169 C  
HETATM   24  O   UNL     3     -10.233   5.033  68.053  1.00  0.00    -0.146 OA 
HETATM   25  H   UNL     3     -10.777   4.916  68.823  1.00  0.00     0.000 HD 
BRANCH  23  26
HETATM   26  C   UNL     3      -9.847   7.188  68.950  1.00  0.00    -0.156 C  
HETATM   27  O   UNL     3      -9.643   8.577  68.685  1.00  0.00    -0.146 OA 
HETATM   28  H   UNL     3      -9.381   9.047  69.469  1.00  0.00     0.000 HD 
BRANCH  26  29
HETATM   29  C   UNL     3     -10.717   7.048  70.219  1.00  0.00    -0.241 C  
HETATM   30  O   UNL     3     -12.056   6.620  69.925  1.00  0.00    -0.641 OA 
HETATM   31  H   UNL     3     -12.591   6.534  70.706  1.00  0.00     0.000 HD 
BRANCH  29  32
HETATM   32  C   UNL     3     -10.806   8.265  71.134  1.00  0.00    -0.233 C  
HETATM   33  C   UNL     3     -10.073   8.103  72.477  1.00  0.00    -0.300 C  
HETATM   34  O   UNL     3     -12.242   8.525  71.450  1.00  0.00    -0.296 OA 
HETATM   35  O   UNL     3     -10.866   7.680  73.417  1.00  0.00    -0.380 OA 
HETATM   36  O   UNL     3      -8.997   8.717  72.614  1.00  0.00    -0.380 OA 
HETATM   37  H   UNL     3     -12.298   9.283  72.020  1.00  0.00     0.000 HD 
ENDBRANCH  29  32
ENDBRANCH  26  29
ENDBRANCH  23  26
ENDBRANCH   7  23
TORSDOF 8
ENDMDL
MODEL      320
REMARK 921   NORMALIZED FREE ENERGY PREDICTED BY IDOCK:   -3.87 KCAL/MOL
REMARK 922        TOTAL FREE ENERGY PREDICTED BY IDOCK:   -7.75 KCAL/MOL
REMARK 923 INTER-LIGAND FREE ENERGY PREDICTED BY IDOCK:   -6.77 KCAL/MOL
REMARK 924 INTRA-LIGAND FREE ENERGY PREDICTED BY IDOCK:   -0.98 KCAL/MOL
REMARK 927      BINDING AFFINITY PREDICTED BY RF-SCORE:    0.00 PKD
ROOT
HETATM    1 CU   UNL     1     -10.300  10.488  67.346  1.00  0.00    -0.167 Cu 
HETATM    2  O   UNL     2     -11.055  15.492  64.117  1.00  0.00    -0.681 OA 
HETATM    3  C   UNL     2     -11.173  15.688  65.533  1.00  0.00    -0.140 C  
HETATM    4  H   UNL     2     -11.390  16.276  63.698  1.00  0.00     0.000 HD 
HETATM    5  O   UNL     3     -12.304   5.649  72.441  1.00  0.00    -0.299 OA 
HETATM    6  H   UNL     3     -13.151   6.057  72.578  1.00  0.00     0.000 HD 
HETATM    7  C   UNL     3     -11.761   6.130  71.194  1.00  0.00    -0.132 C  
ENDROOT
BRANCH   3   8
HETATM    8  C   UNL     2     -10.634  14.429  66.207  1.00  0.00    -0.292 C  
HETATM    9  O   UNL     2      -9.443  14.750  66.952  1.00  0.00    -0.220 OA 
HETATM   10  H   UNL     2      -9.107  13.966  67.371  1.00  0.00     0.000 HD 
BRANCH   8  11
HETATM   11  C   UNL     2     -11.687  13.751  67.108  1.00  0.00    -0.385 C  
HETATM   12  O   UNL     2     -12.041  12.514  66.484  1.00  0.00    -0.572 OA 
HETATM   13  H   UNL     2     -12.689  12.097  67.038  1.00  0.00     0.000 HD 
BRANCH  11  14
HETATM   14  C   UNL     2     -11.070  13.519  68.502  1.00  0.00    -0.272 C  
HETATM   15  H   UNL     2      -9.927  12.133  69.331  1.00  0.00     0.000 HD 
HETATM   16  O   UNL     2     -10.307  12.276  68.473  1.00  0.00    -0.226 OA 
BRANCH  14  17
HETATM   17  C   UNL     2     -12.018  13.558  69.700  1.00  0.00    -0.337 C  
HETATM   18  C   UNL     2     -11.815  14.883  70.478  1.00  0.00    -0.303 C  
HETATM   19  H   UNL     2     -12.447  12.394  71.228  1.00  0.00     0.000 HD 
HETATM   20  O   UNL     2     -11.858  12.369  70.483  1.00  0.00    -0.272 OA 
HETATM   21  O   UNL     2     -11.825  15.884  69.691  1.00  0.00    -0.333 OA 
HETATM   22  O   UNL     2     -11.714  14.782  71.716  1.00  0.00    -0.350 OA 
ENDBRANCH  14  17
ENDBRANCH  11  14
ENDBRANCH   8  11
ENDBRANCH   3   8
BRANCH   7  23
HETATM   23  C   UNL     3     -10.393   5.471  70.972  1.00  0.00    -0.239 C  
HETATM   24  O   UNL     3     -10.075   5.558  69.568  1.00  0.00    -0.191 OA 
HETATM   25  H   UNL     3      -9.227   5.150  69.430  1.00  0.00     0.000 HD 
BRANCH  23  26
HETATM   26  C   UNL     3      -9.189   6.110  71.692  1.00  0.00    -0.145 C  
HETATM   27  O   UNL     3      -8.019   6.096  70.871  1.00  0.00    -0.111 OA 
HETATM   28  H   UNL     3      -7.277   6.490  71.315  1.00  0.00     0.000 HD 
BRANCH  26  29
HETATM   29  C   UNL     3      -9.355   7.522  72.295  1.00  0.00    -0.145 C  
HETATM   30  O   UNL     3      -9.358   8.552  71.293  1.00  0.00    -0.167 OA 
HETATM   31  H   UNL     3      -9.460   9.421  71.664  1.00  0.00     0.000 HD 
BRANCH  29  32
HETATM   32  C   UNL     3      -8.366   7.931  73.381  1.00  0.00    -0.203 C  
HETATM   33  C   UNL     3      -6.893   7.909  72.936  1.00  0.00    -0.082 C  
HETATM   34  O   UNL     3      -8.489   6.982  74.527  1.00  0.00    -0.164 OA 
HETATM   35  O   UNL     3      -6.316   6.778  73.219  1.00  0.00    -0.062 OA 
HETATM   36  O   UNL     3      -6.343   9.010  72.736  1.00  0.00    -0.281 OA 
HETATM   37  H   UNL     3      -7.873   7.237  75.204  1.00  0.00     0.000 HD 
ENDBRANCH  29  32
ENDBRANCH  26  29
ENDBRANCH  23  26
ENDBRANCH   7  23
TORSDOF 8
ENDMDL
MODEL      321
REMARK 921   NORMALIZED FREE ENERGY PREDICTED BY IDOCK:   -3.84 KCAL/MOL
REMARK 922        TOTAL FREE ENERGY PREDICTED BY IDOCK:   -7.71 KCAL/MOL
REMARK 923 INTER-LIGAND FREE ENERGY PREDICTED BY IDOCK:   -5.75 KCAL/MOL
REMARK 924 INTRA-LIGAND FREE ENERGY PREDICTED BY IDOCK:   -1.95 KCAL/MOL
REMARK 927      BINDING AFFINITY PREDICTED BY RF-SCORE:    0.00 PKD
ROOT
HETATM    1 CU   UNL     1      -9.515   8.450  68.596  1.00  0.00    -0.140 Cu 
HETATM    2  O   UNL     2      -6.720   3.288  69.852  1.00  0.00    -0.033 OA 
HETATM    3  C   UNL     2      -5.833   4.393  69.629  1.00  0.00    -0.018 C  
HETATM    4  H   UNL     2      -6.192   2.498  69.833  1.00  0.00     0.000 HD 
HETATM    5  O   UNL     3     -10.653  14.439  64.569  1.00  0.00    -0.592 OA 
HETATM    6  H   UNL     3     -10.057  14.162  63.883  1.00  0.00     0.000 HD 
HETATM    7  C   UNL     3     -10.979  13.294  65.383  1.00  0.00    -0.284 C  
ENDROOT
BRANCH   3   8
HETATM    8  C   UNL     2      -6.680   5.662  69.659  1.00  0.00    -0.055 C  
HETATM    9  O   UNL     2      -5.829   6.817  69.528  1.00  0.00    -0.014 OA 
HETATM   10  H   UNL     2      -6.356   7.607  69.547  1.00  0.00     0.000 HD 
BRANCH   8  11
HETATM   11  C   UNL     2      -7.779   5.657  68.577  1.00  0.00    -0.089 C  
HETATM   12  O   UNL     2      -7.505   4.557  67.705  1.00  0.00    -0.072 OA 
HETATM   13  H   UNL     2      -8.182   4.553  67.038  1.00  0.00     0.000 HD 
BRANCH  11  14
HETATM   14  C   UNL     2      -9.150   5.497  69.265  1.00  0.00    -0.112 C  
HETATM   15  H   UNL     2     -11.029   5.896  68.787  1.00  0.00     0.000 HD 
HETATM   16  O   UNL     2     -10.184   5.994  68.364  1.00  0.00    -0.150 OA 
BRANCH  14  17
HETATM   17  C   UNL     2      -9.302   6.095  70.664  1.00  0.00    -0.165 C  
HETATM   18  C   UNL     2      -9.970   5.056  71.600  1.00  0.00    -0.187 C  
HETATM   19  H   UNL     2     -10.075   7.726  71.450  1.00  0.00     0.000 HD 
HETATM   20  O   UNL     2      -9.980   7.355  70.581  1.00  0.00    -0.186 OA 
HETATM   21  O   UNL     2      -9.401   3.921  71.508  1.00  0.00    -0.117 OA 
HETATM   22  O   UNL     2     -10.906   5.478  72.308  1.00  0.00    -0.226 OA 
ENDBRANCH  14  17
ENDBRANCH  11  14
ENDBRANCH   8  11
ENDBRANCH   3   8
BRANCH   7  23
HETATM   23  C   UNL     3     -11.942  13.742  66.491  1.00  0.00    -0.434 C  
HETATM   24  O   UNL     3     -12.236  12.599  67.320  1.00  0.00    -0.425 OA 
HETATM   25  H   UNL     3     -12.832  12.876  68.006  1.00  0.00     0.000 HD 
BRANCH  23  26
HETATM   26  C   UNL     3     -11.426  14.817  67.467  1.00  0.00    -0.354 C  
HETATM   27  O   UNL     3     -12.338  15.026  68.548  1.00  0.00    -0.586 OA 
HETATM   28  H   UNL     3     -12.019  15.689  69.149  1.00  0.00     0.000 HD 
BRANCH  26  29
HETATM   29  C   UNL     3     -10.000  14.668  68.042  1.00  0.00    -0.220 C  
HETATM   30  O   UNL     3      -9.855  13.491  68.854  1.00  0.00    -0.413 OA 
HETATM   31  H   UNL     3      -8.978  13.400  69.208  1.00  0.00     0.000 HD 
BRANCH  29  32
HETATM   32  C   UNL     3      -9.445  15.850  68.830  1.00  0.00    -0.234 C  
HETATM   33  C   UNL     3      -7.917  15.830  69.008  1.00  0.00    -0.214 C  
HETATM   34  O   UNL     3     -10.043  15.840  70.198  1.00  0.00    -0.264 OA 
HETATM   35  O   UNL     3      -7.564  15.270  70.128  1.00  0.00    -0.009 OA 
HETATM   36  O   UNL     3      -7.255  16.633  68.322  1.00  0.00    -0.159 OA 
HETATM   37  H   UNL     3      -9.697  16.577  70.689  1.00  0.00     0.000 HD 
ENDBRANCH  29  32
ENDBRANCH  26  29
ENDBRANCH  23  26
ENDBRANCH   7  23
TORSDOF 8
ENDMDL
MODEL      322
REMARK 921   NORMALIZED FREE ENERGY PREDICTED BY IDOCK:   -3.83 KCAL/MOL
REMARK 922        TOTAL FREE ENERGY PREDICTED BY IDOCK:   -7.70 KCAL/MOL
REMARK 923 INTER-LIGAND FREE ENERGY PREDICTED BY IDOCK:   -7.06 KCAL/MOL
REMARK 924 INTRA-LIGAND FREE ENERGY PREDICTED BY IDOCK:   -0.64 KCAL/MOL
REMARK 927      BINDING AFFINITY PREDICTED BY RF-SCORE:    0.00 PKD
ROOT
HETATM    1 CU   UNL     1     -10.631   7.911  68.588  1.00  0.00    -0.184 Cu 
HETATM    2  O   UNL     2      -9.212   2.634  71.074  1.00  0.00    -0.104 OA 
HETATM    3  C   UNL     2      -8.106   3.541  70.957  1.00  0.00    -0.065 C  
HETATM    4  H   UNL     2      -8.851   1.779  71.277  1.00  0.00     0.000 HD 
HETATM    5  O   UNL     3      -9.686  13.309  63.756  1.00  0.00    -0.554 OA 
HETATM    6  H   UNL     3      -9.013  12.840  63.276  1.00  0.00     0.000 HD 
HETATM    7  C   UNL     3     -10.396  12.368  64.587  1.00  0.00    -0.307 C  
ENDROOT
BRANCH   3   8
HETATM    8  C   UNL     2      -8.685   4.915  70.632  1.00  0.00    -0.116 C  
HETATM    9  O   UNL     2     -10.092   4.793  70.346  1.00  0.00    -0.238 OA 
HETATM   10  H   UNL     2     -10.452   5.649  70.143  1.00  0.00     0.000 HD 
BRANCH   8  11
HETATM   11  C   UNL     2      -8.433   5.937  71.759  1.00  0.00    -0.131 C  
HETATM   12  O   UNL     2      -7.514   6.907  71.251  1.00  0.00    -0.080 OA 
HETATM   13  H   UNL     2      -7.359   7.537  71.945  1.00  0.00     0.000 HD 
BRANCH  11  14
HETATM   14  C   UNL     2      -9.777   6.588  72.146  1.00  0.00    -0.151 C  
HETATM   15  H   UNL     2     -11.530   5.938  72.795  1.00  0.00     0.000 HD 
HETATM   16  O   UNL     2     -10.702   5.538  72.557  1.00  0.00    -0.217 OA 
BRANCH  14  17
HETATM   17  C   UNL     2     -10.421   7.521  71.120  1.00  0.00    -0.205 C  
HETATM   18  C   UNL     2     -10.598   8.930  71.743  1.00  0.00    -0.362 C  
HETATM   19  H   UNL     2     -12.024   7.510  69.978  1.00  0.00     0.000 HD 
HETATM   20  O   UNL     2     -11.624   6.930  70.615  1.00  0.00    -0.315 OA 
HETATM   21  O   UNL     2      -9.524   9.325  72.300  1.00  0.00    -0.075 OA 
HETATM   22  O   UNL     2     -11.712   9.465  71.579  1.00  0.00    -0.342 OA 
ENDBRANCH  14  17
ENDBRANCH  11  14
ENDBRANCH   8  11
ENDBRANCH   3   8
BRANCH   7  23
HETATM   23  C   UNL     3     -11.483  13.125  65.362  1.00  0.00    -0.304 C  
HETATM   24  O   UNL     3     -12.303  12.157  66.048  1.00  0.00    -0.550 OA 
HETATM   25  H   UNL     3     -12.976  12.626  66.528  1.00  0.00     0.000 HD 
BRANCH  23  26
HETATM   26  C   UNL     3     -11.004  14.091  66.463  1.00  0.00    -0.306 C  
HETATM   27  O   UNL     3     -10.153  13.433  67.404  1.00  0.00    -0.232 OA 
HETATM   28  H   UNL     3      -9.858  14.029  68.083  1.00  0.00     0.000 HD 
BRANCH  26  29
HETATM   29  C   UNL     3     -10.343  15.421  66.041  1.00  0.00    -0.324 C  
HETATM   30  O   UNL     3      -8.943  15.273  65.754  1.00  0.00    -0.421 OA 
HETATM   31  H   UNL     3      -8.536  16.091  65.494  1.00  0.00     0.000 HD 
BRANCH  29  32
HETATM   32  C   UNL     3     -10.501  16.604  66.991  1.00  0.00    -0.283 C  
HETATM   33  C   UNL     3      -9.724  17.863  66.568  1.00  0.00    -0.329 C  
HETATM   34  O   UNL     3      -9.994  16.211  68.339  1.00  0.00    -0.222 OA 
HETATM   35  O   UNL     3      -8.551  17.922  67.128  1.00  0.00    -0.227 OA 
HETATM   36  O   UNL     3     -10.386  18.808  66.097  1.00  0.00    -0.419 OA 
HETATM   37  H   UNL     3     -10.093  16.948  68.930  1.00  0.00     0.000 HD 
ENDBRANCH  29  32
ENDBRANCH  26  29
ENDBRANCH  23  26
ENDBRANCH   7  23
TORSDOF 8
ENDMDL
MODEL      323
REMARK 921   NORMALIZED FREE ENERGY PREDICTED BY IDOCK:   -3.81 KCAL/MOL
REMARK 922        TOTAL FREE ENERGY PREDICTED BY IDOCK:   -7.67 KCAL/MOL
REMARK 923 INTER-LIGAND FREE ENERGY PREDICTED BY IDOCK:   -5.22 KCAL/MOL
REMARK 924 INTRA-LIGAND FREE ENERGY PREDICTED BY IDOCK:   -2.44 KCAL/MOL
REMARK 927      BINDING AFFINITY PREDICTED BY RF-SCORE:    0.00 PKD
ROOT
HETATM    1 CU   UNL     1     -10.204  10.978  68.353  1.00  0.00    -0.152 Cu 
HETATM    2  O   UNL     2     -12.118  14.328  63.753  1.00  0.00    -0.786 OA 
HETATM    3  C   UNL     2     -11.500  13.094  63.360  1.00  0.00    -0.149 C  
HETATM    4  H   UNL     2     -12.192  14.864  62.973  1.00  0.00     0.000 HD 
HETATM    5  O   UNL     3      -5.162   7.089  71.935  1.00  0.00    -0.031 OA 
HETATM    6  H   UNL     3      -4.467   7.326  71.331  1.00  0.00     0.000 HD 
HETATM    7  C   UNL     3      -6.261   8.004  71.749  1.00  0.00    -0.042 C  
ENDROOT
BRANCH   3   8
HETATM    8  C   UNL     2     -11.381  12.232  64.614  1.00  0.00    -0.322 C  
HETATM    9  O   UNL     2     -11.175  10.856  64.238  1.00  0.00    -0.222 OA 
HETATM   10  H   UNL     2     -11.102  10.319  65.018  1.00  0.00     0.000 HD 
BRANCH   8  11
HETATM   11  C   UNL     2     -10.264  12.723  65.557  1.00  0.00    -0.279 C  
HETATM   12  O   UNL     2      -9.428  13.599  64.798  1.00  0.00    -0.277 OA 
HETATM   13  H   UNL     2      -8.740  13.902  65.378  1.00  0.00     0.000 HD 
BRANCH  11  14
HETATM   14  C   UNL     2     -10.911  13.459  66.748  1.00  0.00    -0.282 C  
HETATM   15  H   UNL     2     -12.760  13.843  67.340  1.00  0.00     0.000 HD 
HETATM   16  O   UNL     2     -12.361  13.390  66.606  1.00  0.00    -0.361 OA 
BRANCH  14  17
HETATM   17  C   UNL     2     -10.449  14.891  67.017  1.00  0.00    -0.272 C  
HETATM   18  C   UNL     2     -10.912  15.326  68.431  1.00  0.00    -0.271 C  
HETATM   19  H   UNL     2     -10.592  16.637  66.120  1.00  0.00     0.000 HD 
HETATM   20  O   UNL     2     -10.879  15.747  65.953  1.00  0.00    -0.321 OA 
HETATM   21  O   UNL     2     -10.621  14.444  69.302  1.00  0.00    -0.236 OA 
HETATM   22  O   UNL     2     -11.445  16.450  68.512  1.00  0.00    -0.351 OA 
ENDBRANCH  14  17
ENDBRANCH  11  14
ENDBRANCH   8  11
ENDBRANCH   3   8
BRANCH   7  23
HETATM   23  C   UNL     3      -7.383   7.623  72.723  1.00  0.00    -0.081 C  
HETATM   24  O   UNL     3      -8.579   8.328  72.331  1.00  0.00    -0.173 OA 
HETATM   25  H   UNL     3      -9.274   8.091  72.934  1.00  0.00     0.000 HD 
BRANCH  23  26
HETATM   26  C   UNL     3      -7.793   6.138  72.762  1.00  0.00    -0.106 C  
HETATM   27  O   UNL     3      -7.429   5.461  71.556  1.00  0.00    -0.094 OA 
HETATM   28  H   UNL     3      -7.682   4.545  71.580  1.00  0.00     0.000 HD 
BRANCH  26  29
HETATM   29  C   UNL     3      -7.346   5.280  73.966  1.00  0.00    -0.083 C  
HETATM   30  O   UNL     3      -5.924   5.083  74.004  1.00  0.00    -0.035 OA 
HETATM   31  H   UNL     3      -5.649   4.555  74.745  1.00  0.00     0.000 HD 
BRANCH  29  32
HETATM   32  C   UNL     3      -8.011   3.917  74.129  1.00  0.00    -0.083 C  
HETATM   33  C   UNL     3      -7.218   2.749  73.515  1.00  0.00    -0.041 C  
HETATM   34  O   UNL     3      -9.340   3.944  73.450  1.00  0.00    -0.107 OA 
HETATM   35  O   UNL     3      -7.601   2.486  72.301  1.00  0.00    -0.049 OA 
HETATM   36  O   UNL     3      -6.628   1.986  74.305  1.00  0.00    -0.019 OA 
HETATM   37  H   UNL     3      -9.754   3.095  73.551  1.00  0.00     0.000 HD 
ENDBRANCH  29  32
ENDBRANCH  26  29
ENDBRANCH  23  26
ENDBRANCH   7  23
TORSDOF 8
ENDMDL
MODEL      324
REMARK 921   NORMALIZED FREE ENERGY PREDICTED BY IDOCK:   -3.78 KCAL/MOL
REMARK 922        TOTAL FREE ENERGY PREDICTED BY IDOCK:   -7.63 KCAL/MOL
REMARK 923 INTER-LIGAND FREE ENERGY PREDICTED BY IDOCK:   -6.02 KCAL/MOL
REMARK 924 INTRA-LIGAND FREE ENERGY PREDICTED BY IDOCK:   -1.61 KCAL/MOL
REMARK 927      BINDING AFFINITY PREDICTED BY RF-SCORE:    0.00 PKD
ROOT
HETATM    1 CU   UNL     1     -10.139   8.116  67.584  1.00  0.00    -0.146 Cu 
HETATM    2  O   UNL     2     -10.815  13.641  69.832  1.00  0.00    -0.436 OA 
HETATM    3  C   UNL     2     -12.039  13.038  69.388  1.00  0.00    -0.212 C  
HETATM    4  H   UNL     2     -10.993  14.564  69.970  1.00  0.00     0.000 HD 
HETATM    5  O   UNL     3     -11.071   3.007  62.444  1.00  0.00    -0.147 OA 
HETATM    6  H   UNL     3     -11.454   3.618  61.824  1.00  0.00     0.000 HD 
HETATM    7  C   UNL     3     -10.398   3.761  63.473  1.00  0.00    -0.220 C  
ENDROOT
BRANCH   3   8
HETATM    8  C   UNL     2     -11.754  11.554  69.168  1.00  0.00    -0.329 C  
HETATM    9  O   UNL     2     -12.993  10.820  69.155  1.00  0.00    -0.460 OA 
HETATM   10  H   UNL     2     -12.816   9.896  69.018  1.00  0.00     0.000 HD 
BRANCH   8  11
HETATM   11  C   UNL     2     -10.943  11.300  67.880  1.00  0.00    -0.248 C  
HETATM   12  O   UNL     2     -11.359  10.032  67.366  1.00  0.00    -0.411 OA 
HETATM   13  H   UNL     2     -10.860   9.875  66.573  1.00  0.00     0.000 HD 
BRANCH  11  14
HETATM   14  C   UNL     2     -11.238  12.434  66.878  1.00  0.00    -0.305 C  
HETATM   15  H   UNL     2     -12.625  12.793  65.513  1.00  0.00     0.000 HD 
HETATM   16  O   UNL     2     -12.443  12.094  66.131  1.00  0.00    -0.384 OA 
BRANCH  14  17
HETATM   17  C   UNL     2     -10.104  12.849  65.941  1.00  0.00    -0.289 C  
HETATM   18  C   UNL     2      -9.939  14.390  65.979  1.00  0.00    -0.317 C  
HETATM   19  H   UNL     2      -9.623  12.557  64.054  1.00  0.00     0.000 HD 
HETATM   20  O   UNL     2     -10.328  12.299  64.637  1.00  0.00    -0.281 OA 
HETATM   21  O   UNL     2      -9.893  14.818  67.176  1.00  0.00    -0.228 OA 
HETATM   22  O   UNL     2      -9.839  14.958  64.873  1.00  0.00    -0.204 OA 
ENDBRANCH  14  17
ENDBRANCH  11  14
ENDBRANCH   8  11
ENDBRANCH   3   8
BRANCH   7  23
HETATM   23  C   UNL     3      -9.780   2.775  64.474  1.00  0.00    -0.098 C  
HETATM   24  O   UNL     3      -9.605   1.508  63.808  1.00  0.00    -0.114 OA 
HETATM   25  H   UNL     3      -9.223   0.897  64.428  1.00  0.00     0.000 HD 
BRANCH  23  26
HETATM   26  C   UNL     3      -8.385   3.129  65.026  1.00  0.00    -0.095 C  
HETATM   27  O   UNL     3      -7.830   4.266  64.359  1.00  0.00    -0.082 OA 
HETATM   28  H   UNL     3      -6.970   4.484  64.700  1.00  0.00     0.000 HD 
BRANCH  26  29
HETATM   29  C   UNL     3      -8.221   3.319  66.550  1.00  0.00    -0.096 C  
HETATM   30  O   UNL     3      -7.751   2.129  67.205  1.00  0.00    -0.064 OA 
HETATM   31  H   UNL     3      -7.650   2.246  68.142  1.00  0.00     0.000 HD 
BRANCH  29  32
HETATM   32  C   UNL     3      -9.436   3.826  67.319  1.00  0.00    -0.200 C  
HETATM   33  C   UNL     3      -9.701   5.333  67.158  1.00  0.00    -0.151 C  
HETATM   34  O   UNL     3      -9.224   3.574  68.775  1.00  0.00    -0.137 OA 
HETATM   35  O   UNL     3      -9.151   6.029  68.109  1.00  0.00    -0.119 OA 
HETATM   36  O   UNL     3     -10.660   5.667  66.434  1.00  0.00    -0.244 OA 
HETATM   37  H   UNL     3      -9.980   3.891  69.254  1.00  0.00     0.000 HD 
ENDBRANCH  29  32
ENDBRANCH  26  29
ENDBRANCH  23  26
ENDBRANCH   7  23
TORSDOF 8
ENDMDL
MODEL      325
REMARK 921   NORMALIZED FREE ENERGY PREDICTED BY IDOCK:   -3.76 KCAL/MOL
REMARK 922        TOTAL FREE ENERGY PREDICTED BY IDOCK:   -7.59 KCAL/MOL
REMARK 923 INTER-LIGAND FREE ENERGY PREDICTED BY IDOCK:   -6.55 KCAL/MOL
REMARK 924 INTRA-LIGAND FREE ENERGY PREDICTED BY IDOCK:   -1.04 KCAL/MOL
REMARK 927      BINDING AFFINITY PREDICTED BY RF-SCORE:    0.00 PKD
ROOT
HETATM    1 CU   UNL     1     -11.586   9.667  69.607  1.00  0.00    -0.237 Cu 
HETATM    2  O   UNL     2     -11.516   5.083  73.483  1.00  0.00    -0.453 OA 
HETATM    3  C   UNL     2     -10.792   4.833  72.270  1.00  0.00    -0.061 C  
HETATM    4  H   UNL     2     -11.619   4.248  73.924  1.00  0.00     0.000 HD 
HETATM    5  O   UNL     3     -12.649  12.608  63.004  1.00  0.00    -0.673 OA 
HETATM    6  H   UNL     3     -13.014  11.808  62.642  1.00  0.00     0.000 HD 
HETATM    7  C   UNL     3     -12.669  12.511  64.442  1.00  0.00    -0.358 C  
ENDROOT
BRANCH   3   8
HETATM    8  C   UNL     2     -10.625   6.175  71.562  1.00  0.00    -0.239 C  
HETATM    9  O   UNL     2     -10.161   7.164  72.502  1.00  0.00    -0.183 OA 
HETATM   10  H   UNL     2     -10.058   7.999  72.061  1.00  0.00     0.000 HD 
BRANCH   8  11
HETATM   11  C   UNL     2      -9.682   6.080  70.345  1.00  0.00    -0.169 C  
HETATM   12  O   UNL     2      -8.492   5.421  70.786  1.00  0.00    -0.116 OA 
HETATM   13  H   UNL     2      -7.911   5.362  70.037  1.00  0.00     0.000 HD 
BRANCH  11  14
HETATM   14  C   UNL     2     -10.388   5.277  69.234  1.00  0.00    -0.215 C  
HETATM   15  H   UNL     2     -10.260   3.437  68.517  1.00  0.00     0.000 HD 
HETATM   16  O   UNL     2      -9.825   3.932  69.202  1.00  0.00    -0.133 OA 
BRANCH  14  17
HETATM   17  C   UNL     2     -10.418   5.898  67.837  1.00  0.00    -0.236 C  
HETATM   18  C   UNL     2      -9.035   6.523  67.519  1.00  0.00    -0.110 C  
HETATM   19  H   UNL     2     -11.544   7.186  66.864  1.00  0.00     0.000 HD 
HETATM   20  O   UNL     2     -11.526   6.800  67.732  1.00  0.00    -0.077 OA 
HETATM   21  O   UNL     2      -8.092   5.708  67.776  1.00  0.00    -0.101 OA 
HETATM   22  O   UNL     2      -9.052   7.673  67.038  1.00  0.00    -0.126 OA 
ENDBRANCH  14  17
ENDBRANCH  11  14
ENDBRANCH   8  11
ENDBRANCH   3   8
BRANCH   7  23
HETATM   23  C   UNL     3     -12.080  13.802  65.027  1.00  0.00    -0.403 C  
HETATM   24  O   UNL     3     -12.868  14.176  66.175  1.00  0.00    -0.502 OA 
HETATM   25  H   UNL     3     -12.504  14.976  66.537  1.00  0.00     0.000 HD 
BRANCH  23  26
HETATM   26  C   UNL     3     -10.631  13.731  65.546  1.00  0.00    -0.307 C  
HETATM   27  O   UNL     3      -9.998  15.012  65.513  1.00  0.00    -0.338 OA 
HETATM   28  H   UNL     3      -9.105  14.968  65.834  1.00  0.00     0.000 HD 
BRANCH  26  29
HETATM   29  C   UNL     3     -10.373  13.086  66.925  1.00  0.00    -0.245 C  
HETATM   30  O   UNL     3      -9.655  13.956  67.815  1.00  0.00    -0.210 OA 
HETATM   31  H   UNL     3      -9.496  13.559  68.663  1.00  0.00     0.000 HD 
BRANCH  29  32
HETATM   32  C   UNL     3      -9.675  11.730  66.935  1.00  0.00    -0.198 C  
HETATM   33  C   UNL     3      -9.006  11.373  68.274  1.00  0.00    -0.175 C  
HETATM   34  O   UNL     3      -8.601  11.734  65.899  1.00  0.00    -0.387 OA 
HETATM   35  O   UNL     3      -7.750  11.712  68.297  1.00  0.00    -0.113 OA 
HETATM   36  O   UNL     3      -9.570  10.515  68.980  1.00  0.00    -0.187 OA 
HETATM   37  H   UNL     3      -8.165  10.889  65.905  1.00  0.00     0.000 HD 
ENDBRANCH  29  32
ENDBRANCH  26  29
ENDBRANCH  23  26
ENDBRANCH   7  23
TORSDOF 8
ENDMDL
MODEL      326
REMARK 921   NORMALIZED FREE ENERGY PREDICTED BY IDOCK:   -3.75 KCAL/MOL
REMARK 922        TOTAL FREE ENERGY PREDICTED BY IDOCK:   -7.58 KCAL/MOL
REMARK 923 INTER-LIGAND FREE ENERGY PREDICTED BY IDOCK:   -7.27 KCAL/MOL
REMARK 924 INTRA-LIGAND FREE ENERGY PREDICTED BY IDOCK:   -0.31 KCAL/MOL
REMARK 927      BINDING AFFINITY PREDICTED BY RF-SCORE:    0.00 PKD
ROOT
HETATM    1 CU   UNL     1      -9.750  10.177  67.368  1.00  0.00    -0.144 Cu 
HETATM    2  O   UNL     2     -10.145   4.278  68.410  1.00  0.00    -0.021 OA 
HETATM    3  C   UNL     2      -9.941   4.615  67.030  1.00  0.00    -0.195 C  
HETATM    4  H   UNL     2     -10.399   3.363  68.439  1.00  0.00     0.000 HD 
HETATM    5  O   UNL     3     -11.603  16.322  63.878  1.00  0.00    -1.489 OA 
HETATM    6  H   UNL     3     -12.311  15.906  63.399  1.00  0.00     0.000 HD 
HETATM    7  C   UNL     3     -11.235  15.472  64.983  1.00  0.00    -0.358 C  
ENDROOT
BRANCH   3   8
HETATM    8  C   UNL     2      -9.533   6.085  66.983  1.00  0.00    -0.127 C  
HETATM    9  O   UNL     2     -10.703   6.907  66.804  1.00  0.00    -0.451 OA 
HETATM   10  H   UNL     2     -10.449   7.822  66.774  1.00  0.00     0.000 HD 
BRANCH   8  11
HETATM   11  C   UNL     2      -8.740   6.512  68.236  1.00  0.00    -0.117 C  
HETATM   12  O   UNL     2      -7.424   6.864  67.801  1.00  0.00    -0.094 OA 
HETATM   13  H   UNL     2      -6.936   7.127  68.572  1.00  0.00     0.000 HD 
BRANCH  11  14
HETATM   14  C   UNL     2      -9.455   7.714  68.886  1.00  0.00    -0.149 C  
HETATM   15  H   UNL     2      -9.043   9.631  69.154  1.00  0.00     0.000 HD 
HETATM   16  O   UNL     2      -8.603   8.891  68.753  1.00  0.00    -0.133 OA 
BRANCH  14  17
HETATM   17  C   UNL     2      -9.938   7.542  70.327  1.00  0.00    -0.192 C  
HETATM   18  C   UNL     2      -9.139   6.401  71.007  1.00  0.00    -0.154 C  
HETATM   19  H   UNL     2     -11.661   7.267  71.238  1.00  0.00     0.000 HD 
HETATM   20  O   UNL     2     -11.361   7.374  70.343  1.00  0.00    -0.276 OA 
HETATM   21  O   UNL     2      -7.888   6.542  70.824  1.00  0.00    -0.102 OA 
HETATM   22  O   UNL     2      -9.811   5.565  71.644  1.00  0.00    -0.165 OA 
ENDBRANCH  14  17
ENDBRANCH  11  14
ENDBRANCH   8  11
ENDBRANCH   3   8
BRANCH   7  23
HETATM   23  C   UNL     3     -10.093  16.144  65.756  1.00  0.00    -0.363 C  
HETATM   24  O   UNL     3      -9.942  17.489  65.256  1.00  0.00    -0.248 OA 
HETATM   25  H   UNL     3      -9.234  17.905  65.735  1.00  0.00     0.000 HD 
BRANCH  23  26
HETATM   26  C   UNL     3     -10.285  16.305  67.276  1.00  0.00    -0.279 C  
HETATM   27  O   UNL     3     -10.301  15.040  67.940  1.00  0.00    -0.237 OA 
HETATM   28  H   UNL     3     -10.419  15.140  68.878  1.00  0.00     0.000 HD 
BRANCH  26  29
HETATM   29  C   UNL     3      -9.339  17.255  68.042  1.00  0.00    -0.264 C  
HETATM   30  O   UNL     3      -8.765  16.640  69.207  1.00  0.00    -0.178 OA 
HETATM   31  H   UNL     3      -8.183  17.225  69.678  1.00  0.00     0.000 HD 
BRANCH  29  32
HETATM   32  C   UNL     3      -9.906  18.607  68.462  1.00  0.00    -0.386 C  
HETATM   33  C   UNL     3     -10.107  19.597  67.300  1.00  0.00    -0.409 C  
HETATM   34  O   UNL     3      -8.962  19.249  69.423  1.00  0.00    -0.107 OA 
HETATM   35  O   UNL     3      -9.081  20.382  67.148  1.00  0.00    -0.367 OA 
HETATM   36  O   UNL     3     -11.277  19.798  66.921  1.00  0.00    -0.264 OA 
HETATM   37  H   UNL     3      -9.315  20.092  69.684  1.00  0.00     0.000 HD 
ENDBRANCH  29  32
ENDBRANCH  26  29
ENDBRANCH  23  26
ENDBRANCH   7  23
TORSDOF 8
ENDMDL
MODEL      327
REMARK 921   NORMALIZED FREE ENERGY PREDICTED BY IDOCK:   -3.75 KCAL/MOL
REMARK 922        TOTAL FREE ENERGY PREDICTED BY IDOCK:   -7.57 KCAL/MOL
REMARK 923 INTER-LIGAND FREE ENERGY PREDICTED BY IDOCK:   -6.79 KCAL/MOL
REMARK 924 INTRA-LIGAND FREE ENERGY PREDICTED BY IDOCK:   -0.79 KCAL/MOL
REMARK 927      BINDING AFFINITY PREDICTED BY RF-SCORE:    0.00 PKD
ROOT
HETATM    1 CU   UNL     1     -11.012  12.411  68.578  1.00  0.00    -0.186 Cu 
HETATM    2  O   UNL     2     -10.574  18.078  66.645  1.00  0.00    -0.337 OA 
HETATM    3  C   UNL     2     -10.734  17.956  68.066  1.00  0.00    -0.294 C  
HETATM    4  H   UNL     2     -10.723  18.990  66.425  1.00  0.00     0.000 HD 
HETATM    5  O   UNL     3     -14.224   7.032  72.337  1.00  0.00    -0.562 OA 
HETATM    6  H   UNL     3     -14.981   7.562  72.561  1.00  0.00     0.000 HD 
HETATM    7  C   UNL     3     -13.526   7.670  71.248  1.00  0.00    -0.219 C  
ENDROOT
BRANCH   3   8
HETATM    8  C   UNL     2     -10.494  16.491  68.421  1.00  0.00    -0.307 C  
HETATM    9  O   UNL     2     -11.007  15.648  67.371  1.00  0.00    -0.314 OA 
HETATM   10  H   UNL     2     -10.858  14.736  67.592  1.00  0.00     0.000 HD 
BRANCH   8  11
HETATM   11  C   UNL     2      -9.005  16.193  68.695  1.00  0.00    -0.221 C  
HETATM   12  O   UNL     2      -8.959  15.155  69.678  1.00  0.00    -0.412 OA 
HETATM   13  H   UNL     2      -8.043  14.971  69.847  1.00  0.00     0.000 HD 
BRANCH  11  14
HETATM   14  C   UNL     2      -8.340  15.746  67.378  1.00  0.00    -0.168 C  
HETATM   15  H   UNL     2      -7.433  14.110  66.733  1.00  0.00     0.000 HD 
HETATM   16  O   UNL     2      -7.843  14.385  67.544  1.00  0.00    -0.163 OA 
BRANCH  14  17
HETATM   17  C   UNL     2      -7.262  16.661  66.796  1.00  0.00    -0.237 C  
HETATM   18  C   UNL     2      -6.534  17.400  67.948  1.00  0.00    -0.158 C  
HETATM   19  H   UNL     2      -7.168  18.085  65.440  1.00  0.00     0.000 HD 
HETATM   20  O   UNL     2      -7.838  17.516  65.801  1.00  0.00    -0.544 OA 
HETATM   21  O   UNL     2      -6.181  16.589  68.864  1.00  0.00    -0.136 OA 
HETATM   22  O   UNL     2      -6.372  18.627  67.797  1.00  0.00    -0.198 OA 
ENDBRANCH  14  17
ENDBRANCH  11  14
ENDBRANCH   8  11
ENDBRANCH   3   8
BRANCH   7  23
HETATM   23  C   UNL     3     -12.304   6.814  70.885  1.00  0.00    -0.280 C  
HETATM   24  O   UNL     3     -11.530   7.530  69.902  1.00  0.00    -0.470 OA 
HETATM   25  H   UNL     3     -10.773   7.001  69.677  1.00  0.00     0.000 HD 
BRANCH  23  26
HETATM   26  C   UNL     3     -11.312   6.504  72.022  1.00  0.00    -0.285 C  
HETATM   27  O   UNL     3     -11.883   5.621  72.991  1.00  0.00    -0.536 OA 
HETATM   28  H   UNL     3     -11.271   5.430  73.692  1.00  0.00     0.000 HD 
BRANCH  26  29
HETATM   29  C   UNL     3      -9.904   5.989  71.653  1.00  0.00    -0.170 C  
HETATM   30  O   UNL     3      -9.138   6.959  70.919  1.00  0.00    -0.152 OA 
HETATM   31  H   UNL     3      -8.272   6.642  70.692  1.00  0.00     0.000 HD 
BRANCH  29  32
HETATM   32  C   UNL     3      -9.826   4.667  70.898  1.00  0.00    -0.202 C  
HETATM   33  C   UNL     3      -9.612   3.436  71.797  1.00  0.00    -0.155 C  
HETATM   34  O   UNL     3      -8.674   4.719  69.950  1.00  0.00    -0.083 OA 
HETATM   35  O   UNL     3      -8.353   3.130  71.911  1.00  0.00    -0.061 OA 
HETATM   36  O   UNL     3     -10.593   2.688  71.979  1.00  0.00     0.063 OA 
HETATM   37  H   UNL     3      -8.626   3.895  69.479  1.00  0.00     0.000 HD 
ENDBRANCH  29  32
ENDBRANCH  26  29
ENDBRANCH  23  26
ENDBRANCH   7  23
TORSDOF 8
ENDMDL
MODEL      328
REMARK 921   NORMALIZED FREE ENERGY PREDICTED BY IDOCK:   -3.74 KCAL/MOL
REMARK 922        TOTAL FREE ENERGY PREDICTED BY IDOCK:   -7.57 KCAL/MOL
REMARK 923 INTER-LIGAND FREE ENERGY PREDICTED BY IDOCK:   -6.19 KCAL/MOL
REMARK 924 INTRA-LIGAND FREE ENERGY PREDICTED BY IDOCK:   -1.38 KCAL/MOL
REMARK 927      BINDING AFFINITY PREDICTED BY RF-SCORE:    0.00 PKD
ROOT
HETATM    1 CU   UNL     1      -9.580  14.610  68.298  1.00  0.00    -0.175 Cu 
HETATM    2  O   UNL     2     -10.149  20.559  67.731  1.00  0.00    -0.372 OA 
HETATM    3  C   UNL     2      -8.856  20.058  67.363  1.00  0.00    -0.346 C  
HETATM    4  H   UNL     2     -10.072  21.503  67.807  1.00  0.00     0.000 HD 
HETATM    5  O   UNL     3      -6.210   8.577  70.670  1.00  0.00    -0.034 OA 
HETATM    6  H   UNL     3      -5.582   9.063  71.194  1.00  0.00     0.000 HD 
HETATM    7  C   UNL     3      -7.307   9.453  70.340  1.00  0.00    -0.121 C  
ENDROOT
BRANCH   3   8
HETATM    8  C   UNL     2      -8.979  18.542  67.242  1.00  0.00    -0.270 C  
HETATM    9  O   UNL     2     -10.299  18.199  66.777  1.00  0.00    -0.344 OA 
HETATM   10  H   UNL     2     -10.376  17.255  66.702  1.00  0.00     0.000 HD 
BRANCH   8  11
HETATM   11  C   UNL     2      -7.894  17.939  66.326  1.00  0.00    -0.261 C  
HETATM   12  O   UNL     2      -7.372  19.007  65.532  1.00  0.00    -0.477 OA 
HETATM   13  H   UNL     2      -6.704  18.636  64.969  1.00  0.00     0.000 HD 
BRANCH  11  14
HETATM   14  C   UNL     2      -6.797  17.309  67.209  1.00  0.00    -0.167 C  
HETATM   15  H   UNL     2      -5.059  16.419  66.888  1.00  0.00     0.000 HD 
HETATM   16  O   UNL     2      -5.735  16.807  66.344  1.00  0.00    -0.327 OA 
BRANCH  14  17
HETATM   17  C   UNL     2      -7.237  16.248  68.218  1.00  0.00    -0.141 C  
HETATM   18  C   UNL     2      -6.153  16.098  69.316  1.00  0.00    -0.146 C  
HETATM   19  H   UNL     2      -7.844  14.377  68.159  1.00  0.00     0.000 HD 
HETATM   20  O   UNL     2      -7.570  15.036  67.531  1.00  0.00    -0.159 OA 
HETATM   21  O   UNL     2      -5.803  17.233  69.775  1.00  0.00    -0.216 OA 
HETATM   22  O   UNL     2      -5.823  14.931  69.605  1.00  0.00    -0.099 OA 
ENDBRANCH  14  17
ENDBRANCH  11  14
ENDBRANCH   8  11
ENDBRANCH   3   8
BRANCH   7  23
HETATM   23  C   UNL     3      -8.319   8.668  69.495  1.00  0.00    -0.117 C  
HETATM   24  O   UNL     3      -7.590   7.916  68.502  1.00  0.00    -0.100 OA 
HETATM   25  H   UNL     3      -8.217   7.430  67.979  1.00  0.00     0.000 HD 
BRANCH  23  26
HETATM   26  C   UNL     3      -9.177   7.623  70.233  1.00  0.00    -0.157 C  
HETATM   27  O   UNL     3      -9.248   7.897  71.634  1.00  0.00    -0.132 OA 
HETATM   28  H   UNL     3      -9.778   7.252  72.089  1.00  0.00     0.000 HD 
BRANCH  26  29
HETATM   29  C   UNL     3     -10.602   7.336  69.711  1.00  0.00    -0.235 C  
HETATM   30  O   UNL     3     -11.398   8.527  69.601  1.00  0.00    -0.448 OA 
HETATM   31  H   UNL     3     -12.275   8.350  69.280  1.00  0.00     0.000 HD 
BRANCH  29  32
HETATM   32  C   UNL     3     -11.420   6.296  70.469  1.00  0.00    -0.338 C  
HETATM   33  C   UNL     3     -12.347   6.884  71.548  1.00  0.00    -0.376 C  
HETATM   34  O   UNL     3     -10.487   5.359  71.161  1.00  0.00    -0.227 OA 
HETATM   35  O   UNL     3     -11.784   6.895  72.720  1.00  0.00    -0.154 OA 
HETATM   36  O   UNL     3     -13.567   6.912  71.294  1.00  0.00    -0.250 OA 
HETATM   37  H   UNL     3     -10.996   4.711  71.633  1.00  0.00     0.000 HD 
ENDBRANCH  29  32
ENDBRANCH  26  29
ENDBRANCH  23  26
ENDBRANCH   7  23
TORSDOF 8
ENDMDL
MODEL      329
REMARK 921   NORMALIZED FREE ENERGY PREDICTED BY IDOCK:   -3.73 KCAL/MOL
REMARK 922        TOTAL FREE ENERGY PREDICTED BY IDOCK:   -7.55 KCAL/MOL
REMARK 923 INTER-LIGAND FREE ENERGY PREDICTED BY IDOCK:   -6.35 KCAL/MOL
REMARK 924 INTRA-LIGAND FREE ENERGY PREDICTED BY IDOCK:   -1.20 KCAL/MOL
REMARK 927      BINDING AFFINITY PREDICTED BY RF-SCORE:    0.00 PKD
ROOT
HETATM    1 CU   UNL     1     -10.249  11.106  68.527  1.00  0.00    -0.155 Cu 
HETATM    2  O   UNL     2     -11.711  15.156  72.709  1.00  0.00    -0.400 OA 
HETATM    3  C   UNL     2     -11.575  15.703  71.390  1.00  0.00    -0.433 C  
HETATM    4  H   UNL     2     -11.734  15.889  73.314  1.00  0.00     0.000 HD 
HETATM    5  O   UNL     3      -6.176   8.626  62.991  1.00  0.00    -0.086 OA 
HETATM    6  H   UNL     3      -5.544   9.331  63.064  1.00  0.00     0.000 HD 
HETATM    7  C   UNL     3      -6.951   8.578  64.206  1.00  0.00    -0.081 C  
ENDROOT
BRANCH   3   8
HETATM    8  C   UNL     2     -11.538  14.526  70.418  1.00  0.00    -0.248 C  
HETATM    9  O   UNL     2     -12.196  13.389  71.010  1.00  0.00    -0.393 OA 
HETATM   10  H   UNL     2     -12.173  12.656  70.405  1.00  0.00     0.000 HD 
BRANCH   8  11
HETATM   11  C   UNL     2     -12.160  14.878  69.051  1.00  0.00    -0.212 C  
HETATM   12  O   UNL     2     -11.949  16.276  68.840  1.00  0.00    -0.258 OA 
HETATM   13  H   UNL     2     -12.331  16.493  67.999  1.00  0.00     0.000 HD 
BRANCH  11  14
HETATM   14  C   UNL     2     -11.466  14.036  67.961  1.00  0.00    -0.311 C  
HETATM   15  H   UNL     2      -9.606  13.493  67.561  1.00  0.00     0.000 HD 
HETATM   16  O   UNL     2     -10.033  14.012  68.233  1.00  0.00    -0.224 OA 
BRANCH  14  17
HETATM   17  C   UNL     2     -11.747  14.411  66.506  1.00  0.00    -0.391 C  
HETATM   18  C   UNL     2     -11.560  13.163  65.605  1.00  0.00    -0.338 C  
HETATM   19  H   UNL     2     -11.127  15.777  65.232  1.00  0.00     0.000 HD 
HETATM   20  O   UNL     2     -10.953  15.544  66.136  1.00  0.00    -0.316 OA 
HETATM   21  O   UNL     2     -12.179  12.157  66.080  1.00  0.00    -0.609 OA 
HETATM   22  O   UNL     2     -10.890  13.331  64.568  1.00  0.00    -0.351 OA 
ENDBRANCH  14  17
ENDBRANCH  11  14
ENDBRANCH   8  11
ENDBRANCH   3   8
BRANCH   7  23
HETATM   23  C   UNL     3      -7.973   7.439  64.088  1.00  0.00    -0.092 C  
HETATM   24  O   UNL     3      -7.450   6.460  63.168  1.00  0.00    -0.059 OA 
HETATM   25  H   UNL     3      -8.083   5.754  63.095  1.00  0.00     0.000 HD 
BRANCH  23  26
HETATM   26  C   UNL     3      -8.283   6.649  65.374  1.00  0.00    -0.138 C  
HETATM   27  O   UNL     3      -9.016   7.440  66.313  1.00  0.00    -0.156 OA 
HETATM   28  H   UNL     3      -9.208   6.953  67.106  1.00  0.00     0.000 HD 
BRANCH  26  29
HETATM   29  C   UNL     3      -8.967   5.271  65.247  1.00  0.00    -0.125 C  
HETATM   30  O   UNL     3     -10.356   5.309  65.615  1.00  0.00    -0.420 OA 
HETATM   31  H   UNL     3     -10.776   4.461  65.536  1.00  0.00     0.000 HD 
BRANCH  29  32
HETATM   32  C   UNL     3      -8.320   4.105  65.987  1.00  0.00    -0.109 C  
HETATM   33  C   UNL     3      -8.862   3.880  67.410  1.00  0.00    -0.122 C  
HETATM   34  O   UNL     3      -6.856   4.370  66.116  1.00  0.00    -0.055 OA 
HETATM   35  O   UNL     3      -8.145   4.492  68.306  1.00  0.00    -0.083 OA 
HETATM   36  O   UNL     3      -9.617   2.903  67.582  1.00  0.00    -0.182 OA 
HETATM   37  H   UNL     3      -6.452   3.644  66.577  1.00  0.00     0.000 HD 
ENDBRANCH  29  32
ENDBRANCH  26  29
ENDBRANCH  23  26
ENDBRANCH   7  23
TORSDOF 8
ENDMDL
MODEL      330
REMARK 921   NORMALIZED FREE ENERGY PREDICTED BY IDOCK:   -3.71 KCAL/MOL
REMARK 922        TOTAL FREE ENERGY PREDICTED BY IDOCK:   -7.52 KCAL/MOL
REMARK 923 INTER-LIGAND FREE ENERGY PREDICTED BY IDOCK:   -6.33 KCAL/MOL
REMARK 924 INTRA-LIGAND FREE ENERGY PREDICTED BY IDOCK:   -1.19 KCAL/MOL
REMARK 927      BINDING AFFINITY PREDICTED BY RF-SCORE:    0.00 PKD
ROOT
HETATM    1 CU   UNL     1      -7.457  11.114  68.842  1.00  0.00    -0.072 Cu 
HETATM    2  O   UNL     2      -5.165  16.650  68.461  1.00  0.00    -0.110 OA 
HETATM    3  C   UNL     2      -6.544  16.560  68.073  1.00  0.00    -0.137 C  
HETATM    4  H   UNL     2      -4.848  17.498  68.172  1.00  0.00     0.000 HD 
HETATM    5  O   UNL     3     -11.048   5.343  66.161  1.00  0.00    -0.748 OA 
HETATM    6  H   UNL     3     -11.097   5.708  65.284  1.00  0.00     0.000 HD 
HETATM    7  C   UNL     3     -10.044   6.067  66.902  1.00  0.00    -0.185 C  
ENDROOT
BRANCH   3   8
HETATM    8  C   UNL     2      -7.054  15.199  68.537  1.00  0.00    -0.110 C  
HETATM    9  O   UNL     2      -8.001  15.376  69.609  1.00  0.00    -0.222 OA 
HETATM   10  H   UNL     2      -8.318  14.528  69.898  1.00  0.00     0.000 HD 
BRANCH   8  11
HETATM   11  C   UNL     2      -7.667  14.380  67.383  1.00  0.00    -0.185 C  
HETATM   12  O   UNL     2      -6.956  13.140  67.323  1.00  0.00    -0.299 OA 
HETATM   13  H   UNL     2      -7.334  12.636  66.612  1.00  0.00     0.000 HD 
BRANCH  11  14
HETATM   14  C   UNL     2      -9.163  14.153  67.678  1.00  0.00    -0.193 C  
HETATM   15  H   UNL     2     -10.309  12.587  68.067  1.00  0.00     0.000 HD 
HETATM   16  O   UNL     2      -9.387  12.727  67.885  1.00  0.00    -0.193 OA 
BRANCH  14  17
HETATM   17  C   UNL     2     -10.167  14.731  66.680  1.00  0.00    -0.269 C  
HETATM   18  C   UNL     2     -11.602  14.307  67.086  1.00  0.00    -0.380 C  
HETATM   19  H   UNL     2     -10.410  14.729  64.727  1.00  0.00     0.000 HD 
HETATM   20  O   UNL     2      -9.786  14.370  65.347  1.00  0.00    -0.325 OA 
HETATM   21  O   UNL     2     -11.814  14.526  68.321  1.00  0.00    -0.323 OA 
HETATM   22  O   UNL     2     -12.323  13.867  66.169  1.00  0.00    -0.452 OA 
ENDBRANCH  14  17
ENDBRANCH  11  14
ENDBRANCH   8  11
ENDBRANCH   3   8
BRANCH   7  23
HETATM   23  C   UNL     3      -9.965   5.479  68.317  1.00  0.00    -0.154 C  
HETATM   24  O   UNL     3      -8.760   4.692  68.411  1.00  0.00    -0.097 OA 
HETATM   25  H   UNL     3      -8.711   4.328  69.287  1.00  0.00     0.000 HD 
BRANCH  23  26
HETATM   26  C   UNL     3      -9.874   6.484  69.482  1.00  0.00    -0.151 C  
HETATM   27  O   UNL     3     -10.302   7.788  69.084  1.00  0.00    -0.208 OA 
HETATM   28  H   UNL     3     -10.246   8.408  69.803  1.00  0.00     0.000 HD 
BRANCH  26  29
HETATM   29  C   UNL     3     -10.556   6.125  70.821  1.00  0.00    -0.242 C  
HETATM   30  O   UNL     3     -11.503   7.121  71.241  1.00  0.00    -0.261 OA 
HETATM   31  H   UNL     3     -11.922   6.900  72.064  1.00  0.00     0.000 HD 
BRANCH  29  32
HETATM   32  C   UNL     3      -9.642   5.822  72.003  1.00  0.00    -0.150 C  
HETATM   33  C   UNL     3     -10.150   6.364  73.351  1.00  0.00    -0.210 C  
HETATM   34  O   UNL     3      -8.310   6.450  71.756  1.00  0.00    -0.119 OA 
HETATM   35  O   UNL     3      -9.657   7.536  73.621  1.00  0.00    -0.262 OA 
HETATM   36  O   UNL     3     -10.617   5.535  74.156  1.00  0.00    -0.277 OA 
HETATM   37  H   UNL     3      -7.740   6.262  72.492  1.00  0.00     0.000 HD 
ENDBRANCH  29  32
ENDBRANCH  26  29
ENDBRANCH  23  26
ENDBRANCH   7  23
TORSDOF 8
ENDMDL
MODEL      331
REMARK 921   NORMALIZED FREE ENERGY PREDICTED BY IDOCK:   -3.71 KCAL/MOL
REMARK 922        TOTAL FREE ENERGY PREDICTED BY IDOCK:   -7.52 KCAL/MOL
REMARK 923 INTER-LIGAND FREE ENERGY PREDICTED BY IDOCK:   -5.96 KCAL/MOL
REMARK 924 INTRA-LIGAND FREE ENERGY PREDICTED BY IDOCK:   -1.56 KCAL/MOL
REMARK 927      BINDING AFFINITY PREDICTED BY RF-SCORE:    0.00 PKD
ROOT
HETATM    1 CU   UNL     1      -8.081  10.449  67.113  1.00  0.00    -0.106 Cu 
HETATM    2  O   UNL     2      -6.796   4.813  65.496  1.00  0.00    -0.058 OA 
HETATM    3  C   UNL     2      -6.153   5.812  64.692  1.00  0.00    -0.025 C  
HETATM    4  H   UNL     2      -6.701   3.984  65.041  1.00  0.00     0.000 HD 
HETATM    5  O   UNL     3     -10.280  17.284  65.757  1.00  0.00    -0.533 OA 
HETATM    6  H   UNL     3     -10.520  17.090  64.858  1.00  0.00     0.000 HD 
HETATM    7  C   UNL     3     -10.149  16.039  66.474  1.00  0.00    -0.287 C  
ENDROOT
BRANCH   3   8
HETATM    8  C   UNL     2      -6.307   7.143  65.423  1.00  0.00    -0.037 C  
HETATM    9  O   UNL     2      -5.584   8.170  64.715  1.00  0.00    -0.043 OA 
HETATM   10  H   UNL     2      -5.679   8.999  65.171  1.00  0.00     0.000 HD 
BRANCH   8  11
HETATM   11  C   UNL     2      -7.785   7.537  65.616  1.00  0.00    -0.100 C  
HETATM   12  O   UNL     2      -8.567   6.634  64.830  1.00  0.00    -0.337 OA 
HETATM   13  H   UNL     2      -9.478   6.876  64.949  1.00  0.00     0.000 HD 
BRANCH  11  14
HETATM   14  C   UNL     2      -8.135   7.423  67.113  1.00  0.00    -0.114 C  
HETATM   15  H   UNL     2      -7.356   6.506  68.684  1.00  0.00     0.000 HD 
HETATM   16  O   UNL     2      -7.141   6.576  67.762  1.00  0.00    -0.082 OA 
BRANCH  14  17
HETATM   17  C   UNL     2      -9.555   6.978  67.466  1.00  0.00    -0.130 C  
HETATM   18  C   UNL     2     -10.282   8.120  68.222  1.00  0.00    -0.206 C  
HETATM   19  H   UNL     2     -10.393   5.451  68.382  1.00  0.00     0.000 HD 
HETATM   20  O   UNL     2      -9.511   5.728  68.163  1.00  0.00    -0.109 OA 
HETATM   21  O   UNL     2     -10.151   9.231  67.613  1.00  0.00    -0.187 OA 
HETATM   22  O   UNL     2     -10.897   7.789  69.254  1.00  0.00    -0.188 OA 
ENDBRANCH  14  17
ENDBRANCH  11  14
ENDBRANCH   8  11
ENDBRANCH   3   8
BRANCH   7  23
HETATM   23  C   UNL     3      -9.761  16.352  67.926  1.00  0.00    -0.235 C  
HETATM   24  O   UNL     3     -10.350  17.618  68.286  1.00  0.00    -0.347 OA 
HETATM   25  H   UNL     3     -10.110  17.812  69.185  1.00  0.00     0.000 HD 
BRANCH  23  26
HETATM   26  C   UNL     3     -10.253  15.365  69.003  1.00  0.00    -0.233 C  
HETATM   27  O   UNL     3      -9.198  14.990  69.892  1.00  0.00    -0.460 OA 
HETATM   28  H   UNL     3      -9.502  14.382  70.556  1.00  0.00     0.000 HD 
BRANCH  26  29
HETATM   29  C   UNL     3     -11.494  15.745  69.840  1.00  0.00    -0.346 C  
HETATM   30  O   UNL     3     -11.153  16.169  71.169  1.00  0.00    -0.257 OA 
HETATM   31  H   UNL     3     -11.917  16.403  71.684  1.00  0.00     0.000 HD 
BRANCH  29  32
HETATM   32  C   UNL     3     -12.599  14.700  69.952  1.00  0.00    -0.180 C  
HETATM   33  C   UNL     3     -13.221  14.585  71.355  1.00  0.00    -0.355 C  
HETATM   34  O   UNL     3     -12.031  13.361  69.616  1.00  0.00    -0.308 OA 
HETATM   35  O   UNL     3     -12.648  13.659  72.067  1.00  0.00    -0.225 OA 
HETATM   36  O   UNL     3     -14.361  15.064  71.512  1.00  0.00    -0.477 OA 
HETATM   37  H   UNL     3     -12.719  12.709  69.687  1.00  0.00     0.000 HD 
ENDBRANCH  29  32
ENDBRANCH  26  29
ENDBRANCH  23  26
ENDBRANCH   7  23
TORSDOF 8
ENDMDL
MODEL      332
REMARK 921   NORMALIZED FREE ENERGY PREDICTED BY IDOCK:   -3.67 KCAL/MOL
REMARK 922        TOTAL FREE ENERGY PREDICTED BY IDOCK:   -7.46 KCAL/MOL
REMARK 923 INTER-LIGAND FREE ENERGY PREDICTED BY IDOCK:   -6.75 KCAL/MOL
REMARK 924 INTRA-LIGAND FREE ENERGY PREDICTED BY IDOCK:   -0.72 KCAL/MOL
REMARK 927      BINDING AFFINITY PREDICTED BY RF-SCORE:    0.00 PKD
ROOT
HETATM    1 CU   UNL     1      -7.645  15.056  68.691  1.00  0.00    -0.102 Cu 
HETATM    2  O   UNL     2      -7.135  20.667  66.621  1.00  0.00    -0.315 OA 
HETATM    3  C   UNL     2      -8.151  19.894  65.967  1.00  0.00    -0.304 C  
HETATM    4  H   UNL     2      -6.994  21.446  66.094  1.00  0.00     0.000 HD 
HETATM    5  O   UNL     3      -7.997   7.805  67.863  1.00  0.00    -0.121 OA 
HETATM    6  H   UNL     3      -7.798   7.843  66.934  1.00  0.00     0.000 HD 
HETATM    7  C   UNL     3      -7.633   9.066  68.461  1.00  0.00    -0.093 C  
ENDROOT
BRANCH   3   8
HETATM    8  C   UNL     2      -8.378  18.644  66.813  1.00  0.00    -0.281 C  
HETATM    9  O   UNL     2      -8.869  19.022  68.114  1.00  0.00    -0.295 OA 
HETATM   10  H   UNL     2      -9.010  18.243  68.640  1.00  0.00     0.000 HD 
BRANCH   8  11
HETATM   11  C   UNL     2      -9.329  17.640  66.129  1.00  0.00    -0.136 C  
HETATM   12  O   UNL     2      -8.559  16.478  65.815  1.00  0.00    -0.442 OA 
HETATM   13  H   UNL     2      -9.144  15.859  65.395  1.00  0.00     0.000 HD 
BRANCH  11  14
HETATM   14  C   UNL     2     -10.477  17.305  67.103  1.00  0.00    -0.297 C  
HETATM   15  H   UNL     2     -11.814  18.345  68.127  1.00  0.00     0.000 HD 
HETATM   16  O   UNL     2     -11.106  18.551  67.528  1.00  0.00    -0.284 OA 
BRANCH  14  17
HETATM   17  C   UNL     2     -10.138  16.420  68.303  1.00  0.00    -0.248 C  
HETATM   18  C   UNL     2     -10.713  14.998  68.075  1.00  0.00    -0.262 C  
HETATM   19  H   UNL     2     -10.359  16.507  70.257  1.00  0.00     0.000 HD 
HETATM   20  O   UNL     2     -10.569  17.057  69.511  1.00  0.00    -0.316 OA 
HETATM   21  O   UNL     2     -10.408  14.559  66.919  1.00  0.00    -0.261 OA 
HETATM   22  O   UNL     2     -11.332  14.497  69.034  1.00  0.00    -0.244 OA 
ENDBRANCH  14  17
ENDBRANCH  11  14
ENDBRANCH   8  11
ENDBRANCH   3   8
BRANCH   7  23
HETATM   23  C   UNL     3      -7.955   9.005  69.960  1.00  0.00    -0.113 C  
HETATM   24  O   UNL     3      -7.485  10.224  70.571  1.00  0.00    -0.431 OA 
HETATM   25  H   UNL     3      -7.684  10.186  71.500  1.00  0.00     0.000 HD 
BRANCH  23  26
HETATM   26  C   UNL     3      -9.443   8.915  70.348  1.00  0.00    -0.195 C  
HETATM   27  O   UNL     3      -9.612   8.807  71.763  1.00  0.00    -0.261 OA 
HETATM   28  H   UNL     3     -10.530   8.752  72.002  1.00  0.00     0.000 HD 
BRANCH  26  29
HETATM   29  C   UNL     3     -10.411   9.994  69.815  1.00  0.00    -0.255 C  
HETATM   30  O   UNL     3      -9.722  11.110  69.228  1.00  0.00    -0.409 OA 
HETATM   31  H   UNL     3     -10.317  11.774  68.901  1.00  0.00     0.000 HD 
BRANCH  29  32
HETATM   32  C   UNL     3     -11.441  10.545  70.795  1.00  0.00    -0.285 C  
HETATM   33  C   UNL     3     -12.783   9.792  70.793  1.00  0.00    -0.175 C  
HETATM   34  O   UNL     3     -11.737  11.964  70.436  1.00  0.00    -0.495 OA 
HETATM   35  O   UNL     3     -13.650  10.344  69.996  1.00  0.00     0.202 OA 
HETATM   36  O   UNL     3     -13.015   9.043  71.762  1.00  0.00    -0.332 OA 
HETATM   37  H   UNL     3     -12.379  12.307  71.047  1.00  0.00     0.000 HD 
ENDBRANCH  29  32
ENDBRANCH  26  29
ENDBRANCH  23  26
ENDBRANCH   7  23
TORSDOF 8
ENDMDL
MODEL      333
REMARK 921   NORMALIZED FREE ENERGY PREDICTED BY IDOCK:   -3.67 KCAL/MOL
REMARK 922        TOTAL FREE ENERGY PREDICTED BY IDOCK:   -7.46 KCAL/MOL
REMARK 923 INTER-LIGAND FREE ENERGY PREDICTED BY IDOCK:   -6.51 KCAL/MOL
REMARK 924 INTRA-LIGAND FREE ENERGY PREDICTED BY IDOCK:   -0.95 KCAL/MOL
REMARK 927      BINDING AFFINITY PREDICTED BY RF-SCORE:    0.00 PKD
ROOT
HETATM    1 CU   UNL     1     -10.842  11.203  70.949  1.00  0.00    -0.413 Cu 
HETATM    2  O   UNL     2     -12.972  16.420  73.019  1.00  0.00    -0.339 OA 
HETATM    3  C   UNL     2     -13.983  15.537  72.512  1.00  0.00    -0.555 C  
HETATM    4  H   UNL     2     -13.374  17.274  73.123  1.00  0.00     0.000 HD 
HETATM    5  O   UNL     3     -10.172   5.982  65.882  1.00  0.00    -0.391 OA 
HETATM    6  H   UNL     3     -10.647   6.478  65.225  1.00  0.00     0.000 HD 
HETATM    7  C   UNL     3      -9.771   6.883  66.934  1.00  0.00    -0.171 C  
ENDROOT
BRANCH   3   8
HETATM    8  C   UNL     2     -13.337  14.164  72.345  1.00  0.00    -0.494 C  
HETATM    9  O   UNL     2     -14.231  13.145  72.833  1.00  0.00    -0.610 OA 
HETATM   10  H   UNL     2     -13.829  12.290  72.730  1.00  0.00     0.000 HD 
BRANCH   8  11
HETATM   11  C   UNL     2     -12.922  13.886  70.886  1.00  0.00    -0.246 C  
HETATM   12  O   UNL     2     -13.656  14.794  70.060  1.00  0.00    -0.131 OA 
HETATM   13  H   UNL     2     -13.400  14.623  69.161  1.00  0.00     0.000 HD 
BRANCH  11  14
HETATM   14  C   UNL     2     -11.402  14.112  70.752  1.00  0.00     0.205 C  
HETATM   15  H   UNL     2     -10.006  15.017  71.823  1.00  0.00     0.000 HD 
HETATM   16  O   UNL     2     -10.942  14.878  71.905  1.00  0.00    -0.015 OA 
BRANCH  14  17
HETATM   17  C   UNL     2     -10.900  14.725  69.445  1.00  0.00    -0.255 C  
HETATM   18  C   UNL     2     -11.140  16.256  69.466  1.00  0.00    -0.330 C  
HETATM   19  H   UNL     2     -11.173  14.419  67.520  1.00  0.00     0.000 HD 
HETATM   20  O   UNL     2     -11.485  14.038  68.332  1.00  0.00    -0.270 OA 
HETATM   21  O   UNL     2     -10.723  16.773  70.552  1.00  0.00    -0.003 OA 
HETATM   22  O   UNL     2     -11.652  16.744  68.439  1.00  0.00    -0.097 OA 
ENDBRANCH  14  17
ENDBRANCH  11  14
ENDBRANCH   8  11
ENDBRANCH   3   8
BRANCH   7  23
HETATM   23  C   UNL     3      -9.005   6.082  67.995  1.00  0.00    -0.112 C  
HETATM   24  O   UNL     3      -7.733   6.726  68.213  1.00  0.00    -0.102 OA 
HETATM   25  H   UNL     3      -7.258   6.230  68.871  1.00  0.00     0.000 HD 
BRANCH  23  26
HETATM   26  C   UNL     3      -9.647   5.990  69.393  1.00  0.00    -0.134 C  
HETATM   27  O   UNL     3      -8.896   5.137  70.261  1.00  0.00    -0.116 OA 
HETATM   28  H   UNL     3      -9.293   5.081  71.123  1.00  0.00     0.000 HD 
BRANCH  26  29
HETATM   29  C   UNL     3      -9.971   7.300  70.144  1.00  0.00    -0.184 C  
HETATM   30  O   UNL     3      -8.864   7.772  70.929  1.00  0.00    -0.139 OA 
HETATM   31  H   UNL     3      -9.064   8.578  71.391  1.00  0.00     0.000 HD 
BRANCH  29  32
HETATM   32  C   UNL     3     -11.208   7.299  71.035  1.00  0.00    -0.266 C  
HETATM   33  C   UNL     3     -11.135   8.278  72.220  1.00  0.00    -0.359 C  
HETATM   34  O   UNL     3     -11.388   5.933  71.609  1.00  0.00    -0.269 OA 
HETATM   35  O   UNL     3     -10.694   7.703  73.300  1.00  0.00    -0.386 OA 
HETATM   36  O   UNL     3     -11.820   9.317  72.142  1.00  0.00    -0.328 OA 
HETATM   37  H   UNL     3     -12.159   5.932  72.164  1.00  0.00     0.000 HD 
ENDBRANCH  29  32
ENDBRANCH  26  29
ENDBRANCH  23  26
ENDBRANCH   7  23
TORSDOF 8
ENDMDL
MODEL      334
REMARK 921   NORMALIZED FREE ENERGY PREDICTED BY IDOCK:   -3.67 KCAL/MOL
REMARK 922        TOTAL FREE ENERGY PREDICTED BY IDOCK:   -7.46 KCAL/MOL
REMARK 923 INTER-LIGAND FREE ENERGY PREDICTED BY IDOCK:   -5.82 KCAL/MOL
REMARK 924 INTRA-LIGAND FREE ENERGY PREDICTED BY IDOCK:   -1.63 KCAL/MOL
REMARK 927      BINDING AFFINITY PREDICTED BY RF-SCORE:    0.00 PKD
ROOT
HETATM    1 CU   UNL     1      -9.696   8.521  68.424  1.00  0.00    -0.142 Cu 
HETATM    2  O   UNL     2      -7.004   3.311  69.706  1.00  0.00    -0.040 OA 
HETATM    3  C   UNL     2      -6.101   4.418  69.574  1.00  0.00    -0.026 C  
HETATM    4  H   UNL     2      -6.478   2.520  69.699  1.00  0.00     0.000 HD 
HETATM    5  O   UNL     3     -10.551  14.630  64.507  1.00  0.00    -0.594 OA 
HETATM    6  H   UNL     3      -9.912  14.369  63.853  1.00  0.00     0.000 HD 
HETATM    7  C   UNL     3     -10.933  13.464  65.265  1.00  0.00    -0.295 C  
ENDROOT
BRANCH   3   8
HETATM    8  C   UNL     2      -6.944   5.690  69.586  1.00  0.00    -0.063 C  
HETATM    9  O   UNL     2      -6.727   6.404  70.819  1.00  0.00    -0.054 OA 
HETATM   10  H   UNL     2      -7.253   7.195  70.827  1.00  0.00     0.000 HD 
BRANCH   8  11
HETATM   11  C   UNL     2      -6.662   6.590  68.366  1.00  0.00    -0.068 C  
HETATM   12  O   UNL     2      -5.251   6.558  68.138  1.00  0.00    -0.007 OA 
HETATM   13  H   UNL     2      -5.077   7.113  67.386  1.00  0.00     0.000 HD 
BRANCH  11  14
HETATM   14  C   UNL     2      -7.438   6.037  67.154  1.00  0.00    -0.084 C  
HETATM   15  H   UNL     2      -7.671   6.566  65.261  1.00  0.00     0.000 HD 
HETATM   16  O   UNL     2      -7.193   6.906  66.008  1.00  0.00    -0.071 OA 
BRANCH  14  17
HETATM   17  C   UNL     2      -8.933   5.778  67.341  1.00  0.00    -0.108 C  
HETATM   18  C   UNL     2      -9.310   4.426  66.683  1.00  0.00    -0.160 C  
HETATM   19  H   UNL     2     -10.612   6.744  66.990  1.00  0.00     0.000 HD 
HETATM   20  O   UNL     2      -9.683   6.905  66.874  1.00  0.00    -0.155 OA 
HETATM   21  O   UNL     2      -8.507   3.503  67.035  1.00  0.00    -0.100 OA 
HETATM   22  O   UNL     2     -10.328   4.432  65.963  1.00  0.00    -0.249 OA 
ENDBRANCH  14  17
ENDBRANCH  11  14
ENDBRANCH   8  11
ENDBRANCH   3   8
BRANCH   7  23
HETATM   23  C   UNL     3     -11.964  13.884  66.320  1.00  0.00    -0.434 C  
HETATM   24  O   UNL     3     -12.381  12.703  67.037  1.00  0.00    -0.399 OA 
HETATM   25  H   UNL     3     -13.020  12.963  67.690  1.00  0.00     0.000 HD 
BRANCH  23  26
HETATM   26  C   UNL     3     -11.483  14.860  67.411  1.00  0.00    -0.343 C  
HETATM   27  O   UNL     3     -12.404  14.923  68.503  1.00  0.00    -0.585 OA 
HETATM   28  H   UNL     3     -12.106  15.525  69.175  1.00  0.00     0.000 HD 
BRANCH  26  29
HETATM   29  C   UNL     3     -10.056  14.689  67.976  1.00  0.00    -0.227 C  
HETATM   30  O   UNL     3      -9.830  13.377  68.515  1.00  0.00    -0.271 OA 
HETATM   31  H   UNL     3      -8.952  13.272  68.862  1.00  0.00     0.000 HD 
BRANCH  29  32
HETATM   32  C   UNL     3      -9.597  15.706  69.016  1.00  0.00    -0.243 C  
HETATM   33  C   UNL     3      -8.079  15.959  69.027  1.00  0.00    -0.229 C  
HETATM   34  O   UNL     3      -9.965  15.206  70.374  1.00  0.00    -0.479 OA 
HETATM   35  O   UNL     3      -7.467  15.207  69.893  1.00  0.00    -0.182 OA 
HETATM   36  O   UNL     3      -7.680  17.037  68.545  1.00  0.00    -0.215 OA 
HETATM   37  H   UNL     3      -9.680  15.839  71.022  1.00  0.00     0.000 HD 
ENDBRANCH  29  32
ENDBRANCH  26  29
ENDBRANCH  23  26
ENDBRANCH   7  23
TORSDOF 8
ENDMDL
MODEL      335
REMARK 921   NORMALIZED FREE ENERGY PREDICTED BY IDOCK:   -3.66 KCAL/MOL
REMARK 922        TOTAL FREE ENERGY PREDICTED BY IDOCK:   -7.44 KCAL/MOL
REMARK 923 INTER-LIGAND FREE ENERGY PREDICTED BY IDOCK:   -6.26 KCAL/MOL
REMARK 924 INTRA-LIGAND FREE ENERGY PREDICTED BY IDOCK:   -1.18 KCAL/MOL
REMARK 927      BINDING AFFINITY PREDICTED BY RF-SCORE:    0.00 PKD
ROOT
HETATM    1 CU   UNL     1      -7.816   7.876  64.822  1.00  0.00    -0.078 Cu 
HETATM    2  O   UNL     2      -5.672   2.274  65.081  1.00  0.00    -0.015 OA 
HETATM    3  C   UNL     2      -6.044   2.697  63.761  1.00  0.00    -0.014 C  
HETATM    4  H   UNL     2      -5.549   1.333  65.048  1.00  0.00     0.000 HD 
HETATM    5  O   UNL     3     -12.781  12.877  62.892  1.00  0.00    -0.503 OA 
HETATM    6  H   UNL     3     -13.396  12.227  62.573  1.00  0.00     0.000 HD 
HETATM    7  C   UNL     3     -11.803  12.214  63.720  1.00  0.00    -0.500 C  
ENDROOT
BRANCH   3   8
HETATM    8  C   UNL     2      -6.241   4.210  63.813  1.00  0.00    -0.018 C  
HETATM    9  O   UNL     2      -6.095   4.763  62.491  1.00  0.00    -0.017 OA 
HETATM   10  H   UNL     2      -6.218   5.705  62.523  1.00  0.00     0.000 HD 
BRANCH   8  11
HETATM   11  C   UNL     2      -7.599   4.601  64.432  1.00  0.00    -0.073 C  
HETATM   12  O   UNL     2      -7.951   5.880  63.899  1.00  0.00    -0.114 OA 
HETATM   13  H   UNL     2      -8.787   6.121  64.280  1.00  0.00     0.000 HD 
BRANCH  11  14
HETATM   14  C   UNL     2      -8.641   3.530  64.055  1.00  0.00    -0.090 C  
HETATM   15  H   UNL     2     -10.167   3.419  62.798  1.00  0.00     0.000 HD 
HETATM   16  O   UNL     2      -9.524   4.079  63.031  1.00  0.00    -0.127 OA 
BRANCH  14  17
HETATM   17  C   UNL     2      -9.442   2.902  65.196  1.00  0.00    -0.083 C  
HETATM   18  C   UNL     2      -9.823   3.998  66.224  1.00  0.00    -0.159 C  
HETATM   19  H   UNL     2      -9.217   1.401  66.450  1.00  0.00     0.000 HD 
HETATM   20  O   UNL     2      -8.719   1.791  65.740  1.00  0.00    -0.107 OA 
HETATM   21  O   UNL     2     -10.326   5.015  65.647  1.00  0.00    -0.137 OA 
HETATM   22  O   UNL     2      -9.624   3.718  67.423  1.00  0.00    -0.198 OA 
ENDBRANCH  14  17
ENDBRANCH  11  14
ENDBRANCH   8  11
ENDBRANCH   3   8
BRANCH   7  23
HETATM   23  C   UNL     3     -10.809  13.263  64.235  1.00  0.00    -0.392 C  
HETATM   24  O   UNL     3     -11.491  14.532  64.308  1.00  0.00    -0.595 OA 
HETATM   25  H   UNL     3     -10.875  15.182  64.627  1.00  0.00     0.000 HD 
BRANCH  23  26
HETATM   26  C   UNL     3     -10.235  13.040  65.648  1.00  0.00    -0.287 C  
HETATM   27  O   UNL     3      -9.084  13.856  65.881  1.00  0.00    -0.475 OA 
HETATM   28  H   UNL     3      -8.730  13.718  66.753  1.00  0.00     0.000 HD 
BRANCH  26  29
HETATM   29  C   UNL     3     -11.185  13.165  66.858  1.00  0.00    -0.296 C  
HETATM   30  O   UNL     3     -11.429  14.532  67.228  1.00  0.00    -0.335 OA 
HETATM   31  H   UNL     3     -12.014  14.609  67.973  1.00  0.00     0.000 HD 
BRANCH  29  32
HETATM   32  C   UNL     3     -10.800  12.402  68.122  1.00  0.00    -0.221 C  
HETATM   33  C   UNL     3     -11.975  12.127  69.076  1.00  0.00    -0.247 C  
HETATM   34  O   UNL     3      -9.799  13.206  68.884  1.00  0.00    -0.415 OA 
HETATM   35  O   UNL     3     -12.083  13.044  69.993  1.00  0.00    -0.326 OA 
HETATM   36  O   UNL     3     -12.411  10.960  69.119  1.00  0.00    -0.435 OA 
HETATM   37  H   UNL     3      -9.559  12.731  69.671  1.00  0.00     0.000 HD 
ENDBRANCH  29  32
ENDBRANCH  26  29
ENDBRANCH  23  26
ENDBRANCH   7  23
TORSDOF 8
ENDMDL
MODEL      336
REMARK 921   NORMALIZED FREE ENERGY PREDICTED BY IDOCK:   -3.65 KCAL/MOL
REMARK 922        TOTAL FREE ENERGY PREDICTED BY IDOCK:   -7.44 KCAL/MOL
REMARK 923 INTER-LIGAND FREE ENERGY PREDICTED BY IDOCK:   -6.60 KCAL/MOL
REMARK 924 INTRA-LIGAND FREE ENERGY PREDICTED BY IDOCK:   -0.84 KCAL/MOL
REMARK 927      BINDING AFFINITY PREDICTED BY RF-SCORE:    0.00 PKD
ROOT
HETATM    1 CU   UNL     1      -8.639  10.447  67.907  1.00  0.00    -0.111 Cu 
HETATM    2  O   UNL     2      -6.066   5.948  70.936  1.00  0.00    -0.031 OA 
HETATM    3  C   UNL     2      -7.166   6.562  71.625  1.00  0.00    -0.086 C  
HETATM    4  H   UNL     2      -5.608   5.407  71.569  1.00  0.00     0.000 HD 
HETATM    5  O   UNL     3     -11.150  17.278  67.260  1.00  0.00    -0.082 OA 
HETATM    6  H   UNL     3     -10.812  17.545  68.108  1.00  0.00     0.000 HD 
HETATM    7  C   UNL     3     -10.498  16.051  66.873  1.00  0.00    -0.306 C  
ENDROOT
BRANCH   3   8
HETATM    8  C   UNL     2      -7.902   7.431  70.609  1.00  0.00    -0.097 C  
HETATM    9  O   UNL     2      -6.967   8.312  69.956  1.00  0.00    -0.042 OA 
HETATM   10  H   UNL     2      -7.425   8.853  69.324  1.00  0.00     0.000 HD 
BRANCH   8  11
HETATM   11  C   UNL     2      -8.684   6.590  69.579  1.00  0.00    -0.134 C  
HETATM   12  O   UNL     2      -7.748   6.164  68.586  1.00  0.00    -0.096 OA 
HETATM   13  H   UNL     2      -8.230   5.647  67.951  1.00  0.00     0.000 HD 
BRANCH  11  14
HETATM   14  C   UNL     2      -9.319   5.386  70.303  1.00  0.00    -0.154 C  
HETATM   15  H   UNL     2      -9.510   3.452  69.934  1.00  0.00     0.000 HD 
HETATM   16  O   UNL     2      -9.119   4.193  69.488  1.00  0.00    -0.097 OA 
BRANCH  14  17
HETATM   17  C   UNL     2     -10.780   5.523  70.735  1.00  0.00    -0.224 C  
HETATM   18  C   UNL     2     -11.514   6.492  69.773  1.00  0.00    -0.379 C  
HETATM   19  H   UNL     2     -11.752   5.969  72.387  1.00  0.00     0.000 HD 
HETATM   20  O   UNL     2     -10.844   5.884  72.119  1.00  0.00    -0.221 OA 
HETATM   21  O   UNL     2     -11.290   6.192  68.557  1.00  0.00    -0.289 OA 
HETATM   22  O   UNL     2     -12.222   7.366  70.312  1.00  0.00     0.021 OA 
ENDBRANCH  14  17
ENDBRANCH  11  14
ENDBRANCH   8  11
ENDBRANCH   3   8
BRANCH   7  23
HETATM   23  C   UNL     3     -11.043  15.621  65.504  1.00  0.00    -0.226 C  
HETATM   24  O   UNL     3     -10.775  16.678  64.561  1.00  0.00    -0.842 OA 
HETATM   25  H   UNL     3     -11.113  16.412  63.713  1.00  0.00     0.000 HD 
BRANCH  23  26
HETATM   26  C   UNL     3     -10.420  14.360  64.874  1.00  0.00    -0.423 C  
HETATM   27  O   UNL     3      -9.218  13.977  65.546  1.00  0.00    -0.401 OA 
HETATM   28  H   UNL     3      -8.834  13.200  65.157  1.00  0.00     0.000 HD 
BRANCH  26  29
HETATM   29  C   UNL     3     -11.308  13.109  64.696  1.00  0.00    -0.333 C  
HETATM   30  O   UNL     3     -12.710  13.420  64.722  1.00  0.00    -0.641 OA 
HETATM   31  H   UNL     3     -13.256  12.650  64.612  1.00  0.00     0.000 HD 
BRANCH  29  32
HETATM   32  C   UNL     3     -11.070  11.949  65.657  1.00  0.00    -0.310 C  
HETATM   33  C   UNL     3     -11.276  12.304  67.140  1.00  0.00    -0.307 C  
HETATM   34  O   UNL     3      -9.658  11.485  65.512  1.00  0.00    -0.222 OA 
HETATM   35  O   UNL     3     -10.163  12.651  67.717  1.00  0.00    -0.213 OA 
HETATM   36  O   UNL     3     -12.311  11.876  67.688  1.00  0.00    -0.357 OA 
HETATM   37  H   UNL     3      -9.509  10.763  66.111  1.00  0.00     0.000 HD 
ENDBRANCH  29  32
ENDBRANCH  26  29
ENDBRANCH  23  26
ENDBRANCH   7  23
TORSDOF 8
ENDMDL
MODEL      337
REMARK 921   NORMALIZED FREE ENERGY PREDICTED BY IDOCK:   -3.64 KCAL/MOL
REMARK 922        TOTAL FREE ENERGY PREDICTED BY IDOCK:   -7.42 KCAL/MOL
REMARK 923 INTER-LIGAND FREE ENERGY PREDICTED BY IDOCK:   -6.81 KCAL/MOL
REMARK 924 INTRA-LIGAND FREE ENERGY PREDICTED BY IDOCK:   -0.62 KCAL/MOL
REMARK 927      BINDING AFFINITY PREDICTED BY RF-SCORE:    0.00 PKD
ROOT
HETATM    1 CU   UNL     1      -9.696  13.010  68.952  1.00  0.00    -0.193 Cu 
HETATM    2  O   UNL     2      -8.821  18.947  69.071  1.00  0.00    -0.258 OA 
HETATM    3  C   UNL     2      -9.572  18.491  67.937  1.00  0.00    -0.300 C  
HETATM    4  H   UNL     2      -8.563  19.844  68.892  1.00  0.00     0.000 HD 
HETATM    5  O   UNL     3      -9.511   6.453  65.732  1.00  0.00    -0.383 OA 
HETATM    6  H   UNL     3      -9.052   6.778  64.966  1.00  0.00     0.000 HD 
HETATM    7  C   UNL     3      -9.387   7.428  66.788  1.00  0.00    -0.160 C  
ENDROOT
BRANCH   3   8
HETATM    8  C   UNL     2      -9.987  17.050  68.225  1.00  0.00    -0.285 C  
HETATM    9  O   UNL     2     -10.860  17.017  69.370  1.00  0.00    -0.346 OA 
HETATM   10  H   UNL     2     -11.118  16.120  69.549  1.00  0.00     0.000 HD 
BRANCH   8  11
HETATM   11  C   UNL     2     -10.647  16.377  67.003  1.00  0.00    -0.260 C  
HETATM   12  O   UNL     2     -10.271  17.136  65.851  1.00  0.00    -0.458 OA 
HETATM   13  H   UNL     2     -10.677  16.722  65.099  1.00  0.00     0.000 HD 
BRANCH  11  14
HETATM   14  C   UNL     2     -10.141  14.924  66.906  1.00  0.00    -0.242 C  
HETATM   15  H   UNL     2      -8.463  14.044  66.333  1.00  0.00     0.000 HD 
HETATM   16  O   UNL     2      -8.775  14.939  66.393  1.00  0.00    -0.230 OA 
BRANCH  14  17
HETATM   17  C   UNL     2     -11.011  13.933  66.133  1.00  0.00    -0.293 C  
HETATM   18  C   UNL     2     -11.889  13.131  67.128  1.00  0.00    -0.369 C  
HETATM   19  H   UNL     2     -10.729  12.516  64.796  1.00  0.00     0.000 HD 
HETATM   20  O   UNL     2     -10.188  13.132  65.276  1.00  0.00    -0.299 OA 
HETATM   21  O   UNL     2     -12.475  13.905  67.952  1.00  0.00    -0.113 OA 
HETATM   22  O   UNL     2     -11.923  11.896  66.958  1.00  0.00    -0.615 OA 
ENDBRANCH  14  17
ENDBRANCH  11  14
ENDBRANCH   8  11
ENDBRANCH   3   8
BRANCH   7  23
HETATM   23  C   UNL     3     -10.128   6.904  68.025  1.00  0.00    -0.166 C  
HETATM   24  O   UNL     3     -10.419   5.507  67.817  1.00  0.00    -0.205 OA 
HETATM   25  H   UNL     3     -10.879   5.182  68.583  1.00  0.00     0.000 HD 
BRANCH  23  26
HETATM   26  C   UNL     3      -9.367   6.956  69.364  1.00  0.00    -0.146 C  
HETATM   27  O   UNL     3      -8.096   6.309  69.270  1.00  0.00    -0.107 OA 
HETATM   28  H   UNL     3      -7.627   6.341  70.096  1.00  0.00     0.000 HD 
BRANCH  26  29
HETATM   29  C   UNL     3      -9.177   8.325  70.052  1.00  0.00    -0.151 C  
HETATM   30  O   UNL     3      -7.806   8.584  70.394  1.00  0.00    -0.079 OA 
HETATM   31  H   UNL     3      -7.690   9.426  70.818  1.00  0.00     0.000 HD 
BRANCH  29  32
HETATM   32  C   UNL     3     -10.027   8.602  71.288  1.00  0.00    -0.246 C  
HETATM   33  C   UNL     3     -10.396   7.345  72.096  1.00  0.00    -0.199 C  
HETATM   34  O   UNL     3     -11.308   9.237  70.860  1.00  0.00    -0.267 OA 
HETATM   35  O   UNL     3     -11.553   6.864  71.746  1.00  0.00    -0.260 OA 
HETATM   36  O   UNL     3      -9.798   7.168  73.175  1.00  0.00    -0.174 OA 
HETATM   37  H   UNL     3     -11.838   9.409  71.630  1.00  0.00     0.000 HD 
ENDBRANCH  29  32
ENDBRANCH  26  29
ENDBRANCH  23  26
ENDBRANCH   7  23
TORSDOF 8
ENDMDL
MODEL      338
REMARK 921   NORMALIZED FREE ENERGY PREDICTED BY IDOCK:   -3.64 KCAL/MOL
REMARK 922        TOTAL FREE ENERGY PREDICTED BY IDOCK:   -7.41 KCAL/MOL
REMARK 923 INTER-LIGAND FREE ENERGY PREDICTED BY IDOCK:   -6.25 KCAL/MOL
REMARK 924 INTRA-LIGAND FREE ENERGY PREDICTED BY IDOCK:   -1.16 KCAL/MOL
REMARK 927      BINDING AFFINITY PREDICTED BY RF-SCORE:    0.00 PKD
ROOT
HETATM    1 CU   UNL     1      -8.038  12.191  67.797  1.00  0.00    -0.108 Cu 
HETATM    2  O   UNL     2      -8.177   6.250  68.648  1.00  0.00    -0.111 OA 
HETATM    3  C   UNL     2      -9.441   6.816  68.272  1.00  0.00    -0.125 C  
HETATM    4  H   UNL     2      -8.346   5.368  68.956  1.00  0.00     0.000 HD 
HETATM    5  O   UNL     3     -10.464  18.995  68.893  1.00  0.00    -0.465 OA 
HETATM    6  H   UNL     3     -11.080  18.730  69.566  1.00  0.00     0.000 HD 
HETATM    7  C   UNL     3      -9.510  17.932  68.699  1.00  0.00    -0.298 C  
ENDROOT
BRANCH   3   8
HETATM    8  C   UNL     2      -9.168   8.234  67.777  1.00  0.00    -0.134 C  
HETATM    9  O   UNL     2      -8.531   8.182  66.486  1.00  0.00    -0.121 OA 
HETATM   10  H   UNL     2      -8.361   9.065  66.178  1.00  0.00     0.000 HD 
BRANCH   8  11
HETATM   11  C   UNL     2     -10.449   9.093  67.730  1.00  0.00    -0.247 C  
HETATM   12  O   UNL     2     -11.557   8.192  67.664  1.00  0.00     0.514 OA 
HETATM   13  H   UNL     2     -12.346   8.720  67.635  1.00  0.00     0.000 HD 
BRANCH  11  14
HETATM   14  C   UNL     2     -10.509   9.961  69.003  1.00  0.00    -0.210 C  
HETATM   15  H   UNL     2      -9.248  11.135  69.976  1.00  0.00     0.000 HD 
HETATM   16  O   UNL     2      -9.212  10.600  69.192  1.00  0.00    -0.188 OA 
BRANCH  14  17
HETATM   17  C   UNL     2     -10.985   9.283  70.288  1.00  0.00    -0.247 C  
HETATM   18  C   UNL     2     -12.277   9.977  70.790  1.00  0.00    -0.315 C  
HETATM   19  H   UNL     2     -10.210   8.822  72.037  1.00  0.00     0.000 HD 
HETATM   20  O   UNL     2      -9.914   9.243  71.239  1.00  0.00    -0.296 OA 
HETATM   21  O   UNL     2     -13.125  10.108  69.850  1.00  0.00     0.103 OA 
HETATM   22  O   UNL     2     -12.311  10.260  72.004  1.00  0.00    -0.264 OA 
ENDBRANCH  14  17
ENDBRANCH  11  14
ENDBRANCH   8  11
ENDBRANCH   3   8
BRANCH   7  23
HETATM   23  C   UNL     3      -8.515  18.361  67.612  1.00  0.00    -0.255 C  
HETATM   24  O   UNL     3      -7.202  18.429  68.205  1.00  0.00    -0.246 OA 
HETATM   25  H   UNL     3      -6.586  18.695  67.531  1.00  0.00     0.000 HD 
BRANCH  23  26
HETATM   26  C   UNL     3      -8.357  17.416  66.405  1.00  0.00    -0.267 C  
HETATM   27  O   UNL     3      -6.982  17.242  66.052  1.00  0.00    -0.242 OA 
HETATM   28  H   UNL     3      -6.884  16.659  65.308  1.00  0.00     0.000 HD 
BRANCH  26  29
HETATM   29  C   UNL     3      -9.034  16.029  66.459  1.00  0.00    -0.292 C  
HETATM   30  O   UNL     3      -8.151  15.004  66.943  1.00  0.00    -0.263 OA 
HETATM   31  H   UNL     3      -8.568  14.151  66.977  1.00  0.00     0.000 HD 
BRANCH  29  32
HETATM   32  C   UNL     3      -9.676  15.522  65.173  1.00  0.00     0.071 C  
HETATM   33  C   UNL     3     -11.132  15.978  64.970  1.00  0.00    -0.336 C  
HETATM   34  O   UNL     3      -9.686  14.029  65.195  1.00  0.00    -0.578 OA 
HETATM   35  O   UNL     3     -11.983  15.102  65.417  1.00  0.00    -0.119 OA 
HETATM   36  O   UNL     3     -11.336  16.865  64.118  1.00  0.00    -1.208 OA 
HETATM   37  H   UNL     3     -10.087  13.713  64.394  1.00  0.00     0.000 HD 
ENDBRANCH  29  32
ENDBRANCH  26  29
ENDBRANCH  23  26
ENDBRANCH   7  23
TORSDOF 8
ENDMDL
MODEL      339
REMARK 921   NORMALIZED FREE ENERGY PREDICTED BY IDOCK:   -3.63 KCAL/MOL
REMARK 922        TOTAL FREE ENERGY PREDICTED BY IDOCK:   -7.41 KCAL/MOL
REMARK 923 INTER-LIGAND FREE ENERGY PREDICTED BY IDOCK:   -6.21 KCAL/MOL
REMARK 924 INTRA-LIGAND FREE ENERGY PREDICTED BY IDOCK:   -1.20 KCAL/MOL
REMARK 927      BINDING AFFINITY PREDICTED BY RF-SCORE:    0.00 PKD
ROOT
HETATM    1 CU   UNL     1     -10.370   9.237  68.710  1.00  0.00    -0.169 Cu 
HETATM    2  O   UNL     2      -9.735   3.742  71.041  1.00  0.00    -0.176 OA 
HETATM    3  C   UNL     2      -9.361   3.836  69.659  1.00  0.00    -0.175 C  
HETATM    4  H   UNL     2      -9.798   2.817  71.251  1.00  0.00     0.000 HD 
HETATM    5  O   UNL     3     -12.784  13.945  63.671  1.00  0.00    -0.754 OA 
HETATM    6  H   UNL     3     -13.296  13.285  63.215  1.00  0.00     0.000 HD 
HETATM    7  C   UNL     3     -12.454  13.443  64.982  1.00  0.00    -0.428 C  
ENDROOT
BRANCH   3   8
HETATM    8  C   UNL     2      -9.259   5.322  69.323  1.00  0.00    -0.114 C  
HETATM    9  O   UNL     2      -8.143   5.902  70.025  1.00  0.00    -0.105 OA 
HETATM   10  H   UNL     2      -8.081   6.827  69.816  1.00  0.00     0.000 HD 
BRANCH   8  11
HETATM   11  C   UNL     2      -9.150   5.571  67.804  1.00  0.00    -0.107 C  
HETATM   12  O   UNL     2      -9.914   4.551  67.155  1.00  0.00    -0.197 OA 
HETATM   13  H   UNL     2      -9.847   4.704  66.220  1.00  0.00     0.000 HD 
BRANCH  11  14
HETATM   14  C   UNL     2      -9.709   6.973  67.492  1.00  0.00    -0.136 C  
HETATM   15  H   UNL     2     -11.362   7.689  66.673  1.00  0.00     0.000 HD 
HETATM   16  O   UNL     2     -11.018   6.825  66.866  1.00  0.00    -0.378 OA 
BRANCH  14  17
HETATM   17  C   UNL     2      -8.815   7.917  66.687  1.00  0.00    -0.146 C  
HETATM   18  C   UNL     2      -7.912   7.089  65.737  1.00  0.00    -0.116 C  
HETATM   19  H   UNL     2      -7.555   9.378  67.076  1.00  0.00     0.000 HD 
HETATM   20  O   UNL     2      -8.110   8.792  67.576  1.00  0.00    -0.105 OA 
HETATM   21  O   UNL     2      -8.593   6.232  65.087  1.00  0.00    -0.121 OA 
HETATM   22  O   UNL     2      -6.704   7.398  65.720  1.00  0.00    -0.050 OA 
ENDBRANCH  14  17
ENDBRANCH  11  14
ENDBRANCH   8  11
ENDBRANCH   3   8
BRANCH   7  23
HETATM   23  C   UNL     3     -11.629  14.508  65.717  1.00  0.00    -0.347 C  
HETATM   24  O   UNL     3     -12.027  14.508  67.103  1.00  0.00    -0.410 OA 
HETATM   25  H   UNL     3     -11.516  15.167  67.559  1.00  0.00     0.000 HD 
BRANCH  23  26
HETATM   26  C   UNL     3     -10.101  14.306  65.744  1.00  0.00    -0.335 C  
HETATM   27  O   UNL     3      -9.410  15.468  65.280  1.00  0.00    -0.259 OA 
HETATM   28  H   UNL     3      -8.468  15.343  65.297  1.00  0.00     0.000 HD 
BRANCH  26  29
HETATM   29  C   UNL     3      -9.443  13.828  67.056  1.00  0.00    -0.255 C  
HETATM   30  O   UNL     3      -8.272  14.588  67.394  1.00  0.00    -0.176 OA 
HETATM   31  H   UNL     3      -7.867  14.294  68.202  1.00  0.00     0.000 HD 
BRANCH  29  32
HETATM   32  C   UNL     3      -9.082  12.349  67.151  1.00  0.00    -0.199 C  
HETATM   33  C   UNL     3      -9.910  11.436  66.230  1.00  0.00    -0.218 C  
HETATM   34  O   UNL     3      -9.316  11.884  68.550  1.00  0.00    -0.254 OA 
HETATM   35  O   UNL     3     -10.946  10.940  66.839  1.00  0.00    -0.271 OA 
HETATM   36  O   UNL     3      -9.340  10.985  65.217  1.00  0.00    -0.205 OA 
HETATM   37  H   UNL     3      -9.092  10.963  68.609  1.00  0.00     0.000 HD 
ENDBRANCH  29  32
ENDBRANCH  26  29
ENDBRANCH  23  26
ENDBRANCH   7  23
TORSDOF 8
ENDMDL
MODEL      340
REMARK 921   NORMALIZED FREE ENERGY PREDICTED BY IDOCK:   -3.63 KCAL/MOL
REMARK 922        TOTAL FREE ENERGY PREDICTED BY IDOCK:   -7.41 KCAL/MOL
REMARK 923 INTER-LIGAND FREE ENERGY PREDICTED BY IDOCK:   -5.89 KCAL/MOL
REMARK 924 INTRA-LIGAND FREE ENERGY PREDICTED BY IDOCK:   -1.51 KCAL/MOL
REMARK 927      BINDING AFFINITY PREDICTED BY RF-SCORE:    0.00 PKD
ROOT
HETATM    1 CU   UNL     1     -10.351   7.752  68.430  1.00  0.00    -0.166 Cu 
HETATM    2  O   UNL     2      -9.824   1.799  67.861  1.00  0.00    -0.390 OA 
HETATM    3  C   UNL     2      -9.154   2.545  66.835  1.00  0.00    -0.124 C  
HETATM    4  H   UNL     2      -9.858   0.895  67.571  1.00  0.00     0.000 HD 
HETATM    5  O   UNL     3     -11.927  14.430  65.919  1.00  0.00    -0.377 OA 
HETATM    6  H   UNL     3     -12.266  14.103  65.094  1.00  0.00     0.000 HD 
HETATM    7  C   UNL     3     -11.863  13.334  66.855  1.00  0.00    -0.392 C  
ENDROOT
BRANCH   3   8
HETATM    8  C   UNL     2      -9.098   3.998  67.300  1.00  0.00    -0.150 C  
HETATM    9  O   UNL     2     -10.135   4.236  68.272  1.00  0.00    -0.021 OA 
HETATM   10  H   UNL     2     -10.100   5.140  68.561  1.00  0.00     0.000 HD 
BRANCH   8  11
HETATM   11  C   UNL     2      -7.713   4.379  67.862  1.00  0.00    -0.080 C  
HETATM   12  O   UNL     2      -6.785   3.397  67.393  1.00  0.00    -0.044 OA 
HETATM   13  H   UNL     2      -5.932   3.631  67.738  1.00  0.00     0.000 HD 
BRANCH  11  14
HETATM   14  C   UNL     2      -7.343   5.787  67.353  1.00  0.00    -0.077 C  
HETATM   15  H   UNL     2      -8.237   7.181  66.270  1.00  0.00     0.000 HD 
HETATM   16  O   UNL     2      -8.464   6.313  66.583  1.00  0.00    -0.110 OA 
BRANCH  14  17
HETATM   17  C   UNL     2      -6.029   5.928  66.584  1.00  0.00    -0.022 C  
HETATM   18  C   UNL     2      -5.683   7.431  66.425  1.00  0.00    -0.032 C  
HETATM   19  H   UNL     2      -5.289   5.282  64.879  1.00  0.00     0.000 HD 
HETATM   20  O   UNL     2      -6.105   5.194  65.357  1.00  0.00    -0.031 OA 
HETATM   21  O   UNL     2      -5.780   8.046  67.535  1.00  0.00    -0.036 OA 
HETATM   22  O   UNL     2      -5.335   7.795  65.284  1.00  0.00    -0.029 OA 
ENDBRANCH  14  17
ENDBRANCH  11  14
ENDBRANCH   8  11
ENDBRANCH   3   8
BRANCH   7  23
HETATM   23  C   UNL     3     -11.315  13.862  68.187  1.00  0.00    -0.295 C  
HETATM   24  O   UNL     3      -9.874  13.800  68.137  1.00  0.00    -0.225 OA 
HETATM   25  H   UNL     3      -9.534  14.127  68.962  1.00  0.00     0.000 HD 
BRANCH  23  26
HETATM   26  C   UNL     3     -11.636  15.328  68.538  1.00  0.00    -0.352 C  
HETATM   27  O   UNL     3     -12.774  15.424  69.398  1.00  0.00    -0.586 OA 
HETATM   28  H   UNL     3     -12.972  16.328  69.615  1.00  0.00     0.000 HD 
BRANCH  26  29
HETATM   29  C   UNL     3     -10.508  16.215  69.109  1.00  0.00    -0.265 C  
HETATM   30  O   UNL     3     -10.963  17.073  70.167  1.00  0.00    -0.361 OA 
HETATM   31  H   UNL     3     -10.269  17.618  70.518  1.00  0.00     0.000 HD 
BRANCH  29  32
HETATM   32  C   UNL     3      -9.732  17.072  68.114  1.00  0.00    -0.268 C  
HETATM   33  C   UNL     3      -9.885  18.587  68.332  1.00  0.00    -0.372 C  
HETATM   34  O   UNL     3     -10.226  16.778  66.736  1.00  0.00    -0.289 OA 
HETATM   35  O   UNL     3     -10.838  19.090  67.603  1.00  0.00    -0.438 OA 
HETATM   36  O   UNL     3      -8.913  19.190  68.828  1.00  0.00    -0.363 OA 
HETATM   37  H   UNL     3      -9.743  17.312  66.117  1.00  0.00     0.000 HD 
ENDBRANCH  29  32
ENDBRANCH  26  29
ENDBRANCH  23  26
ENDBRANCH   7  23
TORSDOF 8
ENDMDL
MODEL      341
REMARK 921   NORMALIZED FREE ENERGY PREDICTED BY IDOCK:   -3.58 KCAL/MOL
REMARK 922        TOTAL FREE ENERGY PREDICTED BY IDOCK:   -7.33 KCAL/MOL
REMARK 923 INTER-LIGAND FREE ENERGY PREDICTED BY IDOCK:   -5.68 KCAL/MOL
REMARK 924 INTRA-LIGAND FREE ENERGY PREDICTED BY IDOCK:   -1.66 KCAL/MOL
REMARK 927      BINDING AFFINITY PREDICTED BY RF-SCORE:    0.00 PKD
ROOT
HETATM    1 CU   UNL     1      -8.723   9.452  67.064  1.00  0.00    -0.117 Cu 
HETATM    2  O   UNL     2      -9.175   3.488  67.586  1.00  0.00    -0.155 OA 
HETATM    3  C   UNL     2      -9.085   4.179  68.840  1.00  0.00    -0.129 C  
HETATM    4  H   UNL     2      -9.034   2.566  67.764  1.00  0.00     0.000 HD 
HETATM    5  O   UNL     3      -5.598  15.904  68.474  1.00  0.00    -0.096 OA 
HETATM    6  H   UNL     3      -4.864  15.513  68.936  1.00  0.00     0.000 HD 
HETATM    7  C   UNL     3      -6.253  14.876  67.704  1.00  0.00    -0.100 C  
ENDROOT
BRANCH   3   8
HETATM    8  C   UNL     2      -9.314   5.661  68.554  1.00  0.00    -0.123 C  
HETATM    9  O   UNL     2      -8.980   5.946  67.182  1.00  0.00    -0.115 OA 
HETATM   10  H   UNL     2      -9.122   6.869  67.004  1.00  0.00     0.000 HD 
BRANCH   8  11
HETATM   11  C   UNL     2     -10.755   6.103  68.879  1.00  0.00    -0.312 C  
HETATM   12  O   UNL     2     -11.058   5.619  70.190  1.00  0.00    -0.296 OA 
HETATM   13  H   UNL     2     -11.946   5.892  70.390  1.00  0.00     0.000 HD 
BRANCH  11  14
HETATM   14  C   UNL     2     -10.825   7.643  68.821  1.00  0.00     0.009 C  
HETATM   15  H   UNL     2     -10.456   9.026  67.455  1.00  0.00     0.000 HD 
HETATM   16  O   UNL     2     -10.414   8.078  67.491  1.00  0.00    -0.244 OA 
BRANCH  14  17
HETATM   17  C   UNL     2     -10.081   8.416  69.910  1.00  0.00    -0.195 C  
HETATM   18  C   UNL     2     -11.107   9.055  70.882  1.00  0.00    -0.280 C  
HETATM   19  H   UNL     2      -8.704   9.820  69.986  1.00  0.00     0.000 HD 
HETATM   20  O   UNL     2      -9.166   9.339  69.309  1.00  0.00    -0.144 OA 
HETATM   21  O   UNL     2     -11.976   8.204  71.258  1.00  0.00    -0.289 OA 
HETATM   22  O   UNL     2     -10.915  10.252  71.172  1.00  0.00    -0.145 OA 
ENDBRANCH  14  17
ENDBRANCH  11  14
ENDBRANCH   8  11
ENDBRANCH   3   8
BRANCH   7  23
HETATM   23  C   UNL     3      -7.437  15.506  66.958  1.00  0.00    -0.170 C  
HETATM   24  O   UNL     3      -8.330  14.447  66.556  1.00  0.00    -0.391 OA 
HETATM   25  H   UNL     3      -9.064  14.838  66.094  1.00  0.00     0.000 HD 
BRANCH  23  26
HETATM   26  C   UNL     3      -8.318  16.486  67.758  1.00  0.00    -0.170 C  
HETATM   27  O   UNL     3      -8.225  16.247  69.164  1.00  0.00    -0.241 OA 
HETATM   28  H   UNL     3      -8.769  16.852  69.657  1.00  0.00     0.000 HD 
BRANCH  26  29
HETATM   29  C   UNL     3      -8.159  18.000  67.500  1.00  0.00    -0.230 C  
HETATM   30  O   UNL     3      -7.781  18.723  68.682  1.00  0.00    -0.311 OA 
HETATM   31  H   UNL     3      -7.683  19.655  68.523  1.00  0.00     0.000 HD 
BRANCH  29  32
HETATM   32  C   UNL     3      -9.345  18.723  66.870  1.00  0.00    -0.300 C  
HETATM   33  C   UNL     3     -10.502  19.008  67.844  1.00  0.00    -0.393 C  
HETATM   34  O   UNL     3      -9.898  17.876  65.772  1.00  0.00    -0.540 OA 
HETATM   35  O   UNL     3     -11.406  18.073  67.812  1.00  0.00     0.107 OA 
HETATM   36  O   UNL     3     -10.643  20.185  68.229  1.00  0.00    -0.309 OA 
HETATM   37  H   UNL     3     -10.637  18.326  65.380  1.00  0.00     0.000 HD 
ENDBRANCH  29  32
ENDBRANCH  26  29
ENDBRANCH  23  26
ENDBRANCH   7  23
TORSDOF 8
ENDMDL
MODEL      342
REMARK 921   NORMALIZED FREE ENERGY PREDICTED BY IDOCK:   -3.58 KCAL/MOL
REMARK 922        TOTAL FREE ENERGY PREDICTED BY IDOCK:   -7.33 KCAL/MOL
REMARK 923 INTER-LIGAND FREE ENERGY PREDICTED BY IDOCK:   -5.08 KCAL/MOL
REMARK 924 INTRA-LIGAND FREE ENERGY PREDICTED BY IDOCK:   -2.24 KCAL/MOL
REMARK 927      BINDING AFFINITY PREDICTED BY RF-SCORE:    0.00 PKD
ROOT
HETATM    1 CU   UNL     1     -10.151   7.579  67.715  1.00  0.00    -0.143 Cu 
HETATM    2  O   UNL     2     -12.094  12.735  70.098  1.00  0.00    -0.342 OA 
HETATM    3  C   UNL     2     -11.678  12.845  68.729  1.00  0.00    -0.323 C  
HETATM    4  H   UNL     2     -12.180  13.619  70.435  1.00  0.00     0.000 HD 
HETATM    5  O   UNL     3      -5.293   3.482  64.110  1.00  0.00    -0.008 OA 
HETATM    6  H   UNL     3      -4.639   4.172  64.089  1.00  0.00     0.000 HD 
HETATM    7  C   UNL     3      -6.282   3.818  65.104  1.00  0.00    -0.027 C  
ENDROOT
BRANCH   3   8
HETATM    8  C   UNL     2     -11.540  11.424  68.187  1.00  0.00    -0.294 C  
HETATM    9  O   UNL     2     -11.538  11.454  66.746  1.00  0.00    -0.465 OA 
HETATM   10  H   UNL     2     -11.453  10.570  66.409  1.00  0.00     0.000 HD 
BRANCH   8  11
HETATM   11  C   UNL     2     -10.284  10.712  68.729  1.00  0.00    -0.190 C  
HETATM   12  O   UNL     2      -9.491  11.701  69.390  1.00  0.00    -0.270 OA 
HETATM   13  H   UNL     2      -8.718  11.263  69.724  1.00  0.00     0.000 HD 
BRANCH  11  14
HETATM   14  C   UNL     2     -10.727   9.605  69.707  1.00  0.00    -0.245 C  
HETATM   15  H   UNL     2     -11.722   9.541  71.416  1.00  0.00     0.000 HD 
HETATM   16  O   UNL     2     -11.449  10.222  70.814  1.00  0.00    -0.319 OA 
BRANCH  14  17
HETATM   17  C   UNL     2      -9.647   8.650  70.215  1.00  0.00    -0.170 C  
HETATM   18  C   UNL     2     -10.316   7.399  70.841  1.00  0.00    -0.200 C  
HETATM   19  H   UNL     2      -8.080   8.758  71.401  1.00  0.00     0.000 HD 
HETATM   20  O   UNL     2      -8.751   9.351  71.085  1.00  0.00    -0.284 OA 
HETATM   21  O   UNL     2     -11.205   6.918  70.068  1.00  0.00    -0.280 OA 
HETATM   22  O   UNL     2      -9.875   7.038  71.950  1.00  0.00    -0.165 OA 
ENDBRANCH  14  17
ENDBRANCH  11  14
ENDBRANCH   8  11
ENDBRANCH   3   8
BRANCH   7  23
HETATM   23  C   UNL     3      -7.337   2.704  65.137  1.00  0.00    -0.067 C  
HETATM   24  O   UNL     3      -6.938   1.735  66.128  1.00  0.00    -0.041 OA 
HETATM   25  H   UNL     3      -7.591   1.045  66.148  1.00  0.00     0.000 HD 
BRANCH  23  26
HETATM   26  C   UNL     3      -8.767   3.115  65.539  1.00  0.00    -0.121 C  
HETATM   27  O   UNL     3      -9.744   2.236  64.976  1.00  0.00    -0.346 OA 
HETATM   28  H   UNL     3     -10.626   2.490  65.224  1.00  0.00     0.000 HD 
BRANCH  26  29
HETATM   29  C   UNL     3      -9.084   3.313  67.038  1.00  0.00    -0.174 C  
HETATM   30  O   UNL     3      -9.731   2.170  67.619  1.00  0.00    -0.404 OA 
HETATM   31  H   UNL     3      -9.926   2.292  68.541  1.00  0.00     0.000 HD 
BRANCH  29  32
HETATM   32  C   UNL     3      -9.892   4.549  67.417  1.00  0.00    -0.157 C  
HETATM   33  C   UNL     3     -10.322   5.416  66.220  1.00  0.00    -0.200 C  
HETATM   34  O   UNL     3      -9.061   5.415  68.305  1.00  0.00    -0.108 OA 
HETATM   35  O   UNL     3      -9.476   6.377  65.986  1.00  0.00    -0.092 OA 
HETATM   36  O   UNL     3     -11.520   5.364  65.882  1.00  0.00     0.351 OA 
HETATM   37  H   UNL     3      -9.564   6.185  68.541  1.00  0.00     0.000 HD 
ENDBRANCH  29  32
ENDBRANCH  26  29
ENDBRANCH  23  26
ENDBRANCH   7  23
TORSDOF 8
ENDMDL
MODEL      343
REMARK 921   NORMALIZED FREE ENERGY PREDICTED BY IDOCK:   -3.56 KCAL/MOL
REMARK 922        TOTAL FREE ENERGY PREDICTED BY IDOCK:   -7.31 KCAL/MOL
REMARK 923 INTER-LIGAND FREE ENERGY PREDICTED BY IDOCK:   -5.87 KCAL/MOL
REMARK 924 INTRA-LIGAND FREE ENERGY PREDICTED BY IDOCK:   -1.44 KCAL/MOL
REMARK 927      BINDING AFFINITY PREDICTED BY RF-SCORE:    0.00 PKD
ROOT
HETATM    1 CU   UNL     1      -9.340  10.817  70.607  1.00  0.00    -0.245 Cu 
HETATM    2  O   UNL     2      -9.442  15.822  67.293  1.00  0.00    -0.210 OA 
HETATM    3  C   UNL     2      -9.997  14.674  66.634  1.00  0.00    -0.274 C  
HETATM    4  H   UNL     2      -9.315  16.490  66.630  1.00  0.00     0.000 HD 
HETATM    5  O   UNL     3      -7.794   3.764  71.722  1.00  0.00    -0.060 OA 
HETATM    6  H   UNL     3      -7.320   3.678  70.903  1.00  0.00     0.000 HD 
HETATM    7  C   UNL     3      -7.931   5.166  72.027  1.00  0.00    -0.112 C  
ENDROOT
BRANCH   3   8
HETATM    8  C   UNL     2     -10.201  13.600  67.700  1.00  0.00    -0.239 C  
HETATM    9  O   UNL     2     -11.579  13.177  67.703  1.00  0.00    -0.306 OA 
HETATM   10  H   UNL     2     -11.706  12.509  68.367  1.00  0.00     0.000 HD 
BRANCH   8  11
HETATM   11  C   UNL     2      -9.252  12.399  67.510  1.00  0.00    -0.183 C  
HETATM   12  O   UNL     2      -8.440  12.314  68.683  1.00  0.00    -0.315 OA 
HETATM   13  H   UNL     2      -7.856  11.575  68.567  1.00  0.00     0.000 HD 
BRANCH  11  14
HETATM   14  C   UNL     2     -10.099  11.125  67.321  1.00  0.00    -0.188 C  
HETATM   15  H   UNL     2     -11.129   9.921  68.508  1.00  0.00     0.000 HD 
HETATM   16  O   UNL     2     -10.607  10.706  68.623  1.00  0.00    -0.179 OA 
BRANCH  14  17
HETATM   17  C   UNL     2      -9.448   9.957  66.580  1.00  0.00    -0.173 C  
HETATM   18  C   UNL     2      -8.141   9.548  67.308  1.00  0.00    -0.110 C  
HETATM   19  H   UNL     2      -8.882   9.565  64.736  1.00  0.00     0.000 HD 
HETATM   20  O   UNL     2      -9.287  10.291  65.197  1.00  0.00    -0.188 OA 
HETATM   21  O   UNL     2      -8.334   9.411  68.558  1.00  0.00    -0.116 OA 
HETATM   22  O   UNL     2      -7.140   9.380  66.583  1.00  0.00    -0.084 OA 
ENDBRANCH  14  17
ENDBRANCH  11  14
ENDBRANCH   8  11
ENDBRANCH   3   8
BRANCH   7  23
HETATM   23  C   UNL     3      -8.696   5.305  73.350  1.00  0.00    -0.115 C  
HETATM   24  O   UNL     3      -7.739   5.274  74.429  1.00  0.00    -0.089 OA 
HETATM   25  H   UNL     3      -8.213   5.359  75.248  1.00  0.00     0.000 HD 
BRANCH  23  26
HETATM   26  C   UNL     3      -9.488   6.610  73.560  1.00  0.00    -0.154 C  
HETATM   27  O   UNL     3      -8.946   7.683  72.788  1.00  0.00    -0.136 OA 
HETATM   28  H   UNL     3      -9.434   8.488  72.917  1.00  0.00     0.000 HD 
BRANCH  26  29
HETATM   29  C   UNL     3     -11.020   6.583  73.365  1.00  0.00    -0.147 C  
HETATM   30  O   UNL     3     -11.557   5.252  73.405  1.00  0.00    -0.504 OA 
HETATM   31  H   UNL     3     -12.500   5.236  73.284  1.00  0.00     0.000 HD 
BRANCH  29  32
HETATM   32  C   UNL     3     -11.570   7.271  72.120  1.00  0.00    -0.286 C  
HETATM   33  C   UNL     3     -11.832   8.778  72.293  1.00  0.00    -0.333 C  
HETATM   34  O   UNL     3     -12.875   6.641  71.758  1.00  0.00    -0.361 OA 
HETATM   35  O   UNL     3     -13.063   9.021  72.637  1.00  0.00    -0.426 OA 
HETATM   36  O   UNL     3     -11.030   9.560  71.746  1.00  0.00    -0.333 OA 
HETATM   37  H   UNL     3     -13.218   7.069  70.983  1.00  0.00     0.000 HD 
ENDBRANCH  29  32
ENDBRANCH  26  29
ENDBRANCH  23  26
ENDBRANCH   7  23
TORSDOF 8
ENDMDL
MODEL      344
REMARK 921   NORMALIZED FREE ENERGY PREDICTED BY IDOCK:   -3.55 KCAL/MOL
REMARK 922        TOTAL FREE ENERGY PREDICTED BY IDOCK:   -7.28 KCAL/MOL
REMARK 923 INTER-LIGAND FREE ENERGY PREDICTED BY IDOCK:   -5.87 KCAL/MOL
REMARK 924 INTRA-LIGAND FREE ENERGY PREDICTED BY IDOCK:   -1.42 KCAL/MOL
REMARK 927      BINDING AFFINITY PREDICTED BY RF-SCORE:    0.00 PKD
ROOT
HETATM    1 CU   UNL     1      -9.601  10.382  67.595  1.00  0.00    -0.140 Cu 
HETATM    2  O   UNL     2      -9.146  16.305  66.729  1.00  0.00    -0.204 OA 
HETATM    3  C   UNL     2      -9.940  15.630  65.742  1.00  0.00    -0.359 C  
HETATM    4  H   UNL     2      -8.966  17.176  66.394  1.00  0.00     0.000 HD 
HETATM    5  O   UNL     3      -9.171   3.421  65.418  1.00  0.00    -0.143 OA 
HETATM    6  H   UNL     3      -8.790   3.646  64.577  1.00  0.00     0.000 HD 
HETATM    7  C   UNL     3      -9.044   4.556  66.298  1.00  0.00    -0.123 C  
ENDROOT
BRANCH   3   8
HETATM    8  C   UNL     2     -10.229  14.231  66.280  1.00  0.00    -0.301 C  
HETATM    9  O   UNL     2      -9.038  13.424  66.198  1.00  0.00    -0.468 OA 
HETATM   10  H   UNL     2      -9.219  12.553  66.532  1.00  0.00     0.000 HD 
BRANCH   8  11
HETATM   11  C   UNL     2     -10.782  14.262  67.719  1.00  0.00    -0.251 C  
HETATM   12  O   UNL     2     -11.953  15.082  67.703  1.00  0.00    -0.449 OA 
HETATM   13  H   UNL     2     -12.294  15.101  68.589  1.00  0.00     0.000 HD 
BRANCH  11  14
HETATM   14  C   UNL     2     -11.115  12.819  68.152  1.00  0.00    -0.256 C  
HETATM   15  H   UNL     2     -12.332  11.395  67.514  1.00  0.00     0.000 HD 
HETATM   16  O   UNL     2     -12.127  12.283  67.248  1.00  0.00    -0.548 OA 
BRANCH  14  17
HETATM   17  C   UNL     2     -11.508  12.602  69.613  1.00  0.00    -0.182 C  
HETATM   18  C   UNL     2     -11.818  11.101  69.848  1.00  0.00    -0.363 C  
HETATM   19  H   UNL     2     -12.811  13.363  70.876  1.00  0.00     0.000 HD 
HETATM   20  O   UNL     2     -12.567  13.498  69.968  1.00  0.00    -0.212 OA 
HETATM   21  O   UNL     2     -10.896  10.362  69.374  1.00  0.00    -0.215 OA 
HETATM   22  O   UNL     2     -12.864  10.849  70.477  1.00  0.00    -0.300 OA 
ENDBRANCH  14  17
ENDBRANCH  11  14
ENDBRANCH   8  11
ENDBRANCH   3   8
BRANCH   7  23
HETATM   23  C   UNL     3      -9.659   4.192  67.656  1.00  0.00    -0.163 C  
HETATM   24  O   UNL     3      -8.928   3.072  68.195  1.00  0.00    -0.112 OA 
HETATM   25  H   UNL     3      -9.309   2.846  69.036  1.00  0.00     0.000 HD 
BRANCH  23  26
HETATM   26  C   UNL     3      -9.600   5.270  68.756  1.00  0.00    -0.137 C  
HETATM   27  O   UNL     3     -10.908   5.705  69.135  1.00  0.00    -0.284 OA 
HETATM   28  H   UNL     3     -10.871   6.370  69.814  1.00  0.00     0.000 HD 
BRANCH  26  29
HETATM   29  C   UNL     3      -8.786   4.975  70.035  1.00  0.00    -0.098 C  
HETATM   30  O   UNL     3      -9.269   3.822  70.742  1.00  0.00    -0.106 OA 
HETATM   31  H   UNL     3      -8.768   3.641  71.529  1.00  0.00     0.000 HD 
BRANCH  29  32
HETATM   32  C   UNL     3      -8.641   6.113  71.040  1.00  0.00    -0.132 C  
HETATM   33  C   UNL     3      -7.518   7.111  70.709  1.00  0.00    -0.080 C  
HETATM   34  O   UNL     3      -8.329   5.534  72.381  1.00  0.00    -0.117 OA 
HETATM   35  O   UNL     3      -6.404   6.806  71.308  1.00  0.00    -0.040 OA 
HETATM   36  O   UNL     3      -7.860   8.226  70.270  1.00  0.00    -0.087 OA 
HETATM   37  H   UNL     3      -8.238   6.242  73.007  1.00  0.00     0.000 HD 
ENDBRANCH  29  32
ENDBRANCH  26  29
ENDBRANCH  23  26
ENDBRANCH   7  23
TORSDOF 8
ENDMDL
MODEL      345
REMARK 921   NORMALIZED FREE ENERGY PREDICTED BY IDOCK:   -3.53 KCAL/MOL
REMARK 922        TOTAL FREE ENERGY PREDICTED BY IDOCK:   -7.26 KCAL/MOL
REMARK 923 INTER-LIGAND FREE ENERGY PREDICTED BY IDOCK:   -6.25 KCAL/MOL
REMARK 924 INTRA-LIGAND FREE ENERGY PREDICTED BY IDOCK:   -1.01 KCAL/MOL
REMARK 927      BINDING AFFINITY PREDICTED BY RF-SCORE:    0.00 PKD
ROOT
HETATM    1 CU   UNL     1     -10.784  11.928  69.541  1.00  0.00    -0.207 Cu 
HETATM    2  O   UNL     2     -13.086  16.677  72.402  1.00  0.00     0.217 OA 
HETATM    3  C   UNL     2     -13.399  15.418  73.015  1.00  0.00    -0.527 C  
HETATM    4  H   UNL     2     -13.655  17.328  72.797  1.00  0.00     0.000 HD 
HETATM    5  O   UNL     3     -11.254   5.349  66.397  1.00  0.00    -0.622 OA 
HETATM    6  H   UNL     3     -12.201   5.320  66.466  1.00  0.00     0.000 HD 
HETATM    7  C   UNL     3     -10.823   6.712  66.587  1.00  0.00    -0.114 C  
ENDROOT
BRANCH   3   8
HETATM    8  C   UNL     2     -12.486  14.371  72.382  1.00  0.00    -0.223 C  
HETATM    9  O   UNL     2     -12.689  13.098  73.026  1.00  0.00     0.131 OA 
HETATM   10  H   UNL     2     -12.120  12.447  72.632  1.00  0.00     0.000 HD 
BRANCH   8  11
HETATM   11  C   UNL     2     -12.691  14.262  70.857  1.00  0.00    -0.357 C  
HETATM   12  O   UNL     2     -13.875  14.997  70.538  1.00  0.00    -0.625 OA 
HETATM   13  H   UNL     2     -14.001  14.930  69.600  1.00  0.00     0.000 HD 
BRANCH  11  14
HETATM   14  C   UNL     2     -11.456  14.854  70.149  1.00  0.00    -0.279 C  
HETATM   15  H   UNL     2      -9.930  15.997  70.681  1.00  0.00     0.000 HD 
HETATM   16  O   UNL     2     -10.691  15.632  71.117  1.00  0.00    -0.188 OA 
BRANCH  14  17
HETATM   17  C   UNL     2     -11.702  15.652  68.868  1.00  0.00    -0.384 C  
HETATM   18  C   UNL     2     -11.420  14.753  67.637  1.00  0.00    -0.347 C  
HETATM   19  H   UNL     2     -11.106  17.368  68.111  1.00  0.00     0.000 HD 
HETATM   20  O   UNL     2     -10.953  16.873  68.907  1.00  0.00    -0.295 OA 
HETATM   21  O   UNL     2     -12.004  13.628  67.745  1.00  0.00    -0.363 OA 
HETATM   22  O   UNL     2     -10.722  15.260  66.737  1.00  0.00    -0.304 OA 
ENDBRANCH  14  17
ENDBRANCH  11  14
ENDBRANCH   8  11
ENDBRANCH   3   8
BRANCH   7  23
HETATM   23  C   UNL     3      -9.293   6.760  66.477  1.00  0.00    -0.161 C  
HETATM   24  O   UNL     3      -8.909   8.104  66.121  1.00  0.00    -0.145 OA 
HETATM   25  H   UNL     3      -7.961   8.133  66.053  1.00  0.00     0.000 HD 
BRANCH  23  26
HETATM   26  C   UNL     3      -8.495   6.446  67.757  1.00  0.00    -0.117 C  
HETATM   27  O   UNL     3      -7.123   6.826  67.627  1.00  0.00    -0.079 OA 
HETATM   28  H   UNL     3      -6.631   6.632  68.417  1.00  0.00     0.000 HD 
BRANCH  26  29
HETATM   29  C   UNL     3      -9.029   6.972  69.107  1.00  0.00    -0.134 C  
HETATM   30  O   UNL     3      -8.016   7.006  70.125  1.00  0.00    -0.110 OA 
HETATM   31  H   UNL     3      -8.345   7.330  70.955  1.00  0.00     0.000 HD 
BRANCH  29  32
HETATM   32  C   UNL     3     -10.251   6.268  69.689  1.00  0.00    -0.186 C  
HETATM   33  C   UNL     3     -10.407   6.428  71.211  1.00  0.00    -0.207 C  
HETATM   34  O   UNL     3     -10.141   4.805  69.413  1.00  0.00    -0.218 OA 
HETATM   35  O   UNL     3      -9.869   5.439  71.862  1.00  0.00    -0.163 OA 
HETATM   36  O   UNL     3     -11.298   7.203  71.613  1.00  0.00    -0.240 OA 
HETATM   37  H   UNL     3     -10.902   4.367  69.776  1.00  0.00     0.000 HD 
ENDBRANCH  29  32
ENDBRANCH  26  29
ENDBRANCH  23  26
ENDBRANCH   7  23
TORSDOF 8
ENDMDL
MODEL      346
REMARK 921   NORMALIZED FREE ENERGY PREDICTED BY IDOCK:   -3.53 KCAL/MOL
REMARK 922        TOTAL FREE ENERGY PREDICTED BY IDOCK:   -7.25 KCAL/MOL
REMARK 923 INTER-LIGAND FREE ENERGY PREDICTED BY IDOCK:   -6.14 KCAL/MOL
REMARK 924 INTRA-LIGAND FREE ENERGY PREDICTED BY IDOCK:   -1.11 KCAL/MOL
REMARK 927      BINDING AFFINITY PREDICTED BY RF-SCORE:    0.00 PKD
ROOT
HETATM    1 CU   UNL     1      -8.071   7.732  64.990  1.00  0.00    -0.091 Cu 
HETATM    2  O   UNL     2      -6.494   1.944  65.211  1.00  0.00    -0.022 OA 
HETATM    3  C   UNL     2      -6.965   2.372  63.925  1.00  0.00    -0.040 C  
HETATM    4  H   UNL     2      -6.472   0.994  65.198  1.00  0.00     0.000 HD 
HETATM    5  O   UNL     3     -12.684  13.180  63.434  1.00  0.00    -0.697 OA 
HETATM    6  H   UNL     3     -13.394  12.591  63.206  1.00  0.00     0.000 HD 
HETATM    7  C   UNL     3     -11.693  12.438  64.174  1.00  0.00    -0.400 C  
ENDROOT
BRANCH   3   8
HETATM    8  C   UNL     2      -7.000   3.898  63.946  1.00  0.00    -0.045 C  
HETATM    9  O   UNL     2      -7.039   4.400  62.595  1.00  0.00    -0.037 OA 
HETATM   10  H   UNL     2      -7.060   5.350  62.608  1.00  0.00     0.000 HD 
BRANCH   8  11
HETATM   11  C   UNL     2      -8.179   4.444  64.775  1.00  0.00    -0.105 C  
HETATM   12  O   UNL     2      -8.698   5.578  64.074  1.00  0.00    -0.327 OA 
HETATM   13  H   UNL     2      -9.424   5.914  64.585  1.00  0.00     0.000 HD 
BRANCH  11  14
HETATM   14  C   UNL     2      -9.243   3.336  64.912  1.00  0.00    -0.146 C  
HETATM   15  H   UNL     2     -10.982   2.929  64.060  1.00  0.00     0.000 HD 
HETATM   16  O   UNL     2     -10.327   3.612  63.976  1.00  0.00    -0.217 OA 
BRANCH  14  17
HETATM   17  C   UNL     2      -9.782   3.056  66.315  1.00  0.00     0.228 C  
HETATM   18  C   UNL     2     -10.073   4.398  67.035  1.00  0.00    -0.096 C  
HETATM   19  H   UNL     2      -9.223   2.006  67.883  1.00  0.00     0.000 HD 
HETATM   20  O   UNL     2      -8.888   2.180  67.011  1.00  0.00    -0.117 OA 
HETATM   21  O   UNL     2     -10.750   5.180  66.294  1.00  0.00    -0.310 OA 
HETATM   22  O   UNL     2      -9.650   4.495  68.204  1.00  0.00    -0.144 OA 
ENDBRANCH  14  17
ENDBRANCH  11  14
ENDBRANCH   8  11
ENDBRANCH   3   8
BRANCH   7  23
HETATM   23  C   UNL     3     -10.546  13.388  64.542  1.00  0.00    -0.425 C  
HETATM   24  O   UNL     3     -11.048  14.740  64.492  1.00  0.00    -0.575 OA 
HETATM   25  H   UNL     3     -10.338  15.329  64.720  1.00  0.00     0.000 HD 
BRANCH  23  26
HETATM   26  C   UNL     3      -9.948  13.240  65.955  1.00  0.00    -0.272 C  
HETATM   27  O   UNL     3      -8.748  12.462  65.937  1.00  0.00    -0.388 OA 
HETATM   28  H   UNL     3      -8.380  12.371  66.809  1.00  0.00     0.000 HD 
BRANCH  26  29
HETATM   29  C   UNL     3      -9.699  14.516  66.788  1.00  0.00    -0.260 C  
HETATM   30  O   UNL     3      -8.518  15.222  66.375  1.00  0.00    -0.399 OA 
HETATM   31  H   UNL     3      -8.366  16.007  66.888  1.00  0.00     0.000 HD 
BRANCH  29  32
HETATM   32  C   UNL     3      -9.638  14.351  68.303  1.00  0.00    -0.211 C  
HETATM   33  C   UNL     3      -9.531  15.675  69.080  1.00  0.00    -0.243 C  
HETATM   34  O   UNL     3      -8.432  13.543  68.652  1.00  0.00    -0.298 OA 
HETATM   35  O   UNL     3      -8.296  15.990  69.339  1.00  0.00    -0.241 OA 
HETATM   36  O   UNL     3     -10.553  16.068  69.676  1.00  0.00    -0.263 OA 
HETATM   37  H   UNL     3      -8.393  13.441  69.596  1.00  0.00     0.000 HD 
ENDBRANCH  29  32
ENDBRANCH  26  29
ENDBRANCH  23  26
ENDBRANCH   7  23
TORSDOF 8
ENDMDL
MODEL      347
REMARK 921   NORMALIZED FREE ENERGY PREDICTED BY IDOCK:   -3.53 KCAL/MOL
REMARK 922        TOTAL FREE ENERGY PREDICTED BY IDOCK:   -7.25 KCAL/MOL
REMARK 923 INTER-LIGAND FREE ENERGY PREDICTED BY IDOCK:   -6.32 KCAL/MOL
REMARK 924 INTRA-LIGAND FREE ENERGY PREDICTED BY IDOCK:   -0.93 KCAL/MOL
REMARK 927      BINDING AFFINITY PREDICTED BY RF-SCORE:    0.00 PKD
ROOT
HETATM    1 CU   UNL     1      -8.033  14.225  66.180  1.00  0.00    -0.327 Cu 
HETATM    2  O   UNL     2      -8.351  20.220  66.137  1.00  0.00    -0.525 OA 
HETATM    3  C   UNL     2      -8.860  19.616  67.335  1.00  0.00    -0.316 C  
HETATM    4  H   UNL     2      -8.632  21.127  66.140  1.00  0.00     0.000 HD 
HETATM    5  O   UNL     3     -10.874   7.549  67.041  1.00  0.00    -0.443 OA 
HETATM    6  H   UNL     3     -11.761   7.876  67.142  1.00  0.00     0.000 HD 
HETATM    7  C   UNL     3     -10.064   8.592  66.462  1.00  0.00    -0.269 C  
ENDROOT
BRANCH   3   8
HETATM    8  C   UNL     2      -8.408  18.159  67.331  1.00  0.00    -0.239 C  
HETATM    9  O   UNL     2      -7.934  17.795  68.642  1.00  0.00    -0.282 OA 
HETATM   10  H   UNL     2      -7.652  16.887  68.639  1.00  0.00     0.000 HD 
BRANCH   8  11
HETATM   11  C   UNL     2      -9.522  17.203  66.857  1.00  0.00    -0.259 C  
HETATM   12  O   UNL     2      -9.195  16.804  65.524  1.00  0.00    -0.443 OA 
HETATM   13  H   UNL     2      -9.880  16.215  65.232  1.00  0.00     0.000 HD 
BRANCH  11  14
HETATM   14  C   UNL     2      -9.570  15.990  67.808  1.00  0.00    -0.219 C  
HETATM   15  H   UNL     2      -8.249  14.712  68.541  1.00  0.00     0.000 HD 
HETATM   16  O   UNL     2      -8.220  15.459  67.955  1.00  0.00    -0.139 OA 
BRANCH  14  17
HETATM   17  C   UNL     2     -10.567  14.880  67.474  1.00  0.00    -0.266 C  
HETATM   18  C   UNL     2     -11.687  14.852  68.546  1.00  0.00    -0.310 C  
HETATM   19  H   UNL     2     -10.491  12.952  67.090  1.00  0.00     0.000 HD 
HETATM   20  O   UNL     2      -9.871  13.641  67.297  1.00  0.00    -0.233 OA 
HETATM   21  O   UNL     2     -12.156  16.017  68.753  1.00  0.00    -0.255 OA 
HETATM   22  O   UNL     2     -11.980  13.729  69.003  1.00  0.00    -0.334 OA 
ENDBRANCH  14  17
ENDBRANCH  11  14
ENDBRANCH   8  11
ENDBRANCH   3   8
BRANCH   7  23
HETATM   23  C   UNL     3      -8.632   8.065  66.299  1.00  0.00    -0.143 C  
HETATM   24  O   UNL     3      -7.995   8.811  65.242  1.00  0.00    -0.106 OA 
HETATM   25  H   UNL     3      -7.108   8.484  65.141  1.00  0.00     0.000 HD 
BRANCH  23  26
HETATM   26  C   UNL     3      -7.694   8.217  67.513  1.00  0.00    -0.102 C  
HETATM   27  O   UNL     3      -6.412   8.715  67.125  1.00  0.00    -0.056 OA 
HETATM   28  H   UNL     3      -5.834   8.809  67.874  1.00  0.00     0.000 HD 
BRANCH  26  29
HETATM   29  C   UNL     3      -8.191   9.023  68.733  1.00  0.00    -0.117 C  
HETATM   30  O   UNL     3      -8.186  10.440  68.496  1.00  0.00    -0.108 OA 
HETATM   31  H   UNL     3      -8.492  10.935  69.247  1.00  0.00     0.000 HD 
BRANCH  29  32
HETATM   32  C   UNL     3      -7.489   8.769  70.062  1.00  0.00    -0.054 C  
HETATM   33  C   UNL     3      -8.324   7.968  71.076  1.00  0.00    -0.116 C  
HETATM   34  O   UNL     3      -7.173  10.082  70.698  1.00  0.00    -0.298 OA 
HETATM   35  O   UNL     3      -8.982   8.744  71.886  1.00  0.00    -0.257 OA 
HETATM   36  O   UNL     3      -8.002   6.778  71.264  1.00  0.00    -0.104 OA 
HETATM   37  H   UNL     3      -6.735   9.924  71.527  1.00  0.00     0.000 HD 
ENDBRANCH  29  32
ENDBRANCH  26  29
ENDBRANCH  23  26
ENDBRANCH   7  23
TORSDOF 8
ENDMDL
MODEL      348
REMARK 921   NORMALIZED FREE ENERGY PREDICTED BY IDOCK:   -3.51 KCAL/MOL
REMARK 922        TOTAL FREE ENERGY PREDICTED BY IDOCK:   -7.22 KCAL/MOL
REMARK 923 INTER-LIGAND FREE ENERGY PREDICTED BY IDOCK:   -6.09 KCAL/MOL
REMARK 924 INTRA-LIGAND FREE ENERGY PREDICTED BY IDOCK:   -1.13 KCAL/MOL
REMARK 927      BINDING AFFINITY PREDICTED BY RF-SCORE:    0.00 PKD
ROOT
HETATM    1 CU   UNL     1      -8.276  10.995  70.127  1.00  0.00    -0.363 Cu 
HETATM    2  O   UNL     2      -7.939  16.852  68.858  1.00  0.00    -0.245 OA 
HETATM    3  C   UNL     2      -7.475  15.999  67.802  1.00  0.00    -0.136 C  
HETATM    4  H   UNL     2      -7.655  17.735  68.648  1.00  0.00     0.000 HD 
HETATM    5  O   UNL     3      -5.488   4.261  70.638  1.00  0.00    -0.010 OA 
HETATM    6  H   UNL     3      -4.604   4.549  70.438  1.00  0.00     0.000 HD 
HETATM    7  C   UNL     3      -6.273   5.414  71.004  1.00  0.00    -0.030 C  
ENDROOT
BRANCH   3   8
HETATM    8  C   UNL     2      -7.931  14.581  68.138  1.00  0.00    -0.133 C  
HETATM    9  O   UNL     2      -8.196  14.480  69.551  1.00  0.00    -0.380 OA 
HETATM   10  H   UNL     2      -8.479  13.597  69.760  1.00  0.00     0.000 HD 
BRANCH   8  11
HETATM   11  C   UNL     2      -9.159  14.151  67.310  1.00  0.00    -0.213 C  
HETATM   12  O   UNL     2      -8.927  14.571  65.963  1.00  0.00    -0.488 OA 
HETATM   13  H   UNL     2      -9.683  14.307  65.453  1.00  0.00     0.000 HD 
BRANCH  11  14
HETATM   14  C   UNL     2      -9.305  12.619  67.402  1.00  0.00    -0.189 C  
HETATM   15  H   UNL     2      -8.327  11.155  68.305  1.00  0.00     0.000 HD 
HETATM   16  O   UNL     2      -8.238  12.099  68.248  1.00  0.00    -0.157 OA 
BRANCH  14  17
HETATM   17  C   UNL     2      -9.393  11.847  66.085  1.00  0.00    -0.219 C  
HETATM   18  C   UNL     2     -10.656  10.948  66.096  1.00  0.00    -0.206 C  
HETATM   19  H   UNL     2      -8.216  10.673  65.030  1.00  0.00     0.000 HD 
HETATM   20  O   UNL     2      -8.162  11.153  65.848  1.00  0.00    -0.141 OA 
HETATM   21  O   UNL     2     -11.684  11.604  66.458  1.00  0.00    -0.498 OA 
HETATM   22  O   UNL     2     -10.492   9.769  65.724  1.00  0.00    -0.132 OA 
ENDBRANCH  14  17
ENDBRANCH  11  14
ENDBRANCH   8  11
ENDBRANCH   3   8
BRANCH   7  23
HETATM   23  C   UNL     3      -7.699   4.949  71.327  1.00  0.00    -0.087 C  
HETATM   24  O   UNL     3      -7.713   4.443  72.677  1.00  0.00    -0.081 OA 
HETATM   25  H   UNL     3      -8.596   4.155  72.878  1.00  0.00     0.000 HD 
BRANCH  23  26
HETATM   26  C   UNL     3      -8.803   6.024  71.296  1.00  0.00    -0.136 C  
HETATM   27  O   UNL     3      -8.639   6.913  70.188  1.00  0.00    -0.138 OA 
HETATM   28  H   UNL     3      -9.320   7.576  70.169  1.00  0.00     0.000 HD 
BRANCH  26  29
HETATM   29  C   UNL     3     -10.278   5.569  71.351  1.00  0.00    -0.215 C  
HETATM   30  O   UNL     3     -10.724   4.995  70.112  1.00  0.00    -0.176 OA 
HETATM   31  H   UNL     3     -11.632   4.715  70.147  1.00  0.00     0.000 HD 
BRANCH  29  32
HETATM   32  C   UNL     3     -11.307   6.610  71.780  1.00  0.00    -0.279 C  
HETATM   33  C   UNL     3     -10.741   7.731  72.669  1.00  0.00    -0.343 C  
HETATM   34  O   UNL     3     -12.380   5.931  72.566  1.00  0.00    -0.514 OA 
HETATM   35  O   UNL     3     -10.883   7.467  73.935  1.00  0.00    -0.244 OA 
HETATM   36  O   UNL     3     -10.584   8.849  72.142  1.00  0.00    -0.340 OA 
HETATM   37  H   UNL     3     -13.021   6.579  72.834  1.00  0.00     0.000 HD 
ENDBRANCH  29  32
ENDBRANCH  26  29
ENDBRANCH  23  26
ENDBRANCH   7  23
TORSDOF 8
ENDMDL
MODEL      349
REMARK 921   NORMALIZED FREE ENERGY PREDICTED BY IDOCK:   -3.50 KCAL/MOL
REMARK 922        TOTAL FREE ENERGY PREDICTED BY IDOCK:   -7.21 KCAL/MOL
REMARK 923 INTER-LIGAND FREE ENERGY PREDICTED BY IDOCK:   -5.40 KCAL/MOL
REMARK 924 INTRA-LIGAND FREE ENERGY PREDICTED BY IDOCK:   -1.81 KCAL/MOL
REMARK 927      BINDING AFFINITY PREDICTED BY RF-SCORE:    0.00 PKD
ROOT
HETATM    1 CU   UNL     1      -6.605  14.004  67.262  1.00  0.00    -0.145 Cu 
HETATM    2  O   UNL     2      -5.585  19.610  69.150  1.00  0.00    -0.199 OA 
HETATM    3  C   UNL     2      -6.965  19.328  68.876  1.00  0.00    -0.338 C  
HETATM    4  H   UNL     2      -5.504  20.553  69.235  1.00  0.00     0.000 HD 
HETATM    5  O   UNL     3      -9.399   9.087  62.635  1.00  0.00    -0.521 OA 
HETATM    6  H   UNL     3      -9.682   9.747  62.013  1.00  0.00     0.000 HD 
HETATM    7  C   UNL     3      -8.441   9.684  63.533  1.00  0.00    -0.188 C  
ENDROOT
BRANCH   3   8
HETATM    8  C   UNL     2      -7.095  17.813  68.740  1.00  0.00    -0.263 C  
HETATM    9  O   UNL     2      -6.360  17.167  69.797  1.00  0.00    -0.240 OA 
HETATM   10  H   UNL     2      -6.441  16.224  69.712  1.00  0.00     0.000 HD 
BRANCH   8  11
HETATM   11  C   UNL     2      -8.567  17.352  68.723  1.00  0.00    -0.221 C  
HETATM   12  O   UNL     2      -9.357  18.482  68.344  1.00  0.00    -0.312 OA 
HETATM   13  H   UNL     2     -10.263  18.199  68.334  1.00  0.00     0.000 HD 
BRANCH  11  14
HETATM   14  C   UNL     2      -8.713  16.201  67.708  1.00  0.00    -0.172 C  
HETATM   15  H   UNL     2      -8.428  15.984  65.762  1.00  0.00     0.000 HD 
HETATM   16  O   UNL     2      -8.338  16.693  66.388  1.00  0.00    -0.263 OA 
BRANCH  14  17
HETATM   17  C   UNL     2     -10.057  15.474  67.666  1.00  0.00    -0.243 C  
HETATM   18  C   UNL     2      -9.894  14.128  66.915  1.00  0.00    -0.265 C  
HETATM   19  H   UNL     2     -11.897  15.893  67.105  1.00  0.00     0.000 HD 
HETATM   20  O   UNL     2     -11.061  16.345  67.131  1.00  0.00    -0.149 OA 
HETATM   21  O   UNL     2      -8.891  13.477  67.350  1.00  0.00    -0.199 OA 
HETATM   22  O   UNL     2     -10.759  13.873  66.054  1.00  0.00    -0.282 OA 
ENDBRANCH  14  17
ENDBRANCH  11  14
ENDBRANCH   8  11
ENDBRANCH   3   8
BRANCH   7  23
HETATM   23  C   UNL     3      -7.983   8.618  64.537  1.00  0.00    -0.144 C  
HETATM   24  O   UNL     3      -7.116   7.694  63.848  1.00  0.00    -0.060 OA 
HETATM   25  H   UNL     3      -6.832   7.034  64.470  1.00  0.00     0.000 HD 
BRANCH  23  26
HETATM   26  C   UNL     3      -7.159   9.110  65.743  1.00  0.00    -0.085 C  
HETATM   27  O   UNL     3      -6.967  10.526  65.706  1.00  0.00    -0.131 OA 
HETATM   28  H   UNL     3      -6.459  10.829  66.450  1.00  0.00     0.000 HD 
BRANCH  26  29
HETATM   29  C   UNL     3      -7.619   8.710  67.162  1.00  0.00    -0.092 C  
HETATM   30  O   UNL     3      -8.461   7.546  67.161  1.00  0.00    -0.119 OA 
HETATM   31  H   UNL     3      -8.744   7.300  68.034  1.00  0.00     0.000 HD 
BRANCH  29  32
HETATM   32  C   UNL     3      -8.310   9.785  67.995  1.00  0.00    -0.110 C  
HETATM   33  C   UNL     3      -8.594   9.372  69.450  1.00  0.00    -0.148 C  
HETATM   34  O   UNL     3      -9.626  10.108  67.368  1.00  0.00    -0.151 OA 
HETATM   35  O   UNL     3      -9.790   8.881  69.591  1.00  0.00    -0.173 OA 
HETATM   36  O   UNL     3      -7.873   9.874  70.334  1.00  0.00    -0.188 OA 
HETATM   37  H   UNL     3     -10.057  10.777  67.886  1.00  0.00     0.000 HD 
ENDBRANCH  29  32
ENDBRANCH  26  29
ENDBRANCH  23  26
ENDBRANCH   7  23
TORSDOF 8
ENDMDL
MODEL      350
REMARK 921   NORMALIZED FREE ENERGY PREDICTED BY IDOCK:   -3.47 KCAL/MOL
REMARK 922        TOTAL FREE ENERGY PREDICTED BY IDOCK:   -7.17 KCAL/MOL
REMARK 923 INTER-LIGAND FREE ENERGY PREDICTED BY IDOCK:   -6.96 KCAL/MOL
REMARK 924 INTRA-LIGAND FREE ENERGY PREDICTED BY IDOCK:   -0.20 KCAL/MOL
REMARK 927      BINDING AFFINITY PREDICTED BY RF-SCORE:    0.00 PKD
ROOT
HETATM    1 CU   UNL     1      -8.010  14.969  67.632  1.00  0.00    -0.109 Cu 
HETATM    2  O   UNL     2      -6.630  20.771  68.324  1.00  0.00    -0.289 OA 
HETATM    3  C   UNL     2      -7.596  20.519  67.293  1.00  0.00    -0.342 C  
HETATM    4  H   UNL     2      -6.332  21.666  68.214  1.00  0.00     0.000 HD 
HETATM    5  O   UNL     3      -8.916   8.911  63.649  1.00  0.00    -0.429 OA 
HETATM    6  H   UNL     3      -8.566   9.308  62.860  1.00  0.00     0.000 HD 
HETATM    7  C   UNL     3      -8.536   9.724  64.778  1.00  0.00    -0.179 C  
ENDROOT
BRANCH   3   8
HETATM    8  C   UNL     2      -8.077  19.081  67.469  1.00  0.00    -0.267 C  
HETATM    9  O   UNL     2      -9.036  19.019  68.543  1.00  0.00    -0.333 OA 
HETATM   10  H   UNL     2      -9.335  18.124  68.653  1.00  0.00     0.000 HD 
BRANCH   8  11
HETATM   11  C   UNL     2      -8.661  18.496  66.167  1.00  0.00    -0.118 C  
HETATM   12  O   UNL     2      -7.786  17.446  65.748  1.00  0.00    -0.526 OA 
HETATM   13  H   UNL     2      -8.146  17.086  64.946  1.00  0.00     0.000 HD 
BRANCH  11  14
HETATM   14  C   UNL     2     -10.078  17.962  66.458  1.00  0.00    -0.370 C  
HETATM   15  H   UNL     2     -11.716  18.680  67.305  1.00  0.00     0.000 HD 
HETATM   16  O   UNL     2     -10.843  19.009  67.126  1.00  0.00    -0.462 OA 
BRANCH  14  17
HETATM   17  C   UNL     2     -10.183  16.635  67.210  1.00  0.00    -0.290 C  
HETATM   18  C   UNL     2     -10.784  15.556  66.273  1.00  0.00    -0.307 C  
HETATM   19  H   UNL     2     -10.959  16.005  68.906  1.00  0.00     0.000 HD 
HETATM   20  O   UNL     2     -10.894  16.830  68.439  1.00  0.00    -0.343 OA 
HETATM   21  O   UNL     2     -10.192  15.544  65.146  1.00  0.00    -0.359 OA 
HETATM   22  O   UNL     2     -11.697  14.858  66.757  1.00  0.00    -0.335 OA 
ENDBRANCH  14  17
ENDBRANCH  11  14
ENDBRANCH   8  11
ENDBRANCH   3   8
BRANCH   7  23
HETATM   23  C   UNL     3      -9.102   9.084  66.052  1.00  0.00    -0.208 C  
HETATM   24  O   UNL     3      -9.703   7.823  65.694  1.00  0.00    -0.296 OA 
HETATM   25  H   UNL     3     -10.053   7.426  66.483  1.00  0.00     0.000 HD 
BRANCH  23  26
HETATM   26  C   UNL     3      -8.092   8.741  67.164  1.00  0.00    -0.100 C  
HETATM   27  O   UNL     3      -7.088   9.751  67.292  1.00  0.00    -0.084 OA 
HETATM   28  H   UNL     3      -6.465   9.539  67.977  1.00  0.00     0.000 HD 
BRANCH  26  29
HETATM   29  C   UNL     3      -8.631   8.398  68.570  1.00  0.00    -0.136 C  
HETATM   30  O   UNL     3      -7.739   8.812  69.618  1.00  0.00    -0.083 OA 
HETATM   31  H   UNL     3      -8.071   8.601  70.483  1.00  0.00     0.000 HD 
BRANCH  29  32
HETATM   32  C   UNL     3      -9.012   6.944  68.829  1.00  0.00    -0.130 C  
HETATM   33  C   UNL     3     -10.406   6.756  69.452  1.00  0.00    -0.199 C  
HETATM   34  O   UNL     3      -8.026   6.350  69.781  1.00  0.00    -0.114 OA 
HETATM   35  O   UNL     3     -10.355   6.688  70.750  1.00  0.00    -0.198 OA 
HETATM   36  O   UNL     3     -11.307   6.325  68.706  1.00  0.00    -0.356 OA 
HETATM   37  H   UNL     3      -8.263   5.444  69.943  1.00  0.00     0.000 HD 
ENDBRANCH  29  32
ENDBRANCH  26  29
ENDBRANCH  23  26
ENDBRANCH   7  23
TORSDOF 8
ENDMDL
MODEL      351
REMARK 921   NORMALIZED FREE ENERGY PREDICTED BY IDOCK:   -3.46 KCAL/MOL
REMARK 922        TOTAL FREE ENERGY PREDICTED BY IDOCK:   -7.16 KCAL/MOL
REMARK 923 INTER-LIGAND FREE ENERGY PREDICTED BY IDOCK:   -5.71 KCAL/MOL
REMARK 924 INTRA-LIGAND FREE ENERGY PREDICTED BY IDOCK:   -1.45 KCAL/MOL
REMARK 927      BINDING AFFINITY PREDICTED BY RF-SCORE:    0.00 PKD
ROOT
HETATM    1 CU   UNL     1      -8.030  10.349  67.543  1.00  0.00    -0.098 Cu 
HETATM    2  O   UNL     2      -5.860   4.769  67.979  1.00  0.00    -0.020 OA 
HETATM    3  C   UNL     2      -5.196   5.721  68.823  1.00  0.00    -0.003 C  
HETATM    4  H   UNL     2      -5.322   3.986  67.964  1.00  0.00     0.000 HD 
HETATM    5  O   UNL     3      -7.339  17.558  66.575  1.00  0.00    -0.217 OA 
HETATM    6  H   UNL     3      -6.415  17.500  66.359  1.00  0.00     0.000 HD 
HETATM    7  C   UNL     3      -7.921  16.244  66.459  1.00  0.00    -0.291 C  
ENDROOT
BRANCH   3   8
HETATM    8  C   UNL     2      -6.061   6.979  68.847  1.00  0.00    -0.027 C  
HETATM    9  O   UNL     2      -5.743   7.808  67.712  1.00  0.00    -0.034 OA 
HETATM   10  H   UNL     2      -6.282   8.591  67.728  1.00  0.00     0.000 HD 
BRANCH   8  11
HETATM   11  C   UNL     2      -7.568   6.651  68.891  1.00  0.00    -0.101 C  
HETATM   12  O   UNL     2      -7.891   6.340  70.249  1.00  0.00    -0.099 OA 
HETATM   13  H   UNL     2      -8.818   6.138  70.277  1.00  0.00     0.000 HD 
BRANCH  11  14
HETATM   14  C   UNL     2      -8.356   7.880  68.395  1.00  0.00    -0.124 C  
HETATM   15  H   UNL     2      -9.541   9.230  69.223  1.00  0.00     0.000 HD 
HETATM   16  O   UNL     2      -9.056   8.473  69.529  1.00  0.00    -0.147 OA 
BRANCH  14  17
HETATM   17  C   UNL     2      -9.299   7.672  67.210  1.00  0.00    -0.144 C  
HETATM   18  C   UNL     2      -8.781   8.475  65.990  1.00  0.00    -0.161 C  
HETATM   19  H   UNL     2     -11.229   7.844  66.866  1.00  0.00     0.000 HD 
HETATM   20  O   UNL     2     -10.643   7.973  67.603  1.00  0.00    -0.235 OA 
HETATM   21  O   UNL     2      -7.540   8.265  65.794  1.00  0.00    -0.079 OA 
HETATM   22  O   UNL     2      -9.630   9.152  65.378  1.00  0.00    -0.231 OA 
ENDBRANCH  14  17
ENDBRANCH  11  14
ENDBRANCH   8  11
ENDBRANCH   3   8
BRANCH   7  23
HETATM   23  C   UNL     3      -9.412  16.338  66.807  1.00  0.00    -0.235 C  
HETATM   24  O   UNL     3     -10.014  17.325  65.945  1.00  0.00    -0.490 OA 
HETATM   25  H   UNL     3     -10.938  17.384  66.161  1.00  0.00     0.000 HD 
BRANCH  23  26
HETATM   26  C   UNL     3     -10.256  15.065  66.601  1.00  0.00    -0.268 C  
HETATM   27  O   UNL     3     -11.641  15.306  66.857  1.00  0.00    -0.225 OA 
HETATM   28  H   UNL     3     -12.161  14.520  66.729  1.00  0.00     0.000 HD 
BRANCH  26  29
HETATM   29  C   UNL     3     -10.123  14.301  65.266  1.00  0.00    -0.349 C  
HETATM   30  O   UNL     3     -10.715  15.009  64.165  1.00  0.00    -0.353 OA 
HETATM   31  H   UNL     3     -10.633  14.538  63.344  1.00  0.00     0.000 HD 
BRANCH  29  32
HETATM   32  C   UNL     3     -10.645  12.868  65.234  1.00  0.00    -0.297 C  
HETATM   33  C   UNL     3     -10.859  12.242  66.623  1.00  0.00    -0.258 C  
HETATM   34  O   UNL     3      -9.656  12.011  64.516  1.00  0.00    -0.441 OA 
HETATM   35  O   UNL     3      -9.821  11.564  67.016  1.00  0.00    -0.189 OA 
HETATM   36  O   UNL     3     -12.036  12.120  67.016  1.00  0.00    -0.593 OA 
HETATM   37  H   UNL     3      -9.981  11.118  64.497  1.00  0.00     0.000 HD 
ENDBRANCH  29  32
ENDBRANCH  26  29
ENDBRANCH  23  26
ENDBRANCH   7  23
TORSDOF 8
ENDMDL
MODEL      352
REMARK 921   NORMALIZED FREE ENERGY PREDICTED BY IDOCK:   -3.43 KCAL/MOL
REMARK 922        TOTAL FREE ENERGY PREDICTED BY IDOCK:   -7.11 KCAL/MOL
REMARK 923 INTER-LIGAND FREE ENERGY PREDICTED BY IDOCK:   -6.12 KCAL/MOL
REMARK 924 INTRA-LIGAND FREE ENERGY PREDICTED BY IDOCK:   -0.99 KCAL/MOL
REMARK 927      BINDING AFFINITY PREDICTED BY RF-SCORE:    0.00 PKD
ROOT
HETATM    1 CU   UNL     1     -10.740   8.569  66.844  1.00  0.00    -0.229 Cu 
HETATM    2  O   UNL     2     -12.734  13.837  64.769  1.00  0.00    -0.647 OA 
HETATM    3  C   UNL     2     -11.529  13.379  64.138  1.00  0.00    -0.383 C  
HETATM    4  H   UNL     2     -12.846  14.749  64.527  1.00  0.00     0.000 HD 
HETATM    5  O   UNL     3      -5.590   4.160  69.569  1.00  0.00    -0.015 OA 
HETATM    6  H   UNL     3      -4.959   4.863  69.670  1.00  0.00     0.000 HD 
HETATM    7  C   UNL     3      -6.899   4.740  69.398  1.00  0.00    -0.049 C  
ENDROOT
BRANCH   3   8
HETATM    8  C   UNL     2     -11.349  11.914  64.525  1.00  0.00    -0.316 C  
HETATM    9  O   UNL     2     -11.164  11.119  63.338  1.00  0.00    -0.711 OA 
HETATM   10  H   UNL     2     -11.052  10.206  63.579  1.00  0.00     0.000 HD 
BRANCH   8  11
HETATM   11  C   UNL     2     -10.185  11.710  65.517  1.00  0.00    -0.260 C  
HETATM   12  O   UNL     2      -8.992  11.569  64.742  1.00  0.00    -0.404 OA 
HETATM   13  H   UNL     2      -8.275  11.444  65.352  1.00  0.00     0.000 HD 
BRANCH  11  14
HETATM   14  C   UNL     2     -10.107  12.938  66.447  1.00  0.00    -0.269 C  
HETATM   15  H   UNL     2      -8.687  14.190  67.023  1.00  0.00     0.000 HD 
HETATM   16  O   UNL     2      -8.736  13.433  66.451  1.00  0.00     0.017 OA 
BRANCH  14  17
HETATM   17  C   UNL     2     -10.639  12.769  67.870  1.00  0.00    -0.221 C  
HETATM   18  C   UNL     2     -10.190  11.395  68.430  1.00  0.00    -0.198 C  
HETATM   19  H   UNL     2     -12.383  12.890  68.774  1.00  0.00     0.000 HD 
HETATM   20  O   UNL     2     -12.053  12.995  67.889  1.00  0.00    -0.321 OA 
HETATM   21  O   UNL     2      -8.945  11.207  68.245  1.00  0.00    -0.151 OA 
HETATM   22  O   UNL     2     -11.073  10.719  68.994  1.00  0.00    -0.216 OA 
ENDBRANCH  14  17
ENDBRANCH  11  14
ENDBRANCH   8  11
ENDBRANCH   3   8
BRANCH   7  23
HETATM   23  C   UNL     3      -7.918   3.605  69.235  1.00  0.00    -0.054 C  
HETATM   24  O   UNL     3      -8.856   3.681  70.329  1.00  0.00    -0.075 OA 
HETATM   25  H   UNL     3      -9.487   2.978  70.228  1.00  0.00     0.000 HD 
BRANCH  23  26
HETATM   26  C   UNL     3      -8.789   3.631  67.964  1.00  0.00    -0.116 C  
HETATM   27  O   UNL     3      -9.647   2.489  67.892  1.00  0.00    -0.322 OA 
HETATM   28  H   UNL     3     -10.184   2.505  67.108  1.00  0.00     0.000 HD 
BRANCH  26  29
HETATM   29  C   UNL     3      -9.623   4.896  67.667  1.00  0.00    -0.151 C  
HETATM   30  O   UNL     3     -10.672   5.102  68.626  1.00  0.00    -0.041 OA 
HETATM   31  H   UNL     3     -11.185   5.881  68.443  1.00  0.00     0.000 HD 
BRANCH  29  32
HETATM   32  C   UNL     3     -10.235   5.010  66.275  1.00  0.00    -0.273 C  
HETATM   33  C   UNL     3      -9.484   4.222  65.187  1.00  0.00    -0.172 C  
HETATM   34  O   UNL     3     -10.223   6.444  65.859  1.00  0.00    -0.292 OA 
HETATM   35  O   UNL     3      -8.612   4.959  64.565  1.00  0.00    -0.138 OA 
HETATM   36  O   UNL     3     -10.017   3.172  64.777  1.00  0.00    -0.111 OA 
HETATM   37  H   UNL     3     -10.604   6.516  64.992  1.00  0.00     0.000 HD 
ENDBRANCH  29  32
ENDBRANCH  26  29
ENDBRANCH  23  26
ENDBRANCH   7  23
TORSDOF 8
ENDMDL
MODEL      353
REMARK 921   NORMALIZED FREE ENERGY PREDICTED BY IDOCK:   -3.42 KCAL/MOL
REMARK 922        TOTAL FREE ENERGY PREDICTED BY IDOCK:   -7.10 KCAL/MOL
REMARK 923 INTER-LIGAND FREE ENERGY PREDICTED BY IDOCK:   -6.15 KCAL/MOL
REMARK 924 INTRA-LIGAND FREE ENERGY PREDICTED BY IDOCK:   -0.95 KCAL/MOL
REMARK 927      BINDING AFFINITY PREDICTED BY RF-SCORE:    0.00 PKD
ROOT
HETATM    1 CU   UNL     1      -9.953  11.132  65.870  1.00  0.00    -0.194 Cu 
HETATM    2  O   UNL     2     -11.316  16.520  63.601  1.00  0.00    -1.318 OA 
HETATM    3  C   UNL     2     -11.331  16.469  65.035  1.00  0.00     0.038 C  
HETATM    4  H   UNL     2     -11.738  17.332  63.346  1.00  0.00     0.000 HD 
HETATM    5  O   UNL     3     -11.191   5.371  70.190  1.00  0.00    -0.048 OA 
HETATM    6  H   UNL     3     -12.051   5.680  70.454  1.00  0.00     0.000 HD 
HETATM    7  C   UNL     3     -10.787   6.094  69.009  1.00  0.00    -0.350 C  
ENDROOT
BRANCH   3   8
HETATM    8  C   UNL     2     -10.652  15.165  65.445  1.00  0.00    -0.391 C  
HETATM    9  O   UNL     2     -10.721  14.221  64.359  1.00  0.00    -0.605 OA 
HETATM   10  H   UNL     2     -10.299  13.409  64.615  1.00  0.00     0.000 HD 
BRANCH   8  11
HETATM   11  C   UNL     2      -9.195  15.383  65.900  1.00  0.00    -0.239 C  
HETATM   12  O   UNL     2      -9.040  16.780  66.160  1.00  0.00    -0.343 OA 
HETATM   13  H   UNL     2      -8.143  16.915  66.441  1.00  0.00     0.000 HD 
BRANCH  11  14
HETATM   14  C   UNL     2      -8.943  14.546  67.170  1.00  0.00    -0.230 C  
HETATM   15  H   UNL     2      -7.391  14.186  68.344  1.00  0.00     0.000 HD 
HETATM   16  O   UNL     2      -7.547  14.702  67.562  1.00  0.00    -0.166 OA 
BRANCH  14  17
HETATM   17  C   UNL     2      -9.342  13.071  67.124  1.00  0.00    -0.230 C  
HETATM   18  C   UNL     2     -10.186  12.724  68.377  1.00  0.00    -0.236 C  
HETATM   19  H   UNL     2      -8.424  11.342  66.911  1.00  0.00     0.000 HD 
HETATM   20  O   UNL     2      -8.176  12.259  66.940  1.00  0.00    -0.172 OA 
HETATM   21  O   UNL     2     -11.115  13.576  68.556  1.00  0.00    -0.249 OA 
HETATM   22  O   UNL     2      -9.869  11.680  68.980  1.00  0.00    -0.098 OA 
ENDBRANCH  14  17
ENDBRANCH  11  14
ENDBRANCH   8  11
ENDBRANCH   3   8
BRANCH   7  23
HETATM   23  C   UNL     3      -9.400   5.595  68.584  1.00  0.00    -0.123 C  
HETATM   24  O   UNL     3      -9.035   6.270  67.362  1.00  0.00    -0.111 OA 
HETATM   25  H   UNL     3      -8.175   5.961  67.098  1.00  0.00     0.000 HD 
BRANCH  23  26
HETATM   26  C   UNL     3      -8.235   5.873  69.553  1.00  0.00    -0.113 C  
HETATM   27  O   UNL     3      -7.012   6.111  68.851  1.00  0.00    -0.067 OA 
HETATM   28  H   UNL     3      -6.294   6.282  69.449  1.00  0.00     0.000 HD 
BRANCH  26  29
HETATM   29  C   UNL     3      -8.412   6.972  70.624  1.00  0.00    -0.139 C  
HETATM   30  O   UNL     3      -8.150   8.288  70.111  1.00  0.00    -0.106 OA 
HETATM   31  H   UNL     3      -8.260   8.964  70.770  1.00  0.00     0.000 HD 
BRANCH  29  32
HETATM   32  C   UNL     3      -7.622   6.811  71.919  1.00  0.00    -0.095 C  
HETATM   33  C   UNL     3      -7.210   8.138  72.578  1.00  0.00    -0.101 C  
HETATM   34  O   UNL     3      -6.365   6.060  71.626  1.00  0.00    -0.046 OA 
HETATM   35  O   UNL     3      -6.016   8.510  72.218  1.00  0.00    -0.056 OA 
HETATM   36  O   UNL     3      -7.833   8.482  73.601  1.00  0.00    -0.362 OA 
HETATM   37  H   UNL     3      -5.873   5.960  72.432  1.00  0.00     0.000 HD 
ENDBRANCH  29  32
ENDBRANCH  26  29
ENDBRANCH  23  26
ENDBRANCH   7  23
TORSDOF 8
ENDMDL
MODEL      354
REMARK 921   NORMALIZED FREE ENERGY PREDICTED BY IDOCK:   -3.41 KCAL/MOL
REMARK 922        TOTAL FREE ENERGY PREDICTED BY IDOCK:   -7.09 KCAL/MOL
REMARK 923 INTER-LIGAND FREE ENERGY PREDICTED BY IDOCK:   -5.35 KCAL/MOL
REMARK 924 INTRA-LIGAND FREE ENERGY PREDICTED BY IDOCK:   -1.73 KCAL/MOL
REMARK 927      BINDING AFFINITY PREDICTED BY RF-SCORE:    0.00 PKD
ROOT
HETATM    1 CU   UNL     1      -9.940   8.358  69.929  1.00  0.00    -0.172 Cu 
HETATM    2  O   UNL     2     -10.955   3.416  73.182  1.00  0.00    -0.169 OA 
HETATM    3  C   UNL     2     -11.874   4.486  73.444  1.00  0.00     0.086 C  
HETATM    4  H   UNL     2     -11.066   2.776  73.877  1.00  0.00     0.000 HD 
HETATM    5  O   UNL     3      -8.877  15.543  69.142  1.00  0.00    -0.217 OA 
HETATM    6  H   UNL     3      -8.837  15.699  70.079  1.00  0.00     0.000 HD 
HETATM    7  C   UNL     3      -8.699  14.132  68.904  1.00  0.00     0.020 C  
ENDROOT
BRANCH   3   8
HETATM    8  C   UNL     2     -11.697   5.512  72.328  1.00  0.00    -0.060 C  
HETATM    9  O   UNL     2     -12.791   6.450  72.355  1.00  0.00    -0.543 OA 
HETATM   10  H   UNL     2     -12.680   7.089  71.660  1.00  0.00     0.000 HD 
BRANCH   8  11
HETATM   11  C   UNL     2     -10.339   6.239  72.414  1.00  0.00    -0.191 C  
HETATM   12  O   UNL     2      -9.741   5.868  73.658  1.00  0.00    -0.150 OA 
HETATM   13  H   UNL     2      -8.905   6.315  73.711  1.00  0.00     0.000 HD 
BRANCH  11  14
HETATM   14  C   UNL     2      -9.468   5.801  71.220  1.00  0.00    -0.154 C  
HETATM   15  H   UNL     2      -8.075   6.647  70.097  1.00  0.00     0.000 HD 
HETATM   16  O   UNL     2      -8.612   6.917  70.833  1.00  0.00    -0.134 OA 
BRANCH  14  17
HETATM   17  C   UNL     2     -10.190   5.212  70.008  1.00  0.00    -0.284 C  
HETATM   18  C   UNL     2      -9.678   3.772  69.750  1.00  0.00    -0.123 C  
HETATM   19  H   UNL     2     -10.517   5.737  68.139  1.00  0.00     0.000 HD 
HETATM   20  O   UNL     2     -10.068   6.103  68.892  1.00  0.00    -0.153 OA 
HETATM   21  O   UNL     2      -9.679   3.085  70.822  1.00  0.00    -0.162 OA 
HETATM   22  O   UNL     2      -9.389   3.495  68.569  1.00  0.00    -0.153 OA 
ENDBRANCH  14  17
ENDBRANCH  11  14
ENDBRANCH   8  11
ENDBRANCH   3   8
BRANCH   7  23
HETATM   23  C   UNL     3      -8.763  13.880  67.392  1.00  0.00    -0.203 C  
HETATM   24  O   UNL     3      -7.716  14.648  66.764  1.00  0.00    -0.286 OA 
HETATM   25  H   UNL     3      -7.755  14.493  65.827  1.00  0.00     0.000 HD 
BRANCH  23  26
HETATM   26  C   UNL     3      -8.530  12.432  66.919  1.00  0.00    -0.147 C  
HETATM   27  O   UNL     3      -7.143  12.170  66.694  1.00  0.00    -0.378 OA 
HETATM   28  H   UNL     3      -7.000  11.277  66.402  1.00  0.00     0.000 HD 
BRANCH  26  29
HETATM   29  C   UNL     3      -9.123  11.278  67.757  1.00  0.00    -0.152 C  
HETATM   30  O   UNL     3      -8.114  10.385  68.256  1.00  0.00    -0.107 OA 
HETATM   31  H   UNL     3      -8.480   9.675  68.771  1.00  0.00     0.000 HD 
BRANCH  29  32
HETATM   32  C   UNL     3     -10.210  10.434  67.100  1.00  0.00    -0.222 C  
HETATM   33  C   UNL     3     -10.208  10.484  65.562  1.00  0.00    -0.256 C  
HETATM   34  O   UNL     3     -11.544  10.930  67.550  1.00  0.00    -0.526 OA 
HETATM   35  O   UNL     3     -11.019  11.392  65.104  1.00  0.00    -0.267 OA 
HETATM   36  O   UNL     3      -9.779   9.479  64.962  1.00  0.00    -0.248 OA 
HETATM   37  H   UNL     3     -12.221  10.405  67.141  1.00  0.00     0.000 HD 
ENDBRANCH  29  32
ENDBRANCH  26  29
ENDBRANCH  23  26
ENDBRANCH   7  23
TORSDOF 8
ENDMDL
MODEL      355
REMARK 921   NORMALIZED FREE ENERGY PREDICTED BY IDOCK:   -3.41 KCAL/MOL
REMARK 922        TOTAL FREE ENERGY PREDICTED BY IDOCK:   -7.08 KCAL/MOL
REMARK 923 INTER-LIGAND FREE ENERGY PREDICTED BY IDOCK:   -5.17 KCAL/MOL
REMARK 924 INTRA-LIGAND FREE ENERGY PREDICTED BY IDOCK:   -1.91 KCAL/MOL
REMARK 927      BINDING AFFINITY PREDICTED BY RF-SCORE:    0.00 PKD
ROOT
HETATM    1 CU   UNL     1      -8.917   8.751  67.103  1.00  0.00    -0.119 Cu 
HETATM    2  O   UNL     2      -9.678   2.825  66.521  1.00  0.00    -0.394 OA 
HETATM    3  C   UNL     2     -10.008   3.575  65.343  1.00  0.00     0.037 C  
HETATM    4  H   UNL     2     -10.023   1.948  66.400  1.00  0.00     0.000 HD 
HETATM    5  O   UNL     3     -11.148  15.692  66.622  1.00  0.00    -0.270 OA 
HETATM    6  H   UNL     3     -12.040  15.451  66.400  1.00  0.00     0.000 HD 
HETATM    7  C   UNL     3     -10.485  14.536  67.174  1.00  0.00    -0.267 C  
ENDROOT
BRANCH   3   8
HETATM    8  C   UNL     2      -9.453   4.983  65.537  1.00  0.00    -0.117 C  
HETATM    9  O   UNL     2     -10.052   5.584  66.702  1.00  0.00    -0.169 OA 
HETATM   10  H   UNL     2      -9.706   6.461  66.822  1.00  0.00     0.000 HD 
BRANCH   8  11
HETATM   11  C   UNL     2      -7.913   4.996  65.635  1.00  0.00    -0.107 C  
HETATM   12  O   UNL     2      -7.425   4.017  64.715  1.00  0.00    -0.070 OA 
HETATM   13  H   UNL     2      -6.477   4.024  64.775  1.00  0.00     0.000 HD 
BRANCH  11  14
HETATM   14  C   UNL     2      -7.407   6.407  65.273  1.00  0.00    -0.077 C  
HETATM   15  H   UNL     2      -8.209   8.211  65.149  1.00  0.00     0.000 HD 
HETATM   16  O   UNL     2      -8.521   7.342  65.372  1.00  0.00    -0.142 OA 
BRANCH  14  17
HETATM   17  C   UNL     2      -6.670   6.563  63.942  1.00  0.00    -0.044 C  
HETATM   18  C   UNL     2      -5.954   7.938  63.906  1.00  0.00    -0.057 C  
HETATM   19  H   UNL     2      -7.118   6.425  62.031  1.00  0.00     0.000 HD 
HETATM   20  O   UNL     2      -7.576   6.327  62.858  1.00  0.00    -0.065 OA 
HETATM   21  O   UNL     2      -5.286   8.136  64.971  1.00  0.00    -0.032 OA 
HETATM   22  O   UNL     2      -6.100   8.605  62.863  1.00  0.00    -0.086 OA 
ENDBRANCH  14  17
ENDBRANCH  11  14
ENDBRANCH   8  11
ENDBRANCH   3   8
BRANCH   7  23
HETATM   23  C   UNL     3      -9.045  14.926  67.533  1.00  0.00    -0.183 C  
HETATM   24  O   UNL     3      -8.159  13.931  66.980  1.00  0.00    -0.351 OA 
HETATM   25  H   UNL     3      -7.267  14.172  67.202  1.00  0.00     0.000 HD 
BRANCH  23  26
HETATM   26  C   UNL     3      -8.530  16.268  66.977  1.00  0.00    -0.202 C  
HETATM   27  O   UNL     3      -8.972  16.485  65.635  1.00  0.00    -0.449 OA 
HETATM   28  H   UNL     3      -8.654  17.312  65.293  1.00  0.00     0.000 HD 
BRANCH  26  29
HETATM   29  C   UNL     3      -8.784  17.552  67.797  1.00  0.00    -0.230 C  
HETATM   30  O   UNL     3      -9.664  17.329  68.910  1.00  0.00    -0.275 OA 
HETATM   31  H   UNL     3      -9.821  18.119  69.414  1.00  0.00     0.000 HD 
BRANCH  29  32
HETATM   32  C   UNL     3      -9.296  18.769  67.034  1.00  0.00    -0.297 C  
HETATM   33  C   UNL     3      -9.216  20.089  67.821  1.00  0.00    -0.329 C  
HETATM   34  O   UNL     3     -10.733  18.553  66.690  1.00  0.00    -0.362 OA 
HETATM   35  O   UNL     3     -10.328  20.353  68.443  1.00  0.00    -0.290 OA 
HETATM   36  O   UNL     3      -8.324  20.894  67.490  1.00  0.00    -0.219 OA 
HETATM   37  H   UNL     3     -11.052  19.311  66.215  1.00  0.00     0.000 HD 
ENDBRANCH  29  32
ENDBRANCH  26  29
ENDBRANCH  23  26
ENDBRANCH   7  23
TORSDOF 8
ENDMDL
MODEL      356
REMARK 921   NORMALIZED FREE ENERGY PREDICTED BY IDOCK:   -3.41 KCAL/MOL
REMARK 922        TOTAL FREE ENERGY PREDICTED BY IDOCK:   -7.08 KCAL/MOL
REMARK 923 INTER-LIGAND FREE ENERGY PREDICTED BY IDOCK:   -7.22 KCAL/MOL
REMARK 924 INTRA-LIGAND FREE ENERGY PREDICTED BY IDOCK:    0.14 KCAL/MOL
REMARK 927      BINDING AFFINITY PREDICTED BY RF-SCORE:    0.00 PKD
ROOT
HETATM    1 CU   UNL     1     -10.503   9.465  70.269  1.00  0.00    -0.177 Cu 
HETATM    2  O   UNL     2     -10.306   4.039  72.830  1.00  0.00    -0.156 OA 
HETATM    3  C   UNL     2     -11.431   4.833  73.232  1.00  0.00    -0.273 C  
HETATM    4  H   UNL     2     -10.253   3.306  73.432  1.00  0.00     0.000 HD 
HETATM    5  O   UNL     3     -11.077  16.746  70.453  1.00  0.00    -0.446 OA 
HETATM    6  H   UNL     3     -11.046  16.783  71.402  1.00  0.00     0.000 HD 
HETATM    7  C   UNL     3     -10.599  15.454  70.028  1.00  0.00    -0.303 C  
ENDROOT
BRANCH   3   8
HETATM    8  C   UNL     2     -11.518   6.011  72.264  1.00  0.00    -0.312 C  
HETATM    9  O   UNL     2     -12.899   6.295  71.968  1.00  0.00    -0.377 OA 
HETATM   10  H   UNL     2     -12.953   7.027  71.365  1.00  0.00     0.000 HD 
BRANCH   8  11
HETATM   11  C   UNL     2     -10.796   7.263  72.802  1.00  0.00    -0.314 C  
HETATM   12  O   UNL     2     -10.660   7.096  74.215  1.00  0.00    -0.545 OA 
HETATM   13  H   UNL     2     -10.215   7.867  74.546  1.00  0.00     0.000 HD 
BRANCH  11  14
HETATM   14  C   UNL     2      -9.419   7.373  72.115  1.00  0.00    -0.139 C  
HETATM   15  H   UNL     2      -8.223   8.853  71.571  1.00  0.00     0.000 HD 
HETATM   16  O   UNL     2      -9.071   8.784  71.994  1.00  0.00    -0.287 OA 
BRANCH  14  17
HETATM   17  C   UNL     2      -9.243   6.643  70.784  1.00  0.00    -0.155 C  
HETATM   18  C   UNL     2      -7.968   5.764  70.841  1.00  0.00    -0.111 C  
HETATM   19  H   UNL     2      -9.166   7.133  68.879  1.00  0.00     0.000 HD 
HETATM   20  O   UNL     2      -9.276   7.587  69.706  1.00  0.00    -0.148 OA 
HETATM   21  O   UNL     2      -7.942   5.060  71.901  1.00  0.00    -0.105 OA 
HETATM   22  O   UNL     2      -7.204   5.842  69.859  1.00  0.00    -0.065 OA 
ENDBRANCH  14  17
ENDBRANCH  11  14
ENDBRANCH   8  11
ENDBRANCH   3   8
BRANCH   7  23
HETATM   23  C   UNL     3     -10.649  15.394  68.496  1.00  0.00    -0.240 C  
HETATM   24  O   UNL     3     -12.014  15.147  68.100  1.00  0.00    -0.505 OA 
HETATM   25  H   UNL     3     -12.045  15.110  67.151  1.00  0.00     0.000 HD 
BRANCH  23  26
HETATM   26  C   UNL     3     -10.242  16.673  67.738  1.00  0.00    -0.292 C  
HETATM   27  O   UNL     3     -11.085  17.776  68.078  1.00  0.00    -0.195 OA 
HETATM   28  H   UNL     3     -10.834  18.564  67.611  1.00  0.00     0.000 HD 
BRANCH  26  29
HETATM   29  C   UNL     3      -8.770  17.135  67.808  1.00  0.00    -0.220 C  
HETATM   30  O   UNL     3      -7.981  16.326  68.696  1.00  0.00    -0.189 OA 
HETATM   31  H   UNL     3      -7.075  16.611  68.739  1.00  0.00     0.000 HD 
BRANCH  29  32
HETATM   32  C   UNL     3      -8.520  18.597  68.162  1.00  0.00    -0.312 C  
HETATM   33  C   UNL     3      -9.560  19.574  67.587  1.00  0.00    -0.336 C  
HETATM   34  O   UNL     3      -7.191  19.004  67.617  1.00  0.00    -0.220 OA 
HETATM   35  O   UNL     3      -9.182  20.070  66.445  1.00  0.00    -0.365 OA 
HETATM   36  O   UNL     3     -10.389  20.054  68.383  1.00  0.00    -0.433 OA 
HETATM   37  H   UNL     3      -7.035  19.915  67.837  1.00  0.00     0.000 HD 
ENDBRANCH  29  32
ENDBRANCH  26  29
ENDBRANCH  23  26
ENDBRANCH   7  23
TORSDOF 8
ENDMDL
MODEL      357
REMARK 921   NORMALIZED FREE ENERGY PREDICTED BY IDOCK:   -3.41 KCAL/MOL
REMARK 922        TOTAL FREE ENERGY PREDICTED BY IDOCK:   -7.08 KCAL/MOL
REMARK 923 INTER-LIGAND FREE ENERGY PREDICTED BY IDOCK:   -6.22 KCAL/MOL
REMARK 924 INTRA-LIGAND FREE ENERGY PREDICTED BY IDOCK:   -0.86 KCAL/MOL
REMARK 927      BINDING AFFINITY PREDICTED BY RF-SCORE:    0.00 PKD
ROOT
HETATM    1 CU   UNL     1      -9.305  11.102  67.784  1.00  0.00    -0.146 Cu 
HETATM    2  O   UNL     2      -5.951   6.697  65.462  1.00  0.00    -0.032 OA 
HETATM    3  C   UNL     2      -7.337   6.359  65.611  1.00  0.00    -0.080 C  
HETATM    4  H   UNL     2      -5.483   5.888  65.291  1.00  0.00     0.000 HD 
HETATM    5  O   UNL     3     -14.143  13.794  72.551  1.00  0.00    -0.686 OA 
HETATM    6  H   UNL     3     -14.164  12.997  73.068  1.00  0.00     0.000 HD 
HETATM    7  C   UNL     3     -12.974  13.762  71.707  1.00  0.00    -0.355 C  
ENDROOT
BRANCH   3   8
HETATM    8  C   UNL     2      -8.090   7.658  65.885  1.00  0.00    -0.122 C  
HETATM    9  O   UNL     2      -8.894   8.003  64.740  1.00  0.00    -0.387 OA 
HETATM   10  H   UNL     2      -9.362   8.813  64.910  1.00  0.00     0.000 HD 
BRANCH   8  11
HETATM   11  C   UNL     2      -8.949   7.578  67.163  1.00  0.00    -0.126 C  
HETATM   12  O   UNL     2     -10.300   7.358  66.749  1.00  0.00    -0.359 OA 
HETATM   13  H   UNL     2     -10.829   7.308  67.536  1.00  0.00     0.000 HD 
BRANCH  11  14
HETATM   14  C   UNL     2      -8.433   6.414  68.033  1.00  0.00    -0.118 C  
HETATM   15  H   UNL     2      -9.126   4.645  68.586  1.00  0.00     0.000 HD 
HETATM   16  O   UNL     2      -9.444   5.362  68.051  1.00  0.00    -0.111 OA 
BRANCH  14  17
HETATM   17  C   UNL     2      -7.965   6.755  69.448  1.00  0.00    -0.115 C  
HETATM   18  C   UNL     2      -7.563   5.452  70.187  1.00  0.00    -0.073 C  
HETATM   19  H   UNL     2      -8.670   7.752  70.991  1.00  0.00     0.000 HD 
HETATM   20  O   UNL     2      -8.961   7.541  70.112  1.00  0.00    -0.146 OA 
HETATM   21  O   UNL     2      -6.791   4.737  69.472  1.00  0.00    -0.046 OA 
HETATM   22  O   UNL     2      -8.007   5.320  71.345  1.00  0.00    -0.108 OA 
ENDBRANCH  14  17
ENDBRANCH  11  14
ENDBRANCH   8  11
ENDBRANCH   3   8
BRANCH   7  23
HETATM   23  C   UNL     3     -12.940  15.048  70.871  1.00  0.00    -0.405 C  
HETATM   24  O   UNL     3     -13.401  16.135  71.700  1.00  0.00    -0.376 OA 
HETATM   25  H   UNL     3     -13.380  16.932  71.182  1.00  0.00     0.000 HD 
BRANCH  23  26
HETATM   26  C   UNL     3     -11.563  15.502  70.351  1.00  0.00    -0.337 C  
HETATM   27  O   UNL     3     -10.502  14.998  71.166  1.00  0.00    -0.446 OA 
HETATM   28  H   UNL     3      -9.652  15.278  70.845  1.00  0.00     0.000 HD 
BRANCH  26  29
HETATM   29  C   UNL     3     -11.213  15.246  68.869  1.00  0.00    -0.285 C  
HETATM   30  O   UNL     3     -12.376  15.216  68.025  1.00  0.00    -0.465 OA 
HETATM   31  H   UNL     3     -12.160  15.059  67.114  1.00  0.00     0.000 HD 
BRANCH  29  32
HETATM   32  C   UNL     3     -10.380  14.006  68.558  1.00  0.00    -0.247 C  
HETATM   33  C   UNL     3      -8.909  14.302  68.218  1.00  0.00    -0.185 C  
HETATM   34  O   UNL     3     -10.970  13.314  67.375  1.00  0.00    -0.263 OA 
HETATM   35  O   UNL     3      -8.718  14.415  66.937  1.00  0.00    -0.221 OA 
HETATM   36  O   UNL     3      -8.059  14.028  69.088  1.00  0.00     0.017 OA 
HETATM   37  H   UNL     3     -10.451  12.542  67.181  1.00  0.00     0.000 HD 
ENDBRANCH  29  32
ENDBRANCH  26  29
ENDBRANCH  23  26
ENDBRANCH   7  23
TORSDOF 8
ENDMDL
MODEL      358
REMARK 921   NORMALIZED FREE ENERGY PREDICTED BY IDOCK:   -3.36 KCAL/MOL
REMARK 922        TOTAL FREE ENERGY PREDICTED BY IDOCK:   -7.01 KCAL/MOL
REMARK 923 INTER-LIGAND FREE ENERGY PREDICTED BY IDOCK:   -5.19 KCAL/MOL
REMARK 924 INTRA-LIGAND FREE ENERGY PREDICTED BY IDOCK:   -1.82 KCAL/MOL
REMARK 927      BINDING AFFINITY PREDICTED BY RF-SCORE:    0.00 PKD
ROOT
HETATM    1 CU   UNL     1      -7.546  13.424  68.514  1.00  0.00    -0.092 Cu 
HETATM    2  O   UNL     2      -6.495  19.082  66.805  1.00  0.00    -0.187 OA 
HETATM    3  C   UNL     2      -7.464  18.398  65.997  1.00  0.00    -0.221 C  
HETATM    4  H   UNL     2      -6.251  19.873  66.339  1.00  0.00     0.000 HD 
HETATM    5  O   UNL     3      -8.173   6.249  67.286  1.00  0.00    -0.109 OA 
HETATM    6  H   UNL     3      -7.860   6.316  66.391  1.00  0.00     0.000 HD 
HETATM    7  C   UNL     3      -7.819   7.459  67.986  1.00  0.00    -0.118 C  
ENDROOT
BRANCH   3   8
HETATM    8  C   UNL     2      -7.856  17.127  66.746  1.00  0.00    -0.242 C  
HETATM    9  O   UNL     2      -6.696  16.292  66.924  1.00  0.00    -0.201 OA 
HETATM   10  H   UNL     2      -6.940  15.501  67.390  1.00  0.00     0.000 HD 
BRANCH   8  11
HETATM   11  C   UNL     2      -8.535  17.431  68.097  1.00  0.00    -0.241 C  
HETATM   12  O   UNL     2      -9.547  18.411  67.848  1.00  0.00    -0.279 OA 
HETATM   13  H   UNL     2      -9.965  18.598  68.680  1.00  0.00     0.000 HD 
BRANCH  11  14
HETATM   14  C   UNL     2      -9.143  16.127  68.650  1.00  0.00    -0.218 C  
HETATM   15  H   UNL     2      -8.459  14.553  69.636  1.00  0.00     0.000 HD 
HETATM   16  O   UNL     2      -8.085  15.356  69.295  1.00  0.00    -0.214 OA 
BRANCH  14  17
HETATM   17  C   UNL     2      -9.941  15.261  67.675  1.00  0.00    -0.222 C  
HETATM   18  C   UNL     2     -11.413  15.168  68.152  1.00  0.00    -0.342 C  
HETATM   19  H   UNL     2      -9.781  13.462  66.892  1.00  0.00     0.000 HD 
HETATM   20  O   UNL     2      -9.285  14.000  67.498  1.00  0.00    -0.184 OA 
HETATM   21  O   UNL     2     -11.880  16.320  68.429  1.00  0.00    -0.202 OA 
HETATM   22  O   UNL     2     -11.917  14.028  68.157  1.00  0.00    -0.357 OA 
ENDBRANCH  14  17
ENDBRANCH  11  14
ENDBRANCH   8  11
ENDBRANCH   3   8
BRANCH   7  23
HETATM   23  C   UNL     3      -8.323   7.351  69.431  1.00  0.00    -0.132 C  
HETATM   24  O   UNL     3      -9.659   7.892  69.484  1.00  0.00    -0.160 OA 
HETATM   25  H   UNL     3      -9.972   7.825  70.379  1.00  0.00     0.000 HD 
BRANCH  23  26
HETATM   26  C   UNL     3      -8.447   5.932  70.019  1.00  0.00    -0.126 C  
HETATM   27  O   UNL     3      -7.170   5.299  70.134  1.00  0.00    -0.059 OA 
HETATM   28  H   UNL     3      -7.246   4.424  70.497  1.00  0.00     0.000 HD 
BRANCH  26  29
HETATM   29  C   UNL     3      -9.213   5.748  71.347  1.00  0.00    -0.143 C  
HETATM   30  O   UNL     3     -10.608   6.072  71.228  1.00  0.00    -0.227 OA 
HETATM   31  H   UNL     3     -11.079   5.958  72.045  1.00  0.00     0.000 HD 
BRANCH  29  32
HETATM   32  C   UNL     3      -8.667   6.479  72.569  1.00  0.00    -0.125 C  
HETATM   33  C   UNL     3      -9.235   7.896  72.764  1.00  0.00    -0.221 C  
HETATM   34  O   UNL     3      -7.187   6.619  72.425  1.00  0.00    -0.085 OA 
HETATM   35  O   UNL     3      -8.476   8.803  72.222  1.00  0.00    -0.375 OA 
HETATM   36  O   UNL     3     -10.067   8.053  73.678  1.00  0.00    -0.113 OA 
HETATM   37  H   UNL     3      -6.847   7.075  73.185  1.00  0.00     0.000 HD 
ENDBRANCH  29  32
ENDBRANCH  26  29
ENDBRANCH  23  26
ENDBRANCH   7  23
TORSDOF 8
ENDMDL
MODEL      359
REMARK 921   NORMALIZED FREE ENERGY PREDICTED BY IDOCK:   -3.36 KCAL/MOL
REMARK 922        TOTAL FREE ENERGY PREDICTED BY IDOCK:   -7.01 KCAL/MOL
REMARK 923 INTER-LIGAND FREE ENERGY PREDICTED BY IDOCK:   -6.61 KCAL/MOL
REMARK 924 INTRA-LIGAND FREE ENERGY PREDICTED BY IDOCK:   -0.40 KCAL/MOL
REMARK 927      BINDING AFFINITY PREDICTED BY RF-SCORE:    0.00 PKD
ROOT
HETATM    1 CU   UNL     1      -7.219  13.681  67.134  1.00  0.00    -0.139 Cu 
HETATM    2  O   UNL     2      -5.586   7.942  67.786  1.00  0.00    -0.034 OA 
HETATM    3  C   UNL     2      -6.966   8.193  68.084  1.00  0.00    -0.077 C  
HETATM    4  H   UNL     2      -5.383   7.073  68.114  1.00  0.00     0.000 HD 
HETATM    5  O   UNL     3     -10.298  19.890  69.449  1.00  0.00    -0.636 OA 
HETATM    6  H   UNL     3     -10.440  19.559  70.329  1.00  0.00     0.000 HD 
HETATM    7  C   UNL     3      -9.339  19.038  68.789  1.00  0.00    -0.357 C  
ENDROOT
BRANCH   3   8
HETATM    8  C   UNL     2      -7.292   9.588  67.557  1.00  0.00    -0.090 C  
HETATM    9  O   UNL     2      -6.654   9.785  66.281  1.00  0.00    -0.069 OA 
HETATM   10  H   UNL     2      -6.857  10.654  65.953  1.00  0.00     0.000 HD 
BRANCH   8  11
HETATM   11  C   UNL     2      -8.812   9.837  67.463  1.00  0.00    -0.125 C  
HETATM   12  O   UNL     2      -9.461   8.627  67.861  1.00  0.00    -0.138 OA 
HETATM   13  H   UNL     2     -10.397   8.780  67.804  1.00  0.00     0.000 HD 
BRANCH  11  14
HETATM   14  C   UNL     2      -9.180  11.005  68.400  1.00  0.00    -0.175 C  
HETATM   15  H   UNL     2      -9.999  11.178  70.193  1.00  0.00     0.000 HD 
HETATM   16  O   UNL     2      -9.772  10.459  69.616  1.00  0.00    -0.205 OA 
BRANCH  14  17
HETATM   17  C   UNL     2     -10.048  12.121  67.816  1.00  0.00    -0.199 C  
HETATM   18  C   UNL     2     -11.404  11.531  67.350  1.00  0.00    -0.298 C  
HETATM   19  H   UNL     2      -9.856  13.515  66.441  1.00  0.00     0.000 HD 
HETATM   20  O   UNL     2      -9.317  12.822  66.803  1.00  0.00    -0.230 OA 
HETATM   21  O   UNL     2     -11.922  10.799  68.254  1.00  0.00    -0.520 OA 
HETATM   22  O   UNL     2     -11.792  11.877  66.218  1.00  0.00    -0.546 OA 
ENDBRANCH  14  17
ENDBRANCH  11  14
ENDBRANCH   8  11
ENDBRANCH   3   8
BRANCH   7  23
HETATM   23  C   UNL     3      -9.109  19.571  67.369  1.00  0.00    -0.309 C  
HETATM   24  O   UNL     3      -8.183  20.674  67.446  1.00  0.00    -0.341 OA 
HETATM   25  H   UNL     3      -8.041  21.005  66.566  1.00  0.00     0.000 HD 
BRANCH  23  26
HETATM   26  C   UNL     3      -8.481  18.596  66.355  1.00  0.00    -0.272 C  
HETATM   27  O   UNL     3      -7.304  17.978  66.881  1.00  0.00    -0.191 OA 
HETATM   28  H   UNL     3      -6.917  17.376  66.255  1.00  0.00     0.000 HD 
BRANCH  26  29
HETATM   29  C   UNL     3      -9.376  17.505  65.728  1.00  0.00     0.221 C  
HETATM   30  O   UNL     3     -10.691  17.988  65.407  1.00  0.00    -0.632 OA 
HETATM   31  H   UNL     3     -11.241  17.317  65.021  1.00  0.00     0.000 HD 
BRANCH  29  32
HETATM   32  C   UNL     3      -9.536  16.207  66.512  1.00  0.00    -0.264 C  
HETATM   33  C   UNL     3     -10.981  15.902  66.944  1.00  0.00    -0.172 C  
HETATM   34  O   UNL     3      -8.718  16.293  67.758  1.00  0.00    -0.177 OA 
HETATM   35  O   UNL     3     -11.233  16.337  68.143  1.00  0.00    -0.350 OA 
HETATM   36  O   UNL     3     -11.581  15.002  66.323  1.00  0.00    -0.286 OA 
HETATM   37  H   UNL     3      -8.817  15.484  68.247  1.00  0.00     0.000 HD 
ENDBRANCH  29  32
ENDBRANCH  26  29
ENDBRANCH  23  26
ENDBRANCH   7  23
TORSDOF 8
ENDMDL
MODEL      360
REMARK 921   NORMALIZED FREE ENERGY PREDICTED BY IDOCK:   -3.32 KCAL/MOL
REMARK 922        TOTAL FREE ENERGY PREDICTED BY IDOCK:   -6.95 KCAL/MOL
REMARK 923 INTER-LIGAND FREE ENERGY PREDICTED BY IDOCK:   -6.78 KCAL/MOL
REMARK 924 INTRA-LIGAND FREE ENERGY PREDICTED BY IDOCK:   -0.17 KCAL/MOL
REMARK 927      BINDING AFFINITY PREDICTED BY RF-SCORE:    0.00 PKD
ROOT
HETATM    1 CU   UNL     1      -9.336  13.123  69.369  1.00  0.00    -0.377 Cu 
HETATM    2  O   UNL     2      -9.797  19.078  68.775  1.00  0.00    -0.392 OA 
HETATM    3  C   UNL     2     -10.119  18.346  67.584  1.00  0.00    -0.360 C  
HETATM    4  H   UNL     2      -9.698  19.990  68.525  1.00  0.00     0.000 HD 
HETATM    5  O   UNL     3      -6.950   6.529  67.316  1.00  0.00    -0.070 OA 
HETATM    6  H   UNL     3      -6.389   6.880  66.633  1.00  0.00     0.000 HD 
HETATM    7  C   UNL     3      -7.309   7.602  68.210  1.00  0.00    -0.099 C  
ENDROOT
BRANCH   3   8
HETATM    8  C   UNL     2     -10.279  16.883  67.986  1.00  0.00    -0.310 C  
HETATM    9  O   UNL     2     -11.136  16.788  69.141  1.00  0.00    -0.266 OA 
HETATM   10  H   UNL     2     -11.235  15.877  69.392  1.00  0.00     0.000 HD 
BRANCH   8  11
HETATM   11  C   UNL     2     -10.810  16.013  66.829  1.00  0.00    -0.195 C  
HETATM   12  O   UNL     2     -10.287  16.561  65.616  1.00  0.00    -0.438 OA 
HETATM   13  H   UNL     2     -10.614  16.026  64.903  1.00  0.00     0.000 HD 
BRANCH  11  14
HETATM   14  C   UNL     2     -10.332  14.562  67.040  1.00  0.00    -0.263 C  
HETATM   15  H   UNL     2      -8.820  13.462  66.391  1.00  0.00     0.000 HD 
HETATM   16  O   UNL     2      -9.116  14.355  66.261  1.00  0.00    -0.213 OA 
BRANCH  14  17
HETATM   17  C   UNL     2     -11.348  13.448  66.786  1.00  0.00    -0.325 C  
HETATM   18  C   UNL     2     -11.953  13.615  65.368  1.00  0.00    -0.378 C  
HETATM   19  H   UNL     2     -12.937  12.723  67.692  1.00  0.00     0.000 HD 
HETATM   20  O   UNL     2     -12.306  13.416  67.850  1.00  0.00    -0.203 OA 
HETATM   21  O   UNL     2     -11.042  13.785  64.496  1.00  0.00    -0.373 OA 
HETATM   22  O   UNL     2     -13.194  13.521  65.288  1.00  0.00    -0.688 OA 
ENDBRANCH  14  17
ENDBRANCH  11  14
ENDBRANCH   8  11
ENDBRANCH   3   8
BRANCH   7  23
HETATM   23  C   UNL     3      -8.214   7.035  69.312  1.00  0.00    -0.125 C  
HETATM   24  O   UNL     3      -9.585   7.172  68.884  1.00  0.00    -0.142 OA 
HETATM   25  H   UNL     3     -10.145   6.821  69.566  1.00  0.00     0.000 HD 
BRANCH  23  26
HETATM   26  C   UNL     3      -8.051   5.539  69.644  1.00  0.00    -0.101 C  
HETATM   27  O   UNL     3      -6.716   5.089  69.395  1.00  0.00    -0.048 OA 
HETATM   28  H   UNL     3      -6.616   4.166  69.600  1.00  0.00     0.000 HD 
BRANCH  26  29
HETATM   29  C   UNL     3      -8.491   5.039  71.037  1.00  0.00    -0.118 C  
HETATM   30  O   UNL     3      -7.707   3.926  71.496  1.00  0.00    -0.058 OA 
HETATM   31  H   UNL     3      -7.978   3.619  72.354  1.00  0.00     0.000 HD 
BRANCH  29  32
HETATM   32  C   UNL     3      -9.962   4.676  71.209  1.00  0.00    -0.198 C  
HETATM   33  C   UNL     3     -10.892   5.883  71.420  1.00  0.00    -0.271 C  
HETATM   34  O   UNL     3     -10.105   3.800  72.410  1.00  0.00    -0.161 OA 
HETATM   35  O   UNL     3     -11.089   6.131  72.682  1.00  0.00    -0.247 OA 
HETATM   36  O   UNL     3     -11.614   6.218  70.461  1.00  0.00    -0.363 OA 
HETATM   37  H   UNL     3     -11.021   3.574  72.517  1.00  0.00     0.000 HD 
ENDBRANCH  29  32
ENDBRANCH  26  29
ENDBRANCH  23  26
ENDBRANCH   7  23
TORSDOF 8
ENDMDL
MODEL      361
REMARK 921   NORMALIZED FREE ENERGY PREDICTED BY IDOCK:   -3.30 KCAL/MOL
REMARK 922        TOTAL FREE ENERGY PREDICTED BY IDOCK:   -6.91 KCAL/MOL
REMARK 923 INTER-LIGAND FREE ENERGY PREDICTED BY IDOCK:   -6.32 KCAL/MOL
REMARK 924 INTRA-LIGAND FREE ENERGY PREDICTED BY IDOCK:   -0.59 KCAL/MOL
REMARK 927      BINDING AFFINITY PREDICTED BY RF-SCORE:    0.00 PKD
ROOT
HETATM    1 CU   UNL     1      -9.876   8.675  67.625  1.00  0.00    -0.143 Cu 
HETATM    2  O   UNL     2      -9.600   3.197  70.065  1.00  0.00    -0.166 OA 
HETATM    3  C   UNL     2      -9.400   3.214  68.644  1.00  0.00    -0.171 C  
HETATM    4  H   UNL     2      -9.744   2.292  70.316  1.00  0.00     0.000 HD 
HETATM    5  O   UNL     3     -12.350  13.529  62.756  1.00  0.00    -0.855 OA 
HETATM    6  H   UNL     3     -12.991  12.927  62.395  1.00  0.00     0.000 HD 
HETATM    7  C   UNL     3     -11.913  13.021  64.033  1.00  0.00    -0.456 C  
ENDROOT
BRANCH   3   8
HETATM    8  C   UNL     2      -9.168   4.668  68.241  1.00  0.00    -0.128 C  
HETATM    9  O   UNL     2      -9.924   5.538  69.105  1.00  0.00    -0.159 OA 
HETATM   10  H   UNL     2      -9.780   6.442  68.854  1.00  0.00     0.000 HD 
BRANCH   8  11
HETATM   11  C   UNL     2      -7.672   5.044  68.247  1.00  0.00    -0.083 C  
HETATM   12  O   UNL     2      -7.054   4.293  69.295  1.00  0.00    -0.049 OA 
HETATM   13  H   UNL     2      -6.133   4.524  69.299  1.00  0.00     0.000 HD 
BRANCH  11  14
HETATM   14  C   UNL     2      -7.067   4.689  66.873  1.00  0.00    -0.075 C  
HETATM   15  H   UNL     2      -5.285   4.143  66.209  1.00  0.00     0.000 HD 
HETATM   16  O   UNL     2      -5.658   4.362  67.055  1.00  0.00    -0.016 OA 
BRANCH  14  17
HETATM   17  C   UNL     2      -7.259   5.702  65.744  1.00  0.00    -0.072 C  
HETATM   18  C   UNL     2      -7.254   7.137  66.331  1.00  0.00    -0.078 C  
HETATM   19  H   UNL     2      -8.545   5.996  64.284  1.00  0.00     0.000 HD 
HETATM   20  O   UNL     2      -8.426   5.366  64.985  1.00  0.00    -0.143 OA 
HETATM   21  O   UNL     2      -6.264   7.312  67.111  1.00  0.00    -0.042 OA 
HETATM   22  O   UNL     2      -8.164   7.893  65.937  1.00  0.00    -0.111 OA 
ENDBRANCH  14  17
ENDBRANCH  11  14
ENDBRANCH   8  11
ENDBRANCH   3   8
BRANCH   7  23
HETATM   23  C   UNL     3     -10.878  13.992  64.616  1.00  0.00    -0.403 C  
HETATM   24  O   UNL     3     -11.246  15.330  64.224  1.00  0.00    -0.669 OA 
HETATM   25  H   UNL     3     -10.605  15.932  64.585  1.00  0.00     0.000 HD 
BRANCH  23  26
HETATM   26  C   UNL     3     -10.766  14.046  66.152  1.00  0.00    -0.289 C  
HETATM   27  O   UNL     3     -10.205  12.842  66.681  1.00  0.00    -0.233 OA 
HETATM   28  H   UNL     3     -10.136  12.876  67.628  1.00  0.00     0.000 HD 
BRANCH  26  29
HETATM   29  C   UNL     3     -10.048  15.252  66.797  1.00  0.00    -0.258 C  
HETATM   30  O   UNL     3      -9.119  14.857  67.820  1.00  0.00    -0.180 OA 
HETATM   31  H   UNL     3      -8.677  15.598  68.216  1.00  0.00     0.000 HD 
BRANCH  29  32
HETATM   32  C   UNL     3     -10.929  16.357  67.370  1.00  0.00    -0.145 C  
HETATM   33  C   UNL     3     -10.167  17.636  67.757  1.00  0.00    -0.354 C  
HETATM   34  O   UNL     3     -11.591  15.852  68.609  1.00  0.00    -0.382 OA 
HETATM   35  O   UNL     3      -9.823  17.638  69.011  1.00  0.00    -0.297 OA 
HETATM   36  O   UNL     3     -10.298  18.624  67.007  1.00  0.00    -0.364 OA 
HETATM   37  H   UNL     3     -12.140  16.540  68.966  1.00  0.00     0.000 HD 
ENDBRANCH  29  32
ENDBRANCH  26  29
ENDBRANCH  23  26
ENDBRANCH   7  23
TORSDOF 8
ENDMDL
MODEL      362
REMARK 921   NORMALIZED FREE ENERGY PREDICTED BY IDOCK:   -3.27 KCAL/MOL
REMARK 922        TOTAL FREE ENERGY PREDICTED BY IDOCK:   -6.87 KCAL/MOL
REMARK 923 INTER-LIGAND FREE ENERGY PREDICTED BY IDOCK:   -6.61 KCAL/MOL
REMARK 924 INTRA-LIGAND FREE ENERGY PREDICTED BY IDOCK:   -0.26 KCAL/MOL
REMARK 927      BINDING AFFINITY PREDICTED BY RF-SCORE:    0.00 PKD
ROOT
HETATM    1 CU   UNL     1      -8.949  12.052  68.703  1.00  0.00    -0.157 Cu 
HETATM    2  O   UNL     2      -8.390  17.776  66.983  1.00  0.00    -0.214 OA 
HETATM    3  C   UNL     2      -8.672  16.868  65.908  1.00  0.00    -0.023 C  
HETATM    4  H   UNL     2      -8.118  18.597  66.591  1.00  0.00     0.000 HD 
HETATM    5  O   UNL     3      -7.394   4.927  68.260  1.00  0.00    -0.065 OA 
HETATM    6  H   UNL     3      -6.704   5.058  67.619  1.00  0.00     0.000 HD 
HETATM    7  C   UNL     3      -7.688   6.194  68.881  1.00  0.00    -0.093 C  
ENDROOT
BRANCH   3   8
HETATM    8  C   UNL     2      -9.109  15.548  66.539  1.00  0.00    -0.302 C  
HETATM    9  O   UNL     2      -8.872  15.588  67.960  1.00  0.00    -0.164 OA 
HETATM   10  H   UNL     2      -9.144  14.766  68.352  1.00  0.00     0.000 HD 
BRANCH   8  11
HETATM   11  C   UNL     2     -10.583  15.213  66.230  1.00  0.00    -0.310 C  
HETATM   12  O   UNL     2     -11.374  16.294  66.732  1.00  0.00     0.114 OA 
HETATM   13  H   UNL     2     -12.281  16.088  66.542  1.00  0.00     0.000 HD 
BRANCH  11  14
HETATM   14  C   UNL     2     -10.746  15.062  64.704  1.00  0.00    -0.217 C  
HETATM   15  H   UNL     2     -11.507  16.161  63.245  1.00  0.00     0.000 HD 
HETATM   16  O   UNL     2     -11.406  16.254  64.185  1.00  0.00    -0.788 OA 
BRANCH  14  17
HETATM   17  C   UNL     2     -11.426  13.789  64.199  1.00  0.00    -0.293 C  
HETATM   18  C   UNL     2     -12.574  13.397  65.165  1.00  0.00    -0.440 C  
HETATM   19  H   UNL     2     -10.867  11.977  63.671  1.00  0.00     0.000 HD 
HETATM   20  O   UNL     2     -10.444  12.768  63.985  1.00  0.00    -0.406 OA 
HETATM   21  O   UNL     2     -13.320  14.396  65.422  1.00  0.00    -0.568 OA 
HETATM   22  O   UNL     2     -12.619  12.198  65.504  1.00  0.00    -0.444 OA 
ENDBRANCH  14  17
ENDBRANCH  11  14
ENDBRANCH   8  11
ENDBRANCH   3   8
BRANCH   7  23
HETATM   23  C   UNL     3      -8.802   5.983  69.916  1.00  0.00    -0.138 C  
HETATM   24  O   UNL     3      -8.474   4.816  70.698  1.00  0.00    -0.093 OA 
HETATM   25  H   UNL     3      -9.163   4.685  71.339  1.00  0.00     0.000 HD 
BRANCH  23  26
HETATM   26  C   UNL     3      -9.010   7.106  70.950  1.00  0.00    -0.151 C  
HETATM   27  O   UNL     3      -8.101   8.189  70.739  1.00  0.00    -0.095 OA 
HETATM   28  H   UNL     3      -8.230   8.882  71.377  1.00  0.00     0.000 HD 
BRANCH  26  29
HETATM   29  C   UNL     3     -10.431   7.682  71.138  1.00  0.00    -0.208 C  
HETATM   30  O   UNL     3     -10.447   9.119  71.141  1.00  0.00    -0.261 OA 
HETATM   31  H   UNL     3     -11.321   9.472  71.257  1.00  0.00     0.000 HD 
BRANCH  29  32
HETATM   32  C   UNL     3     -11.216   7.203  72.354  1.00  0.00    -0.272 C  
HETATM   33  C   UNL     3     -10.717   5.874  72.946  1.00  0.00    -0.249 C  
HETATM   34  O   UNL     3     -12.641   6.996  71.957  1.00  0.00    -0.450 OA 
HETATM   35  O   UNL     3     -11.367   4.854  72.468  1.00  0.00    -0.125 OA 
HETATM   36  O   UNL     3     -10.082   5.932  74.018  1.00  0.00    -0.201 OA 
HETATM   37  H   UNL     3     -13.130   6.698  72.715  1.00  0.00     0.000 HD 
ENDBRANCH  29  32
ENDBRANCH  26  29
ENDBRANCH  23  26
ENDBRANCH   7  23
TORSDOF 8
ENDMDL
MODEL      363
REMARK 921   NORMALIZED FREE ENERGY PREDICTED BY IDOCK:   -3.26 KCAL/MOL
REMARK 922        TOTAL FREE ENERGY PREDICTED BY IDOCK:   -6.86 KCAL/MOL
REMARK 923 INTER-LIGAND FREE ENERGY PREDICTED BY IDOCK:   -5.24 KCAL/MOL
REMARK 924 INTRA-LIGAND FREE ENERGY PREDICTED BY IDOCK:   -1.62 KCAL/MOL
REMARK 927      BINDING AFFINITY PREDICTED BY RF-SCORE:    0.00 PKD
ROOT
HETATM    1 CU   UNL     1      -9.902  11.238  65.989  1.00  0.00    -0.191 Cu 
HETATM    2  O   UNL     2     -11.306  16.634  63.763  1.00  0.00    -1.457 OA 
HETATM    3  C   UNL     2     -11.288  16.580  65.196  1.00  0.00     0.113 C  
HETATM    4  H   UNL     2     -11.732  17.448  63.519  1.00  0.00     0.000 HD 
HETATM    5  O   UNL     3     -11.053   5.471  70.325  1.00  0.00    -0.231 OA 
HETATM    6  H   UNL     3     -11.905   5.782  70.608  1.00  0.00     0.000 HD 
HETATM    7  C   UNL     3     -10.674   6.196  69.136  1.00  0.00    -0.316 C  
ENDROOT
BRANCH   3   8
HETATM    8  C   UNL     2     -10.603  15.274  65.588  1.00  0.00    -0.362 C  
HETATM    9  O   UNL     2     -10.801  14.293  64.552  1.00  0.00    -0.550 OA 
HETATM   10  H   UNL     2     -10.374  13.480  64.796  1.00  0.00     0.000 HD 
BRANCH   8  11
HETATM   11  C   UNL     2      -9.102  15.469  65.890  1.00  0.00    -0.196 C  
HETATM   12  O   UNL     2      -8.880  16.875  66.024  1.00  0.00    -0.464 OA 
HETATM   13  H   UNL     2      -7.956  16.995  66.209  1.00  0.00     0.000 HD 
BRANCH  11  14
HETATM   14  C   UNL     2      -8.759  14.720  67.193  1.00  0.00    -0.221 C  
HETATM   15  H   UNL     2      -9.509  13.178  68.180  1.00  0.00     0.000 HD 
HETATM   16  O   UNL     2      -9.720  13.640  67.378  1.00  0.00    -0.220 OA 
BRANCH  14  17
HETATM   17  C   UNL     2      -8.619  15.560  68.463  1.00  0.00    -0.176 C  
HETATM   18  C   UNL     2      -7.372  15.093  69.257  1.00  0.00    -0.188 C  
HETATM   19  H   UNL     2      -9.760  16.051  69.990  1.00  0.00     0.000 HD 
HETATM   20  O   UNL     2      -9.847  15.530  69.200  1.00  0.00    -0.213 OA 
HETATM   21  O   UNL     2      -6.352  15.004  68.500  1.00  0.00    -0.085 OA 
HETATM   22  O   UNL     2      -7.534  14.918  70.480  1.00  0.00     0.350 OA 
ENDBRANCH  14  17
ENDBRANCH  11  14
ENDBRANCH   8  11
ENDBRANCH   3   8
BRANCH   7  23
HETATM   23  C   UNL     3      -9.298   5.695  68.678  1.00  0.00    -0.123 C  
HETATM   24  O   UNL     3      -9.031   6.246  67.372  1.00  0.00    -0.111 OA 
HETATM   25  H   UNL     3      -8.179   5.936  67.088  1.00  0.00     0.000 HD 
BRANCH  23  26
HETATM   26  C   UNL     3      -8.087   6.109  69.537  1.00  0.00    -0.112 C  
HETATM   27  O   UNL     3      -8.172   7.479  69.938  1.00  0.00    -0.126 OA 
HETATM   28  H   UNL     3      -7.425   7.734  70.468  1.00  0.00     0.000 HD 
BRANCH  26  29
HETATM   29  C   UNL     3      -7.732   5.253  70.772  1.00  0.00    -0.088 C  
HETATM   30  O   UNL     3      -8.554   5.560  71.910  1.00  0.00    -0.129 OA 
HETATM   31  H   UNL     3      -8.335   5.033  72.670  1.00  0.00     0.000 HD 
BRANCH  29  32
HETATM   32  C   UNL     3      -6.277   5.269  71.230  1.00  0.00    -0.030 C  
HETATM   33  C   UNL     3      -6.090   5.113  72.749  1.00  0.00    -0.027 C  
HETATM   34  O   UNL     3      -5.667   6.577  70.848  1.00  0.00    -0.025 OA 
HETATM   35  O   UNL     3      -6.006   6.263  73.350  1.00  0.00    -0.055 OA 
HETATM   36  O   UNL     3      -5.673   4.012  73.160  1.00  0.00    -0.003 OA 
HETATM   37  H   UNL     3      -4.760   6.587  71.133  1.00  0.00     0.000 HD 
ENDBRANCH  29  32
ENDBRANCH  26  29
ENDBRANCH  23  26
ENDBRANCH   7  23
TORSDOF 8
ENDMDL
MODEL      364
REMARK 921   NORMALIZED FREE ENERGY PREDICTED BY IDOCK:   -3.25 KCAL/MOL
REMARK 922        TOTAL FREE ENERGY PREDICTED BY IDOCK:   -6.85 KCAL/MOL
REMARK 923 INTER-LIGAND FREE ENERGY PREDICTED BY IDOCK:   -6.70 KCAL/MOL
REMARK 924 INTRA-LIGAND FREE ENERGY PREDICTED BY IDOCK:   -0.16 KCAL/MOL
REMARK 927      BINDING AFFINITY PREDICTED BY RF-SCORE:    0.00 PKD
ROOT
HETATM    1 CU   UNL     1      -9.671  13.033  68.977  1.00  0.00    -0.273 Cu 
HETATM    2  O   UNL     2      -9.102  19.009  69.044  1.00  0.00    -0.303 OA 
HETATM    3  C   UNL     2      -9.896  18.510  67.957  1.00  0.00    -0.341 C  
HETATM    4  H   UNL     2      -8.903  19.917  68.850  1.00  0.00     0.000 HD 
HETATM    5  O   UNL     3      -9.337   6.485  65.752  1.00  0.00    -0.376 OA 
HETATM    6  H   UNL     3      -8.943   6.831  64.959  1.00  0.00     0.000 HD 
HETATM    7  C   UNL     3      -9.201   7.468  66.798  1.00  0.00    -0.156 C  
ENDROOT
BRANCH   3   8
HETATM    8  C   UNL     2     -10.216  17.050  68.269  1.00  0.00    -0.326 C  
HETATM    9  O   UNL     2     -11.022  16.975  69.461  1.00  0.00    -0.360 OA 
HETATM   10  H   UNL     2     -11.221  16.067  69.655  1.00  0.00     0.000 HD 
BRANCH   8  11
HETATM   11  C   UNL     2     -10.906  16.338  67.087  1.00  0.00    -0.190 C  
HETATM   12  O   UNL     2     -10.680  17.139  65.924  1.00  0.00    -0.270 OA 
HETATM   13  H   UNL     2     -11.104  16.701  65.196  1.00  0.00     0.000 HD 
BRANCH  11  14
HETATM   14  C   UNL     2     -10.289  14.934  66.928  1.00  0.00    -0.264 C  
HETATM   15  H   UNL     2      -8.736  14.169  65.969  1.00  0.00     0.000 HD 
HETATM   16  O   UNL     2      -9.116  15.034  66.067  1.00  0.00    -0.264 OA 
BRANCH  14  17
HETATM   17  C   UNL     2     -11.220  13.812  66.466  1.00  0.00    -0.312 C  
HETATM   18  C   UNL     2     -12.245  14.376  65.449  1.00  0.00    -0.361 C  
HETATM   19  H   UNL     2     -12.375  12.465  67.317  1.00  0.00     0.000 HD 
HETATM   20  O   UNL     2     -11.796  13.162  67.605  1.00  0.00    -0.354 OA 
HETATM   21  O   UNL     2     -11.667  15.065  64.548  1.00  0.00    -0.416 OA 
HETATM   22  O   UNL     2     -13.435  14.052  65.633  1.00  0.00    -0.604 OA 
ENDBRANCH  14  17
ENDBRANCH  11  14
ENDBRANCH   8  11
ENDBRANCH   3   8
BRANCH   7  23
HETATM   23  C   UNL     3      -9.838   6.910  68.077  1.00  0.00    -0.139 C  
HETATM   24  O   UNL     3     -11.188   7.411  68.163  1.00  0.00    -0.453 OA 
HETATM   25  H   UNL     3     -11.583   7.066  68.955  1.00  0.00     0.000 HD 
BRANCH  23  26
HETATM   26  C   UNL     3      -9.978   5.378  68.172  1.00  0.00    -0.158 C  
HETATM   27  O   UNL     3     -10.742   4.853  67.085  1.00  0.00    -0.116 OA 
HETATM   28  H   UNL     3     -10.828   3.908  67.143  1.00  0.00     0.000 HD 
BRANCH  26  29
HETATM   29  C   UNL     3      -8.697   4.530  68.334  1.00  0.00    -0.099 C  
HETATM   30  O   UNL     3      -8.635   3.443  67.396  1.00  0.00    -0.097 OA 
HETATM   31  H   UNL     3      -7.847   2.921  67.496  1.00  0.00     0.000 HD 
BRANCH  29  32
HETATM   32  C   UNL     3      -8.412   3.966  69.722  1.00  0.00    -0.060 C  
HETATM   33  C   UNL     3      -8.657   4.959  70.871  1.00  0.00    -0.115 C  
HETATM   34  O   UNL     3      -6.976   3.563  69.792  1.00  0.00    -0.040 OA 
HETATM   35  O   UNL     3      -7.572   5.593  71.206  1.00  0.00    -0.094 OA 
HETATM   36  O   UNL     3      -9.675   4.781  71.568  1.00  0.00    -0.156 OA 
HETATM   37  H   UNL     3      -6.798   3.212  70.657  1.00  0.00     0.000 HD 
ENDBRANCH  29  32
ENDBRANCH  26  29
ENDBRANCH  23  26
ENDBRANCH   7  23
TORSDOF 8
ENDMDL
MODEL      365
REMARK 921   NORMALIZED FREE ENERGY PREDICTED BY IDOCK:   -3.22 KCAL/MOL
REMARK 922        TOTAL FREE ENERGY PREDICTED BY IDOCK:   -6.80 KCAL/MOL
REMARK 923 INTER-LIGAND FREE ENERGY PREDICTED BY IDOCK:   -6.67 KCAL/MOL
REMARK 924 INTRA-LIGAND FREE ENERGY PREDICTED BY IDOCK:   -0.13 KCAL/MOL
REMARK 927      BINDING AFFINITY PREDICTED BY RF-SCORE:    0.00 PKD
ROOT
HETATM    1 CU   UNL     1     -10.037  10.869  70.097  1.00  0.00    -0.359 Cu 
HETATM    2  O   UNL     2     -10.006   6.827  74.535  1.00  0.00    -0.419 OA 
HETATM    3  C   UNL     2      -9.082   6.538  73.476  1.00  0.00    -0.126 C  
HETATM    4  H   UNL     2     -10.074   6.042  75.068  1.00  0.00     0.000 HD 
HETATM    5  O   UNL     3     -10.436  12.839  63.073  1.00  0.00    -0.413 OA 
HETATM    6  H   UNL     3     -10.644  11.960  62.778  1.00  0.00     0.000 HD 
HETATM    7  C   UNL     3     -10.661  12.910  64.495  1.00  0.00    -0.382 C  
ENDROOT
BRANCH   3   8
HETATM    8  C   UNL     2      -8.972   7.797  72.621  1.00  0.00    -0.169 C  
HETATM    9  O   UNL     2      -8.350   8.849  73.385  1.00  0.00    -0.297 OA 
HETATM   10  H   UNL     2      -8.282   9.633  72.853  1.00  0.00     0.000 HD 
BRANCH   8  11
HETATM   11  C   UNL     2      -8.211   7.544  71.303  1.00  0.00    -0.100 C  
HETATM   12  O   UNL     2      -7.222   6.548  71.573  1.00  0.00    -0.079 OA 
HETATM   13  H   UNL     2      -6.753   6.392  70.762  1.00  0.00     0.000 HD 
BRANCH  11  14
HETATM   14  C   UNL     2      -9.215   7.061  70.237  1.00  0.00    -0.156 C  
HETATM   15  H   UNL     2     -10.866   5.970  70.239  1.00  0.00     0.000 HD 
HETATM   16  O   UNL     2     -10.247   6.268  70.895  1.00  0.00    -0.186 OA 
BRANCH  14  17
HETATM   17  C   UNL     2      -8.645   6.328  69.023  1.00  0.00    -0.123 C  
HETATM   18  C   UNL     2      -9.808   5.840  68.121  1.00  0.00    -0.135 C  
HETATM   19  H   UNL     2      -7.392   4.845  68.700  1.00  0.00     0.000 HD 
HETATM   20  O   UNL     2      -7.746   5.300  69.455  1.00  0.00    -0.071 OA 
HETATM   21  O   UNL     2     -10.643   6.776  67.900  1.00  0.00    -0.196 OA 
HETATM   22  O   UNL     2      -9.737   4.660  67.726  1.00  0.00    -0.158 OA 
ENDBRANCH  14  17
ENDBRANCH  11  14
ENDBRANCH   8  11
ENDBRANCH   3   8
BRANCH   7  23
HETATM   23  C   UNL     3     -10.326  14.329  64.972  1.00  0.00    -0.421 C  
HETATM   24  O   UNL     3     -11.526  15.126  64.891  1.00  0.00    -0.385 OA 
HETATM   25  H   UNL     3     -11.318  16.005  65.186  1.00  0.00     0.000 HD 
BRANCH  23  26
HETATM   26  C   UNL     3      -9.850  14.477  66.430  1.00  0.00    -0.290 C  
HETATM   27  O   UNL     3      -8.801  13.555  66.736  1.00  0.00    -0.353 OA 
HETATM   28  H   UNL     3      -8.508  13.647  67.636  1.00  0.00     0.000 HD 
BRANCH  26  29
HETATM   29  C   UNL     3      -9.441  15.879  66.934  1.00  0.00    -0.227 C  
HETATM   30  O   UNL     3     -10.484  16.520  67.685  1.00  0.00    -0.291 OA 
HETATM   31  H   UNL     3     -10.231  17.382  67.995  1.00  0.00     0.000 HD 
BRANCH  29  32
HETATM   32  C   UNL     3      -8.941  16.870  65.889  1.00  0.00    -0.040 C  
HETATM   33  C   UNL     3      -7.894  17.869  66.414  1.00  0.00    -0.272 C  
HETATM   34  O   UNL     3     -10.098  17.672  65.393  1.00  0.00    -0.482 OA 
HETATM   35  O   UNL     3      -8.439  18.981  66.811  1.00  0.00    -0.277 OA 
HETATM   36  O   UNL     3      -6.711  17.688  66.065  1.00  0.00    -0.260 OA 
HETATM   37  H   UNL     3      -9.787  18.291  64.742  1.00  0.00     0.000 HD 
ENDBRANCH  29  32
ENDBRANCH  26  29
ENDBRANCH  23  26
ENDBRANCH   7  23
TORSDOF 8
ENDMDL
MODEL      366
REMARK 921   NORMALIZED FREE ENERGY PREDICTED BY IDOCK:   -3.13 KCAL/MOL
REMARK 922        TOTAL FREE ENERGY PREDICTED BY IDOCK:   -6.67 KCAL/MOL
REMARK 923 INTER-LIGAND FREE ENERGY PREDICTED BY IDOCK:   -6.38 KCAL/MOL
REMARK 924 INTRA-LIGAND FREE ENERGY PREDICTED BY IDOCK:   -0.28 KCAL/MOL
REMARK 927      BINDING AFFINITY PREDICTED BY RF-SCORE:    0.00 PKD
ROOT
HETATM    1 CU   UNL     1      -8.676  12.169  68.950  1.00  0.00    -0.148 Cu 
HETATM    2  O   UNL     2      -8.844  17.853  67.028  1.00  0.00    -0.238 OA 
HETATM    3  C   UNL     2      -8.569  16.896  65.995  1.00  0.00    -0.159 C  
HETATM    4  H   UNL     2      -8.645  18.712  66.672  1.00  0.00     0.000 HD 
HETATM    5  O   UNL     3      -5.567   5.587  69.581  1.00  0.00    -0.007 OA 
HETATM    6  H   UNL     3      -4.755   5.867  69.174  1.00  0.00     0.000 HD 
HETATM    7  C   UNL     3      -6.308   6.759  69.978  1.00  0.00    -0.039 C  
ENDROOT
BRANCH   3   8
HETATM    8  C   UNL     2      -8.889  15.517  66.565  1.00  0.00    -0.313 C  
HETATM    9  O   UNL     2      -9.192  15.631  67.970  1.00  0.00    -0.183 OA 
HETATM   10  H   UNL     2      -9.391  14.772  68.325  1.00  0.00     0.000 HD 
BRANCH   8  11
HETATM   11  C   UNL     2     -10.037  14.821  65.805  1.00  0.00    -0.339 C  
HETATM   12  O   UNL     2      -9.579  14.596  64.469  1.00  0.00    -0.285 OA 
HETATM   13  H   UNL     2     -10.286  14.168  64.000  1.00  0.00     0.000 HD 
BRANCH  11  14
HETATM   14  C   UNL     2     -10.368  13.494  66.515  1.00  0.00    -0.282 C  
HETATM   15  H   UNL     2      -9.773  11.613  66.351  1.00  0.00     0.000 HD 
HETATM   16  O   UNL     2      -9.569  12.432  65.914  1.00  0.00    -0.244 OA 
BRANCH  14  17
HETATM   17  C   UNL     2     -11.842  13.096  66.600  1.00  0.00    -0.391 C  
HETATM   18  C   UNL     2     -12.526  13.353  65.232  1.00  0.00    -0.483 C  
HETATM   19  H   UNL     2     -13.373  13.507  67.766  1.00  0.00     0.000 HD 
HETATM   20  O   UNL     2     -12.457  13.754  67.714  1.00  0.00    -0.126 OA 
HETATM   21  O   UNL     2     -11.842  12.863  64.277  1.00  0.00    -0.348 OA 
HETATM   22  O   UNL     2     -13.623  13.944  65.270  1.00  0.00    -0.461 OA 
ENDBRANCH  14  17
ENDBRANCH  11  14
ENDBRANCH   8  11
ENDBRANCH   3   8
BRANCH   7  23
HETATM   23  C   UNL     3      -7.619   6.307  70.635  1.00  0.00    -0.096 C  
HETATM   24  O   UNL     3      -7.313   5.255  71.574  1.00  0.00    -0.081 OA 
HETATM   25  H   UNL     3      -8.125   4.975  71.981  1.00  0.00     0.000 HD 
BRANCH  23  26
HETATM   26  C   UNL     3      -8.383   7.362  71.458  1.00  0.00    -0.108 C  
HETATM   27  O   UNL     3      -7.629   8.570  71.591  1.00  0.00    -0.096 OA 
HETATM   28  H   UNL     3      -8.101   9.221  72.099  1.00  0.00     0.000 HD 
BRANCH  26  29
HETATM   29  C   UNL     3      -9.826   7.721  71.040  1.00  0.00    -0.174 C  
HETATM   30  O   UNL     3      -9.913   9.014  70.419  1.00  0.00    -0.179 OA 
HETATM   31  H   UNL     3     -10.801   9.235  70.162  1.00  0.00     0.000 HD 
BRANCH  29  32
HETATM   32  C   UNL     3     -10.897   7.651  72.123  1.00  0.00    -0.247 C  
HETATM   33  C   UNL     3     -11.943   6.543  71.906  1.00  0.00    -0.341 C  
HETATM   34  O   UNL     3     -11.637   8.948  72.154  1.00  0.00    -0.363 OA 
HETATM   35  O   UNL     3     -12.994   6.981  71.278  1.00  0.00    -0.378 OA 
HETATM   36  O   UNL     3     -11.863   5.536  72.637  1.00  0.00    -0.274 OA 
HETATM   37  H   UNL     3     -12.305   8.904  72.828  1.00  0.00     0.000 HD 
ENDBRANCH  29  32
ENDBRANCH  26  29
ENDBRANCH  23  26
ENDBRANCH   7  23
TORSDOF 8
ENDMDL
MODEL      367
REMARK 921   NORMALIZED FREE ENERGY PREDICTED BY IDOCK:   -3.11 KCAL/MOL
REMARK 922        TOTAL FREE ENERGY PREDICTED BY IDOCK:   -6.63 KCAL/MOL
REMARK 923 INTER-LIGAND FREE ENERGY PREDICTED BY IDOCK:   -6.48 KCAL/MOL
REMARK 924 INTRA-LIGAND FREE ENERGY PREDICTED BY IDOCK:   -0.16 KCAL/MOL
REMARK 927      BINDING AFFINITY PREDICTED BY RF-SCORE:    0.00 PKD
ROOT
HETATM    1 CU   UNL     1      -7.876  13.199  69.075  1.00  0.00    -0.118 Cu 
HETATM    2  O   UNL     2      -9.705   7.486  69.318  1.00  0.00    -0.161 OA 
HETATM    3  C   UNL     2     -10.057   8.161  68.102  1.00  0.00    -0.198 C  
HETATM    4  H   UNL     2     -10.207   6.680  69.346  1.00  0.00     0.000 HD 
HETATM    5  O   UNL     3      -8.939  20.347  67.996  1.00  0.00    -0.174 OA 
HETATM    6  H   UNL     3      -9.880  20.253  67.908  1.00  0.00     0.000 HD 
HETATM    7  C   UNL     3      -8.414  19.151  68.608  1.00  0.00    -0.362 C  
ENDROOT
BRANCH   3   8
HETATM    8  C   UNL     2      -9.249   9.455  68.056  1.00  0.00    -0.130 C  
HETATM    9  O   UNL     2      -9.116   9.895  66.691  1.00  0.00    -0.144 OA 
HETATM   10  H   UNL     2      -8.613  10.701  66.663  1.00  0.00     0.000 HD 
BRANCH   8  11
HETATM   11  C   UNL     2      -9.866  10.560  68.938  1.00  0.00    -0.201 C  
HETATM   12  O   UNL     2      -8.790  11.380  69.400  1.00  0.00    -0.349 OA 
HETATM   13  H   UNL     2      -9.169  12.060  69.943  1.00  0.00     0.000 HD 
BRANCH  11  14
HETATM   14  C   UNL     2     -10.864  11.372  68.088  1.00  0.00    -0.213 C  
HETATM   15  H   UNL     2     -11.931  11.040  66.455  1.00  0.00     0.000 HD 
HETATM   16  O   UNL     2     -11.316  10.540  66.979  1.00  0.00    -0.266 OA 
BRANCH  14  17
HETATM   17  C   UNL     2     -10.406  12.746  67.598  1.00  0.00    -0.221 C  
HETATM   18  C   UNL     2     -11.535  13.781  67.835  1.00  0.00    -0.314 C  
HETATM   19  H   UNL     2      -9.668  13.504  65.939  1.00  0.00     0.000 HD 
HETATM   20  O   UNL     2      -9.952  12.650  66.243  1.00  0.00    -0.248 OA 
HETATM   21  O   UNL     2     -11.988  13.705  69.023  1.00  0.00    -0.334 OA 
HETATM   22  O   UNL     2     -11.798  14.535  66.877  1.00  0.00    -0.392 OA 
ENDBRANCH  14  17
ENDBRANCH  11  14
ENDBRANCH   8  11
ENDBRANCH   3   8
BRANCH   7  23
HETATM   23  C   UNL     3      -6.894  19.302  68.751  1.00  0.00    -0.315 C  
HETATM   24  O   UNL     3      -6.560  19.187  70.150  1.00  0.00    -0.080 OA 
HETATM   25  H   UNL     3      -5.618  19.281  70.238  1.00  0.00     0.000 HD 
BRANCH  23  26
HETATM   26  C   UNL     3      -6.022  18.245  68.046  1.00  0.00    -0.169 C  
HETATM   27  O   UNL     3      -5.168  17.568  68.971  1.00  0.00    -0.153 OA 
HETATM   28  H   UNL     3      -4.631  16.916  68.536  1.00  0.00     0.000 HD 
BRANCH  26  29
HETATM   29  C   UNL     3      -6.715  17.195  67.151  1.00  0.00    -0.176 C  
HETATM   30  O   UNL     3      -5.934  15.999  66.999  1.00  0.00    -0.334 OA 
HETATM   31  H   UNL     3      -6.361  15.353  66.448  1.00  0.00     0.000 HD 
BRANCH  29  32
HETATM   32  C   UNL     3      -7.148  17.649  65.760  1.00  0.00    -0.101 C  
HETATM   33  C   UNL     3      -6.495  18.962  65.292  1.00  0.00    -0.257 C  
HETATM   34  O   UNL     3      -8.624  17.874  65.765  1.00  0.00    -0.503 OA 
HETATM   35  O   UNL     3      -7.235  19.997  65.561  1.00  0.00    -0.317 OA 
HETATM   36  O   UNL     3      -5.602  18.874  64.427  1.00  0.00    -0.248 OA 
HETATM   37  H   UNL     3      -8.893  18.157  64.899  1.00  0.00     0.000 HD 
ENDBRANCH  29  32
ENDBRANCH  26  29
ENDBRANCH  23  26
ENDBRANCH   7  23
TORSDOF 8
ENDMDL
MODEL      368
REMARK 921   NORMALIZED FREE ENERGY PREDICTED BY IDOCK:   -3.09 KCAL/MOL
REMARK 922        TOTAL FREE ENERGY PREDICTED BY IDOCK:   -6.61 KCAL/MOL
REMARK 923 INTER-LIGAND FREE ENERGY PREDICTED BY IDOCK:   -5.96 KCAL/MOL
REMARK 924 INTRA-LIGAND FREE ENERGY PREDICTED BY IDOCK:   -0.65 KCAL/MOL
REMARK 927      BINDING AFFINITY PREDICTED BY RF-SCORE:    0.00 PKD
ROOT
HETATM    1 CU   UNL     1      -8.046  10.362  67.536  1.00  0.00    -0.100 Cu 
HETATM    2  O   UNL     2      -5.844   4.779  67.706  1.00  0.00    -0.020 OA 
HETATM    3  C   UNL     2      -5.200   5.689  68.611  1.00  0.00     0.000 C  
HETATM    4  H   UNL     2      -5.300   4.002  67.658  1.00  0.00     0.000 HD 
HETATM    5  O   UNL     3      -7.391  17.616  66.970  1.00  0.00    -0.177 OA 
HETATM    6  H   UNL     3      -6.464  17.575  66.766  1.00  0.00     0.000 HD 
HETATM    7  C   UNL     3      -7.962  16.307  66.774  1.00  0.00    -0.271 C  
ENDROOT
BRANCH   3   8
HETATM    8  C   UNL     2      -6.074   6.938  68.689  1.00  0.00    -0.026 C  
HETATM    9  O   UNL     2      -6.581   7.257  67.378  1.00  0.00    -0.058 OA 
HETATM   10  H   UNL     2      -7.125   8.035  67.427  1.00  0.00     0.000 HD 
BRANCH   8  11
HETATM   11  C   UNL     2      -7.224   6.783  69.706  1.00  0.00    -0.077 C  
HETATM   12  O   UNL     2      -7.762   8.088  69.933  1.00  0.00    -0.095 OA 
HETATM   13  H   UNL     2      -8.470   7.994  70.559  1.00  0.00     0.000 HD 
BRANCH  11  14
HETATM   14  C   UNL     2      -8.285   5.835  69.113  1.00  0.00    -0.101 C  
HETATM   15  H   UNL     2     -10.021   6.053  68.190  1.00  0.00     0.000 HD 
HETATM   16  O   UNL     2      -9.368   6.637  68.556  1.00  0.00    -0.127 OA 
BRANCH  14  17
HETATM   17  C   UNL     2      -8.826   4.735  70.027  1.00  0.00    -0.086 C  
HETATM   18  C   UNL     2      -8.376   3.351  69.492  1.00  0.00    -0.059 C  
HETATM   19  H   UNL     2     -10.577   4.205  70.753  1.00  0.00     0.000 HD 
HETATM   20  O   UNL     2     -10.241   4.889  70.185  1.00  0.00    -0.260 OA 
HETATM   21  O   UNL     2      -7.129   3.339  69.237  1.00  0.00    -0.044 OA 
HETATM   22  O   UNL     2      -9.261   2.474  69.429  1.00  0.00    -0.112 OA 
ENDBRANCH  14  17
ENDBRANCH  11  14
ENDBRANCH   8  11
ENDBRANCH   3   8
BRANCH   7  23
HETATM   23  C   UNL     3      -9.459  16.373  67.102  1.00  0.00    -0.231 C  
HETATM   24  O   UNL     3      -9.997  17.573  66.510  1.00  0.00    -0.293 OA 
HETATM   25  H   UNL     3     -10.925  17.615  66.714  1.00  0.00     0.000 HD 
BRANCH  23  26
HETATM   26  C   UNL     3     -10.341  15.233  66.557  1.00  0.00    -0.286 C  
HETATM   27  O   UNL     3     -11.709  15.399  66.937  1.00  0.00    -0.098 OA 
HETATM   28  H   UNL     3     -12.252  14.695  66.600  1.00  0.00     0.000 HD 
BRANCH  26  29
HETATM   29  C   UNL     3     -10.281  14.912  65.047  1.00  0.00    -0.330 C  
HETATM   30  O   UNL     3     -10.979  15.883  64.250  1.00  0.00    -0.875 OA 
HETATM   31  H   UNL     3     -10.942  15.685  63.321  1.00  0.00     0.000 HD 
BRANCH  29  32
HETATM   32  C   UNL     3     -10.753  13.528  64.615  1.00  0.00    -0.416 C  
HETATM   33  C   UNL     3     -12.281  13.389  64.495  1.00  0.00    -0.398 C  
HETATM   34  O   UNL     3     -10.302  12.527  65.627  1.00  0.00    -0.261 OA 
HETATM   35  O   UNL     3     -12.815  12.929  65.589  1.00  0.00    -0.468 OA 
HETATM   36  O   UNL     3     -12.760  13.350  63.345  1.00  0.00    -0.687 OA 
HETATM   37  H   UNL     3     -10.596  11.665  65.358  1.00  0.00     0.000 HD 
ENDBRANCH  29  32
ENDBRANCH  26  29
ENDBRANCH  23  26
ENDBRANCH   7  23
TORSDOF 8
ENDMDL
MODEL      369
REMARK 921   NORMALIZED FREE ENERGY PREDICTED BY IDOCK:   -3.08 KCAL/MOL
REMARK 922        TOTAL FREE ENERGY PREDICTED BY IDOCK:   -6.59 KCAL/MOL
REMARK 923 INTER-LIGAND FREE ENERGY PREDICTED BY IDOCK:   -6.11 KCAL/MOL
REMARK 924 INTRA-LIGAND FREE ENERGY PREDICTED BY IDOCK:   -0.48 KCAL/MOL
REMARK 927      BINDING AFFINITY PREDICTED BY RF-SCORE:    0.00 PKD
ROOT
HETATM    1 CU   UNL     1      -7.786  12.087  69.500  1.00  0.00    -0.297 Cu 
HETATM    2  O   UNL     2      -7.323   6.395  71.349  1.00  0.00    -0.081 OA 
HETATM    3  C   UNL     2      -8.358   6.611  70.379  1.00  0.00    -0.127 C  
HETATM    4  H   UNL     2      -7.466   5.533  71.723  1.00  0.00     0.000 HD 
HETATM    5  O   UNL     3     -11.518  18.220  68.142  1.00  0.00     0.265 OA 
HETATM    6  H   UNL     3     -12.318  17.889  68.535  1.00  0.00     0.000 HD 
HETATM    7  C   UNL     3     -10.419  17.392  68.574  1.00  0.00    -0.370 C  
ENDROOT
BRANCH   3   8
HETATM    8  C   UNL     2      -8.127   7.995  69.778  1.00  0.00    -0.115 C  
HETATM    9  O   UNL     2      -8.656   8.036  68.438  1.00  0.00    -0.127 OA 
HETATM   10  H   UNL     2      -8.512   8.897  68.064  1.00  0.00     0.000 HD 
BRANCH   8  11
HETATM   11  C   UNL     2      -8.730   9.118  70.648  1.00  0.00    -0.229 C  
HETATM   12  O   UNL     2      -7.945  10.291  70.422  1.00  0.00    -0.423 OA 
HETATM   13  H   UNL     2      -8.316  10.983  70.957  1.00  0.00     0.000 HD 
BRANCH  11  14
HETATM   14  C   UNL     2     -10.197   9.336  70.226  1.00  0.00    -0.227 C  
HETATM   15  H   UNL     2     -11.129  10.387  68.833  1.00  0.00     0.000 HD 
HETATM   16  O   UNL     2     -10.225  10.253  69.093  1.00  0.00    -0.193 OA 
BRANCH  14  17
HETATM   17  C   UNL     2     -11.178   9.772  71.315  1.00  0.00    -0.347 C  
HETATM   18  C   UNL     2     -11.792   8.519  71.990  1.00  0.00    -0.362 C  
HETATM   19  H   UNL     2     -12.742  10.960  71.444  1.00  0.00     0.000 HD 
HETATM   20  O   UNL     2     -12.132  10.689  70.767  1.00  0.00    -0.311 OA 
HETATM   21  O   UNL     2     -10.888   7.684  72.318  1.00  0.00    -0.234 OA 
HETATM   22  O   UNL     2     -13.029   8.529  72.144  1.00  0.00    -0.342 OA 
ENDBRANCH  14  17
ENDBRANCH  11  14
ENDBRANCH   8  11
ENDBRANCH   3   8
BRANCH   7  23
HETATM   23  C   UNL     3      -9.128  17.926  67.940  1.00  0.00    -0.260 C  
HETATM   24  O   UNL     3      -8.009  17.336  68.634  1.00  0.00    -0.255 OA 
HETATM   25  H   UNL     3      -7.209  17.667  68.242  1.00  0.00     0.000 HD 
BRANCH  23  26
HETATM   26  C   UNL     3      -8.894  17.591  66.455  1.00  0.00    -0.241 C  
HETATM   27  O   UNL     3      -7.551  17.879  66.056  1.00  0.00    -0.415 OA 
HETATM   28  H   UNL     3      -7.408  17.672  65.140  1.00  0.00     0.000 HD 
BRANCH  26  29
HETATM   29  C   UNL     3      -9.269  16.180  65.949  1.00  0.00    -0.261 C  
HETATM   30  O   UNL     3     -10.666  15.889  66.115  1.00  0.00    -0.314 OA 
HETATM   31  H   UNL     3     -10.896  15.021  65.803  1.00  0.00     0.000 HD 
BRANCH  29  32
HETATM   32  C   UNL     3      -8.477  15.008  66.518  1.00  0.00    -0.058 C  
HETATM   33  C   UNL     3      -9.263  14.138  67.514  1.00  0.00    -0.192 C  
HETATM   34  O   UNL     3      -7.287  15.539  67.248  1.00  0.00    -0.191 OA 
HETATM   35  O   UNL     3      -9.070  14.512  68.745  1.00  0.00    -0.190 OA 
HETATM   36  O   UNL     3      -9.647  13.022  67.114  1.00  0.00    -0.217 OA 
HETATM   37  H   UNL     3      -6.794  14.809  67.603  1.00  0.00     0.000 HD 
ENDBRANCH  29  32
ENDBRANCH  26  29
ENDBRANCH  23  26
ENDBRANCH   7  23
TORSDOF 8
ENDMDL
MODEL      370
REMARK 921   NORMALIZED FREE ENERGY PREDICTED BY IDOCK:   -3.07 KCAL/MOL
REMARK 922        TOTAL FREE ENERGY PREDICTED BY IDOCK:   -6.58 KCAL/MOL
REMARK 923 INTER-LIGAND FREE ENERGY PREDICTED BY IDOCK:   -5.76 KCAL/MOL
REMARK 924 INTRA-LIGAND FREE ENERGY PREDICTED BY IDOCK:   -0.83 KCAL/MOL
REMARK 927      BINDING AFFINITY PREDICTED BY RF-SCORE:    0.00 PKD
ROOT
HETATM    1 CU   UNL     1      -7.952  13.392  69.407  1.00  0.00    -0.295 Cu 
HETATM    2  O   UNL     2      -7.609   7.664  71.170  1.00  0.00    -0.077 OA 
HETATM    3  C   UNL     2      -8.951   8.152  71.028  1.00  0.00    -0.151 C  
HETATM    4  H   UNL     2      -7.660   6.841  71.642  1.00  0.00     0.000 HD 
HETATM    5  O   UNL     3     -10.365  20.264  69.992  1.00  0.00    -0.597 OA 
HETATM    6  H   UNL     3     -10.792  20.104  70.827  1.00  0.00     0.000 HD 
HETATM    7  C   UNL     3      -9.435  19.191  69.741  1.00  0.00     0.492 C  
ENDROOT
BRANCH   3   8
HETATM    8  C   UNL     2      -8.870   9.474  70.269  1.00  0.00    -0.243 C  
HETATM    9  O   UNL     2      -7.594  10.096  70.515  1.00  0.00    -0.413 OA 
HETATM   10  H   UNL     2      -7.543  10.919  70.043  1.00  0.00     0.000 HD 
BRANCH   8  11
HETATM   11  C   UNL     2      -9.119   9.297  68.757  1.00  0.00    -0.136 C  
HETATM   12  O   UNL     2      -8.139  10.082  68.074  1.00  0.00    -0.110 OA 
HETATM   13  H   UNL     2      -8.292   9.973  67.143  1.00  0.00     0.000 HD 
BRANCH  11  14
HETATM   14  C   UNL     2      -8.983   7.801  68.406  1.00  0.00    -0.132 C  
HETATM   15  H   UNL     2      -7.497   6.595  67.902  1.00  0.00     0.000 HD 
HETATM   16  O   UNL     2      -7.582   7.516  68.118  1.00  0.00    -0.108 OA 
BRANCH  14  17
HETATM   17  C   UNL     2      -9.895   7.257  67.306  1.00  0.00    -0.171 C  
HETATM   18  C   UNL     2     -10.696   6.047  67.851  1.00  0.00    -0.284 C  
HETATM   19  H   UNL     2      -9.692   6.650  65.445  1.00  0.00     0.000 HD 
HETATM   20  O   UNL     2      -9.125   6.988  66.128  1.00  0.00    -0.162 OA 
HETATM   21  O   UNL     2     -11.232   6.318  68.974  1.00  0.00    -0.375 OA 
HETATM   22  O   UNL     2     -10.731   5.038  67.120  1.00  0.00    -0.126 OA 
ENDBRANCH  14  17
ENDBRANCH  11  14
ENDBRANCH   8  11
ENDBRANCH   3   8
BRANCH   7  23
HETATM   23  C   UNL     3      -8.747  19.447  68.394  1.00  0.00    -0.356 C  
HETATM   24  O   UNL     3      -7.403  19.902  68.655  1.00  0.00    -0.313 OA 
HETATM   25  H   UNL     3      -6.976  20.061  67.821  1.00  0.00     0.000 HD 
BRANCH  23  26
HETATM   26  C   UNL     3      -8.580  18.235  67.457  1.00  0.00    -0.250 C  
HETATM   27  O   UNL     3      -7.230  18.101  67.007  1.00  0.00    -0.194 OA 
HETATM   28  H   UNL     3      -7.128  17.353  66.429  1.00  0.00     0.000 HD 
BRANCH  26  29
HETATM   29  C   UNL     3      -9.081  16.856  67.939  1.00  0.00    -0.233 C  
HETATM   30  O   UNL     3      -8.197  16.254  68.899  1.00  0.00    -0.209 OA 
HETATM   31  H   UNL     3      -8.506  15.405  69.195  1.00  0.00     0.000 HD 
BRANCH  29  32
HETATM   32  C   UNL     3      -9.383  15.816  66.866  1.00  0.00    -0.227 C  
HETATM   33  C   UNL     3     -10.808  15.895  66.290  1.00  0.00    -0.200 C  
HETATM   34  O   UNL     3      -9.228  14.454  67.458  1.00  0.00    -0.189 OA 
HETATM   35  O   UNL     3     -11.627  15.096  66.908  1.00  0.00    -0.285 OA 
HETATM   36  O   UNL     3     -10.931  16.368  65.144  1.00  0.00    -0.414 OA 
HETATM   37  H   UNL     3      -9.416  13.805  66.790  1.00  0.00     0.000 HD 
ENDBRANCH  29  32
ENDBRANCH  26  29
ENDBRANCH  23  26
ENDBRANCH   7  23
TORSDOF 8
ENDMDL
MODEL      371
REMARK 921   NORMALIZED FREE ENERGY PREDICTED BY IDOCK:   -3.06 KCAL/MOL
REMARK 922        TOTAL FREE ENERGY PREDICTED BY IDOCK:   -6.57 KCAL/MOL
REMARK 923 INTER-LIGAND FREE ENERGY PREDICTED BY IDOCK:   -7.29 KCAL/MOL
REMARK 924 INTRA-LIGAND FREE ENERGY PREDICTED BY IDOCK:    0.73 KCAL/MOL
REMARK 927      BINDING AFFINITY PREDICTED BY RF-SCORE:    0.00 PKD
ROOT
HETATM    1 CU   UNL     1      -9.148   8.352  66.414  1.00  0.00    -0.125 Cu 
HETATM    2  O   UNL     2      -8.331   2.422  66.871  1.00  0.00    -0.081 OA 
HETATM    3  C   UNL     2      -8.203   2.928  65.534  1.00  0.00    -0.088 C  
HETATM    4  H   UNL     2      -8.392   1.476  66.807  1.00  0.00     0.000 HD 
HETATM    5  O   UNL     3     -12.224  14.307  63.505  1.00  0.00    -1.015 OA 
HETATM    6  H   UNL     3     -12.834  13.804  62.976  1.00  0.00     0.000 HD 
HETATM    7  C   UNL     3     -11.688  13.444  64.529  1.00  0.00    -0.384 C  
ENDROOT
BRANCH   3   8
HETATM    8  C   UNL     2      -8.103   4.448  65.637  1.00  0.00    -0.105 C  
HETATM    9  O   UNL     2      -9.122   5.056  64.820  1.00  0.00    -0.254 OA 
HETATM   10  H   UNL     2      -9.060   6.002  64.884  1.00  0.00     0.000 HD 
BRANCH   8  11
HETATM   11  C   UNL     2      -8.192   4.942  67.096  1.00  0.00    -0.106 C  
HETATM   12  O   UNL     2      -7.638   6.260  67.127  1.00  0.00    -0.092 OA 
HETATM   13  H   UNL     2      -7.693   6.564  68.025  1.00  0.00     0.000 HD 
BRANCH  11  14
HETATM   14  C   UNL     2      -9.672   4.945  67.527  1.00  0.00    -0.164 C  
HETATM   15  H   UNL     2     -11.410   4.644  66.630  1.00  0.00     0.000 HD 
HETATM   16  O   UNL     2     -10.498   4.642  66.364  1.00  0.00    -0.268 OA 
BRANCH  14  17
HETATM   17  C   UNL     2     -10.182   6.187  68.259  1.00  0.00    -0.175 C  
HETATM   18  C   UNL     2     -10.886   5.760  69.573  1.00  0.00    -0.340 C  
HETATM   19  H   UNL     2     -11.304   7.746  67.829  1.00  0.00     0.000 HD 
HETATM   20  O   UNL     2     -10.987   6.974  67.374  1.00  0.00    -0.292 OA 
HETATM   21  O   UNL     2     -10.167   4.945  70.236  1.00  0.00    -0.252 OA 
HETATM   22  O   UNL     2     -11.993   6.288  69.799  1.00  0.00    -0.185 OA 
ENDBRANCH  14  17
ENDBRANCH  11  14
ENDBRANCH   8  11
ENDBRANCH   3   8
BRANCH   7  23
HETATM   23  C   UNL     3     -10.704  14.254  65.383  1.00  0.00    -0.343 C  
HETATM   24  O   UNL     3      -9.854  15.010  64.495  1.00  0.00    -0.334 OA 
HETATM   25  H   UNL     3      -9.244  15.512  65.024  1.00  0.00     0.000 HD 
BRANCH  23  26
HETATM   26  C   UNL     3     -11.312  15.302  66.336  1.00  0.00    -0.161 C  
HETATM   27  O   UNL     3     -10.932  15.060  67.693  1.00  0.00    -0.286 OA 
HETATM   28  H   UNL     3     -11.307  15.706  68.280  1.00  0.00     0.000 HD 
BRANCH  26  29
HETATM   29  C   UNL     3     -11.098  16.798  66.021  1.00  0.00     0.285 C  
HETATM   30  O   UNL     3     -10.946  17.049  64.614  1.00  0.00    -0.968 OA 
HETATM   31  H   UNL     3     -10.815  17.969  64.420  1.00  0.00     0.000 HD 
BRANCH  29  32
HETATM   32  C   UNL     3      -9.956  17.502  66.745  1.00  0.00    -0.313 C  
HETATM   33  C   UNL     3      -8.553  17.055  66.298  1.00  0.00    -0.262 C  
HETATM   34  O   UNL     3     -10.060  17.211  68.206  1.00  0.00    -0.279 OA 
HETATM   35  O   UNL     3      -8.081  16.105  67.051  1.00  0.00    -0.169 OA 
HETATM   36  O   UNL     3      -7.906  17.846  65.584  1.00  0.00    -0.534 OA 
HETATM   37  H   UNL     3      -9.349  17.649  68.658  1.00  0.00     0.000 HD 
ENDBRANCH  29  32
ENDBRANCH  26  29
ENDBRANCH  23  26
ENDBRANCH   7  23
TORSDOF 8
ENDMDL
MODEL      372
REMARK 921   NORMALIZED FREE ENERGY PREDICTED BY IDOCK:   -3.05 KCAL/MOL
REMARK 922        TOTAL FREE ENERGY PREDICTED BY IDOCK:   -6.55 KCAL/MOL
REMARK 923 INTER-LIGAND FREE ENERGY PREDICTED BY IDOCK:   -6.20 KCAL/MOL
REMARK 924 INTRA-LIGAND FREE ENERGY PREDICTED BY IDOCK:   -0.35 KCAL/MOL
REMARK 927      BINDING AFFINITY PREDICTED BY RF-SCORE:    0.00 PKD
ROOT
HETATM    1 CU   UNL     1      -9.201  11.499  68.119  1.00  0.00    -0.139 Cu 
HETATM    2  O   UNL     2      -7.830   5.760  69.222  1.00  0.00    -0.087 OA 
HETATM    3  C   UNL     2      -6.948   6.702  69.850  1.00  0.00    -0.063 C  
HETATM    4  H   UNL     2      -7.415   4.907  69.282  1.00  0.00     0.000 HD 
HETATM    5  O   UNL     3      -7.580  18.301  66.001  1.00  0.00    -0.389 OA 
HETATM    6  H   UNL     3      -6.703  18.067  65.719  1.00  0.00     0.000 HD 
HETATM    7  C   UNL     3      -8.355  17.093  66.138  1.00  0.00    -0.223 C  
ENDROOT
BRANCH   3   8
HETATM    8  C   UNL     2      -7.614   8.072  69.755  1.00  0.00    -0.092 C  
HETATM    9  O   UNL     2      -8.242   8.217  68.466  1.00  0.00    -0.122 OA 
HETATM   10  H   UNL     2      -8.656   9.070  68.406  1.00  0.00     0.000 HD 
BRANCH   8  11
HETATM   11  C   UNL     2      -8.625   8.311  70.895  1.00  0.00    -0.137 C  
HETATM   12  O   UNL     2      -8.146   9.423  71.656  1.00  0.00    -0.251 OA 
HETATM   13  H   UNL     2      -8.768   9.570  72.358  1.00  0.00     0.000 HD 
BRANCH  11  14
HETATM   14  C   UNL     2     -10.006   8.610  70.277  1.00  0.00    -0.186 C  
HETATM   15  H   UNL     2     -11.450   9.922  70.605  1.00  0.00     0.000 HD 
HETATM   16  O   UNL     2     -10.600   9.737  70.985  1.00  0.00    -0.314 OA 
BRANCH  14  17
HETATM   17  C   UNL     2     -10.989   7.444  70.170  1.00  0.00    -0.255 C  
HETATM   18  C   UNL     2     -10.820   6.511  71.396  1.00  0.00    -0.245 C  
HETATM   19  H   UNL     2     -11.451   6.076  68.832  1.00  0.00     0.000 HD 
HETATM   20  O   UNL     2     -10.840   6.800  68.898  1.00  0.00    -0.237 OA 
HETATM   21  O   UNL     2     -10.816   7.174  72.482  1.00  0.00    -0.235 OA 
HETATM   22  O   UNL     2     -10.754   5.290  71.151  1.00  0.00    -0.206 OA 
ENDBRANCH  14  17
ENDBRANCH  11  14
ENDBRANCH   8  11
ENDBRANCH   3   8
BRANCH   7  23
HETATM   23  C   UNL     3      -9.771  17.471  66.592  1.00  0.00    -0.299 C  
HETATM   24  O   UNL     3     -10.561  17.751  65.418  1.00  0.00    -0.659 OA 
HETATM   25  H   UNL     3     -11.438  17.985  65.699  1.00  0.00     0.000 HD 
BRANCH  23  26
HETATM   26  C   UNL     3     -10.565  16.394  67.357  1.00  0.00    -0.306 C  
HETATM   27  O   UNL     3     -10.879  15.279  66.519  1.00  0.00    -0.310 OA 
HETATM   28  H   UNL     3     -11.369  14.616  66.991  1.00  0.00     0.000 HD 
BRANCH  26  29
HETATM   29  C   UNL     3      -9.996  15.867  68.692  1.00  0.00    -0.214 C  
HETATM   30  O   UNL     3      -8.775  16.523  69.068  1.00  0.00    -0.251 OA 
HETATM   31  H   UNL     3      -8.425  16.198  69.889  1.00  0.00     0.000 HD 
BRANCH  29  32
HETATM   32  C   UNL     3      -9.769  14.363  68.801  1.00  0.00    -0.190 C  
HETATM   33  C   UNL     3      -8.678  13.818  67.863  1.00  0.00    -0.183 C  
HETATM   34  O   UNL     3     -11.038  13.658  68.450  1.00  0.00    -0.243 OA 
HETATM   35  O   UNL     3      -9.173  13.385  66.740  1.00  0.00    -0.242 OA 
HETATM   36  O   UNL     3      -7.589  13.503  68.381  1.00  0.00    -0.119 OA 
HETATM   37  H   UNL     3     -10.897  12.720  68.518  1.00  0.00     0.000 HD 
ENDBRANCH  29  32
ENDBRANCH  26  29
ENDBRANCH  23  26
ENDBRANCH   7  23
TORSDOF 8
ENDMDL
MODEL      373
REMARK 921   NORMALIZED FREE ENERGY PREDICTED BY IDOCK:   -3.05 KCAL/MOL
REMARK 922        TOTAL FREE ENERGY PREDICTED BY IDOCK:   -6.55 KCAL/MOL
REMARK 923 INTER-LIGAND FREE ENERGY PREDICTED BY IDOCK:   -6.12 KCAL/MOL
REMARK 924 INTRA-LIGAND FREE ENERGY PREDICTED BY IDOCK:   -0.43 KCAL/MOL
REMARK 927      BINDING AFFINITY PREDICTED BY RF-SCORE:    0.00 PKD
ROOT
HETATM    1 CU   UNL     1      -7.723  14.069  66.304  1.00  0.00    -0.304 Cu 
HETATM    2  O   UNL     2      -6.131  19.361  63.958  1.00  0.00    -0.413 OA 
HETATM    3  C   UNL     2      -6.368  19.397  65.373  1.00  0.00    -0.261 C  
HETATM    4  H   UNL     2      -6.094  20.262  63.659  1.00  0.00     0.000 HD 
HETATM    5  O   UNL     3     -12.054   9.739  70.288  1.00  0.00    -0.447 OA 
HETATM    6  H   UNL     3     -12.703  10.419  70.428  1.00  0.00     0.000 HD 
HETATM    7  C   UNL     3     -11.203  10.136  69.194  1.00  0.00    -0.183 C  
ENDROOT
BRANCH   3   8
HETATM    8  C   UNL     2      -6.427  17.949  65.855  1.00  0.00    -0.259 C  
HETATM    9  O   UNL     2      -5.302  17.678  66.713  1.00  0.00    -0.129 OA 
HETATM   10  H   UNL     2      -5.339  16.777  67.013  1.00  0.00     0.000 HD 
BRANCH   8  11
HETATM   11  C   UNL     2      -7.758  17.624  66.563  1.00  0.00    -0.270 C  
HETATM   12  O   UNL     2      -8.566  16.902  65.630  1.00  0.00    -0.443 OA 
HETATM   13  H   UNL     2      -9.385  16.701  66.066  1.00  0.00     0.000 HD 
BRANCH  11  14
HETATM   14  C   UNL     2      -7.457  16.777  67.816  1.00  0.00    -0.163 C  
HETATM   15  H   UNL     2      -6.591  15.033  68.172  1.00  0.00     0.000 HD 
HETATM   16  O   UNL     2      -6.777  15.555  67.400  1.00  0.00    -0.177 OA 
BRANCH  14  17
HETATM   17  C   UNL     2      -8.629  16.467  68.748  1.00  0.00    -0.262 C  
HETATM   18  C   UNL     2      -8.871  14.936  68.784  1.00  0.00    -0.183 C  
HETATM   19  H   UNL     2     -10.497  17.056  68.946  1.00  0.00     0.000 HD 
HETATM   20  O   UNL     2      -9.769  17.248  68.367  1.00  0.00    -0.268 OA 
HETATM   21  O   UNL     2      -7.784  14.304  68.981  1.00  0.00    -0.125 OA 
HETATM   22  O   UNL     2     -10.054  14.565  68.658  1.00  0.00    -0.233 OA 
ENDBRANCH  14  17
ENDBRANCH  11  14
ENDBRANCH   8  11
ENDBRANCH   3   8
BRANCH   7  23
HETATM   23  C   UNL     3     -10.155   9.038  68.968  1.00  0.00    -0.195 C  
HETATM   24  O   UNL     3      -9.625   9.189  67.635  1.00  0.00    -0.144 OA 
HETATM   25  H   UNL     3      -8.976   8.509  67.495  1.00  0.00     0.000 HD 
BRANCH  23  26
HETATM   26  C   UNL     3      -8.920   9.058  69.890  1.00  0.00    -0.164 C  
HETATM   27  O   UNL     3      -8.507  10.394  70.186  1.00  0.00    -0.324 OA 
HETATM   28  H   UNL     3      -7.746  10.406  70.754  1.00  0.00     0.000 HD 
BRANCH  26  29
HETATM   29  C   UNL     3      -8.969   8.252  71.206  1.00  0.00    -0.160 C  
HETATM   30  O   UNL     3     -10.063   8.642  72.051  1.00  0.00    -0.286 OA 
HETATM   31  H   UNL     3     -10.093   8.146  72.861  1.00  0.00     0.000 HD 
BRANCH  29  32
HETATM   32  C   UNL     3      -7.703   8.239  72.057  1.00  0.00    -0.119 C  
HETATM   33  C   UNL     3      -7.013   6.867  72.145  1.00  0.00    -0.066 C  
HETATM   34  O   UNL     3      -8.057   8.639  73.452  1.00  0.00    -0.411 OA 
HETATM   35  O   UNL     3      -7.395   6.196  73.191  1.00  0.00    -0.091 OA 
HETATM   36  O   UNL     3      -5.962   6.717  71.492  1.00  0.00    -0.036 OA 
HETATM   37  H   UNL     3      -7.269   8.631  73.982  1.00  0.00     0.000 HD 
ENDBRANCH  29  32
ENDBRANCH  26  29
ENDBRANCH  23  26
ENDBRANCH   7  23
TORSDOF 8
ENDMDL
MODEL      374
REMARK 921   NORMALIZED FREE ENERGY PREDICTED BY IDOCK:   -2.99 KCAL/MOL
REMARK 922        TOTAL FREE ENERGY PREDICTED BY IDOCK:   -6.46 KCAL/MOL
REMARK 923 INTER-LIGAND FREE ENERGY PREDICTED BY IDOCK:   -5.26 KCAL/MOL
REMARK 924 INTRA-LIGAND FREE ENERGY PREDICTED BY IDOCK:   -1.20 KCAL/MOL
REMARK 927      BINDING AFFINITY PREDICTED BY RF-SCORE:    0.00 PKD
ROOT
HETATM    1 CU   UNL     1      -9.730  11.837  68.677  1.00  0.00    -0.164 Cu 
HETATM    2  O   UNL     2     -11.788  14.946  73.382  1.00  0.00    -0.278 OA 
HETATM    3  C   UNL     2     -11.620  15.730  72.193  1.00  0.00    -0.436 C  
HETATM    4  H   UNL     2     -11.911  15.553  74.103  1.00  0.00     0.000 HD 
HETATM    5  O   UNL     3      -5.130  10.708  63.115  1.00  0.00    -0.140 OA 
HETATM    6  H   UNL     3      -4.566  11.433  63.357  1.00  0.00     0.000 HD 
HETATM    7  C   UNL     3      -5.970  10.384  64.241  1.00  0.00    -0.101 C  
ENDROOT
BRANCH   3   8
HETATM    8  C   UNL     2     -11.423  14.754  71.036  1.00  0.00    -0.216 C  
HETATM    9  O   UNL     2     -11.976  13.470  71.386  1.00  0.00    -0.319 OA 
HETATM   10  H   UNL     2     -11.853  12.863  70.665  1.00  0.00     0.000 HD 
BRANCH   8  11
HETATM   11  C   UNL     2     -12.030  15.280  69.719  1.00  0.00    -0.347 C  
HETATM   12  O   UNL     2     -13.100  16.160  70.070  1.00  0.00    -0.497 OA 
HETATM   13  H   UNL     2     -13.474  16.484  69.260  1.00  0.00     0.000 HD 
BRANCH  11  14
HETATM   14  C   UNL     2     -10.931  16.021  68.930  1.00  0.00    -0.309 C  
HETATM   15  H   UNL     2     -10.733  16.710  67.085  1.00  0.00     0.000 HD 
HETATM   16  O   UNL     2     -11.409  16.253  67.572  1.00  0.00    -0.132 OA 
BRANCH  14  17
HETATM   17  C   UNL     2      -9.535  15.400  68.926  1.00  0.00    -0.219 C  
HETATM   18  C   UNL     2      -8.528  16.395  68.295  1.00  0.00    -0.195 C  
HETATM   19  H   UNL     2      -8.712  13.725  68.299  1.00  0.00     0.000 HD 
HETATM   20  O   UNL     2      -9.580  14.111  68.302  1.00  0.00    -0.214 OA 
HETATM   21  O   UNL     2      -8.649  17.556  68.802  1.00  0.00    -0.272 OA 
HETATM   22  O   UNL     2      -7.749  15.921  67.444  1.00  0.00    -0.144 OA 
ENDBRANCH  14  17
ENDBRANCH  11  14
ENDBRANCH   8  11
ENDBRANCH   3   8
BRANCH   7  23
HETATM   23  C   UNL     3      -6.880   9.212  63.849  1.00  0.00    -0.089 C  
HETATM   24  O   UNL     3      -6.056   8.170  63.287  1.00  0.00    -0.071 OA 
HETATM   25  H   UNL     3      -6.620   7.445  63.044  1.00  0.00     0.000 HD 
BRANCH  23  26
HETATM   26  C   UNL     3      -7.661   8.529  64.988  1.00  0.00    -0.102 C  
HETATM   27  O   UNL     3      -8.592   7.568  64.484  1.00  0.00    -0.371 OA 
HETATM   28  H   UNL     3      -9.074   7.147  65.187  1.00  0.00     0.000 HD 
BRANCH  26  29
HETATM   29  C   UNL     3      -6.866   7.888  66.147  1.00  0.00    -0.058 C  
HETATM   30  O   UNL     3      -7.102   6.475  66.261  1.00  0.00    -0.064 OA 
HETATM   31  H   UNL     3      -6.612   6.082  66.974  1.00  0.00     0.000 HD 
BRANCH  29  32
HETATM   32  C   UNL     3      -7.043   8.504  67.531  1.00  0.00    -0.080 C  
HETATM   33  C   UNL     3      -8.016   7.738  68.445  1.00  0.00    -0.122 C  
HETATM   34  O   UNL     3      -7.586   9.886  67.377  1.00  0.00    -0.091 OA 
HETATM   35  O   UNL     3      -9.224   8.215  68.379  1.00  0.00    -0.136 OA 
HETATM   36  O   UNL     3      -7.517   7.066  69.368  1.00  0.00    -0.092 OA 
HETATM   37  H   UNL     3      -7.697  10.270  68.239  1.00  0.00     0.000 HD 
ENDBRANCH  29  32
ENDBRANCH  26  29
ENDBRANCH  23  26
ENDBRANCH   7  23
TORSDOF 8
ENDMDL
MODEL      375
REMARK 921   NORMALIZED FREE ENERGY PREDICTED BY IDOCK:   -2.96 KCAL/MOL
REMARK 922        TOTAL FREE ENERGY PREDICTED BY IDOCK:   -6.42 KCAL/MOL
REMARK 923 INTER-LIGAND FREE ENERGY PREDICTED BY IDOCK:   -5.18 KCAL/MOL
REMARK 924 INTRA-LIGAND FREE ENERGY PREDICTED BY IDOCK:   -1.23 KCAL/MOL
REMARK 927      BINDING AFFINITY PREDICTED BY RF-SCORE:    0.00 PKD
ROOT
HETATM    1 CU   UNL     1      -7.191   9.921  68.294  1.00  0.00    -0.069 Cu 
HETATM    2  O   UNL     2      -5.814  15.691  67.371  1.00  0.00    -0.288 OA 
HETATM    3  C   UNL     2      -7.188  15.369  67.111  1.00  0.00    -0.144 C  
HETATM    4  H   UNL     2      -5.654  16.552  67.004  1.00  0.00     0.000 HD 
HETATM    5  O   UNL     3     -10.047   3.498  66.301  1.00  0.00    -0.397 OA 
HETATM    6  H   UNL     3     -10.218   3.784  65.411  1.00  0.00     0.000 HD 
HETATM    7  C   UNL     3      -9.112   4.415  66.905  1.00  0.00    -0.129 C  
ENDROOT
BRANCH   3   8
HETATM    8  C   UNL     2      -7.445  13.986  67.702  1.00  0.00    -0.174 C  
HETATM    9  O   UNL     2      -8.134  14.117  68.961  1.00  0.00    -0.294 OA 
HETATM   10  H   UNL     2      -8.294  13.255  69.329  1.00  0.00     0.000 HD 
BRANCH   8  11
HETATM   11  C   UNL     2      -8.225  13.072  66.734  1.00  0.00     0.124 C  
HETATM   12  O   UNL     2      -7.582  11.796  66.751  1.00  0.00    -0.250 OA 
HETATM   13  H   UNL     2      -8.062  11.233  66.155  1.00  0.00     0.000 HD 
BRANCH  11  14
HETATM   14  C   UNL     2      -9.685  12.970  67.219  1.00  0.00    -0.225 C  
HETATM   15  H   UNL     2     -10.666  11.867  68.537  1.00  0.00     0.000 HD 
HETATM   16  O   UNL     2      -9.766  11.930  68.238  1.00  0.00    -0.192 OA 
BRANCH  14  17
HETATM   17  C   UNL     2     -10.763  12.784  66.152  1.00  0.00    -0.275 C  
HETATM   18  C   UNL     2     -11.550  14.108  65.974  1.00  0.00    -0.361 C  
HETATM   19  H   UNL     2     -12.239  11.528  65.808  1.00  0.00     0.000 HD 
HETATM   20  O   UNL     2     -11.569  11.643  66.471  1.00  0.00    -0.473 OA 
HETATM   21  O   UNL     2     -10.760  15.098  65.841  1.00  0.00    -0.310 OA 
HETATM   22  O   UNL     2     -12.792  14.009  65.949  1.00  0.00    -0.484 OA 
ENDBRANCH  14  17
ENDBRANCH  11  14
ENDBRANCH   8  11
ENDBRANCH   3   8
BRANCH   7  23
HETATM   23  C   UNL     3      -8.835   3.953  68.342  1.00  0.00    -0.110 C  
HETATM   24  O   UNL     3      -7.435   3.622  68.446  1.00  0.00    -0.054 OA 
HETATM   25  H   UNL     3      -7.263   3.335  69.336  1.00  0.00     0.000 HD 
BRANCH  23  26
HETATM   26  C   UNL     3      -9.083   4.981  69.462  1.00  0.00    -0.109 C  
HETATM   27  O   UNL     3      -9.614   6.204  68.944  1.00  0.00    -0.128 OA 
HETATM   28  H   UNL     3      -9.767   6.838  69.636  1.00  0.00     0.000 HD 
BRANCH  26  29
HETATM   29  C   UNL     3      -9.926   4.553  70.683  1.00  0.00    -0.203 C  
HETATM   30  O   UNL     3     -10.593   5.662  71.309  1.00  0.00    -0.242 OA 
HETATM   31  H   UNL     3     -11.111   5.398  72.060  1.00  0.00     0.000 HD 
BRANCH  29  32
HETATM   32  C   UNL     3      -9.212   3.763  71.774  1.00  0.00    -0.118 C  
HETATM   33  C   UNL     3      -7.732   4.141  71.964  1.00  0.00    -0.076 C  
HETATM   34  O   UNL     3      -9.249   2.312  71.421  1.00  0.00    -0.087 OA 
HETATM   35  O   UNL     3      -6.941   3.375  71.272  1.00  0.00    -0.031 OA 
HETATM   36  O   UNL     3      -7.443   4.813  72.973  1.00  0.00    -0.086 OA 
HETATM   37  H   UNL     3      -8.804   1.820  72.101  1.00  0.00     0.000 HD 
ENDBRANCH  29  32
ENDBRANCH  26  29
ENDBRANCH  23  26
ENDBRANCH   7  23
TORSDOF 8
ENDMDL
MODEL      376
REMARK 921   NORMALIZED FREE ENERGY PREDICTED BY IDOCK:   -2.89 KCAL/MOL
REMARK 922        TOTAL FREE ENERGY PREDICTED BY IDOCK:   -6.31 KCAL/MOL
REMARK 923 INTER-LIGAND FREE ENERGY PREDICTED BY IDOCK:   -5.51 KCAL/MOL
REMARK 924 INTRA-LIGAND FREE ENERGY PREDICTED BY IDOCK:   -0.81 KCAL/MOL
REMARK 927      BINDING AFFINITY PREDICTED BY RF-SCORE:    0.00 PKD
ROOT
HETATM    1 CU   UNL     1      -8.142   7.692  64.844  1.00  0.00    -0.093 Cu 
HETATM    2  O   UNL     2      -6.554   1.917  65.254  1.00  0.00    -0.026 OA 
HETATM    3  C   UNL     2      -7.069   2.291  63.968  1.00  0.00    -0.044 C  
HETATM    4  H   UNL     2      -6.532   0.967  65.280  1.00  0.00     0.000 HD 
HETATM    5  O   UNL     3     -12.810  13.073  63.218  1.00  0.00    -0.596 OA 
HETATM    6  H   UNL     3     -13.527  12.475  63.039  1.00  0.00     0.000 HD 
HETATM    7  C   UNL     3     -11.794  12.361  63.954  1.00  0.00    -0.466 C  
ENDROOT
BRANCH   3   8
HETATM    8  C   UNL     2      -7.104   3.817  63.925  1.00  0.00    -0.050 C  
HETATM    9  O   UNL     2      -6.990   4.266  62.561  1.00  0.00    -0.030 OA 
HETATM   10  H   UNL     2      -7.012   5.216  62.534  1.00  0.00     0.000 HD 
BRANCH   8  11
HETATM   11  C   UNL     2      -8.370   4.390  64.595  1.00  0.00    -0.110 C  
HETATM   12  O   UNL     2      -9.492   3.712  64.024  1.00  0.00    -0.129 OA 
HETATM   13  H   UNL     2     -10.271   4.065  64.436  1.00  0.00     0.000 HD 
BRANCH  11  14
HETATM   14  C   UNL     2      -8.280   4.143  66.114  1.00  0.00    -0.105 C  
HETATM   15  H   UNL     2      -9.093   2.869  67.392  1.00  0.00     0.000 HD 
HETATM   16  O   UNL     2      -9.147   3.022  66.456  1.00  0.00    -0.148 OA 
BRANCH  14  17
HETATM   17  C   UNL     2      -8.536   5.340  67.031  1.00  0.00    -0.106 C  
HETATM   18  C   UNL     2      -9.818   6.079  66.571  1.00  0.00    -0.145 C  
HETATM   19  H   UNL     2      -7.520   6.900  67.670  1.00  0.00     0.000 HD 
HETATM   20  O   UNL     2      -7.361   6.156  67.100  1.00  0.00    -0.074 OA 
HETATM   21  O   UNL     2     -10.780   5.265  66.390  1.00  0.00    -0.307 OA 
HETATM   22  O   UNL     2      -9.734   7.321  66.486  1.00  0.00    -0.186 OA 
ENDBRANCH  14  17
ENDBRANCH  11  14
ENDBRANCH   8  11
ENDBRANCH   3   8
BRANCH   7  23
HETATM   23  C   UNL     3     -10.636  13.326  64.243  1.00  0.00    -0.384 C  
HETATM   24  O   UNL     3     -11.102  14.671  64.011  1.00  0.00    -0.481 OA 
HETATM   25  H   UNL     3     -10.385  15.268  64.190  1.00  0.00     0.000 HD 
BRANCH  23  26
HETATM   26  C   UNL     3     -10.087  13.339  65.682  1.00  0.00    -0.272 C  
HETATM   27  O   UNL     3     -10.810  14.252  66.511  1.00  0.00    -0.297 OA 
HETATM   28  H   UNL     3     -10.471  14.260  67.399  1.00  0.00     0.000 HD 
BRANCH  26  29
HETATM   29  C   UNL     3      -9.945  11.996  66.431  1.00  0.00    -0.219 C  
HETATM   30  O   UNL     3     -11.200  11.513  66.938  1.00  0.00    -0.299 OA 
HETATM   31  H   UNL     3     -11.113  10.687  67.398  1.00  0.00     0.000 HD 
BRANCH  29  32
HETATM   32  C   UNL     3      -8.930  11.940  67.568  1.00  0.00    -0.171 C  
HETATM   33  C   UNL     3      -8.518  10.516  67.979  1.00  0.00    -0.120 C  
HETATM   34  O   UNL     3      -9.523  12.589  68.775  1.00  0.00    -0.403 OA 
HETATM   35  O   UNL     3      -9.238  10.067  68.966  1.00  0.00    -0.158 OA 
HETATM   36  O   UNL     3      -7.385  10.130  67.632  1.00  0.00    -0.087 OA 
HETATM   37  H   UNL     3      -8.891  12.554  69.483  1.00  0.00     0.000 HD 
ENDBRANCH  29  32
ENDBRANCH  26  29
ENDBRANCH  23  26
ENDBRANCH   7  23
TORSDOF 8
ENDMDL
MODEL      377
REMARK 921   NORMALIZED FREE ENERGY PREDICTED BY IDOCK:   -2.87 KCAL/MOL
REMARK 922        TOTAL FREE ENERGY PREDICTED BY IDOCK:   -6.29 KCAL/MOL
REMARK 923 INTER-LIGAND FREE ENERGY PREDICTED BY IDOCK:   -6.14 KCAL/MOL
REMARK 924 INTRA-LIGAND FREE ENERGY PREDICTED BY IDOCK:   -0.15 KCAL/MOL
REMARK 927      BINDING AFFINITY PREDICTED BY RF-SCORE:    0.00 PKD
ROOT
HETATM    1 CU   UNL     1      -9.322  10.879  68.550  1.00  0.00    -0.133 Cu 
HETATM    2  O   UNL     2      -9.139  16.201  65.778  1.00  0.00    -0.398 OA 
HETATM    3  C   UNL     2     -10.274  15.398  65.425  1.00  0.00    -0.377 C  
HETATM    4  H   UNL     2      -9.092  16.910  65.147  1.00  0.00     0.000 HD 
HETATM    5  O   UNL     3      -9.936   3.600  68.659  1.00  0.00     0.051 OA 
HETATM    6  H   UNL     3      -9.920   3.526  67.712  1.00  0.00     0.000 HD 
HETATM    7  C   UNL     3      -9.444   4.905  69.025  1.00  0.00    -0.144 C  
ENDROOT
BRANCH   3   8
HETATM    8  C   UNL     2     -10.351  14.259  66.440  1.00  0.00    -0.286 C  
HETATM    9  O   UNL     2      -9.450  13.204  66.052  1.00  0.00    -0.431 OA 
HETATM   10  H   UNL     2      -9.498  12.495  66.683  1.00  0.00     0.000 HD 
BRANCH   8  11
HETATM   11  C   UNL     2     -10.062  14.737  67.877  1.00  0.00    -0.221 C  
HETATM   12  O   UNL     2      -9.799  16.141  67.809  1.00  0.00    -0.228 OA 
HETATM   13  H   UNL     2      -9.621  16.436  68.694  1.00  0.00     0.000 HD 
BRANCH  11  14
HETATM   14  C   UNL     2     -11.294  14.440  68.754  1.00  0.00    -0.273 C  
HETATM   15  H   UNL     2     -13.257  14.523  68.513  1.00  0.00     0.000 HD 
HETATM   16  O   UNL     2     -12.497  14.706  67.973  1.00  0.00    -0.032 OA 
BRANCH  14  17
HETATM   17  C   UNL     2     -11.360  15.124  70.120  1.00  0.00    -0.271 C  
HETATM   18  C   UNL     2     -12.705  14.777  70.808  1.00  0.00    -0.362 C  
HETATM   19  H   UNL     2     -11.144  16.951  70.821  1.00  0.00     0.000 HD 
HETATM   20  O   UNL     2     -11.103  16.526  69.972  1.00  0.00    -0.345 OA 
HETATM   21  O   UNL     2     -12.932  13.525  70.770  1.00  0.00    -0.215 OA 
HETATM   22  O   UNL     2     -13.325  15.733  71.314  1.00  0.00    -0.532 OA 
ENDBRANCH  14  17
ENDBRANCH  11  14
ENDBRANCH   8  11
ENDBRANCH   3   8
BRANCH   7  23
HETATM   23  C   UNL     3      -9.470   5.024  70.555  1.00  0.00    -0.173 C  
HETATM   24  O   UNL     3      -8.183   4.611  71.059  1.00  0.00    -0.087 OA 
HETATM   25  H   UNL     3      -8.198   4.685  72.007  1.00  0.00     0.000 HD 
BRANCH  23  26
HETATM   26  C   UNL     3      -9.690   6.434  71.138  1.00  0.00    -0.175 C  
HETATM   27  O   UNL     3     -11.038   6.613  71.582  1.00  0.00    -0.234 OA 
HETATM   28  H   UNL     3     -11.173   7.482  71.941  1.00  0.00     0.000 HD 
BRANCH  26  29
HETATM   29  C   UNL     3      -8.734   6.933  72.242  1.00  0.00    -0.126 C  
HETATM   30  O   UNL     3      -9.011   6.339  73.521  1.00  0.00    -0.125 OA 
HETATM   31  H   UNL     3      -8.422   6.647  74.200  1.00  0.00     0.000 HD 
BRANCH  29  32
HETATM   32  C   UNL     3      -8.635   8.442  72.441  1.00  0.00    -0.193 C  
HETATM   33  C   UNL     3      -7.698   9.151  71.448  1.00  0.00     0.044 C  
HETATM   34  O   UNL     3      -8.104   8.714  73.810  1.00  0.00    -0.400 OA 
HETATM   35  O   UNL     3      -6.495   9.285  71.924  1.00  0.00    -0.264 OA 
HETATM   36  O   UNL     3      -8.232   9.820  70.542  1.00  0.00    -0.209 OA 
HETATM   37  H   UNL     3      -8.042   9.654  73.934  1.00  0.00     0.000 HD 
ENDBRANCH  29  32
ENDBRANCH  26  29
ENDBRANCH  23  26
ENDBRANCH   7  23
TORSDOF 8
ENDMDL
MODEL      378
REMARK 921   NORMALIZED FREE ENERGY PREDICTED BY IDOCK:   -2.81 KCAL/MOL
REMARK 922        TOTAL FREE ENERGY PREDICTED BY IDOCK:   -6.21 KCAL/MOL
REMARK 923 INTER-LIGAND FREE ENERGY PREDICTED BY IDOCK:   -5.22 KCAL/MOL
REMARK 924 INTRA-LIGAND FREE ENERGY PREDICTED BY IDOCK:   -0.98 KCAL/MOL
REMARK 927      BINDING AFFINITY PREDICTED BY RF-SCORE:    0.00 PKD
ROOT
HETATM    1 CU   UNL     1      -9.149  14.481  68.409  1.00  0.00    -0.150 Cu 
HETATM    2  O   UNL     2      -9.951  20.306  67.200  1.00  0.00    -0.423 OA 
HETATM    3  C   UNL     2      -8.584  19.877  67.124  1.00  0.00    -0.325 C  
HETATM    4  H   UNL     2      -9.946  21.256  67.201  1.00  0.00     0.000 HD 
HETATM    5  O   UNL     3      -5.940   8.927  71.907  1.00  0.00    -0.062 OA 
HETATM    6  H   UNL     3      -5.453   9.499  72.490  1.00  0.00     0.000 HD 
HETATM    7  C   UNL     3      -7.004   9.689  71.301  1.00  0.00     0.214 C  
ENDROOT
BRANCH   3   8
HETATM    8  C   UNL     2      -8.592  18.350  67.123  1.00  0.00    -0.262 C  
HETATM    9  O   UNL     2      -9.834  17.873  66.569  1.00  0.00    -0.312 OA 
HETATM   10  H   UNL     2      -9.840  16.923  66.569  1.00  0.00     0.000 HD 
BRANCH   8  11
HETATM   11  C   UNL     2      -7.384  17.760  66.366  1.00  0.00    -0.275 C  
HETATM   12  O   UNL     2      -6.960  18.744  65.419  1.00  0.00    -0.481 OA 
HETATM   13  H   UNL     2      -6.216  18.381  64.954  1.00  0.00     0.000 HD 
BRANCH  11  14
HETATM   14  C   UNL     2      -6.270  17.446  67.384  1.00  0.00    -0.143 C  
HETATM   15  H   UNL     2      -4.542  16.482  67.339  1.00  0.00     0.000 HD 
HETATM   16  O   UNL     2      -5.229  16.676  66.713  1.00  0.00    -0.314 OA 
BRANCH  14  17
HETATM   17  C   UNL     2      -6.690  16.781  68.696  1.00  0.00    -0.174 C  
HETATM   18  C   UNL     2      -5.652  17.113  69.799  1.00  0.00    -0.213 C  
HETATM   19  H   UNL     2      -7.173  14.969  69.294  1.00  0.00     0.000 HD 
HETATM   20  O   UNL     2      -6.912  15.382  68.479  1.00  0.00    -0.108 OA 
HETATM   21  O   UNL     2      -5.398  18.359  69.831  1.00  0.00    -0.196 OA 
HETATM   22  O   UNL     2      -5.264  16.152  70.493  1.00  0.00    -0.164 OA 
ENDBRANCH  14  17
ENDBRANCH  11  14
ENDBRANCH   8  11
ENDBRANCH   3   8
BRANCH   7  23
HETATM   23  C   UNL     3      -7.789   8.765  70.360  1.00  0.00    -0.098 C  
HETATM   24  O   UNL     3      -6.881   7.772  69.843  1.00  0.00    -0.048 OA 
HETATM   25  H   UNL     3      -7.367   7.200  69.260  1.00  0.00     0.000 HD 
BRANCH  23  26
HETATM   26  C   UNL     3      -8.945   7.959  70.984  1.00  0.00    -0.142 C  
HETATM   27  O   UNL     3      -9.792   8.789  71.783  1.00  0.00    -0.270 OA 
HETATM   28  H   UNL     3     -10.505   8.291  72.168  1.00  0.00     0.000 HD 
BRANCH  26  29
HETATM   29  C   UNL     3      -9.828   7.096  70.057  1.00  0.00    -0.178 C  
HETATM   30  O   UNL     3      -9.159   5.907  69.609  1.00  0.00    -0.134 OA 
HETATM   31  H   UNL     3      -9.702   5.376  69.038  1.00  0.00     0.000 HD 
BRANCH  29  32
HETATM   32  C   UNL     3     -10.424   7.784  68.833  1.00  0.00    -0.194 C  
HETATM   33  C   UNL     3      -9.463   7.892  67.636  1.00  0.00    -0.144 C  
HETATM   34  O   UNL     3     -10.814   9.177  69.205  1.00  0.00    -0.321 OA 
HETATM   35  O   UNL     3      -8.827   9.026  67.624  1.00  0.00    -0.124 OA 
HETATM   36  O   UNL     3      -9.669   7.129  66.673  1.00  0.00    -0.182 OA 
HETATM   37  H   UNL     3     -11.186   9.606  68.443  1.00  0.00     0.000 HD 
ENDBRANCH  29  32
ENDBRANCH  26  29
ENDBRANCH  23  26
ENDBRANCH   7  23
TORSDOF 8
ENDMDL
MODEL      379
REMARK 921   NORMALIZED FREE ENERGY PREDICTED BY IDOCK:   -2.81 KCAL/MOL
REMARK 922        TOTAL FREE ENERGY PREDICTED BY IDOCK:   -6.20 KCAL/MOL
REMARK 923 INTER-LIGAND FREE ENERGY PREDICTED BY IDOCK:   -7.09 KCAL/MOL
REMARK 924 INTRA-LIGAND FREE ENERGY PREDICTED BY IDOCK:    0.90 KCAL/MOL
REMARK 927      BINDING AFFINITY PREDICTED BY RF-SCORE:    0.00 PKD
ROOT
HETATM    1 CU   UNL     1      -9.076  12.743  69.187  1.00  0.00    -0.338 Cu 
HETATM    2  O   UNL     2     -10.042   7.105  71.009  1.00  0.00    -0.192 OA 
HETATM    3  C   UNL     2     -11.187   7.730  70.411  1.00  0.00    -0.237 C  
HETATM    4  H   UNL     2     -10.348   6.316  71.441  1.00  0.00     0.000 HD 
HETATM    5  O   UNL     3     -10.701  19.858  68.856  1.00  0.00    -0.432 OA 
HETATM    6  H   UNL     3     -11.401  19.788  69.495  1.00  0.00     0.000 HD 
HETATM    7  C   UNL     3      -9.877  18.678  68.947  1.00  0.00    -0.351 C  
ENDROOT
BRANCH   3   8
HETATM    8  C   UNL     2     -10.695   8.996  69.715  1.00  0.00    -0.225 C  
HETATM    9  O   UNL     2     -11.092  10.153  70.478  1.00  0.00    -0.294 OA 
HETATM   10  H   UNL     2     -10.787  10.941  70.044  1.00  0.00     0.000 HD 
BRANCH   8  11
HETATM   11  C   UNL     2      -9.171   8.980  69.483  1.00  0.00    -0.152 C  
HETATM   12  O   UNL     2      -8.768  10.331  69.243  1.00  0.00    -0.160 OA 
HETATM   13  H   UNL     2      -7.829  10.322  69.099  1.00  0.00     0.000 HD 
BRANCH  11  14
HETATM   14  C   UNL     2      -8.485   8.407  70.739  1.00  0.00    -0.139 C  
HETATM   15  H   UNL     2      -8.282   8.972  72.625  1.00  0.00     0.000 HD 
HETATM   16  O   UNL     2      -8.705   9.325  71.851  1.00  0.00    -0.271 OA 
BRANCH  14  17
HETATM   17  C   UNL     2      -7.008   8.030  70.617  1.00  0.00    -0.041 C  
HETATM   18  C   UNL     2      -6.827   6.529  70.962  1.00  0.00    -0.066 C  
HETATM   19  H   UNL     2      -5.295   8.693  71.324  1.00  0.00     0.000 HD 
HETATM   20  O   UNL     2      -6.213   8.928  71.400  1.00  0.00    -0.052 OA 
HETATM   21  O   UNL     2      -7.669   5.808  70.334  1.00  0.00    -0.090 OA 
HETATM   22  O   UNL     2      -5.895   6.255  71.742  1.00  0.00    -0.034 OA 
ENDBRANCH  14  17
ENDBRANCH  11  14
ENDBRANCH   8  11
ENDBRANCH   3   8
BRANCH   7  23
HETATM   23  C   UNL     3      -8.747  18.792  67.914  1.00  0.00    -0.296 C  
HETATM   24  O   UNL     3      -7.496  18.552  68.589  1.00  0.00    -0.287 OA 
HETATM   25  H   UNL     3      -6.796  18.622  67.950  1.00  0.00     0.000 HD 
BRANCH  23  26
HETATM   26  C   UNL     3      -8.769  17.784  66.748  1.00  0.00    -0.256 C  
HETATM   27  O   UNL     3      -7.449  17.361  66.397  1.00  0.00    -0.248 OA 
HETATM   28  H   UNL     3      -7.463  16.739  65.678  1.00  0.00     0.000 HD 
BRANCH  26  29
HETATM   29  C   UNL     3      -9.674  16.539  66.866  1.00  0.00    -0.251 C  
HETATM   30  O   UNL     3      -9.279  15.670  67.940  1.00  0.00    -0.189 OA 
HETATM   31  H   UNL     3      -9.836  14.904  68.012  1.00  0.00     0.000 HD 
BRANCH  29  32
HETATM   32  C   UNL     3      -9.843  15.685  65.614  1.00  0.00    -0.333 C  
HETATM   33  C   UNL     3     -11.263  15.705  65.021  1.00  0.00    -0.329 C  
HETATM   34  O   UNL     3      -9.532  14.265  65.953  1.00  0.00    -0.480 OA 
HETATM   35  O   UNL     3     -11.987  14.718  65.459  1.00  0.00    -0.300 OA 
HETATM   36  O   UNL     3     -11.432  16.363  63.976  1.00  0.00    -1.048 OA 
HETATM   37  H   UNL     3      -9.637  13.733  65.173  1.00  0.00     0.000 HD 
ENDBRANCH  29  32
ENDBRANCH  26  29
ENDBRANCH  23  26
ENDBRANCH   7  23
TORSDOF 8
ENDMDL
MODEL      380
REMARK 921   NORMALIZED FREE ENERGY PREDICTED BY IDOCK:   -2.80 KCAL/MOL
REMARK 922        TOTAL FREE ENERGY PREDICTED BY IDOCK:   -6.18 KCAL/MOL
REMARK 923 INTER-LIGAND FREE ENERGY PREDICTED BY IDOCK:   -5.06 KCAL/MOL
REMARK 924 INTRA-LIGAND FREE ENERGY PREDICTED BY IDOCK:   -1.11 KCAL/MOL
REMARK 927      BINDING AFFINITY PREDICTED BY RF-SCORE:    0.00 PKD
ROOT
HETATM    1 CU   UNL     1     -10.570  10.547  70.245  1.00  0.00    -0.227 Cu 
HETATM    2  O   UNL     2     -13.059   5.657  72.679  1.00  0.00    -0.304 OA 
HETATM    3  C   UNL     2     -13.999   6.536  72.045  1.00  0.00     0.229 C  
HETATM    4  H   UNL     2     -13.561   5.041  73.200  1.00  0.00     0.000 HD 
HETATM    5  O   UNL     3     -10.035  17.758  69.194  1.00  0.00    -0.291 OA 
HETATM    6  H   UNL     3     -10.689  17.961  69.853  1.00  0.00     0.000 HD 
HETATM    7  C   UNL     3      -9.593  16.400  69.391  1.00  0.00    -0.137 C  
ENDROOT
BRANCH   3   8
HETATM    8  C   UNL     2     -13.193   7.525  71.207  1.00  0.00    -0.257 C  
HETATM    9  O   UNL     2     -13.021   8.754  71.940  1.00  0.00    -0.331 OA 
HETATM   10  H   UNL     2     -12.520   9.370  71.418  1.00  0.00     0.000 HD 
BRANCH   8  11
HETATM   11  C   UNL     2     -11.832   6.946  70.767  1.00  0.00    -0.377 C  
HETATM   12  O   UNL     2     -11.777   7.039  69.342  1.00  0.00    -0.545 OA 
HETATM   13  H   UNL     2     -10.939   6.683  69.070  1.00  0.00     0.000 HD 
BRANCH  11  14
HETATM   14  C   UNL     2     -10.708   7.770  71.426  1.00  0.00    -0.222 C  
HETATM   15  H   UNL     2      -9.170   8.836  70.783  1.00  0.00     0.000 HD 
HETATM   16  O   UNL     2      -9.863   8.329  70.377  1.00  0.00    -0.184 OA 
BRANCH  14  17
HETATM   17  C   UNL     2      -9.870   7.074  72.499  1.00  0.00    -0.154 C  
HETATM   18  C   UNL     2      -9.439   5.674  71.991  1.00  0.00    -0.150 C  
HETATM   19  H   UNL     2     -10.061   6.638  74.409  1.00  0.00     0.000 HD 
HETATM   20  O   UNL     2     -10.582   7.071  73.743  1.00  0.00    -0.375 OA 
HETATM   21  O   UNL     2      -8.948   5.742  70.819  1.00  0.00    -0.144 OA 
HETATM   22  O   UNL     2      -9.594   4.730  72.790  1.00  0.00    -0.131 OA 
ENDBRANCH  14  17
ENDBRANCH  11  14
ENDBRANCH   8  11
ENDBRANCH   3   8
BRANCH   7  23
HETATM   23  C   UNL     3      -8.537  16.071  68.327  1.00  0.00    -0.179 C  
HETATM   24  O   UNL     3      -7.237  16.360  68.880  1.00  0.00    -0.176 OA 
HETATM   25  H   UNL     3      -6.582  16.156  68.221  1.00  0.00     0.000 HD 
BRANCH  23  26
HETATM   26  C   UNL     3      -8.454  14.604  67.862  1.00  0.00    -0.158 C  
HETATM   27  O   UNL     3      -7.695  14.479  66.656  1.00  0.00    -0.216 OA 
HETATM   28  H   UNL     3      -7.644  13.574  66.370  1.00  0.00     0.000 HD 
BRANCH  26  29
HETATM   29  C   UNL     3      -7.967  13.538  68.867  1.00  0.00     0.087 C  
HETATM   30  O   UNL     3      -7.359  14.117  70.033  1.00  0.00    -0.360 OA 
HETATM   31  H   UNL     3      -7.060  13.461  70.652  1.00  0.00     0.000 HD 
BRANCH  29  32
HETATM   32  C   UNL     3      -7.025  12.464  68.335  1.00  0.00    -0.091 C  
HETATM   33  C   UNL     3      -7.101  11.125  69.088  1.00  0.00    -0.116 C  
HETATM   34  O   UNL     3      -5.619  12.953  68.457  1.00  0.00    -0.062 OA 
HETATM   35  O   UNL     3      -6.213  11.047  70.035  1.00  0.00    -0.108 OA 
HETATM   36  O   UNL     3      -7.678  10.181  68.512  1.00  0.00    -0.085 OA 
HETATM   37  H   UNL     3      -5.032  12.284  68.125  1.00  0.00     0.000 HD 
ENDBRANCH  29  32
ENDBRANCH  26  29
ENDBRANCH  23  26
ENDBRANCH   7  23
TORSDOF 8
ENDMDL
MODEL      381
REMARK 921   NORMALIZED FREE ENERGY PREDICTED BY IDOCK:   -2.78 KCAL/MOL
REMARK 922        TOTAL FREE ENERGY PREDICTED BY IDOCK:   -6.16 KCAL/MOL
REMARK 923 INTER-LIGAND FREE ENERGY PREDICTED BY IDOCK:   -5.10 KCAL/MOL
REMARK 924 INTRA-LIGAND FREE ENERGY PREDICTED BY IDOCK:   -1.06 KCAL/MOL
REMARK 927      BINDING AFFINITY PREDICTED BY RF-SCORE:    0.00 PKD
ROOT
HETATM    1 CU   UNL     1     -10.238   9.991  64.194  1.00  0.00    -0.309 Cu 
HETATM    2  O   UNL     2     -12.631  15.449  63.472  1.00  0.00    -0.668 OA 
HETATM    3  C   UNL     2     -12.570  15.014  64.838  1.00  0.00     0.099 C  
HETATM    4  H   UNL     2     -13.201  16.209  63.446  1.00  0.00     0.000 HD 
HETATM    5  O   UNL     3     -10.242   3.159  66.783  1.00  0.00     0.156 OA 
HETATM    6  H   UNL     3     -11.129   3.224  67.118  1.00  0.00     0.000 HD 
HETATM    7  C   UNL     3     -10.026   4.232  65.844  1.00  0.00    -0.219 C  
ENDROOT
BRANCH   3   8
HETATM    8  C   UNL     2     -11.654  13.794  64.880  1.00  0.00    -0.351 C  
HETATM    9  O   UNL     2     -11.942  12.933  63.761  1.00  0.00    -0.435 OA 
HETATM   10  H   UNL     2     -11.372  12.173  63.788  1.00  0.00     0.000 HD 
BRANCH   8  11
HETATM   11  C   UNL     2     -10.163  14.184  64.911  1.00  0.00    -0.341 C  
HETATM   12  O   UNL     2     -10.085  15.576  64.595  1.00  0.00    -0.418 OA 
HETATM   13  H   UNL     2      -9.167  15.817  64.614  1.00  0.00     0.000 HD 
BRANCH  11  14
HETATM   14  C   UNL     2      -9.606  13.898  66.321  1.00  0.00    -0.256 C  
HETATM   15  H   UNL     2     -10.380  13.418  68.078  1.00  0.00     0.000 HD 
HETATM   16  O   UNL     2     -10.722  13.594  67.209  1.00  0.00    -0.275 OA 
BRANCH  14  17
HETATM   17  C   UNL     2      -8.683  14.952  66.933  1.00  0.00    -0.248 C  
HETATM   18  C   UNL     2      -7.794  14.292  68.019  1.00  0.00    -0.143 C  
HETATM   19  H   UNL     2      -8.882  16.724  67.766  1.00  0.00     0.000 HD 
HETATM   20  O   UNL     2      -9.456  16.070  67.385  1.00  0.00    -0.217 OA 
HETATM   21  O   UNL     2      -7.256  13.223  67.586  1.00  0.00    -0.134 OA 
HETATM   22  O   UNL     2      -7.710  14.903  69.103  1.00  0.00    -0.147 OA 
ENDBRANCH  14  17
ENDBRANCH  11  14
ENDBRANCH   8  11
ENDBRANCH   3   8
BRANCH   7  23
HETATM   23  C   UNL     3      -8.594   4.127  65.303  1.00  0.00    -0.119 C  
HETATM   24  O   UNL     3      -8.627   4.401  63.887  1.00  0.00    -0.110 OA 
HETATM   25  H   UNL     3      -7.740   4.336  63.552  1.00  0.00     0.000 HD 
BRANCH  23  26
HETATM   26  C   UNL     3      -7.561   5.117  65.875  1.00  0.00    -0.083 C  
HETATM   27  O   UNL     3      -7.314   6.197  64.972  1.00  0.00    -0.067 OA 
HETATM   28  H   UNL     3      -6.677   6.808  65.325  1.00  0.00     0.000 HD 
BRANCH  26  29
HETATM   29  C   UNL     3      -7.798   5.696  67.287  1.00  0.00    -0.101 C  
HETATM   30  O   UNL     3      -8.036   4.675  68.269  1.00  0.00    -0.083 OA 
HETATM   31  H   UNL     3      -8.181   5.031  69.137  1.00  0.00     0.000 HD 
BRANCH  29  32
HETATM   32  C   UNL     3      -8.897   6.744  67.430  1.00  0.00    -0.117 C  
HETATM   33  C   UNL     3      -8.418   8.194  67.235  1.00  0.00    -0.125 C  
HETATM   34  O   UNL     3      -9.471   6.656  68.805  1.00  0.00    -0.131 OA 
HETATM   35  O   UNL     3      -8.110   8.760  68.364  1.00  0.00    -0.114 OA 
HETATM   36  O   UNL     3      -8.728   8.755  66.166  1.00  0.00    -0.142 OA 
HETATM   37  H   UNL     3     -10.156   7.309  68.894  1.00  0.00     0.000 HD 
ENDBRANCH  29  32
ENDBRANCH  26  29
ENDBRANCH  23  26
ENDBRANCH   7  23
TORSDOF 8
ENDMDL
MODEL      382
REMARK 921   NORMALIZED FREE ENERGY PREDICTED BY IDOCK:   -2.74 KCAL/MOL
REMARK 922        TOTAL FREE ENERGY PREDICTED BY IDOCK:   -6.10 KCAL/MOL
REMARK 923 INTER-LIGAND FREE ENERGY PREDICTED BY IDOCK:   -5.32 KCAL/MOL
REMARK 924 INTRA-LIGAND FREE ENERGY PREDICTED BY IDOCK:   -0.78 KCAL/MOL
REMARK 927      BINDING AFFINITY PREDICTED BY RF-SCORE:    0.00 PKD
ROOT
HETATM    1 CU   UNL     1      -9.504   9.809  70.020  1.00  0.00    -0.148 Cu 
HETATM    2  O   UNL     2      -9.695   4.686  73.143  1.00  0.00    -0.132 OA 
HETATM    3  C   UNL     2     -10.814   5.553  73.376  1.00  0.00    -0.288 C  
HETATM    4  H   UNL     2      -9.712   4.020  73.821  1.00  0.00     0.000 HD 
HETATM    5  O   UNL     3      -9.807  17.082  69.396  1.00  0.00    -0.165 OA 
HETATM    6  H   UNL     3      -9.840  17.220  70.336  1.00  0.00     0.000 HD 
HETATM    7  C   UNL     3      -9.351  15.737  69.146  1.00  0.00    -0.258 C  
ENDROOT
BRANCH   3   8
HETATM    8  C   UNL     2     -10.787   6.622  72.286  1.00  0.00    -0.229 C  
HETATM    9  O   UNL     2      -9.439   7.099  72.108  1.00  0.00    -0.137 OA 
HETATM   10  H   UNL     2      -9.423   7.765  71.430  1.00  0.00     0.000 HD 
BRANCH   8  11
HETATM   11  C   UNL     2     -11.377   6.114  70.955  1.00  0.00    -0.287 C  
HETATM   12  O   UNL     2     -12.493   6.951  70.642  1.00  0.00    -0.570 OA 
HETATM   13  H   UNL     2     -12.856   6.639  69.822  1.00  0.00     0.000 HD 
BRANCH  11  14
HETATM   14  C   UNL     2     -10.289   6.202  69.866  1.00  0.00    -0.213 C  
HETATM   15  H   UNL     2     -10.166   6.966  68.045  1.00  0.00     0.000 HD 
HETATM   16  O   UNL     2     -10.836   6.912  68.715  1.00  0.00    -0.221 OA 
BRANCH  14  17
HETATM   17  C   UNL     2      -9.619   4.895  69.441  1.00  0.00    -0.169 C  
HETATM   18  C   UNL     2      -9.606   4.799  67.894  1.00  0.00    -0.154 C  
HETATM   19  H   UNL     2      -9.829   2.979  69.843  1.00  0.00     0.000 HD 
HETATM   20  O   UNL     2     -10.245   3.792  70.107  1.00  0.00     0.160 OA 
HETATM   21  O   UNL     2      -9.172   5.875  67.371  1.00  0.00    -0.111 OA 
HETATM   22  O   UNL     2      -9.971   3.710  67.409  1.00  0.00    -0.032 OA 
ENDBRANCH  14  17
ENDBRANCH  11  14
ENDBRANCH   8  11
ENDBRANCH   3   8
BRANCH   7  23
HETATM   23  C   UNL     3      -9.297  15.515  67.629  1.00  0.00    -0.203 C  
HETATM   24  O   UNL     3      -7.932  15.223  67.265  1.00  0.00    -0.169 OA 
HETATM   25  H   UNL     3      -7.899  15.085  66.325  1.00  0.00     0.000 HD 
BRANCH  23  26
HETATM   26  C   UNL     3     -10.118  14.336  67.070  1.00  0.00    -0.260 C  
HETATM   27  O   UNL     3      -9.996  14.239  65.649  1.00  0.00    -0.331 OA 
HETATM   28  H   UNL     3     -10.502  13.511  65.305  1.00  0.00     0.000 HD 
BRANCH  26  29
HETATM   29  C   UNL     3      -9.907  12.935  67.683  1.00  0.00    -0.211 C  
HETATM   30  O   UNL     3      -8.596  12.772  68.248  1.00  0.00    -0.177 OA 
HETATM   31  H   UNL     3      -8.466  11.910  68.625  1.00  0.00     0.000 HD 
BRANCH  29  32
HETATM   32  C   UNL     3     -10.178  11.737  66.780  1.00  0.00    -0.211 C  
HETATM   33  C   UNL     3     -10.255  10.390  67.521  1.00  0.00    -0.210 C  
HETATM   34  O   UNL     3      -9.071  11.623  65.785  1.00  0.00    -0.308 OA 
HETATM   35  O   UNL     3      -9.109   9.775  67.533  1.00  0.00    -0.131 OA 
HETATM   36  O   UNL     3     -11.386   9.887  67.668  1.00  0.00    -0.151 OA 
HETATM   37  H   UNL     3      -9.239  10.877  65.222  1.00  0.00     0.000 HD 
ENDBRANCH  29  32
ENDBRANCH  26  29
ENDBRANCH  23  26
ENDBRANCH   7  23
TORSDOF 8
ENDMDL
MODEL      383
REMARK 921   NORMALIZED FREE ENERGY PREDICTED BY IDOCK:   -2.70 KCAL/MOL
REMARK 922        TOTAL FREE ENERGY PREDICTED BY IDOCK:   -6.04 KCAL/MOL
REMARK 923 INTER-LIGAND FREE ENERGY PREDICTED BY IDOCK:   -4.69 KCAL/MOL
REMARK 924 INTRA-LIGAND FREE ENERGY PREDICTED BY IDOCK:   -1.35 KCAL/MOL
REMARK 927      BINDING AFFINITY PREDICTED BY RF-SCORE:    0.00 PKD
ROOT
HETATM    1 CU   UNL     1      -9.300  11.175  68.916  1.00  0.00    -0.148 Cu 
HETATM    2  O   UNL     2     -10.218  17.098  68.570  1.00  0.00    -0.301 OA 
HETATM    3  C   UNL     2     -10.412  16.403  67.329  1.00  0.00    -0.303 C  
HETATM    4  H   UNL     2     -10.181  18.025  68.368  1.00  0.00     0.000 HD 
HETATM    5  O   UNL     3      -6.268   4.905  66.707  1.00  0.00    -0.030 OA 
HETATM    6  H   UNL     3      -5.702   5.334  66.076  1.00  0.00     0.000 HD 
HETATM    7  C   UNL     3      -6.764   5.899  67.627  1.00  0.00    -0.058 C  
ENDROOT
BRANCH   3   8
HETATM    8  C   UNL     2     -10.473  14.913  67.654  1.00  0.00    -0.249 C  
HETATM    9  O   UNL     2     -11.832  14.448  67.546  1.00  0.00    -0.373 OA 
HETATM   10  H   UNL     2     -11.870  13.521  67.749  1.00  0.00     0.000 HD 
BRANCH   8  11
HETATM   11  C   UNL     2      -9.529  14.082  66.761  1.00  0.00    -0.282 C  
HETATM   12  O   UNL     2      -8.662  15.002  66.094  1.00  0.00    -0.461 OA 
HETATM   13  H   UNL     2      -8.081  14.491  65.544  1.00  0.00     0.000 HD 
BRANCH  11  14
HETATM   14  C   UNL     2      -8.732  13.109  67.654  1.00  0.00    -0.192 C  
HETATM   15  H   UNL     2      -8.374  12.938  69.593  1.00  0.00     0.000 HD 
HETATM   16  O   UNL     2      -8.865  13.536  69.042  1.00  0.00     0.152 OA 
BRANCH  14  17
HETATM   17  C   UNL     2      -7.268  12.866  67.288  1.00  0.00    -0.067 C  
HETATM   18  C   UNL     2      -6.768  11.574  67.984  1.00  0.00    -0.059 C  
HETATM   19  H   UNL     2      -5.587  13.889  67.345  1.00  0.00     0.000 HD 
HETATM   20  O   UNL     2      -6.497  14.040  67.572  1.00  0.00    -0.254 OA 
HETATM   21  O   UNL     2      -7.583  10.612  67.807  1.00  0.00    -0.094 OA 
HETATM   22  O   UNL     2      -5.665  11.654  68.560  1.00  0.00    -0.046 OA 
ENDBRANCH  14  17
ENDBRANCH  11  14
ENDBRANCH   8  11
ENDBRANCH   3   8
BRANCH   7  23
HETATM   23  C   UNL     3      -7.678   5.207  68.647  1.00  0.00    -0.079 C  
HETATM   24  O   UNL     3      -6.886   4.862  69.801  1.00  0.00    -0.048 OA 
HETATM   25  H   UNL     3      -7.452   4.434  70.433  1.00  0.00     0.000 HD 
BRANCH  23  26
HETATM   26  C   UNL     3      -8.850   6.038  69.204  1.00  0.00    -0.119 C  
HETATM   27  O   UNL     3     -10.101   5.613  68.657  1.00  0.00    -0.156 OA 
HETATM   28  H   UNL     3     -10.824   6.126  69.001  1.00  0.00     0.000 HD 
BRANCH  26  29
HETATM   29  C   UNL     3      -8.998   6.171  70.735  1.00  0.00    -0.143 C  
HETATM   30  O   UNL     3      -9.375   4.934  71.362  1.00  0.00    -0.141 OA 
HETATM   31  H   UNL     3      -9.466   5.016  72.304  1.00  0.00     0.000 HD 
BRANCH  29  32
HETATM   32  C   UNL     3      -9.936   7.258  71.248  1.00  0.00    -0.188 C  
HETATM   33  C   UNL     3      -9.319   8.668  71.268  1.00  0.00    -0.224 C  
HETATM   34  O   UNL     3     -10.328   6.934  72.652  1.00  0.00    -0.189 OA 
HETATM   35  O   UNL     3      -8.798   8.955  72.425  1.00  0.00    -0.396 OA 
HETATM   36  O   UNL     3      -9.701   9.467  70.391  1.00  0.00    -0.242 OA 
HETATM   37  H   UNL     3     -10.912   7.612  72.972  1.00  0.00     0.000 HD 
ENDBRANCH  29  32
ENDBRANCH  26  29
ENDBRANCH  23  26
ENDBRANCH   7  23
TORSDOF 8
ENDMDL
MODEL      384
REMARK 921   NORMALIZED FREE ENERGY PREDICTED BY IDOCK:   -2.69 KCAL/MOL
REMARK 922        TOTAL FREE ENERGY PREDICTED BY IDOCK:   -6.02 KCAL/MOL
REMARK 923 INTER-LIGAND FREE ENERGY PREDICTED BY IDOCK:   -6.48 KCAL/MOL
REMARK 924 INTRA-LIGAND FREE ENERGY PREDICTED BY IDOCK:    0.46 KCAL/MOL
REMARK 927      BINDING AFFINITY PREDICTED BY RF-SCORE:    0.00 PKD
ROOT
HETATM    1 CU   UNL     1     -10.435  11.644  67.511  1.00  0.00    -0.180 Cu 
HETATM    2  O   UNL     2     -11.559  16.503  64.169  1.00  0.00    -1.301 OA 
HETATM    3  C   UNL     2     -10.502  16.682  65.124  1.00  0.00    -0.093 C  
HETATM    4  H   UNL     2     -11.794  17.366  63.848  1.00  0.00     0.000 HD 
HETATM    5  O   UNL     3      -9.437   8.193  73.873  1.00  0.00    -0.235 OA 
HETATM    6  H   UNL     3      -9.677   8.953  74.390  1.00  0.00     0.000 HD 
HETATM    7  C   UNL     3      -9.892   8.396  72.520  1.00  0.00    -0.289 C  
ENDROOT
BRANCH   3   8
HETATM    8  C   UNL     2     -10.123  15.297  65.640  1.00  0.00    -0.371 C  
HETATM    9  O   UNL     2      -8.774  15.320  66.145  1.00  0.00    -0.446 OA 
HETATM   10  H   UNL     2      -8.538  14.457  66.465  1.00  0.00     0.000 HD 
BRANCH   8  11
HETATM   11  C   UNL     2     -11.108  14.782  66.709  1.00  0.00    -0.338 C  
HETATM   12  O   UNL     2     -12.101  14.009  66.030  1.00  0.00    -0.395 OA 
HETATM   13  H   UNL     2     -12.707  13.692  66.689  1.00  0.00     0.000 HD 
BRANCH  11  14
HETATM   14  C   UNL     2     -10.329  13.925  67.727  1.00  0.00    -0.240 C  
HETATM   15  H   UNL     2     -10.718  13.121  69.493  1.00  0.00     0.000 HD 
HETATM   16  O   UNL     2     -11.198  13.649  68.866  1.00  0.00    -0.246 OA 
BRANCH  14  17
HETATM   17  C   UNL     2      -8.968  14.449  68.184  1.00  0.00    -0.185 C  
HETATM   18  C   UNL     2      -7.934  13.294  68.158  1.00  0.00    -0.150 C  
HETATM   19  H   UNL     2      -8.256  15.434  69.732  1.00  0.00     0.000 HD 
HETATM   20  O   UNL     2      -9.102  15.108  69.448  1.00  0.00    -0.227 OA 
HETATM   21  O   UNL     2      -7.977  12.663  67.053  1.00  0.00    -0.147 OA 
HETATM   22  O   UNL     2      -7.212  13.181  69.168  1.00  0.00    -0.044 OA 
ENDBRANCH  14  17
ENDBRANCH  11  14
ENDBRANCH   8  11
ENDBRANCH   3   8
BRANCH   7  23
HETATM   23  C   UNL     3      -9.503   7.168  71.685  1.00  0.00    -0.152 C  
HETATM   24  O   UNL     3      -8.121   6.859  71.956  1.00  0.00    -0.099 OA 
HETATM   25  H   UNL     3      -7.880   6.099  71.439  1.00  0.00     0.000 HD 
BRANCH  23  26
HETATM   26  C   UNL     3     -10.267   5.862  71.976  1.00  0.00    -0.197 C  
HETATM   27  O   UNL     3     -11.675   6.087  72.075  1.00  0.00    -0.307 OA 
HETATM   28  H   UNL     3     -12.145   5.281  72.255  1.00  0.00     0.000 HD 
BRANCH  26  29
HETATM   29  C   UNL     3     -10.023   4.645  71.057  1.00  0.00    -0.200 C  
HETATM   30  O   UNL     3      -8.656   4.205  71.077  1.00  0.00    -0.081 OA 
HETATM   31  H   UNL     3      -8.506   3.456  70.511  1.00  0.00     0.000 HD 
BRANCH  29  32
HETATM   32  C   UNL     3     -10.448   4.783  69.599  1.00  0.00     0.170 C  
HETATM   33  C   UNL     3      -9.306   4.586  68.586  1.00  0.00    -0.141 C  
HETATM   34  O   UNL     3     -10.989   6.158  69.383  1.00  0.00    -0.314 OA 
HETATM   35  O   UNL     3      -8.756   5.715  68.248  1.00  0.00    -0.107 OA 
HETATM   36  O   UNL     3      -9.292   3.516  67.948  1.00  0.00    -0.168 OA 
HETATM   37  H   UNL     3     -11.254   6.244  68.475  1.00  0.00     0.000 HD 
ENDBRANCH  29  32
ENDBRANCH  26  29
ENDBRANCH  23  26
ENDBRANCH   7  23
TORSDOF 8
ENDMDL
MODEL      385
REMARK 921   NORMALIZED FREE ENERGY PREDICTED BY IDOCK:   -2.64 KCAL/MOL
REMARK 922        TOTAL FREE ENERGY PREDICTED BY IDOCK:   -5.95 KCAL/MOL
REMARK 923 INTER-LIGAND FREE ENERGY PREDICTED BY IDOCK:   -5.68 KCAL/MOL
REMARK 924 INTRA-LIGAND FREE ENERGY PREDICTED BY IDOCK:   -0.27 KCAL/MOL
REMARK 927      BINDING AFFINITY PREDICTED BY RF-SCORE:    0.00 PKD
ROOT
HETATM    1 CU   UNL     1      -9.833  13.073  69.455  1.00  0.00    -0.392 Cu 
HETATM    2  O   UNL     2     -11.823  17.072  73.467  1.00  0.00    -0.254 OA 
HETATM    3  C   UNL     2     -12.862  16.306  72.841  1.00  0.00    -0.261 C  
HETATM    4  H   UNL     2     -12.242  17.798  73.913  1.00  0.00     0.000 HD 
HETATM    5  O   UNL     3      -9.793   9.907  62.871  1.00  0.00    -0.524 OA 
HETATM    6  H   UNL     3     -10.396  10.540  62.498  1.00  0.00     0.000 HD 
HETATM    7  C   UNL     3      -9.261  10.448  64.097  1.00  0.00    -0.259 C  
ENDROOT
BRANCH   3   8
HETATM    8  C   UNL     2     -12.190  15.138  72.124  1.00  0.00    -0.373 C  
HETATM    9  O   UNL     2     -11.565  14.271  73.091  1.00  0.00     0.517 OA 
HETATM   10  H   UNL     2     -11.146  13.545  72.644  1.00  0.00     0.000 HD 
BRANCH   8  11
HETATM   11  C   UNL     2     -13.174  14.355  71.231  1.00  0.00    -0.349 C  
HETATM   12  O   UNL     2     -13.864  15.314  70.425  1.00  0.00    -0.573 OA 
HETATM   13  H   UNL     2     -14.471  14.833  69.875  1.00  0.00     0.000 HD 
BRANCH  11  14
HETATM   14  C   UNL     2     -12.373  13.366  70.361  1.00  0.00    -0.312 C  
HETATM   15  H   UNL     2     -11.709  13.336  68.497  1.00  0.00     0.000 HD 
HETATM   16  O   UNL     2     -12.203  13.945  69.033  1.00  0.00    -0.350 OA 
BRANCH  14  17
HETATM   17  C   UNL     2     -12.895  11.931  70.275  1.00  0.00     0.255 C  
HETATM   18  C   UNL     2     -13.177  11.399  71.704  1.00  0.00    -0.309 C  
HETATM   19  H   UNL     2     -12.315  10.241  69.450  1.00  0.00     0.000 HD 
HETATM   20  O   UNL     2     -11.990  11.133  69.503  1.00  0.00    -0.311 OA 
HETATM   21  O   UNL     2     -13.865  12.231  72.378  1.00  0.00    -0.269 OA 
HETATM   22  O   UNL     2     -12.741  10.259  71.960  1.00  0.00    -0.401 OA 
ENDBRANCH  14  17
ENDBRANCH  11  14
ENDBRANCH   8  11
ENDBRANCH   3   8
BRANCH   7  23
HETATM   23  C   UNL     3      -8.287   9.426  64.698  1.00  0.00    -0.157 C  
HETATM   24  O   UNL     3      -7.212   9.221  63.758  1.00  0.00    -0.093 OA 
HETATM   25  H   UNL     3      -6.609   8.588  64.131  1.00  0.00     0.000 HD 
BRANCH  23  26
HETATM   26  C   UNL     3      -7.592   9.821  66.016  1.00  0.00    -0.102 C  
HETATM   27  O   UNL     3      -7.286  11.218  66.049  1.00  0.00    -0.354 OA 
HETATM   28  H   UNL     3      -6.857  11.461  66.862  1.00  0.00     0.000 HD 
BRANCH  26  29
HETATM   29  C   UNL     3      -8.262   9.429  67.350  1.00  0.00    -0.121 C  
HETATM   30  O   UNL     3      -7.509   9.865  68.494  1.00  0.00    -0.080 OA 
HETATM   31  H   UNL     3      -7.922   9.623  69.315  1.00  0.00     0.000 HD 
BRANCH  29  32
HETATM   32  C   UNL     3      -8.599   7.955  67.548  1.00  0.00    -0.122 C  
HETATM   33  C   UNL     3      -8.736   7.529  69.020  1.00  0.00    -0.136 C  
HETATM   34  O   UNL     3      -7.508   7.127  66.955  1.00  0.00    -0.095 OA 
HETATM   35  O   UNL     3      -7.622   7.056  69.496  1.00  0.00    -0.093 OA 
HETATM   36  O   UNL     3      -9.889   7.323  69.447  1.00  0.00    -0.161 OA 
HETATM   37  H   UNL     3      -7.717   6.209  67.078  1.00  0.00     0.000 HD 
ENDBRANCH  29  32
ENDBRANCH  26  29
ENDBRANCH  23  26
ENDBRANCH   7  23
TORSDOF 8
ENDMDL
MODEL      386
REMARK 921   NORMALIZED FREE ENERGY PREDICTED BY IDOCK:   -2.62 KCAL/MOL
REMARK 922        TOTAL FREE ENERGY PREDICTED BY IDOCK:   -5.92 KCAL/MOL
REMARK 923 INTER-LIGAND FREE ENERGY PREDICTED BY IDOCK:   -5.72 KCAL/MOL
REMARK 924 INTRA-LIGAND FREE ENERGY PREDICTED BY IDOCK:   -0.21 KCAL/MOL
REMARK 927      BINDING AFFINITY PREDICTED BY RF-SCORE:    0.00 PKD
ROOT
HETATM    1 CU   UNL     1      -8.814  11.615  68.365  1.00  0.00    -0.125 Cu 
HETATM    2  O   UNL     2     -10.938  16.952  70.110  1.00  0.00    -0.401 OA 
HETATM    3  C   UNL     2     -11.744  16.299  69.118  1.00  0.00    -0.151 C  
HETATM    4  H   UNL     2     -11.235  17.853  70.162  1.00  0.00     0.000 HD 
HETATM    5  O   UNL     3      -6.738   6.754  63.321  1.00  0.00    -0.041 OA 
HETATM    6  H   UNL     3      -6.824   7.373  62.605  1.00  0.00     0.000 HD 
HETATM    7  C   UNL     3      -6.706   7.490  64.561  1.00  0.00    -0.047 C  
ENDROOT
BRANCH   3   8
HETATM    8  C   UNL     2     -11.267  14.851  69.035  1.00  0.00    -0.264 C  
HETATM    9  O   UNL     2     -12.405  13.969  68.973  1.00  0.00    -0.493 OA 
HETATM   10  H   UNL     2     -12.108  13.068  68.922  1.00  0.00     0.000 HD 
BRANCH   8  11
HETATM   11  C   UNL     2     -10.316  14.616  67.844  1.00  0.00    -0.237 C  
HETATM   12  O   UNL     2      -9.986  13.224  67.837  1.00  0.00    -0.220 OA 
HETATM   13  H   UNL     2      -9.401  13.079  67.104  1.00  0.00     0.000 HD 
BRANCH  11  14
HETATM   14  C   UNL     2     -11.039  15.026  66.546  1.00  0.00    -0.329 C  
HETATM   15  H   UNL     2     -12.095  14.092  65.157  1.00  0.00     0.000 HD 
HETATM   16  O   UNL     2     -11.650  13.840  65.957  1.00  0.00    -0.326 OA 
BRANCH  14  17
HETATM   17  C   UNL     2     -10.226  15.802  65.509  1.00  0.00    -0.378 C  
HETATM   18  C   UNL     2      -8.797  16.052  66.056  1.00  0.00    -0.279 C  
HETATM   19  H   UNL     2     -10.431  17.464  64.476  1.00  0.00     0.000 HD 
HETATM   20  O   UNL     2     -10.937  16.982  65.120  1.00  0.00    -0.528 OA 
HETATM   21  O   UNL     2      -8.286  14.982  66.518  1.00  0.00    -0.172 OA 
HETATM   22  O   UNL     2      -8.358  17.213  65.932  1.00  0.00    -0.527 OA 
ENDBRANCH  14  17
ENDBRANCH  11  14
ENDBRANCH   8  11
ENDBRANCH   3   8
BRANCH   7  23
HETATM   23  C   UNL     3      -6.567   6.490  65.717  1.00  0.00    -0.044 C  
HETATM   24  O   UNL     3      -6.174   7.220  66.897  1.00  0.00    -0.040 OA 
HETATM   25  H   UNL     3      -6.087   6.601  67.613  1.00  0.00     0.000 HD 
BRANCH  23  26
HETATM   26  C   UNL     3      -7.839   5.725  66.129  1.00  0.00    -0.101 C  
HETATM   27  O   UNL     3      -8.995   6.224  65.452  1.00  0.00    -0.347 OA 
HETATM   28  H   UNL     3      -9.779   5.751  65.706  1.00  0.00     0.000 HD 
BRANCH  26  29
HETATM   29  C   UNL     3      -7.836   4.183  66.035  1.00  0.00    -0.094 C  
HETATM   30  O   UNL     3      -6.584   3.609  66.443  1.00  0.00    -0.039 OA 
HETATM   31  H   UNL     3      -6.582   2.661  66.385  1.00  0.00     0.000 HD 
BRANCH  29  32
HETATM   32  C   UNL     3      -8.213   3.572  64.689  1.00  0.00    -0.090 C  
HETATM   33  C   UNL     3      -9.656   3.044  64.617  1.00  0.00    -0.138 C  
HETATM   34  O   UNL     3      -7.311   2.414  64.417  1.00  0.00    -0.056 OA 
HETATM   35  O   UNL     3      -9.726   1.777  64.903  1.00  0.00    -0.011 OA 
HETATM   36  O   UNL     3     -10.475   3.719  63.962  1.00  0.00    -0.238 OA 
HETATM   37  H   UNL     3      -7.546   2.032  63.579  1.00  0.00     0.000 HD 
ENDBRANCH  29  32
ENDBRANCH  26  29
ENDBRANCH  23  26
ENDBRANCH   7  23
TORSDOF 8
ENDMDL
MODEL      387
REMARK 921   NORMALIZED FREE ENERGY PREDICTED BY IDOCK:   -2.56 KCAL/MOL
REMARK 922        TOTAL FREE ENERGY PREDICTED BY IDOCK:   -5.83 KCAL/MOL
REMARK 923 INTER-LIGAND FREE ENERGY PREDICTED BY IDOCK:   -4.76 KCAL/MOL
REMARK 924 INTRA-LIGAND FREE ENERGY PREDICTED BY IDOCK:   -1.07 KCAL/MOL
REMARK 927      BINDING AFFINITY PREDICTED BY RF-SCORE:    0.00 PKD
ROOT
HETATM    1 CU   UNL     1     -10.430   9.229  63.933  1.00  0.00    -0.233 Cu 
HETATM    2  O   UNL     2     -12.449  14.840  64.624  1.00  0.00    -0.477 OA 
HETATM    3  C   UNL     2     -12.463  14.062  65.830  1.00  0.00    -0.494 C  
HETATM    4  H   UNL     2     -12.969  15.618  64.789  1.00  0.00     0.000 HD 
HETATM    5  O   UNL     3     -10.951   1.976  64.644  1.00  0.00     0.408 OA 
HETATM    6  H   UNL     3     -11.843   2.014  64.969  1.00  0.00     0.000 HD 
HETATM    7  C   UNL     3     -10.637   3.239  64.022  1.00  0.00    -0.166 C  
ENDROOT
BRANCH   3   8
HETATM    8  C   UNL     2     -11.627  12.812  65.567  1.00  0.00    -0.362 C  
HETATM    9  O   UNL     2     -11.707  12.461  64.171  1.00  0.00    -0.345 OA 
HETATM   10  H   UNL     2     -11.187  11.682  64.008  1.00  0.00     0.000 HD 
BRANCH   8  11
HETATM   11  C   UNL     2     -10.161  12.985  66.013  1.00  0.00    -0.284 C  
HETATM   12  O   UNL     2      -9.750  14.293  65.608  1.00  0.00    -0.473 OA 
HETATM   13  H   UNL     2      -8.847  14.400  65.883  1.00  0.00     0.000 HD 
BRANCH  11  14
HETATM   14  C   UNL     2     -10.087  12.823  67.544  1.00  0.00    -0.213 C  
HETATM   15  H   UNL     2      -9.393  13.903  69.051  1.00  0.00     0.000 HD 
HETATM   16  O   UNL     2      -9.439  14.002  68.107  1.00  0.00    -0.202 OA 
BRANCH  14  17
HETATM   17  C   UNL     2      -9.459  11.537  68.081  1.00  0.00    -0.184 C  
HETATM   18  C   UNL     2     -10.552  10.669  68.755  1.00  0.00    -0.206 C  
HETATM   19  H   UNL     2      -7.952  11.058  69.253  1.00  0.00     0.000 HD 
HETATM   20  O   UNL     2      -8.342  11.857  68.919  1.00  0.00    -0.037 OA 
HETATM   21  O   UNL     2     -11.574  10.552  68.004  1.00  0.00    -0.442 OA 
HETATM   22  O   UNL     2     -10.266  10.199  69.873  1.00  0.00    -0.242 OA 
ENDBRANCH  14  17
ENDBRANCH  11  14
ENDBRANCH   8  11
ENDBRANCH   3   8
BRANCH   7  23
HETATM   23  C   UNL     3      -9.196   3.178  63.497  1.00  0.00    -0.095 C  
HETATM   24  O   UNL     3      -9.101   4.042  62.345  1.00  0.00    -0.094 OA 
HETATM   25  H   UNL     3      -8.209   4.005  62.019  1.00  0.00     0.000 HD 
BRANCH  23  26
HETATM   26  C   UNL     3      -8.088   3.665  64.450  1.00  0.00    -0.086 C  
HETATM   27  O   UNL     3      -7.370   4.772  63.899  1.00  0.00    -0.053 OA 
HETATM   28  H   UNL     3      -6.687   5.072  64.487  1.00  0.00     0.000 HD 
BRANCH  26  29
HETATM   29  C   UNL     3      -8.465   3.997  65.911  1.00  0.00    -0.109 C  
HETATM   30  O   UNL     3      -7.954   5.271  66.336  1.00  0.00    -0.103 OA 
HETATM   31  H   UNL     3      -8.186   5.474  67.234  1.00  0.00     0.000 HD 
BRANCH  29  32
HETATM   32  C   UNL     3      -8.093   2.967  66.972  1.00  0.00    -0.079 C  
HETATM   33  C   UNL     3      -7.104   3.482  68.034  1.00  0.00    -0.051 C  
HETATM   34  O   UNL     3      -7.445   1.799  66.304  1.00  0.00    -0.059 OA 
HETATM   35  O   UNL     3      -5.871   3.206  67.725  1.00  0.00    -0.021 OA 
HETATM   36  O   UNL     3      -7.564   3.728  69.166  1.00  0.00    -0.053 OA 
HETATM   37  H   UNL     3      -7.213   1.158  66.965  1.00  0.00     0.000 HD 
ENDBRANCH  29  32
ENDBRANCH  26  29
ENDBRANCH  23  26
ENDBRANCH   7  23
TORSDOF 8
ENDMDL
MODEL      388
REMARK 921   NORMALIZED FREE ENERGY PREDICTED BY IDOCK:   -2.47 KCAL/MOL
REMARK 922        TOTAL FREE ENERGY PREDICTED BY IDOCK:   -5.70 KCAL/MOL
REMARK 923 INTER-LIGAND FREE ENERGY PREDICTED BY IDOCK:   -6.66 KCAL/MOL
REMARK 924 INTRA-LIGAND FREE ENERGY PREDICTED BY IDOCK:    0.96 KCAL/MOL
REMARK 927      BINDING AFFINITY PREDICTED BY RF-SCORE:    0.00 PKD
ROOT
HETATM    1 CU   UNL     1      -9.502  10.136  68.058  1.00  0.00    -0.135 Cu 
HETATM    2  O   UNL     2     -10.540  15.210  71.094  1.00  0.00    -0.496 OA 
HETATM    3  C   UNL     2     -10.852  15.292  69.696  1.00  0.00    -0.286 C  
HETATM    4  H   UNL     2     -10.538  16.098  71.433  1.00  0.00     0.000 HD 
HETATM    5  O   UNL     3      -6.623   6.312  62.538  1.00  0.00    -0.033 OA 
HETATM    6  H   UNL     3      -6.132   7.054  62.204  1.00  0.00     0.000 HD 
HETATM    7  C   UNL     3      -7.035   6.606  63.889  1.00  0.00    -0.055 C  
ENDROOT
BRANCH   3   8
HETATM    8  C   UNL     2     -10.856  13.866  69.153  1.00  0.00    -0.189 C  
HETATM    9  O   UNL     2     -11.528  12.994  70.083  1.00  0.00    -0.516 OA 
HETATM   10  H   UNL     2     -11.530  12.106  69.745  1.00  0.00     0.000 HD 
BRANCH   8  11
HETATM   11  C   UNL     2     -11.492  13.777  67.750  1.00  0.00    -0.322 C  
HETATM   12  O   UNL     2     -12.872  14.123  67.891  1.00  0.00     0.011 OA 
HETATM   13  H   UNL     2     -13.263  14.069  67.028  1.00  0.00     0.000 HD 
BRANCH  11  14
HETATM   14  C   UNL     2     -10.761  14.759  66.813  1.00  0.00    -0.309 C  
HETATM   15  H   UNL     2     -10.671  16.726  66.614  1.00  0.00     0.000 HD 
HETATM   16  O   UNL     2     -11.121  16.120  67.191  1.00  0.00    -0.206 OA 
BRANCH  14  17
HETATM   17  C   UNL     2     -10.925  14.541  65.308  1.00  0.00    -0.360 C  
HETATM   18  C   UNL     2     -11.161  15.905  64.611  1.00  0.00    -0.351 C  
HETATM   19  H   UNL     2     -12.043  13.424  64.135  1.00  0.00     0.000 HD 
HETATM   20  O   UNL     2     -11.940  13.559  65.070  1.00  0.00    -0.341 OA 
HETATM   21  O   UNL     2     -10.304  16.768  64.987  1.00  0.00    -0.631 OA 
HETATM   22  O   UNL     2     -12.096  15.945  63.787  1.00  0.00    -0.780 OA 
ENDBRANCH  14  17
ENDBRANCH  11  14
ENDBRANCH   8  11
ENDBRANCH   3   8
BRANCH   7  23
HETATM   23  C   UNL     3      -7.828   5.409  64.429  1.00  0.00    -0.103 C  
HETATM   24  O   UNL     3      -6.936   4.279  64.511  1.00  0.00    -0.045 OA 
HETATM   25  H   UNL     3      -7.427   3.537  64.845  1.00  0.00     0.000 HD 
BRANCH  23  26
HETATM   26  C   UNL     3      -8.420   5.550  65.844  1.00  0.00    -0.130 C  
HETATM   27  O   UNL     3      -9.377   6.610  65.909  1.00  0.00    -0.369 OA 
HETATM   28  H   UNL     3      -9.742   6.697  66.783  1.00  0.00     0.000 HD 
BRANCH  26  29
HETATM   29  C   UNL     3      -9.019   4.299  66.522  1.00  0.00    -0.120 C  
HETATM   30  O   UNL     3      -8.037   3.278  66.761  1.00  0.00    -0.080 OA 
HETATM   31  H   UNL     3      -8.406   2.508  67.178  1.00  0.00     0.000 HD 
BRANCH  29  32
HETATM   32  C   UNL     3     -10.213   3.645  65.834  1.00  0.00     0.351 C  
HETATM   33  C   UNL     3      -9.862   2.888  64.541  1.00  0.00    -0.071 C  
HETATM   34  O   UNL     3     -11.197   4.705  65.465  1.00  0.00    -0.909 OA 
HETATM   35  O   UNL     3     -10.011   3.633  63.485  1.00  0.00    -0.150 OA 
HETATM   36  O   UNL     3      -9.861   1.643  64.595  1.00  0.00    -0.029 OA 
HETATM   37  H   UNL     3     -11.941   4.298  65.036  1.00  0.00     0.000 HD 
ENDBRANCH  29  32
ENDBRANCH  26  29
ENDBRANCH  23  26
ENDBRANCH   7  23
TORSDOF 8
ENDMDL
MODEL      389
REMARK 921   NORMALIZED FREE ENERGY PREDICTED BY IDOCK:   -2.34 KCAL/MOL
REMARK 922        TOTAL FREE ENERGY PREDICTED BY IDOCK:   -5.52 KCAL/MOL
REMARK 923 INTER-LIGAND FREE ENERGY PREDICTED BY IDOCK:   -4.63 KCAL/MOL
REMARK 924 INTRA-LIGAND FREE ENERGY PREDICTED BY IDOCK:   -0.88 KCAL/MOL
REMARK 927      BINDING AFFINITY PREDICTED BY RF-SCORE:    0.00 PKD
ROOT
HETATM    1 CU   UNL     1      -9.218  10.892  64.771  1.00  0.00    -0.169 Cu 
HETATM    2  O   UNL     2     -10.914  16.635  64.344  1.00  0.00    -1.092 OA 
HETATM    3  C   UNL     2     -10.862  16.140  65.690  1.00  0.00    -0.238 C  
HETATM    4  H   UNL     2     -11.382  17.462  64.369  1.00  0.00     0.000 HD 
HETATM    5  O   UNL     3     -10.009   4.015  67.107  1.00  0.00    -0.226 OA 
HETATM    6  H   UNL     3     -10.868   4.178  67.479  1.00  0.00     0.000 HD 
HETATM    7  C   UNL     3      -9.690   5.090  66.201  1.00  0.00    -0.183 C  
ENDROOT
BRANCH   3   8
HETATM    8  C   UNL     2     -10.109  14.813  65.651  1.00  0.00    -0.366 C  
HETATM    9  O   UNL     2      -8.852  14.989  64.970  1.00  0.00     1.046 OA 
HETATM   10  H   UNL     2      -8.384  14.162  64.945  1.00  0.00     0.000 HD 
BRANCH   8  11
HETATM   11  C   UNL     2      -9.900  14.218  67.059  1.00  0.00    -0.254 C  
HETATM   12  O   UNL     2     -10.330  15.205  68.000  1.00  0.00    -0.235 OA 
HETATM   13  H   UNL     2     -10.201  14.840  68.867  1.00  0.00     0.000 HD 
BRANCH  11  14
HETATM   14  C   UNL     2     -10.736  12.928  67.180  1.00  0.00    -0.253 C  
HETATM   15  H   UNL     2     -12.333  12.186  66.277  1.00  0.00     0.000 HD 
HETATM   16  O   UNL     2     -11.818  12.980  66.203  1.00  0.00    -0.370 OA 
BRANCH  14  17
HETATM   17  C   UNL     2     -11.263  12.566  68.569  1.00  0.00    -0.283 C  
HETATM   18  C   UNL     2     -11.617  11.057  68.610  1.00  0.00    -0.316 C  
HETATM   19  H   UNL     2     -12.663  13.221  69.788  1.00  0.00     0.000 HD 
HETATM   20  O   UNL     2     -12.336  13.447  68.925  1.00  0.00    -0.212 OA 
HETATM   21  O   UNL     2     -10.669  10.349  68.141  1.00  0.00    -0.201 OA 
HETATM   22  O   UNL     2     -12.720  10.767  69.113  1.00  0.00    -0.225 OA 
ENDBRANCH  14  17
ENDBRANCH  11  14
ENDBRANCH   8  11
ENDBRANCH   3   8
BRANCH   7  23
HETATM   23  C   UNL     3      -8.303   4.826  65.599  1.00  0.00    -0.118 C  
HETATM   24  O   UNL     3      -8.354   5.147  64.194  1.00  0.00    -0.129 OA 
HETATM   25  H   UNL     3      -7.495   4.983  63.821  1.00  0.00     0.000 HD 
BRANCH  23  26
HETATM   26  C   UNL     3      -7.135   5.663  66.155  1.00  0.00    -0.068 C  
HETATM   27  O   UNL     3      -6.803   6.746  65.283  1.00  0.00    -0.049 OA 
HETATM   28  H   UNL     3      -6.083   7.262  65.626  1.00  0.00     0.000 HD 
BRANCH  26  29
HETATM   29  C   UNL     3      -7.235   6.203  67.599  1.00  0.00    -0.079 C  
HETATM   30  O   UNL     3      -7.405   5.156  68.568  1.00  0.00    -0.068 OA 
HETATM   31  H   UNL     3      -7.467   5.488  69.456  1.00  0.00     0.000 HD 
BRANCH  29  32
HETATM   32  C   UNL     3      -8.297   7.264  67.868  1.00  0.00    -0.119 C  
HETATM   33  C   UNL     3      -7.908   8.680  67.407  1.00  0.00    -0.098 C  
HETATM   34  O   UNL     3      -8.543   7.337  69.339  1.00  0.00    -0.132 OA 
HETATM   35  O   UNL     3      -7.365   9.372  68.365  1.00  0.00    -0.076 OA 
HETATM   36  O   UNL     3      -8.464   9.116  66.380  1.00  0.00    -0.119 OA 
HETATM   37  H   UNL     3      -9.204   7.999  69.507  1.00  0.00     0.000 HD 
ENDBRANCH  29  32
ENDBRANCH  26  29
ENDBRANCH  23  26
ENDBRANCH   7  23
TORSDOF 8
ENDMDL
MODEL      390
REMARK 921   NORMALIZED FREE ENERGY PREDICTED BY IDOCK:   -2.17 KCAL/MOL
REMARK 922        TOTAL FREE ENERGY PREDICTED BY IDOCK:   -5.26 KCAL/MOL
REMARK 923 INTER-LIGAND FREE ENERGY PREDICTED BY IDOCK:   -4.39 KCAL/MOL
REMARK 924 INTRA-LIGAND FREE ENERGY PREDICTED BY IDOCK:   -0.87 KCAL/MOL
REMARK 927      BINDING AFFINITY PREDICTED BY RF-SCORE:    0.00 PKD
ROOT
HETATM    1 CU   UNL     1      -9.414  10.590  68.360  1.00  0.00    -0.132 Cu 
HETATM    2  O   UNL     2      -9.624  16.153  66.112  1.00  0.00    -0.282 OA 
HETATM    3  C   UNL     2     -10.468  15.215  65.429  1.00  0.00    -0.393 C  
HETATM    4  H   UNL     2      -9.569  16.928  65.566  1.00  0.00     0.000 HD 
HETATM    5  O   UNL     3      -8.613   3.350  67.788  1.00  0.00    -0.092 OA 
HETATM    6  H   UNL     3      -8.363   3.392  66.872  1.00  0.00     0.000 HD 
HETATM    7  C   UNL     3      -8.484   4.668  68.358  1.00  0.00    -0.090 C  
ENDROOT
BRANCH   3   8
HETATM    8  C   UNL     2     -10.557  13.969  66.307  1.00  0.00    -0.281 C  
HETATM    9  O   UNL     2     -11.803  13.975  67.032  1.00  0.00    -0.383 OA 
HETATM   10  H   UNL     2     -11.858  13.200  67.578  1.00  0.00     0.000 HD 
BRANCH   8  11
HETATM   11  C   UNL     2     -10.393  12.668  65.494  1.00  0.00    -0.286 C  
HETATM   12  O   UNL     2     -10.027  13.047  64.165  1.00  0.00    -0.619 OA 
HETATM   13  H   UNL     2      -9.926  12.246  63.664  1.00  0.00     0.000 HD 
BRANCH  11  14
HETATM   14  C   UNL     2      -9.297  11.808  66.154  1.00  0.00    -0.225 C  
HETATM   15  H   UNL     2      -7.401  12.071  66.656  1.00  0.00     0.000 HD 
HETATM   16  O   UNL     2      -8.077  12.601  66.249  1.00  0.00     0.363 OA 
BRANCH  14  17
HETATM   17  C   UNL     2      -9.019  10.438  65.535  1.00  0.00    -0.176 C  
HETATM   18  C   UNL     2      -7.630   9.932  66.002  1.00  0.00    -0.106 C  
HETATM   19  H   UNL     2      -9.016   9.653  63.730  1.00  0.00     0.000 HD 
HETATM   20  O   UNL     2      -9.189  10.505  64.114  1.00  0.00    -0.208 OA 
HETATM   21  O   UNL     2      -7.501  10.040  67.264  1.00  0.00    -0.090 OA 
HETATM   22  O   UNL     2      -6.886   9.473  65.113  1.00  0.00    -0.085 OA 
ENDBRANCH  14  17
ENDBRANCH  11  14
ENDBRANCH   8  11
ENDBRANCH   3   8
BRANCH   7  23
HETATM   23  C   UNL     3      -8.888   4.601  69.837  1.00  0.00    -0.089 C  
HETATM   24  O   UNL     3      -7.815   3.973  70.568  1.00  0.00    -0.050 OA 
HETATM   25  H   UNL     3      -8.065   3.931  71.484  1.00  0.00     0.000 HD 
BRANCH  23  26
HETATM   26  C   UNL     3      -9.122   5.945  70.554  1.00  0.00    -0.148 C  
HETATM   27  O   UNL     3     -10.503   6.139  70.867  1.00  0.00    -0.210 OA 
HETATM   28  H   UNL     3     -10.647   6.968  71.310  1.00  0.00     0.000 HD 
BRANCH  26  29
HETATM   29  C   UNL     3      -8.279   6.270  71.807  1.00  0.00    -0.117 C  
HETATM   30  O   UNL     3      -8.614   5.435  72.927  1.00  0.00    -0.119 OA 
HETATM   31  H   UNL     3      -8.095   5.634  73.698  1.00  0.00     0.000 HD 
BRANCH  29  32
HETATM   32  C   UNL     3      -8.283   7.717  72.287  1.00  0.00    -0.118 C  
HETATM   33  C   UNL     3      -7.343   8.647  71.499  1.00  0.00    -0.100 C  
HETATM   34  O   UNL     3      -7.837   7.753  73.711  1.00  0.00    -0.132 OA 
HETATM   35  O   UNL     3      -6.175   8.750  72.062  1.00  0.00    -0.072 OA 
HETATM   36  O   UNL     3      -7.873   9.447  70.702  1.00  0.00    -0.149 OA 
HETATM   37  H   UNL     3      -7.838   8.655  74.011  1.00  0.00     0.000 HD 
ENDBRANCH  29  32
ENDBRANCH  26  29
ENDBRANCH  23  26
ENDBRANCH   7  23
TORSDOF 8
ENDMDL
MODEL      391
REMARK 921   NORMALIZED FREE ENERGY PREDICTED BY IDOCK:   -2.12 KCAL/MOL
REMARK 922        TOTAL FREE ENERGY PREDICTED BY IDOCK:   -5.19 KCAL/MOL
REMARK 923 INTER-LIGAND FREE ENERGY PREDICTED BY IDOCK:   -5.57 KCAL/MOL
REMARK 924 INTRA-LIGAND FREE ENERGY PREDICTED BY IDOCK:    0.38 KCAL/MOL
REMARK 927      BINDING AFFINITY PREDICTED BY RF-SCORE:    0.00 PKD
ROOT
HETATM    1 CU   UNL     1      -8.959  13.746  69.691  1.00  0.00    -0.343 Cu 
HETATM    2  O   UNL     2     -10.728   8.197  71.146  1.00  0.00    -0.216 OA 
HETATM    3  C   UNL     2     -11.374   9.232  71.901  1.00  0.00    -0.289 C  
HETATM    4  H   UNL     2     -10.914   7.374  71.585  1.00  0.00     0.000 HD 
HETATM    5  O   UNL     3      -6.461  20.424  71.286  1.00  0.00    -0.540 OA 
HETATM    6  H   UNL     3      -6.312  20.213  72.201  1.00  0.00     0.000 HD 
HETATM    7  C   UNL     3      -6.608  19.192  70.550  1.00  0.00     0.402 C  
ENDROOT
BRANCH   3   8
HETATM    8  C   UNL     2     -11.075  10.553  71.196  1.00  0.00     0.478 C  
HETATM    9  O   UNL     2     -10.068  10.347  70.186  1.00  0.00    -0.425 OA 
HETATM   10  H   UNL     2      -9.882  11.170  69.749  1.00  0.00     0.000 HD 
BRANCH   8  11
HETATM   11  C   UNL     2     -12.343  11.194  70.595  1.00  0.00    -0.388 C  
HETATM   12  O   UNL     2     -13.336  10.168  70.515  1.00  0.00    -0.573 OA 
HETATM   13  H   UNL     2     -14.116  10.562  70.145  1.00  0.00     0.000 HD 
BRANCH  11  14
HETATM   14  C   UNL     2     -12.799  12.345  71.514  1.00  0.00    -0.274 C  
HETATM   15  H   UNL     2     -14.142  12.562  72.951  1.00  0.00     0.000 HD 
HETATM   16  O   UNL     2     -13.860  11.853  72.385  1.00  0.00    -0.076 OA 
BRANCH  14  17
HETATM   17  C   UNL     2     -13.200  13.658  70.841  1.00  0.00    -0.042 C  
HETATM   18  C   UNL     2     -12.116  14.062  69.809  1.00  0.00    -0.348 C  
HETATM   19  H   UNL     2     -13.730  15.463  71.420  1.00  0.00     0.000 HD 
HETATM   20  O   UNL     2     -13.481  14.647  71.838  1.00  0.00    -0.321 OA 
HETATM   21  O   UNL     2     -11.815  13.085  69.051  1.00  0.00    -0.302 OA 
HETATM   22  O   UNL     2     -11.740  15.250  69.845  1.00  0.00    -0.278 OA 
ENDBRANCH  14  17
ENDBRANCH  11  14
ENDBRANCH   8  11
ENDBRANCH   3   8
BRANCH   7  23
HETATM   23  C   UNL     3      -6.849  19.533  69.073  1.00  0.00    -0.349 C  
HETATM   24  O   UNL     3      -6.213  20.797  68.793  1.00  0.00    -0.326 OA 
HETATM   25  H   UNL     3      -6.362  21.008  67.879  1.00  0.00     0.000 HD 
BRANCH  23  26
HETATM   26  C   UNL     3      -6.266  18.557  68.032  1.00  0.00    -0.193 C  
HETATM   27  O   UNL     3      -5.139  19.121  67.357  1.00  0.00    -0.160 OA 
HETATM   28  H   UNL     3      -4.780  18.519  66.715  1.00  0.00     0.000 HD 
BRANCH  26  29
HETATM   29  C   UNL     3      -5.907  17.124  68.484  1.00  0.00    -0.142 C  
HETATM   30  O   UNL     3      -5.993  16.171  67.412  1.00  0.00    -0.151 OA 
HETATM   31  H   UNL     3      -5.772  15.290  67.691  1.00  0.00     0.000 HD 
BRANCH  29  32
HETATM   32  C   UNL     3      -6.678  16.560  69.673  1.00  0.00    -0.126 C  
HETATM   33  C   UNL     3      -6.150  15.209  70.185  1.00  0.00    -0.148 C  
HETATM   34  O   UNL     3      -8.099  16.348  69.269  1.00  0.00    -0.228 OA 
HETATM   35  O   UNL     3      -6.781  14.205  69.650  1.00  0.00    -0.129 OA 
HETATM   36  O   UNL     3      -5.512  15.217  71.256  1.00  0.00    -0.086 OA 
HETATM   37  H   UNL     3      -8.579  15.996  70.009  1.00  0.00     0.000 HD 
ENDBRANCH  29  32
ENDBRANCH  26  29
ENDBRANCH  23  26
ENDBRANCH   7  23
TORSDOF 8
ENDMDL
MODEL      392
REMARK 921   NORMALIZED FREE ENERGY PREDICTED BY IDOCK:   -2.11 KCAL/MOL
REMARK 922        TOTAL FREE ENERGY PREDICTED BY IDOCK:   -5.18 KCAL/MOL
REMARK 923 INTER-LIGAND FREE ENERGY PREDICTED BY IDOCK:   -5.32 KCAL/MOL
REMARK 924 INTRA-LIGAND FREE ENERGY PREDICTED BY IDOCK:    0.14 KCAL/MOL
REMARK 927      BINDING AFFINITY PREDICTED BY RF-SCORE:    0.00 PKD
ROOT
HETATM    1 CU   UNL     1      -9.155  13.427  69.777  1.00  0.00    -0.116 Cu 
HETATM    2  O   UNL     2     -10.896   7.858  71.191  1.00  0.00    -0.230 OA 
HETATM    3  C   UNL     2     -11.523   8.883  71.976  1.00  0.00    -0.361 C  
HETATM    4  H   UNL     2     -11.073   7.030  71.622  1.00  0.00     0.000 HD 
HETATM    5  O   UNL     3      -6.614  20.079  71.411  1.00  0.00    -0.123 OA 
HETATM    6  H   UNL     3      -6.444  19.855  72.319  1.00  0.00     0.000 HD 
HETATM    7  C   UNL     3      -6.779  18.859  70.661  1.00  0.00     0.941 C  
ENDROOT
BRANCH   3   8
HETATM    8  C   UNL     2     -11.240  10.214  71.284  1.00  0.00    -0.072 C  
HETATM    9  O   UNL     2     -10.276  10.018  70.231  1.00  0.00    -0.307 OA 
HETATM   10  H   UNL     2     -10.099  10.846  69.801  1.00  0.00     0.000 HD 
BRANCH   8  11
HETATM   11  C   UNL     2     -12.524  10.878  70.745  1.00  0.00    -0.394 C  
HETATM   12  O   UNL     2     -13.557   9.891  70.789  1.00  0.00    -0.553 OA 
HETATM   13  H   UNL     2     -14.348  10.299  70.458  1.00  0.00     0.000 HD 
BRANCH  11  14
HETATM   14  C   UNL     2     -12.866  12.088  71.637  1.00  0.00    -0.294 C  
HETATM   15  H   UNL     2     -14.078  12.423  73.165  1.00  0.00     0.000 HD 
HETATM   16  O   UNL     2     -13.867  11.677  72.616  1.00  0.00     0.316 OA 
BRANCH  14  17
HETATM   17  C   UNL     2     -13.281  13.379  70.931  1.00  0.00     0.051 C  
HETATM   18  C   UNL     2     -12.238  13.729  69.839  1.00  0.00    -0.321 C  
HETATM   19  H   UNL     2     -13.764  15.212  71.462  1.00  0.00     0.000 HD 
HETATM   20  O   UNL     2     -13.507  14.410  71.901  1.00  0.00    -0.340 OA 
HETATM   21  O   UNL     2     -11.981  12.720  69.108  1.00  0.00    -0.291 OA 
HETATM   22  O   UNL     2     -11.847  14.913  69.814  1.00  0.00    -0.280 OA 
ENDBRANCH  14  17
ENDBRANCH  11  14
ENDBRANCH   8  11
ENDBRANCH   3   8
BRANCH   7  23
HETATM   23  C   UNL     3      -7.054  19.221  69.195  1.00  0.00    -0.335 C  
HETATM   24  O   UNL     3      -6.471  20.514  68.935  1.00  0.00    -0.294 OA 
HETATM   25  H   UNL     3      -6.641  20.739  68.027  1.00  0.00     0.000 HD 
BRANCH  23  26
HETATM   26  C   UNL     3      -6.449  18.290  68.126  1.00  0.00    -0.189 C  
HETATM   27  O   UNL     3      -5.283  17.620  68.611  1.00  0.00    -0.140 OA 
HETATM   28  H   UNL     3      -4.911  17.047  67.951  1.00  0.00     0.000 HD 
BRANCH  26  29
HETATM   29  C   UNL     3      -7.369  17.254  67.444  1.00  0.00    -0.163 C  
HETATM   30  O   UNL     3      -6.879  16.845  66.157  1.00  0.00    -0.145 OA 
HETATM   31  H   UNL     3      -7.446  16.208  65.738  1.00  0.00     0.000 HD 
BRANCH  29  32
HETATM   32  C   UNL     3      -8.838  17.631  67.286  1.00  0.00    -0.236 C  
HETATM   33  C   UNL     3      -9.735  16.485  66.787  1.00  0.00    -0.258 C  
HETATM   34  O   UNL     3      -8.947  18.736  66.288  1.00  0.00    -0.375 OA 
HETATM   35  O   UNL     3      -9.875  16.503  65.494  1.00  0.00    -0.537 OA 
HETATM   36  O   UNL     3     -10.491  15.951  67.622  1.00  0.00    -0.275 OA 
HETATM   37  H   UNL     3      -9.862  18.971  66.189  1.00  0.00     0.000 HD 
ENDBRANCH  29  32
ENDBRANCH  26  29
ENDBRANCH  23  26
ENDBRANCH   7  23
TORSDOF 8
ENDMDL
MODEL      393
REMARK 921   NORMALIZED FREE ENERGY PREDICTED BY IDOCK:   -2.07 KCAL/MOL
REMARK 922        TOTAL FREE ENERGY PREDICTED BY IDOCK:   -5.12 KCAL/MOL
REMARK 923 INTER-LIGAND FREE ENERGY PREDICTED BY IDOCK:   -5.05 KCAL/MOL
REMARK 924 INTRA-LIGAND FREE ENERGY PREDICTED BY IDOCK:   -0.07 KCAL/MOL
REMARK 927      BINDING AFFINITY PREDICTED BY RF-SCORE:    0.00 PKD
ROOT
HETATM    1 CU   UNL     1     -10.579  13.150  68.558  1.00  0.00    -0.205 Cu 
HETATM    2  O   UNL     2     -11.371   7.249  67.785  1.00  0.00    -0.485 OA 
HETATM    3  C   UNL     2     -10.454   7.583  68.838  1.00  0.00    -0.203 C  
HETATM    4  H   UNL     2     -11.268   6.321  67.609  1.00  0.00     0.000 HD 
HETATM    5  O   UNL     3      -6.456  19.141  69.251  1.00  0.00    -0.278 OA 
HETATM    6  H   UNL     3      -5.649  18.680  69.051  1.00  0.00     0.000 HD 
HETATM    7  C   UNL     3      -7.567  18.325  68.828  1.00  0.00    -0.279 C  
ENDROOT
BRANCH   3   8
HETATM    8  C   UNL     2     -10.620   9.073  69.122  1.00  0.00    -0.203 C  
HETATM    9  O   UNL     2     -12.014   9.375  69.328  1.00  0.00    -0.024 OA 
HETATM   10  H   UNL     2     -12.117  10.303  69.504  1.00  0.00     0.000 HD 
BRANCH   8  11
HETATM   11  C   UNL     2      -9.768   9.538  70.321  1.00  0.00    -0.263 C  
HETATM   12  O   UNL     2     -10.616   9.518  71.472  1.00  0.00    -0.323 OA 
HETATM   13  H   UNL     2     -10.092   9.803  72.211  1.00  0.00     0.000 HD 
BRANCH  11  14
HETATM   14  C   UNL     2      -8.578   8.571  70.486  1.00  0.00    -0.147 C  
HETATM   15  H   UNL     2      -8.074   7.151  71.769  1.00  0.00     0.000 HD 
HETATM   16  O   UNL     2      -8.807   7.747  71.667  1.00  0.00    -0.114 OA 
BRANCH  14  17
HETATM   17  C   UNL     2      -7.178   9.185  70.503  1.00  0.00    -0.097 C  
HETATM   18  C   UNL     2      -6.858   9.782  69.109  1.00  0.00    -0.054 C  
HETATM   19  H   UNL     2      -5.362   8.601  70.987  1.00  0.00     0.000 HD 
HETATM   20  O   UNL     2      -6.232   8.219  70.976  1.00  0.00    -0.033 OA 
HETATM   21  O   UNL     2      -7.813  10.514  68.692  1.00  0.00    -0.102 OA 
HETATM   22  O   UNL     2      -5.740   9.501  68.635  1.00  0.00    -0.040 OA 
ENDBRANCH  14  17
ENDBRANCH  11  14
ENDBRANCH   8  11
ENDBRANCH   3   8
BRANCH   7  23
HETATM   23  C   UNL     3      -8.870  19.070  69.151  1.00  0.00    -0.067 C  
HETATM   24  O   UNL     3      -8.656  20.475  68.907  1.00  0.00     0.541 OA 
HETATM   25  H   UNL     3      -9.463  20.937  69.107  1.00  0.00     0.000 HD 
BRANCH  23  26
HETATM   26  C   UNL     3     -10.106  18.704  68.307  1.00  0.00    -0.389 C  
HETATM   27  O   UNL     3     -10.972  19.828  68.130  1.00  0.00    -0.264 OA 
HETATM   28  H   UNL     3     -11.734  19.601  67.609  1.00  0.00     0.000 HD 
BRANCH  26  29
HETATM   29  C   UNL     3      -9.889  18.025  66.937  1.00  0.00    -0.330 C  
HETATM   30  O   UNL     3     -10.784  18.520  65.928  1.00  0.00    -0.404 OA 
HETATM   31  H   UNL     3     -10.650  18.102  65.086  1.00  0.00     0.000 HD 
BRANCH  29  32
HETATM   32  C   UNL     3      -9.945  16.501  66.903  1.00  0.00    -0.271 C  
HETATM   33  C   UNL     3     -10.627  15.866  68.128  1.00  0.00    -0.280 C  
HETATM   34  O   UNL     3      -8.551  15.968  66.855  1.00  0.00    -0.190 OA 
HETATM   35  O   UNL     3      -9.768  15.541  69.049  1.00  0.00    -0.207 OA 
HETATM   36  O   UNL     3     -11.772  15.403  67.963  1.00  0.00    -0.336 OA 
HETATM   37  H   UNL     3      -8.586  15.019  66.835  1.00  0.00     0.000 HD 
ENDBRANCH  29  32
ENDBRANCH  26  29
ENDBRANCH  23  26
ENDBRANCH   7  23
TORSDOF 8
ENDMDL
MODEL      394
REMARK 921   NORMALIZED FREE ENERGY PREDICTED BY IDOCK:   -1.86 KCAL/MOL
REMARK 922        TOTAL FREE ENERGY PREDICTED BY IDOCK:   -4.80 KCAL/MOL
REMARK 923 INTER-LIGAND FREE ENERGY PREDICTED BY IDOCK:   -4.21 KCAL/MOL
REMARK 924 INTRA-LIGAND FREE ENERGY PREDICTED BY IDOCK:   -0.59 KCAL/MOL
REMARK 927      BINDING AFFINITY PREDICTED BY RF-SCORE:    0.00 PKD
ROOT
HETATM    1 CU   UNL     1      -9.593  11.589  66.778  1.00  0.00    -0.170 Cu 
HETATM    2  O   UNL     2     -12.482  15.571  63.339  1.00  0.00    -0.431 OA 
HETATM    3  C   UNL     2     -11.855  16.145  64.495  1.00  0.00     0.063 C  
HETATM    4  H   UNL     2     -13.072  16.228  62.986  1.00  0.00     0.000 HD 
HETATM    5  O   UNL     3      -8.059   8.384  73.162  1.00  0.00    -0.297 OA 
HETATM    6  H   UNL     3      -8.745   8.851  73.627  1.00  0.00     0.000 HD 
HETATM    7  C   UNL     3      -8.313   8.489  71.747  1.00  0.00    -0.163 C  
ENDROOT
BRANCH   3   8
HETATM    8  C   UNL     2     -10.907  15.090  65.060  1.00  0.00    -0.422 C  
HETATM    9  O   UNL     2      -9.738  14.991  64.224  1.00  0.00     0.078 OA 
HETATM   10  H   UNL     2      -9.148  14.335  64.576  1.00  0.00     0.000 HD 
BRANCH   8  11
HETATM   11  C   UNL     2     -10.519  15.379  66.525  1.00  0.00    -0.294 C  
HETATM   12  O   UNL     2     -11.251  16.538  66.933  1.00  0.00     0.054 OA 
HETATM   13  H   UNL     2     -11.013  16.716  67.835  1.00  0.00     0.000 HD 
BRANCH  11  14
HETATM   14  C   UNL     2     -10.887  14.153  67.385  1.00  0.00    -0.287 C  
HETATM   15  H   UNL     2     -12.543  13.444  68.205  1.00  0.00     0.000 HD 
HETATM   16  O   UNL     2     -12.316  14.200  67.676  1.00  0.00    -0.273 OA 
BRANCH  14  17
HETATM   17  C   UNL     2     -10.071  13.922  68.657  1.00  0.00    -0.203 C  
HETATM   18  C   UNL     2     -10.312  15.092  69.645  1.00  0.00    -0.227 C  
HETATM   19  H   UNL     2      -8.191  13.552  69.107  1.00  0.00     0.000 HD 
HETATM   20  O   UNL     2      -8.698  13.695  68.316  1.00  0.00    -0.167 OA 
HETATM   21  O   UNL     2     -11.556  15.329  69.783  1.00  0.00    -0.270 OA 
HETATM   22  O   UNL     2      -9.295  15.585  70.170  1.00  0.00    -0.040 OA 
ENDBRANCH  14  17
ENDBRANCH  11  14
ENDBRANCH   8  11
ENDBRANCH   3   8
BRANCH   7  23
HETATM   23  C   UNL     3      -7.207   7.737  70.996  1.00  0.00    -0.054 C  
HETATM   24  O   UNL     3      -6.242   7.274  71.963  1.00  0.00    -0.040 OA 
HETATM   25  H   UNL     3      -5.556   6.807  71.498  1.00  0.00     0.000 HD 
BRANCH  23  26
HETATM   26  C   UNL     3      -7.630   6.473  70.221  1.00  0.00    -0.096 C  
HETATM   27  O   UNL     3      -8.502   5.649  70.998  1.00  0.00    -0.119 OA 
HETATM   28  H   UNL     3      -8.763   4.870  70.520  1.00  0.00     0.000 HD 
BRANCH  26  29
HETATM   29  C   UNL     3      -8.233   6.640  68.810  1.00  0.00    -0.120 C  
HETATM   30  O   UNL     3      -9.657   6.827  68.838  1.00  0.00    -0.138 OA 
HETATM   31  H   UNL     3     -10.028   6.930  67.969  1.00  0.00     0.000 HD 
BRANCH  29  32
HETATM   32  C   UNL     3      -7.926   5.547  67.792  1.00  0.00    -0.101 C  
HETATM   33  C   UNL     3      -8.784   5.611  66.516  1.00  0.00    -0.121 C  
HETATM   34  O   UNL     3      -8.181   4.217  68.422  1.00  0.00    -0.084 OA 
HETATM   35  O   UNL     3      -9.839   4.856  66.601  1.00  0.00    -0.162 OA 
HETATM   36  O   UNL     3      -8.228   6.022  65.479  1.00  0.00    -0.129 OA 
HETATM   37  H   UNL     3      -7.990   3.536  67.788  1.00  0.00     0.000 HD 
ENDBRANCH  29  32
ENDBRANCH  26  29
ENDBRANCH  23  26
ENDBRANCH   7  23
TORSDOF 8
ENDMDL
MODEL      395
REMARK 921   NORMALIZED FREE ENERGY PREDICTED BY IDOCK:   -1.81 KCAL/MOL
REMARK 922        TOTAL FREE ENERGY PREDICTED BY IDOCK:   -4.74 KCAL/MOL
REMARK 923 INTER-LIGAND FREE ENERGY PREDICTED BY IDOCK:   -4.45 KCAL/MOL
REMARK 924 INTRA-LIGAND FREE ENERGY PREDICTED BY IDOCK:   -0.29 KCAL/MOL
REMARK 927      BINDING AFFINITY PREDICTED BY RF-SCORE:    0.00 PKD
ROOT
HETATM    1 CU   UNL     1      -9.929  13.777  67.465  1.00  0.00    -0.209 Cu 
HETATM    2  O   UNL     2     -11.299  19.516  66.357  1.00  0.00     0.004 OA 
HETATM    3  C   UNL     2      -9.890  19.247  66.382  1.00  0.00    -0.388 C  
HETATM    4  H   UNL     2     -11.403  20.460  66.385  1.00  0.00     0.000 HD 
HETATM    5  O   UNL     3      -6.386   8.495  71.060  1.00  0.00    -0.037 OA 
HETATM    6  H   UNL     3      -6.016   9.096  71.696  1.00  0.00     0.000 HD 
HETATM    7  C   UNL     3      -7.480   9.153  70.390  1.00  0.00    -0.106 C  
ENDROOT
BRANCH   3   8
HETATM    8  C   UNL     2      -9.722  17.730  66.337  1.00  0.00    -0.308 C  
HETATM    9  O   UNL     2     -10.462  17.194  65.223  1.00  0.00    -0.655 OA 
HETATM   10  H   UNL     2     -10.358  16.250  65.196  1.00  0.00     0.000 HD 
BRANCH   8  11
HETATM   11  C   UNL     2      -8.240  17.308  66.275  1.00  0.00    -0.267 C  
HETATM   12  O   UNL     2      -7.518  18.175  67.153  1.00  0.00    -0.203 OA 
HETATM   13  H   UNL     2      -6.606  17.915  67.115  1.00  0.00     0.000 HD 
BRANCH  11  14
HETATM   14  C   UNL     2      -8.126  15.837  66.722  1.00  0.00    -0.262 C  
HETATM   15  H   UNL     2      -9.145  14.173  66.391  1.00  0.00     0.000 HD 
HETATM   16  O   UNL     2      -9.215  15.079  66.116  1.00  0.00    -0.292 OA 
BRANCH  14  17
HETATM   17  C   UNL     2      -8.037  15.569  68.225  1.00  0.00    -0.133 C  
HETATM   18  C   UNL     2      -8.137  14.044  68.486  1.00  0.00    -0.139 C  
HETATM   19  H   UNL     2      -8.952  16.197  69.850  1.00  0.00     0.000 HD 
HETATM   20  O   UNL     2      -9.007  16.364  68.917  1.00  0.00    -0.240 OA 
HETATM   21  O   UNL     2      -7.346  13.395  67.728  1.00  0.00    -0.124 OA 
HETATM   22  O   UNL     2      -8.918  13.693  69.392  1.00  0.00     0.562 OA 
ENDBRANCH  14  17
ENDBRANCH  11  14
ENDBRANCH   8  11
ENDBRANCH   3   8
BRANCH   7  23
HETATM   23  C   UNL     3      -8.078   8.183  69.362  1.00  0.00    -0.116 C  
HETATM   24  O   UNL     3      -7.049   7.250  68.973  1.00  0.00    -0.075 OA 
HETATM   25  H   UNL     3      -7.419   6.649  68.336  1.00  0.00     0.000 HD 
BRANCH  23  26
HETATM   26  C   UNL     3      -9.251   7.304  69.838  1.00  0.00    -0.141 C  
HETATM   27  O   UNL     3      -9.447   6.180  68.977  1.00  0.00    -0.127 OA 
HETATM   28  H   UNL     3     -10.170   5.638  69.271  1.00  0.00     0.000 HD 
BRANCH  26  29
HETATM   29  C   UNL     3      -9.259   6.814  71.303  1.00  0.00    -0.154 C  
HETATM   30  O   UNL     3      -8.120   5.996  71.616  1.00  0.00    -0.115 OA 
HETATM   31  H   UNL     3      -8.125   5.695  72.517  1.00  0.00     0.000 HD 
BRANCH  29  32
HETATM   32  C   UNL     3     -10.507   6.079  71.779  1.00  0.00    -0.221 C  
HETATM   33  C   UNL     3     -10.223   4.736  72.475  1.00  0.00    -0.190 C  
HETATM   34  O   UNL     3     -11.373   5.784  70.599  1.00  0.00    -0.222 OA 
HETATM   35  O   UNL     3     -10.284   3.736  71.645  1.00  0.00    -0.125 OA 
HETATM   36  O   UNL     3     -10.350   4.700  73.714  1.00  0.00    -0.169 OA 
HETATM   37  H   UNL     3     -12.150   5.326  70.896  1.00  0.00     0.000 HD 
ENDBRANCH  29  32
ENDBRANCH  26  29
ENDBRANCH  23  26
ENDBRANCH   7  23
TORSDOF 8
ENDMDL
MODEL      396
REMARK 921   NORMALIZED FREE ENERGY PREDICTED BY IDOCK:   -1.75 KCAL/MOL
REMARK 922        TOTAL FREE ENERGY PREDICTED BY IDOCK:   -4.64 KCAL/MOL
REMARK 923 INTER-LIGAND FREE ENERGY PREDICTED BY IDOCK:   -4.97 KCAL/MOL
REMARK 924 INTRA-LIGAND FREE ENERGY PREDICTED BY IDOCK:    0.33 KCAL/MOL
REMARK 927      BINDING AFFINITY PREDICTED BY RF-SCORE:    0.00 PKD
ROOT
HETATM    1 CU   UNL     1     -10.183  13.358  69.787  1.00  0.00    -0.413 Cu 
HETATM    2  O   UNL     2     -12.209  17.349  73.787  1.00  0.00     0.151 OA 
HETATM    3  C   UNL     2     -13.235  16.530  73.209  1.00  0.00     0.168 C  
HETATM    4  H   UNL     2     -12.644  18.066  74.234  1.00  0.00     0.000 HD 
HETATM    5  O   UNL     3     -10.218  10.068  63.263  1.00  0.00    -0.373 OA 
HETATM    6  H   UNL     3     -10.858  10.669  62.899  1.00  0.00     0.000 HD 
HETATM    7  C   UNL     3      -9.670  10.654  64.462  1.00  0.00    -0.309 C  
ENDROOT
BRANCH   3   8
HETATM    8  C   UNL     2     -12.538  15.376  72.492  1.00  0.00    -0.385 C  
HETATM    9  O   UNL     2     -11.418  14.924  73.278  1.00  0.00    -0.130 OA 
HETATM   10  H   UNL     2     -10.984  14.206  72.831  1.00  0.00     0.000 HD 
BRANCH   8  11
HETATM   11  C   UNL     2     -13.502  14.214  72.179  1.00  0.00    -0.454 C  
HETATM   12  O   UNL     2     -14.410  14.679  71.176  1.00  0.00    -0.518 OA 
HETATM   13  H   UNL     2     -15.004  13.963  70.983  1.00  0.00     0.000 HD 
BRANCH  11  14
HETATM   14  C   UNL     2     -12.680  13.011  71.676  1.00  0.00    -0.207 C  
HETATM   15  H   UNL     2     -12.200  12.264  69.907  1.00  0.00     0.000 HD 
HETATM   16  O   UNL     2     -12.707  13.005  70.217  1.00  0.00    -0.078 OA 
BRANCH  14  17
HETATM   17  C   UNL     2     -13.038  11.636  72.240  1.00  0.00     0.044 C  
HETATM   18  C   UNL     2     -12.684  10.542  71.200  1.00  0.00    -0.418 C  
HETATM   19  H   UNL     2     -14.624  10.778  73.029  1.00  0.00     0.000 HD 
HETATM   20  O   UNL     2     -14.402  11.632  72.678  1.00  0.00     0.811 OA 
HETATM   21  O   UNL     2     -11.504  10.700  70.750  1.00  0.00    -0.327 OA 
HETATM   22  O   UNL     2     -13.559   9.678  70.995  1.00  0.00    -0.309 OA 
ENDBRANCH  14  17
ENDBRANCH  11  14
ENDBRANCH   8  11
ENDBRANCH   3   8
BRANCH   7  23
HETATM   23  C   UNL     3      -8.636   9.685  65.050  1.00  0.00    -0.162 C  
HETATM   24  O   UNL     3      -7.723   9.309  63.999  1.00  0.00    -0.108 OA 
HETATM   25  H   UNL     3      -7.083   8.708  64.363  1.00  0.00     0.000 HD 
BRANCH  23  26
HETATM   26  C   UNL     3      -7.739  10.228  66.179  1.00  0.00    -0.123 C  
HETATM   27  O   UNL     3      -7.581  11.646  66.088  1.00  0.00    -0.368 OA 
HETATM   28  H   UNL     3      -7.028  11.980  66.785  1.00  0.00     0.000 HD 
BRANCH  26  29
HETATM   29  C   UNL     3      -8.087   9.861  67.639  1.00  0.00    -0.110 C  
HETATM   30  O   UNL     3      -8.350   8.458  67.806  1.00  0.00    -0.128 OA 
HETATM   31  H   UNL     3      -8.564   8.233  68.704  1.00  0.00     0.000 HD 
BRANCH  29  32
HETATM   32  C   UNL     3      -9.230  10.631  68.292  1.00  0.00    -0.153 C  
HETATM   33  C   UNL     3     -10.047  11.497  67.318  1.00  0.00    -0.199 C  
HETATM   34  O   UNL     3      -8.664  11.551  69.323  1.00  0.00    -0.362 OA 
HETATM   35  O   UNL     3      -9.612  12.722  67.273  1.00  0.00    -0.199 OA 
HETATM   36  O   UNL     3     -11.182  11.085  67.007  1.00  0.00    -0.308 OA 
HETATM   37  H   UNL     3      -9.375  12.031  69.730  1.00  0.00     0.000 HD 
ENDBRANCH  29  32
ENDBRANCH  26  29
ENDBRANCH  23  26
ENDBRANCH   7  23
TORSDOF 8
ENDMDL
MODEL      397
REMARK 921   NORMALIZED FREE ENERGY PREDICTED BY IDOCK:   -1.51 KCAL/MOL
REMARK 922        TOTAL FREE ENERGY PREDICTED BY IDOCK:   -4.29 KCAL/MOL
REMARK 923 INTER-LIGAND FREE ENERGY PREDICTED BY IDOCK:   -4.08 KCAL/MOL
REMARK 924 INTRA-LIGAND FREE ENERGY PREDICTED BY IDOCK:   -0.20 KCAL/MOL
REMARK 927      BINDING AFFINITY PREDICTED BY RF-SCORE:    0.00 PKD
ROOT
HETATM    1 CU   UNL     1      -9.523  12.522  68.471  1.00  0.00    -0.179 Cu 
HETATM    2  O   UNL     2     -10.606  17.666  65.571  1.00  0.00    -0.622 OA 
HETATM    3  C   UNL     2      -9.236  17.242  65.517  1.00  0.00     0.711 C  
HETATM    4  H   UNL     2     -10.631  18.568  65.274  1.00  0.00     0.000 HD 
HETATM    5  O   UNL     3      -5.867   8.371  73.244  1.00  0.00    -0.067 OA 
HETATM    6  H   UNL     3      -5.354   9.100  73.574  1.00  0.00     0.000 HD 
HETATM    7  C   UNL     3      -7.000   8.897  72.523  1.00  0.00     0.191 C  
ENDROOT
BRANCH   3   8
HETATM    8  C   UNL     2      -9.196  15.793  65.994  1.00  0.00    -0.344 C  
HETATM    9  O   UNL     2      -7.829  15.394  66.216  1.00  0.00    -0.162 OA 
HETATM   10  H   UNL     2      -7.804  14.492  66.512  1.00  0.00     0.000 HD 
BRANCH   8  11
HETATM   11  C   UNL     2     -10.051  15.570  67.258  1.00  0.00    -0.250 C  
HETATM   12  O   UNL     2     -10.204  14.157  67.418  1.00  0.00    -0.242 OA 
HETATM   13  H   UNL     2     -10.731  14.019  68.196  1.00  0.00     0.000 HD 
BRANCH  11  14
HETATM   14  C   UNL     2      -9.323  16.195  68.465  1.00  0.00    -0.209 C  
HETATM   15  H   UNL     2      -9.576  16.192  70.427  1.00  0.00     0.000 HD 
HETATM   16  O   UNL     2     -10.024  15.808  69.684  1.00  0.00    -0.271 OA 
BRANCH  14  17
HETATM   17  C   UNL     2      -9.075  17.703  68.425  1.00  0.00    -0.277 C  
HETATM   18  C   UNL     2      -7.583  17.990  68.732  1.00  0.00    -0.270 C  
HETATM   19  H   UNL     2      -9.851  19.307  69.262  1.00  0.00     0.000 HD 
HETATM   20  O   UNL     2     -10.006  18.370  69.286  1.00  0.00    -0.255 OA 
HETATM   21  O   UNL     2      -6.819  17.253  68.029  1.00  0.00    -0.167 OA 
HETATM   22  O   UNL     2      -7.357  18.893  69.561  1.00  0.00    -0.114 OA 
ENDBRANCH  14  17
ENDBRANCH  11  14
ENDBRANCH   8  11
ENDBRANCH   3   8
BRANCH   7  23
HETATM   23  C   UNL     3      -7.828   7.720  71.991  1.00  0.00    -0.100 C  
HETATM   24  O   UNL     3      -8.668   7.240  73.061  1.00  0.00    -0.121 OA 
HETATM   25  H   UNL     3      -9.181   6.511  72.731  1.00  0.00     0.000 HD 
BRANCH  23  26
HETATM   26  C   UNL     3      -8.797   8.022  70.831  1.00  0.00    -0.139 C  
HETATM   27  O   UNL     3      -8.516   9.287  70.228  1.00  0.00    -0.161 OA 
HETATM   28  H   UNL     3      -9.114   9.473  69.513  1.00  0.00     0.000 HD 
BRANCH  26  29
HETATM   29  C   UNL     3      -8.965   6.968  69.716  1.00  0.00    -0.141 C  
HETATM   30  O   UNL     3      -9.918   7.368  68.718  1.00  0.00    -0.161 OA 
HETATM   31  H   UNL     3     -10.021   6.718  68.032  1.00  0.00     0.000 HD 
BRANCH  29  32
HETATM   32  C   UNL     3      -9.314   5.549  70.152  1.00  0.00    -0.146 C  
HETATM   33  C   UNL     3      -8.720   4.447  69.256  1.00  0.00    -0.087 C  
HETATM   34  O   UNL     3     -10.798   5.385  70.118  1.00  0.00    -0.281 OA 
HETATM   35  O   UNL     3      -9.552   4.073  68.329  1.00  0.00    -0.163 OA 
HETATM   36  O   UNL     3      -7.756   3.803  69.712  1.00  0.00    -0.051 OA 
HETATM   37  H   UNL     3     -11.015   4.501  70.390  1.00  0.00     0.000 HD 
ENDBRANCH  29  32
ENDBRANCH  26  29
ENDBRANCH  23  26
ENDBRANCH   7  23
TORSDOF 8
ENDMDL
MODEL      398
REMARK 921   NORMALIZED FREE ENERGY PREDICTED BY IDOCK:   -1.42 KCAL/MOL
REMARK 922        TOTAL FREE ENERGY PREDICTED BY IDOCK:   -4.15 KCAL/MOL
REMARK 923 INTER-LIGAND FREE ENERGY PREDICTED BY IDOCK:   -4.60 KCAL/MOL
REMARK 924 INTRA-LIGAND FREE ENERGY PREDICTED BY IDOCK:    0.44 KCAL/MOL
REMARK 927      BINDING AFFINITY PREDICTED BY RF-SCORE:    0.00 PKD
ROOT
HETATM    1 CU   UNL     1      -8.256  12.445  69.279  1.00  0.00    -0.304 Cu 
HETATM    2  O   UNL     2      -8.501  17.778  66.534  1.00  0.00    -0.248 OA 
HETATM    3  C   UNL     2      -7.260  17.083  66.349  1.00  0.00    -0.276 C  
HETATM    4  H   UNL     2      -8.365  18.674  66.247  1.00  0.00     0.000 HD 
HETATM    5  O   UNL     3      -5.132   7.502  73.660  1.00  0.00    -0.041 OA 
HETATM    6  H   UNL     3      -4.452   8.101  73.946  1.00  0.00     0.000 HD 
HETATM    7  C   UNL     3      -6.191   8.270  73.051  1.00  0.00    -0.084 C  
ENDROOT
BRANCH   3   8
HETATM    8  C   UNL     2      -7.478  15.644  66.809  1.00  0.00    -0.028 C  
HETATM    9  O   UNL     2      -6.266  15.133  67.396  1.00  0.00    -0.312 OA 
HETATM   10  H   UNL     2      -6.402  14.237  67.682  1.00  0.00     0.000 HD 
BRANCH   8  11
HETATM   11  C   UNL     2      -8.665  15.517  67.786  1.00  0.00    -0.167 C  
HETATM   12  O   UNL     2      -9.534  14.509  67.263  1.00  0.00    -0.206 OA 
HETATM   13  H   UNL     2     -10.265  14.430  67.865  1.00  0.00     0.000 HD 
BRANCH  11  14
HETATM   14  C   UNL     2      -8.122  15.124  69.174  1.00  0.00    -0.214 C  
HETATM   15  H   UNL     2      -8.716  15.363  71.047  1.00  0.00     0.000 HD 
HETATM   16  O   UNL     2      -9.050  15.605  70.191  1.00  0.00     0.104 OA 
BRANCH  14  17
HETATM   17  C   UNL     2      -6.685  15.528  69.502  1.00  0.00    -0.179 C  
HETATM   18  C   UNL     2      -6.083  14.523  70.517  1.00  0.00    -0.183 C  
HETATM   19  H   UNL     2      -5.757  17.149  70.122  1.00  0.00     0.000 HD 
HETATM   20  O   UNL     2      -6.650  16.898  69.918  1.00  0.00    -0.137 OA 
HETATM   21  O   UNL     2      -6.283  13.321  70.148  1.00  0.00    -0.128 OA 
HETATM   22  O   UNL     2      -5.481  15.020  71.489  1.00  0.00    -0.082 OA 
ENDBRANCH  14  17
ENDBRANCH  11  14
ENDBRANCH   8  11
ENDBRANCH   3   8
BRANCH   7  23
HETATM   23  C   UNL     3      -7.290   7.304  72.588  1.00  0.00    -0.076 C  
HETATM   24  O   UNL     3      -7.073   6.033  73.235  1.00  0.00    -0.083 OA 
HETATM   25  H   UNL     3      -7.753   5.434  72.948  1.00  0.00     0.000 HD 
BRANCH  23  26
HETATM   26  C   UNL     3      -8.741   7.684  72.938  1.00  0.00    -0.153 C  
HETATM   27  O   UNL     3      -9.005   9.061  72.656  1.00  0.00    -0.238 OA 
HETATM   28  H   UNL     3      -9.901   9.295  72.872  1.00  0.00     0.000 HD 
BRANCH  26  29
HETATM   29  C   UNL     3      -9.889   6.830  72.356  1.00  0.00    -0.158 C  
HETATM   30  O   UNL     3      -9.411   5.675  71.648  1.00  0.00    -0.145 OA 
HETATM   31  H   UNL     3     -10.117   5.150  71.290  1.00  0.00     0.000 HD 
BRANCH  29  32
HETATM   32  C   UNL     3     -10.896   7.543  71.460  1.00  0.00    -0.227 C  
HETATM   33  C   UNL     3     -12.346   7.489  71.971  1.00  0.00    -0.271 C  
HETATM   34  O   UNL     3     -10.884   6.898  70.114  1.00  0.00    -0.239 OA 
HETATM   35  O   UNL     3     -13.007   6.494  71.457  1.00  0.00    -0.179 OA 
HETATM   36  O   UNL     3     -12.814   8.535  72.462  1.00  0.00    -0.345 OA 
HETATM   37  H   UNL     3     -11.512   7.342  69.555  1.00  0.00     0.000 HD 
ENDBRANCH  29  32
ENDBRANCH  26  29
ENDBRANCH  23  26
ENDBRANCH   7  23
TORSDOF 8
ENDMDL
MODEL      399
REMARK 921   NORMALIZED FREE ENERGY PREDICTED BY IDOCK:   -1.00 KCAL/MOL
REMARK 922        TOTAL FREE ENERGY PREDICTED BY IDOCK:   -3.55 KCAL/MOL
REMARK 923 INTER-LIGAND FREE ENERGY PREDICTED BY IDOCK:   -3.76 KCAL/MOL
REMARK 924 INTRA-LIGAND FREE ENERGY PREDICTED BY IDOCK:    0.21 KCAL/MOL
REMARK 927      BINDING AFFINITY PREDICTED BY RF-SCORE:    0.00 PKD
ROOT
HETATM    1 CU   UNL     1      -8.213  12.430  69.322  1.00  0.00    -0.304 Cu 
HETATM    2  O   UNL     2      -8.033  17.702  66.456  1.00  0.00    -0.231 OA 
HETATM    3  C   UNL     2      -6.800  16.970  66.411  1.00  0.00    -0.213 C  
HETATM    4  H   UNL     2      -7.844  18.587  66.166  1.00  0.00     0.000 HD 
HETATM    5  O   UNL     3      -5.681   7.511  74.095  1.00  0.00    -0.063 OA 
HETATM    6  H   UNL     3      -5.016   8.098  74.436  1.00  0.00     0.000 HD 
HETATM    7  C   UNL     3      -6.652   8.291  73.368  1.00  0.00    -0.112 C  
ENDROOT
BRANCH   3   8
HETATM    8  C   UNL     2      -7.104  15.549  66.876  1.00  0.00     0.124 C  
HETATM    9  O   UNL     2      -5.999  15.046  67.653  1.00  0.00    -0.248 OA 
HETATM   10  H   UNL     2      -6.188  14.161  67.942  1.00  0.00     0.000 HD 
BRANCH   8  11
HETATM   11  C   UNL     2      -8.424  15.463  67.670  1.00  0.00    -0.162 C  
HETATM   12  O   UNL     2      -9.066  16.736  67.556  1.00  0.00    -0.208 OA 
HETATM   13  H   UNL     2      -9.879  16.684  68.045  1.00  0.00     0.000 HD 
BRANCH  11  14
HETATM   14  C   UNL     2      -9.293  14.342  67.065  1.00  0.00    -0.242 C  
HETATM   15  H   UNL     2     -10.555  12.992  67.771  1.00  0.00     0.000 HD 
HETATM   16  O   UNL     2     -10.020  13.682  68.143  1.00  0.00    -0.232 OA 
BRANCH  14  17
HETATM   17  C   UNL     2      -8.591  13.323  66.167  1.00  0.00     0.705 C  
HETATM   18  C   UNL     2      -9.596  12.777  65.120  1.00  0.00     0.144 C  
HETATM   19  H   UNL     2      -7.522  11.689  66.415  1.00  0.00     0.000 HD 
HETATM   20  O   UNL     2      -7.958  12.322  66.973  1.00  0.00    -0.169 OA 
HETATM   21  O   UNL     2     -10.224  13.725  64.548  1.00  0.00    -0.414 OA 
HETATM   22  O   UNL     2      -9.612  11.540  64.969  1.00  0.00    -0.232 OA 
ENDBRANCH  14  17
ENDBRANCH  11  14
ENDBRANCH   8  11
ENDBRANCH   3   8
BRANCH   7  23
HETATM   23  C   UNL     3      -7.725   7.344  72.817  1.00  0.00    -0.092 C  
HETATM   24  O   UNL     3      -7.755   6.165  73.649  1.00  0.00    -0.095 OA 
HETATM   25  H   UNL     3      -8.420   5.578  73.308  1.00  0.00     0.000 HD 
BRANCH  23  26
HETATM   26  C   UNL     3      -9.176   7.864  72.816  1.00  0.00    -0.221 C  
HETATM   27  O   UNL     3      -9.257   9.192  72.291  1.00  0.00    -0.260 OA 
HETATM   28  H   UNL     3     -10.151   9.512  72.291  1.00  0.00     0.000 HD 
BRANCH  26  29
HETATM   29  C   UNL     3     -10.269   7.000  72.149  1.00  0.00    -0.186 C  
HETATM   30  O   UNL     3      -9.774   5.722  71.719  1.00  0.00    -0.155 OA 
HETATM   31  H   UNL     3     -10.447   5.191  71.309  1.00  0.00     0.000 HD 
BRANCH  29  32
HETATM   32  C   UNL     3     -11.027   7.624  70.981  1.00  0.00    -0.248 C  
HETATM   33  C   UNL     3     -12.551   7.690  71.180  1.00  0.00    -0.228 C  
HETATM   34  O   UNL     3     -10.782   6.806  69.757  1.00  0.00    -0.220 OA 
HETATM   35  O   UNL     3     -13.154   6.659  70.665  1.00  0.00     0.122 OA 
HETATM   36  O   UNL     3     -13.043   8.807  71.431  1.00  0.00    -0.318 OA 
HETATM   37  H   UNL     3     -11.254   7.194  69.029  1.00  0.00     0.000 HD 
ENDBRANCH  29  32
ENDBRANCH  26  29
ENDBRANCH  23  26
ENDBRANCH   7  23
TORSDOF 8
ENDMDL
MODEL      400
REMARK 921   NORMALIZED FREE ENERGY PREDICTED BY IDOCK:    3.58 KCAL/MOL
REMARK 922        TOTAL FREE ENERGY PREDICTED BY IDOCK:    3.18 KCAL/MOL
REMARK 923 INTER-LIGAND FREE ENERGY PREDICTED BY IDOCK:    3.18 KCAL/MOL
REMARK 924 INTRA-LIGAND FREE ENERGY PREDICTED BY IDOCK:    0.01 KCAL/MOL
REMARK 927      BINDING AFFINITY PREDICTED BY RF-SCORE:    0.00 PKD
ROOT
HETATM    1 CU   UNL     1      -9.360  11.996  68.880  1.00  0.00    -0.174 Cu 
HETATM    2  O   UNL     2      -9.041  17.534  66.586  1.00  0.00    -0.253 OA 
HETATM    3  C   UNL     2      -7.764  16.943  66.865  1.00  0.00    -0.217 C  
HETATM    4  H   UNL     2      -8.893  18.460  66.430  1.00  0.00     0.000 HD 
HETATM    5  O   UNL     3      -7.715   6.883  73.834  1.00  0.00    -0.100 OA 
HETATM    6  H   UNL     3      -7.261   7.497  74.401  1.00  0.00     0.000 HD 
HETATM    7  C   UNL     3      -8.524   7.632  72.904  1.00  0.00    -0.140 C  
ENDROOT
BRANCH   3   8
HETATM    8  C   UNL     2      -8.002  15.456  67.114  1.00  0.00    -0.217 C  
HETATM    9  O   UNL     2      -8.130  14.768  65.854  1.00  0.00     0.627 OA 
HETATM   10  H   UNL     2      -8.279  13.843  66.010  1.00  0.00     0.000 HD 
BRANCH   8  11
HETATM   11  C   UNL     2      -6.894  14.824  67.982  1.00  0.00    -0.140 C  
HETATM   12  O   UNL     2      -5.648  15.358  67.527  1.00  0.00    -0.294 OA 
HETATM   13  H   UNL     2      -4.966  14.969  68.061  1.00  0.00     0.000 HD 
BRANCH  11  14
HETATM   14  C   UNL     2      -7.154  15.189  69.457  1.00  0.00    -0.195 C  
HETATM   15  H   UNL     2      -7.772  16.797  70.431  1.00  0.00     0.000 HD 
HETATM   16  O   UNL     2      -7.612  16.572  69.522  1.00  0.00    -0.147 OA 
BRANCH  14  17
HETATM   17  C   UNL     2      -6.017  14.937  70.449  1.00  0.00    -0.150 C  
HETATM   18  C   UNL     2      -6.167  13.518  71.056  1.00  0.00     0.306 C  
HETATM   19  H   UNL     2      -5.260  15.842  72.024  1.00  0.00     0.000 HD 
HETATM   20  O   UNL     2      -5.966  16.000  71.408  1.00  0.00     0.563 OA 
HETATM   21  O   UNL     2      -6.354  12.646  70.147  1.00  0.00    -0.081 OA 
HETATM   22  O   UNL     2      -6.046  13.436  72.294  1.00  0.00     0.078 OA 
ENDBRANCH  14  17
ENDBRANCH  11  14
ENDBRANCH   8  11
ENDBRANCH   3   8
BRANCH   7  23
HETATM   23  C   UNL     3      -9.255   6.643  71.987  1.00  0.00    -0.142 C  
HETATM   24  O   UNL     3     -10.336   6.051  72.737  1.00  0.00    -0.187 OA 
HETATM   25  H   UNL     3     -10.790   5.438  72.169  1.00  0.00     0.000 HD 
BRANCH  23  26
HETATM   26  C   UNL     3      -9.920   7.227  70.726  1.00  0.00    -0.186 C  
HETATM   27  O   UNL     3      -9.731   8.641  70.640  1.00  0.00    -0.169 OA 
HETATM   28  H   UNL     3     -10.141   9.001  69.861  1.00  0.00     0.000 HD 
BRANCH  26  29
HETATM   29  C   UNL     3      -9.584   6.597  69.356  1.00  0.00    -0.145 C  
HETATM   30  O   UNL     3      -8.951   7.527  68.463  1.00  0.00    -0.130 OA 
HETATM   31  H   UNL     3      -8.745   7.139  67.620  1.00  0.00     0.000 HD 
BRANCH  29  32
HETATM   32  C   UNL     3     -10.730   5.931  68.601  1.00  0.00    -0.269 C  
HETATM   33  C   UNL     3     -11.420   6.840  67.570  1.00  0.00     0.282 C  
HETATM   34  O   UNL     3     -11.775   5.513  69.582  1.00  0.00     0.906 OA 
HETATM   35  O   UNL     3     -12.461   7.440  68.069  1.00  0.00     3.612 OA 
HETATM   36  O   UNL     3     -11.178   6.621  66.367  1.00  0.00     0.142 OA 
HETATM   37  H   UNL     3     -12.489   5.098  69.112  1.00  0.00     0.000 HD 
ENDBRANCH  29  32
ENDBRANCH  26  29
ENDBRANCH  23  26
ENDBRANCH   7  23
TORSDOF 8
ENDMDL
MODEL      401
REMARK 921   NORMALIZED FREE ENERGY PREDICTED BY IDOCK:   14.77 KCAL/MOL
REMARK 922        TOTAL FREE ENERGY PREDICTED BY IDOCK:   19.60 KCAL/MOL
REMARK 923 INTER-LIGAND FREE ENERGY PREDICTED BY IDOCK:   20.23 KCAL/MOL
REMARK 924 INTRA-LIGAND FREE ENERGY PREDICTED BY IDOCK:   -0.63 KCAL/MOL
REMARK 927      BINDING AFFINITY PREDICTED BY RF-SCORE:    0.00 PKD
ROOT
HETATM    1 CU   UNL     1      -7.003  12.021  71.111  1.00  0.00     0.170 Cu 
HETATM    2  O   UNL     2      -7.352   6.503  73.450  1.00  0.00    -0.085 OA 
HETATM    3  C   UNL     2      -7.739   6.578  72.071  1.00  0.00    -0.098 C  
HETATM    4  H   UNL     2      -7.636   5.656  73.775  1.00  0.00     0.000 HD 
HETATM    5  O   UNL     3      -9.715  17.744  67.468  1.00  0.00    -0.273 OA 
HETATM    6  H   UNL     3     -10.590  17.373  67.421  1.00  0.00     0.000 HD 
HETATM    7  C   UNL     3      -8.971  17.033  68.478  1.00  0.00    -0.263 C  
ENDROOT
BRANCH   3   8
HETATM    8  C   UNL     2      -7.283   7.938  71.550  1.00  0.00    -0.067 C  
HETATM    9  O   UNL     2      -7.016   7.850  70.136  1.00  0.00    -0.048 OA 
HETATM   10  H   UNL     2      -6.731   8.697  69.812  1.00  0.00     0.000 HD 
BRANCH   8  11
HETATM   11  C   UNL     2      -8.304   9.053  71.854  1.00  0.00     0.201 C  
HETATM   12  O   UNL     2      -7.561  10.201  72.273  1.00  0.00     1.914 OA 
HETATM   13  H   UNL     2      -8.189  10.888  72.461  1.00  0.00     0.000 HD 
BRANCH  11  14
HETATM   14  C   UNL     2      -9.112   9.346  70.575  1.00  0.00    -0.256 C  
HETATM   15  H   UNL     2      -9.001  10.661  69.099  1.00  0.00     0.000 HD 
HETATM   16  O   UNL     2      -8.503  10.480  69.888  1.00  0.00    -0.009 OA 
BRANCH  14  17
HETATM   17  C   UNL     2     -10.621   9.541  70.732  1.00  0.00    -0.317 C  
HETATM   18  C   UNL     2     -11.265   8.215  71.213  1.00  0.00    -0.260 C  
HETATM   19  H   UNL     2     -12.107  10.192  69.617  1.00  0.00     0.000 HD 
HETATM   20  O   UNL     2     -11.169  10.071  69.519  1.00  0.00    -0.234 OA 
HETATM   21  O   UNL     2     -10.632   7.729  72.205  1.00  0.00    -0.214 OA 
HETATM   22  O   UNL     2     -12.293   7.854  70.607  1.00  0.00    -0.061 OA 
ENDBRANCH  14  17
ENDBRANCH  11  14
ENDBRANCH   8  11
ENDBRANCH   3   8
BRANCH   7  23
HETATM   23  C   UNL     3      -7.559  17.630  68.553  1.00  0.00    -0.272 C  
HETATM   24  O   UNL     3      -7.265  17.917  69.936  1.00  0.00     0.364 OA 
HETATM   25  H   UNL     3      -6.390  18.287  69.983  1.00  0.00     0.000 HD 
BRANCH  23  26
HETATM   26  C   UNL     3      -6.400  16.733  68.078  1.00  0.00    -0.143 C  
HETATM   27  O   UNL     3      -5.167  17.091  68.709  1.00  0.00    -0.126 OA 
HETATM   28  H   UNL     3      -4.452  16.537  68.416  1.00  0.00     0.000 HD 
BRANCH  26  29
HETATM   29  C   UNL     3      -6.572  15.201  68.160  1.00  0.00    -0.125 C  
HETATM   30  O   UNL     3      -5.458  14.554  68.797  1.00  0.00    -0.083 OA 
HETATM   31  H   UNL     3      -5.564  13.612  68.848  1.00  0.00     0.000 HD 
BRANCH  29  32
HETATM   32  C   UNL     3      -6.853  14.465  66.854  1.00  0.00     1.109 C  
HETATM   33  C   UNL     3      -5.612  14.254  65.968  1.00  0.00     6.811 C  
HETATM   34  O   UNL     3      -7.829  15.261  66.053  1.00  0.00     0.182 OA 
HETATM   35  O   UNL     3      -5.476  15.201  65.087  1.00  0.00     9.539 OA 
HETATM   36  O   UNL     3      -5.139  13.102  65.920  1.00  0.00     2.870 OA 
HETATM   37  H   UNL     3      -8.004  14.804  65.239  1.00  0.00     0.000 HD 
ENDBRANCH  29  32
ENDBRANCH  26  29
ENDBRANCH  23  26
ENDBRANCH   7  23
TORSDOF 8
ENDMDL
