MODEL        1
REMARK 921   NORMALIZED FREE ENERGY PREDICTED BY IDOCK:   -7.70 KCAL/MOL
REMARK 922        TOTAL FREE ENERGY PREDICTED BY IDOCK:   -9.27 KCAL/MOL
REMARK 923 INTER-LIGAND FREE ENERGY PREDICTED BY IDOCK:   -9.49 KCAL/MOL
REMARK 924 INTRA-LIGAND FREE ENERGY PREDICTED BY IDOCK:    0.22 KCAL/MOL
REMARK 927      BINDING AFFINITY PREDICTED BY RF-SCORE:    0.00 PKD
ROOT
HETATM    1  C   UNL     1     -11.714  15.122  68.966  1.00  0.00    -0.358 C  
HETATM    2  C   UNL     1     -10.898  15.651  69.992  1.00  0.00    -0.340 C  
HETATM    3  C   UNL     1     -10.130  15.074  68.847  1.00  0.00    -0.234 C  
HETATM    4  C   UNL     1     -11.166  14.587  67.126  1.00  0.00    -0.333 C  
HETATM    5  O   UNL     1      -9.845   7.465  70.856  1.00  0.00    -0.178 OA 
HETATM    6  O   UNL     1     -12.622  14.819  67.031  1.00  0.00    -0.341 OA 
HETATM    7  C   UNL     1     -10.572  15.747  67.534  1.00  0.00    -0.309 C  
HETATM    8  C   UNL     1     -10.752  17.205  67.172  1.00  0.00    -0.177 C  
HETATM    9  C   UNL     1      -9.055  14.633  67.119  1.00  0.00    -0.236 C  
HETATM   10  C   UNL     1      -9.800   8.680  70.712  1.00  0.00    -0.192 C  
HETATM   11  C   UNL     1     -10.939   9.531  71.095  1.00  0.00    -0.438 C  
HETATM   12  H   UNL     1     -13.097  14.595  66.240  1.00  0.00     0.000 HD 
HETATM   13  C   UNL     1      -9.427  12.962  67.446  1.00  0.00    -0.198 C  
HETATM   14  C   UNL     1      -8.604   9.425  70.219  1.00  0.00    -0.249 C  
HETATM   15  O   UNL     1      -9.043  12.117  66.634  1.00  0.00    -0.201 OA 
HETATM   16  C   UNL     1     -11.248  10.269  67.890  1.00  0.00    -0.290 C  
HETATM   17  C   UNL     1     -10.307  12.498  68.818  1.00  0.00    -0.138 C  
HETATM   18  C   UNL     1     -11.718  13.309  69.129  1.00  0.00    -0.379 C  
HETATM   19  C   UNL     1     -10.437  10.929  69.024  1.00  0.00    -0.244 C  
HETATM   20  C   UNL     1      -8.982  10.306  69.032  1.00  0.00    -0.175 C  
HETATM   21  C   UNL     1     -12.225  12.925  70.528  1.00  0.00    -0.395 C  
HETATM   22  C   UNL     1     -12.437  11.424  70.668  1.00  0.00    -0.419 C  
HETATM   23  C   UNL     1     -11.215  10.603  70.327  1.00  0.00    -0.365 C  
ENDROOT
BRANCH   4  24
HETATM   24  C   UNL     1     -10.999  14.981  65.441  1.00  0.00    -0.373 C  
HETATM   25  O   UNL     1      -9.937  15.200  64.849  1.00  0.00    -0.251 OA 
BRANCH  24  26
HETATM   26  C   UNL     1     -12.273  15.089  64.561  1.00  0.00    -0.331 C  
BRANCH  26  27
HETATM   27  O   UNL     1     -12.301  14.024  63.574  1.00  0.00    -0.748 OA 
BRANCH  27  28
HETATM   28  C   UNL     1     -12.342  12.762  64.097  1.00  0.00    -0.407 C  
HETATM   29  C   UNL     1     -11.308  11.865  63.473  1.00  0.00    -0.516 C  
HETATM   30  O   UNL     1     -13.124  12.388  64.958  1.00  0.00    -0.678 OA 
ENDBRANCH  27  28
ENDBRANCH  26  27
ENDBRANCH  24  26
ENDBRANCH   4  24
TORSDOF 4
ENDMDL
MODEL        2
REMARK 921   NORMALIZED FREE ENERGY PREDICTED BY IDOCK:   -7.24 KCAL/MOL
REMARK 922        TOTAL FREE ENERGY PREDICTED BY IDOCK:   -8.71 KCAL/MOL
REMARK 923 INTER-LIGAND FREE ENERGY PREDICTED BY IDOCK:   -9.28 KCAL/MOL
REMARK 924 INTRA-LIGAND FREE ENERGY PREDICTED BY IDOCK:    0.57 KCAL/MOL
REMARK 927      BINDING AFFINITY PREDICTED BY RF-SCORE:    0.00 PKD
ROOT
HETATM    1  C   UNL     1     -11.044  12.686  63.913  1.00  0.00    -0.476 C  
HETATM    2  C   UNL     1     -12.246  12.035  63.553  1.00  0.00    -0.653 C  
HETATM    3  C   UNL     1     -12.213  12.501  64.972  1.00  0.00    -0.519 C  
HETATM    4  C   UNL     1     -10.686  13.768  65.548  1.00  0.00    -0.302 C  
HETATM    5  O   UNL     1      -8.567   6.473  68.491  1.00  0.00    -0.123 OA 
HETATM    6  O   UNL     1      -9.666  14.211  64.575  1.00  0.00    -0.562 OA 
HETATM    7  C   UNL     1     -11.920  14.012  65.017  1.00  0.00    -0.409 C  
HETATM    8  C   UNL     1     -12.527  15.168  64.253  1.00  0.00    -0.073 C  
HETATM    9  C   UNL     1     -12.348  13.463  66.814  1.00  0.00    -0.287 C  
HETATM   10  C   UNL     1      -9.265   7.279  67.889  1.00  0.00    -0.131 C  
HETATM   11  C   UNL     1      -8.971   7.643  66.493  1.00  0.00    -0.187 C  
HETATM   12  H   UNL     1      -8.965  14.793  64.839  1.00  0.00     0.000 HD 
HETATM   13  C   UNL     1     -11.180  12.300  67.383  1.00  0.00    -0.301 C  
HETATM   14  C   UNL     1     -10.494   7.912  68.452  1.00  0.00    -0.207 C  
HETATM   15  O   UNL     1     -10.781  12.406  68.545  1.00  0.00    -0.225 OA 
HETATM   16  C   UNL     1      -8.330  10.688  67.598  1.00  0.00    -0.114 C  
HETATM   17  C   UNL     1     -10.584  11.073  66.378  1.00  0.00    -0.308 C  
HETATM   18  C   UNL     1     -10.037  11.515  64.877  1.00  0.00    -0.314 C  
HETATM   19  C   UNL     1      -9.632  10.028  67.100  1.00  0.00    -0.202 C  
HETATM   20  C   UNL     1     -10.403   9.431  68.347  1.00  0.00    -0.238 C  
HETATM   21  C   UNL     1      -9.784  10.252  64.039  1.00  0.00    -0.343 C  
HETATM   22  C   UNL     1      -8.790   9.311  64.707  1.00  0.00    -0.225 C  
HETATM   23  C   UNL     1      -9.176   8.919  66.114  1.00  0.00    -0.273 C  
ENDROOT
BRANCH   4  24
HETATM   24  C   UNL     1     -10.608  15.321  66.327  1.00  0.00    -0.309 C  
HETATM   25  O   UNL     1     -11.254  15.667  67.320  1.00  0.00    -0.288 OA 
BRANCH  24  26
HETATM   26  C   UNL     1      -9.663  16.409  65.749  1.00  0.00    -0.236 C  
BRANCH  26  27
HETATM   27  O   UNL     1     -10.386  17.652  65.542  1.00  0.00    -0.627 OA 
BRANCH  27  28
HETATM   28  C   UNL     1      -9.874  18.728  66.209  1.00  0.00    -0.353 C  
HETATM   29  C   UNL     1     -10.863  19.301  67.188  1.00  0.00    -0.543 C  
HETATM   30  O   UNL     1      -8.756  19.190  66.036  1.00  0.00    -0.450 OA 
ENDBRANCH  27  28
ENDBRANCH  26  27
ENDBRANCH  24  26
ENDBRANCH   4  24
TORSDOF 4
ENDMDL
MODEL        3
REMARK 921   NORMALIZED FREE ENERGY PREDICTED BY IDOCK:   -7.14 KCAL/MOL
REMARK 922        TOTAL FREE ENERGY PREDICTED BY IDOCK:   -8.59 KCAL/MOL
REMARK 923 INTER-LIGAND FREE ENERGY PREDICTED BY IDOCK:   -9.12 KCAL/MOL
REMARK 924 INTRA-LIGAND FREE ENERGY PREDICTED BY IDOCK:    0.54 KCAL/MOL
REMARK 927      BINDING AFFINITY PREDICTED BY RF-SCORE:    0.00 PKD
ROOT
HETATM    1  C   UNL     1     -11.348  14.544  65.928  1.00  0.00    -0.341 C  
HETATM    2  C   UNL     1     -10.461  14.169  64.893  1.00  0.00    -0.461 C  
HETATM    3  C   UNL     1      -9.890  14.010  66.265  1.00  0.00    -0.318 C  
HETATM    4  C   UNL     1     -11.170  14.177  67.879  1.00  0.00    -0.279 C  
HETATM    5  O   UNL     1      -7.157  21.263  67.653  1.00  0.00    -0.425 OA 
HETATM    6  O   UNL     1     -12.611  14.432  67.675  1.00  0.00    -0.525 OA 
HETATM    7  C   UNL     1     -10.811  13.108  67.109  1.00  0.00    -0.271 C  
HETATM    8  C   UNL     1     -11.446  11.769  66.806  1.00  0.00    -0.352 C  
HETATM    9  C   UNL     1      -9.216  13.422  68.146  1.00  0.00    -0.215 C  
HETATM   10  C   UNL     1      -7.464  20.137  67.284  1.00  0.00    -0.286 C  
HETATM   11  C   UNL     1      -8.646  19.913  66.436  1.00  0.00    -0.386 C  
HETATM   12  H   UNL     1     -13.199  14.509  68.417  1.00  0.00     0.000 HD 
HETATM   13  C   UNL     1      -9.050  15.122  68.496  1.00  0.00    -0.191 C  
HETATM   14  C   UNL     1      -6.666  18.909  67.577  1.00  0.00    -0.208 C  
HETATM   15  O   UNL     1      -8.683  15.443  69.629  1.00  0.00    -0.257 OA 
HETATM   16  C   UNL     1      -9.942  18.243  68.972  1.00  0.00    -0.293 C  
HETATM   17  C   UNL     1      -9.401  16.308  67.337  1.00  0.00    -0.224 C  
HETATM   18  C   UNL     1     -10.845  16.185  66.534  1.00  0.00    -0.139 C  
HETATM   19  C   UNL     1      -9.066  17.793  67.786  1.00  0.00    -0.249 C  
HETATM   20  C   UNL     1      -7.548  17.849  68.230  1.00  0.00    -0.266 C  
HETATM   21  C   UNL     1     -10.860  17.185  65.367  1.00  0.00    -0.051 C  
HETATM   22  C   UNL     1     -10.637  18.616  65.835  1.00  0.00    -0.365 C  
HETATM   23  C   UNL     1      -9.375  18.800  66.646  1.00  0.00    -0.339 C  
ENDROOT
BRANCH   4  24
HETATM   24  C   UNL     1     -11.547  13.182  69.255  1.00  0.00    -0.314 C  
HETATM   25  O   UNL     1     -11.266  11.987  69.383  1.00  0.00    -0.242 OA 
BRANCH  24  26
HETATM   26  C   UNL     1     -12.315  13.807  70.450  1.00  0.00    -0.353 C  
BRANCH  26  27
HETATM   27  O   UNL     1     -11.851  15.161  70.700  1.00  0.00    -0.278 OA 
BRANCH  27  28
HETATM   28  C   UNL     1     -12.342  15.731  71.840  1.00  0.00    -0.459 C  
HETATM   29  C   UNL     1     -13.622  15.078  72.285  1.00  0.00    -0.547 C  
HETATM   30  O   UNL     1     -11.824  16.665  72.432  1.00  0.00    -0.491 OA 
ENDBRANCH  27  28
ENDBRANCH  26  27
ENDBRANCH  24  26
ENDBRANCH   4  24
TORSDOF 4
ENDMDL
MODEL        4
REMARK 921   NORMALIZED FREE ENERGY PREDICTED BY IDOCK:   -6.83 KCAL/MOL
REMARK 922        TOTAL FREE ENERGY PREDICTED BY IDOCK:   -8.21 KCAL/MOL
REMARK 923 INTER-LIGAND FREE ENERGY PREDICTED BY IDOCK:   -8.36 KCAL/MOL
REMARK 924 INTRA-LIGAND FREE ENERGY PREDICTED BY IDOCK:    0.14 KCAL/MOL
REMARK 927      BINDING AFFINITY PREDICTED BY RF-SCORE:    0.00 PKD
ROOT
HETATM    1  C   UNL     1      -7.714  13.289  67.439  1.00  0.00    -0.148 C  
HETATM    2  C   UNL     1      -7.184  13.386  68.746  1.00  0.00    -0.092 C  
HETATM    3  C   UNL     1      -8.675  13.470  68.692  1.00  0.00    -0.001 C  
HETATM    4  C   UNL     1      -9.613  12.994  66.914  1.00  0.00    -0.243 C  
HETATM    5  O   UNL     1      -9.739  21.134  67.230  1.00  0.00    -0.336 OA 
HETATM    6  O   UNL     1      -8.829  12.569  65.736  1.00  0.00    -0.363 OA 
HETATM    7  C   UNL     1      -9.239  12.227  67.978  1.00  0.00    -0.195 C  
HETATM    8  C   UNL     1      -8.949  10.754  68.164  1.00  0.00    -0.140 C  
HETATM    9  C   UNL     1     -10.740  13.207  68.687  1.00  0.00    -0.274 C  
HETATM   10  C   UNL     1      -9.480  20.002  67.616  1.00  0.00    -0.376 C  
HETATM   11  C   UNL     1      -8.293  19.285  67.121  1.00  0.00    -0.305 C  
HETATM   12  H   UNL     1      -9.260  12.351  64.919  1.00  0.00     0.000 HD 
HETATM   13  C   UNL     1     -10.829  14.786  67.953  1.00  0.00    -0.269 C  
HETATM   14  C   UNL     1     -10.265  19.265  68.651  1.00  0.00    -0.438 C  
HETATM   15  O   UNL     1     -11.942  15.211  67.633  1.00  0.00    -0.236 OA 
HETATM   16  C   UNL     1     -10.379  17.144  65.717  1.00  0.00    -0.253 C  
HETATM   17  C   UNL     1      -9.439  15.711  67.660  1.00  0.00    -0.211 C  
HETATM   18  C   UNL     1      -8.174  14.963  66.893  1.00  0.00    -0.178 C  
HETATM   19  C   UNL     1      -9.719  17.173  67.110  1.00  0.00    -0.261 C  
HETATM   20  C   UNL     1     -10.699  17.904  68.116  1.00  0.00    -0.287 C  
HETATM   21  C   UNL     1      -6.939  15.876  66.950  1.00  0.00    -0.077 C  
HETATM   22  C   UNL     1      -7.203  17.239  66.327  1.00  0.00    -0.335 C  
HETATM   23  C   UNL     1      -8.394  17.957  66.918  1.00  0.00    -0.260 C  
ENDROOT
BRANCH   4  24
HETATM   24  C   UNL     1     -10.886  11.903  66.452  1.00  0.00    -0.279 C  
HETATM   25  O   UNL     1     -11.893  11.642  67.116  1.00  0.00    -0.608 OA 
BRANCH  24  26
HETATM   26  C   UNL     1     -10.785  11.157  65.094  1.00  0.00    -0.210 C  
BRANCH  26  27
HETATM   27  O   UNL     1     -10.893  12.095  63.990  1.00  0.00    -0.316 OA 
BRANCH  27  28
HETATM   28  C   UNL     1     -12.141  12.619  63.806  1.00  0.00    -0.522 C  
HETATM   29  C   UNL     1     -12.149  14.115  63.974  1.00  0.00    -0.382 C  
HETATM   30  O   UNL     1     -13.141  11.967  63.548  1.00  0.00    -0.764 OA 
ENDBRANCH  27  28
ENDBRANCH  26  27
ENDBRANCH  24  26
ENDBRANCH   4  24
TORSDOF 4
ENDMDL
MODEL        5
REMARK 921   NORMALIZED FREE ENERGY PREDICTED BY IDOCK:   -6.83 KCAL/MOL
REMARK 922        TOTAL FREE ENERGY PREDICTED BY IDOCK:   -8.20 KCAL/MOL
REMARK 923 INTER-LIGAND FREE ENERGY PREDICTED BY IDOCK:   -8.69 KCAL/MOL
REMARK 924 INTRA-LIGAND FREE ENERGY PREDICTED BY IDOCK:    0.48 KCAL/MOL
REMARK 927      BINDING AFFINITY PREDICTED BY RF-SCORE:    0.00 PKD
ROOT
HETATM    1  C   UNL     1     -11.052  12.840  63.875  1.00  0.00    -0.477 C  
HETATM    2  C   UNL     1     -12.257  12.216  63.481  1.00  0.00    -0.670 C  
HETATM    3  C   UNL     1     -12.225  12.610  64.922  1.00  0.00    -0.531 C  
HETATM    4  C   UNL     1     -10.692  13.839  65.562  1.00  0.00    -0.302 C  
HETATM    5  O   UNL     1      -8.624   6.395  68.148  1.00  0.00    -0.118 OA 
HETATM    6  O   UNL     1      -9.667  14.322  64.614  1.00  0.00    -0.510 OA 
HETATM    7  C   UNL     1     -11.922  14.116  65.041  1.00  0.00    -0.412 C  
HETATM    8  C   UNL     1     -12.521  15.312  64.334  1.00  0.00    -0.044 C  
HETATM    9  C   UNL     1     -12.358  13.482  66.809  1.00  0.00    -0.326 C  
HETATM   10  C   UNL     1      -9.315   7.233  67.585  1.00  0.00    -0.128 C  
HETATM   11  C   UNL     1      -9.016   7.663  66.210  1.00  0.00    -0.203 C  
HETATM   12  H   UNL     1      -8.962  14.886  64.908  1.00  0.00     0.000 HD 
HETATM   13  C   UNL     1     -11.199  12.285  67.322  1.00  0.00    -0.300 C  
HETATM   14  C   UNL     1     -10.543   7.846  68.176  1.00  0.00    -0.179 C  
HETATM   15  O   UNL     1     -10.802  12.331  68.489  1.00  0.00    -0.219 OA 
HETATM   16  C   UNL     1      -8.360  10.647  67.463  1.00  0.00    -0.115 C  
HETATM   17  C   UNL     1     -10.608  11.105  66.259  1.00  0.00    -0.309 C  
HETATM   18  C   UNL     1     -10.055  11.617  64.783  1.00  0.00    -0.304 C  
HETATM   19  C   UNL     1      -9.664  10.020  66.931  1.00  0.00    -0.237 C  
HETATM   20  C   UNL     1     -10.442   9.368  68.146  1.00  0.00    -0.267 C  
HETATM   21  C   UNL     1      -9.807  10.395  63.885  1.00  0.00    -0.332 C  
HETATM   22  C   UNL     1      -8.821   9.416  64.508  1.00  0.00    -0.235 C  
HETATM   23  C   UNL     1      -9.213   8.958  65.893  1.00  0.00    -0.290 C  
ENDROOT
BRANCH   4  24
HETATM   24  C   UNL     1     -10.606  15.351  66.416  1.00  0.00    -0.307 C  
HETATM   25  O   UNL     1     -11.246  15.648  67.430  1.00  0.00    -0.306 OA 
BRANCH  24  26
HETATM   26  C   UNL     1      -9.662  16.464  65.888  1.00  0.00    -0.294 C  
BRANCH  26  27
HETATM   27  O   UNL     1      -8.406  16.454  66.619  1.00  0.00    -0.210 OA 
BRANCH  27  28
HETATM   28  C   UNL     1      -7.500  17.391  66.210  1.00  0.00    -0.319 C  
HETATM   29  C   UNL     1      -6.138  17.145  66.802  1.00  0.00    -0.243 C  
HETATM   30  O   UNL     1      -7.749  18.326  65.465  1.00  0.00    -0.498 OA 
ENDBRANCH  27  28
ENDBRANCH  26  27
ENDBRANCH  24  26
ENDBRANCH   4  24
TORSDOF 4
ENDMDL
MODEL        6
REMARK 921   NORMALIZED FREE ENERGY PREDICTED BY IDOCK:   -6.71 KCAL/MOL
REMARK 922        TOTAL FREE ENERGY PREDICTED BY IDOCK:   -8.05 KCAL/MOL
REMARK 923 INTER-LIGAND FREE ENERGY PREDICTED BY IDOCK:   -8.25 KCAL/MOL
REMARK 924 INTRA-LIGAND FREE ENERGY PREDICTED BY IDOCK:    0.20 KCAL/MOL
REMARK 927      BINDING AFFINITY PREDICTED BY RF-SCORE:    0.00 PKD
ROOT
HETATM    1  C   UNL     1     -10.347  13.548  68.684  1.00  0.00    -0.220 C  
HETATM    2  C   UNL     1     -11.402  13.990  69.513  1.00  0.00    -0.298 C  
HETATM    3  C   UNL     1     -11.617  14.272  68.062  1.00  0.00    -0.364 C  
HETATM    4  C   UNL     1     -10.346  13.381  66.698  1.00  0.00    -0.269 C  
HETATM    5  O   UNL     1      -7.771  21.092  67.225  1.00  0.00    -0.344 OA 
HETATM    6  O   UNL     1      -9.266  12.479  67.150  1.00  0.00    -0.191 OA 
HETATM    7  C   UNL     1     -11.517  12.961  67.258  1.00  0.00    -0.388 C  
HETATM    8  C   UNL     1     -12.152  11.606  67.479  1.00  0.00     0.191 C  
HETATM    9  C   UNL     1     -12.112  14.331  66.040  1.00  0.00    -0.423 C  
HETATM   10  C   UNL     1      -8.474  20.126  67.487  1.00  0.00    -0.335 C  
HETATM   11  C   UNL     1      -8.043  19.118  68.470  1.00  0.00    -0.394 C  
HETATM   12  H   UNL     1      -8.681  12.070  66.524  1.00  0.00     0.000 HD 
HETATM   13  C   UNL     1     -10.899  15.574  65.892  1.00  0.00    -0.313 C  
HETATM   14  C   UNL     1      -9.836  19.897  66.919  1.00  0.00    -0.540 C  
HETATM   15  O   UNL     1     -10.675  16.029  64.768  1.00  0.00    -0.611 OA 
HETATM   16  C   UNL     1      -7.930  16.967  65.966  1.00  0.00    -0.176 C  
HETATM   17  C   UNL     1     -10.029  16.133  67.235  1.00  0.00    -0.248 C  
HETATM   18  C   UNL     1      -9.345  14.996  68.227  1.00  0.00    -0.192 C  
HETATM   19  C   UNL     1      -9.063  17.357  66.937  1.00  0.00    -0.258 C  
HETATM   20  C   UNL     1      -9.916  18.515  66.276  1.00  0.00    -0.384 C  
HETATM   21  C   UNL     1      -8.830  15.682  69.502  1.00  0.00    -0.213 C  
HETATM   22  C   UNL     1      -7.828  16.786  69.194  1.00  0.00    -0.145 C  
HETATM   23  C   UNL     1      -8.349  17.828  68.231  1.00  0.00    -0.276 C  
ENDROOT
BRANCH   4  24
HETATM   24  C   UNL     1     -10.561  12.399  65.278  1.00  0.00    -0.290 C  
HETATM   25  O   UNL     1     -11.478  12.503  64.459  1.00  0.00    -0.311 OA 
BRANCH  24  26
HETATM   26  C   UNL     1      -9.539  11.270  64.979  1.00  0.00    -0.233 C  
BRANCH  26  27
HETATM   27  O   UNL     1     -10.105   9.973  65.308  1.00  0.00    -0.321 OA 
BRANCH  27  28
HETATM   28  C   UNL     1      -9.441   9.293  66.289  1.00  0.00    -0.224 C  
HETATM   29  C   UNL     1     -10.198   8.069  66.730  1.00  0.00    -0.367 C  
HETATM   30  O   UNL     1      -8.370   9.629  66.770  1.00  0.00    -0.116 OA 
ENDBRANCH  27  28
ENDBRANCH  26  27
ENDBRANCH  24  26
ENDBRANCH   4  24
TORSDOF 4
ENDMDL
MODEL        7
REMARK 921   NORMALIZED FREE ENERGY PREDICTED BY IDOCK:   -6.63 KCAL/MOL
REMARK 922        TOTAL FREE ENERGY PREDICTED BY IDOCK:   -7.96 KCAL/MOL
REMARK 923 INTER-LIGAND FREE ENERGY PREDICTED BY IDOCK:   -8.48 KCAL/MOL
REMARK 924 INTRA-LIGAND FREE ENERGY PREDICTED BY IDOCK:    0.52 KCAL/MOL
REMARK 927      BINDING AFFINITY PREDICTED BY RF-SCORE:    0.00 PKD
ROOT
HETATM    1  C   UNL     1     -11.187  12.634  63.617  1.00  0.00    -0.525 C  
HETATM    2  C   UNL     1     -12.383  11.924  63.364  1.00  0.00    -0.577 C  
HETATM    3  C   UNL     1     -12.088  12.110  64.817  1.00  0.00    -0.368 C  
HETATM    4  C   UNL     1     -10.579  13.419  65.346  1.00  0.00    -0.303 C  
HETATM    5  O   UNL     1      -7.314   6.006  66.217  1.00  0.00    -0.078 OA 
HETATM    6  O   UNL     1      -9.826  14.159  64.312  1.00  0.00    -0.538 OA 
HETATM    7  C   UNL     1     -11.912  13.609  65.124  1.00  0.00    -0.391 C  
HETATM    8  C   UNL     1     -12.757  14.808  64.753  1.00  0.00     0.048 C  
HETATM    9  C   UNL     1     -11.906  12.678  66.812  1.00  0.00    -0.440 C  
HETATM   10  C   UNL     1      -8.185   6.821  65.944  1.00  0.00    -0.132 C  
HETATM   11  C   UNL     1      -8.222   7.478  64.627  1.00  0.00    -0.052 C  
HETATM   12  H   UNL     1      -9.133  14.761  64.555  1.00  0.00     0.000 HD 
HETATM   13  C   UNL     1     -10.556  11.578  66.888  1.00  0.00    -0.247 C  
HETATM   14  C   UNL     1      -9.314   7.182  66.851  1.00  0.00    -0.189 C  
HETATM   15  O   UNL     1      -9.930  11.507  67.948  1.00  0.00    -0.176 OA 
HETATM   16  C   UNL     1      -7.607  10.311  66.209  1.00  0.00    -0.117 C  
HETATM   17  C   UNL     1     -10.090  10.647  65.550  1.00  0.00    -0.343 C  
HETATM   18  C   UNL     1      -9.910  11.431  64.102  1.00  0.00    -0.307 C  
HETATM   19  C   UNL     1      -8.927   9.606  65.840  1.00  0.00    -0.203 C  
HETATM   20  C   UNL     1      -9.368   8.693  67.056  1.00  0.00    -0.202 C  
HETATM   21  C   UNL     1      -9.740  10.391  62.982  1.00  0.00    -0.288 C  
HETATM   22  C   UNL     1      -8.556   9.467  63.234  1.00  0.00    -0.217 C  
HETATM   23  C   UNL     1      -8.604   8.769  64.573  1.00  0.00    -0.125 C  
ENDROOT
BRANCH   4  24
HETATM   24  C   UNL     1     -10.462  14.792  66.407  1.00  0.00    -0.293 C  
HETATM   25  O   UNL     1     -11.143  14.987  67.418  1.00  0.00    -0.307 OA 
BRANCH  24  26
HETATM   26  C   UNL     1      -9.428  15.906  66.088  1.00  0.00    -0.340 C  
BRANCH  26  27
HETATM   27  O   UNL     1     -10.105  17.114  65.647  1.00  0.00    -0.561 OA 
BRANCH  27  28
HETATM   28  C   UNL     1      -9.588  18.274  66.150  1.00  0.00    -0.180 C  
HETATM   29  C   UNL     1     -10.587  19.006  67.005  1.00  0.00    -0.543 C  
HETATM   30  O   UNL     1      -8.459  18.687  65.934  1.00  0.00    -0.491 OA 
ENDBRANCH  27  28
ENDBRANCH  26  27
ENDBRANCH  24  26
ENDBRANCH   4  24
TORSDOF 4
ENDMDL
MODEL        8
REMARK 921   NORMALIZED FREE ENERGY PREDICTED BY IDOCK:   -6.48 KCAL/MOL
REMARK 922        TOTAL FREE ENERGY PREDICTED BY IDOCK:   -7.77 KCAL/MOL
REMARK 923 INTER-LIGAND FREE ENERGY PREDICTED BY IDOCK:   -8.65 KCAL/MOL
REMARK 924 INTRA-LIGAND FREE ENERGY PREDICTED BY IDOCK:    0.88 KCAL/MOL
REMARK 927      BINDING AFFINITY PREDICTED BY RF-SCORE:    0.00 PKD
ROOT
HETATM    1  C   UNL     1     -11.217  12.611  64.075  1.00  0.00    -0.459 C  
HETATM    2  C   UNL     1     -12.464  11.978  63.880  1.00  0.00    -0.543 C  
HETATM    3  C   UNL     1     -12.392  12.797  65.128  1.00  0.00    -0.555 C  
HETATM    4  C   UNL     1     -10.774  14.058  65.372  1.00  0.00    -0.337 C  
HETATM    5  O   UNL     1      -9.183   7.663  70.163  1.00  0.00    -0.153 OA 
HETATM    6  O   UNL     1      -9.728  14.154  64.333  1.00  0.00    -0.528 OA 
HETATM    7  C   UNL     1     -11.988  14.241  64.777  1.00  0.00    -0.449 C  
HETATM    8  C   UNL     1     -12.512  15.196  63.728  1.00  0.00     0.471 C  
HETATM    9  C   UNL     1     -12.448  14.217  66.649  1.00  0.00    -0.255 C  
HETATM   10  C   UNL     1      -9.822   8.329  69.360  1.00  0.00    -0.185 C  
HETATM   11  C   UNL     1      -9.509   8.291  67.922  1.00  0.00    -0.163 C  
HETATM   12  H   UNL     1      -8.984  14.733  64.446  1.00  0.00     0.000 HD 
HETATM   13  C   UNL     1     -11.366  13.165  67.522  1.00  0.00    -0.298 C  
HETATM   14  C   UNL     1     -11.000   9.175  69.717  1.00  0.00    -0.195 C  
HETATM   15  O   UNL     1     -10.956  13.543  68.621  1.00  0.00    -0.247 OA 
HETATM   16  C   UNL     1      -8.641  11.465  68.196  1.00  0.00    -0.153 C  
HETATM   17  C   UNL     1     -10.866  11.676  66.884  1.00  0.00    -0.322 C  
HETATM   18  C   UNL     1     -10.295  11.667  65.328  1.00  0.00    -0.316 C  
HETATM   19  C   UNL     1      -9.990  10.792  67.870  1.00  0.00    -0.196 C  
HETATM   20  C   UNL     1     -10.798  10.602  69.218  1.00  0.00    -0.282 C  
HETATM   21  C   UNL     1     -10.138  10.212  64.856  1.00  0.00    -0.277 C  
HETATM   22  C   UNL     1      -9.214   9.412  65.763  1.00  0.00    -0.276 C  
HETATM   23  C   UNL     1      -9.621   9.433  67.218  1.00  0.00    -0.194 C  
ENDROOT
BRANCH   4  24
HETATM   24  C   UNL     1     -10.578  15.751  65.717  1.00  0.00    -0.355 C  
HETATM   25  O   UNL     1     -11.022  16.684  65.041  1.00  0.00    -0.568 OA 
BRANCH  24  26
HETATM   26  C   UNL     1      -9.770  16.178  66.972  1.00  0.00    -0.230 C  
BRANCH  26  27
HETATM   27  O   UNL     1     -10.513  17.159  67.744  1.00  0.00    -0.336 OA 
BRANCH  27  28
HETATM   28  C   UNL     1      -9.860  18.343  67.942  1.00  0.00    -0.329 C  
HETATM   29  C   UNL     1     -10.536  19.480  67.224  1.00  0.00    -0.590 C  
HETATM   30  O   UNL     1      -8.844  18.478  68.607  1.00  0.00    -0.326 OA 
ENDBRANCH  27  28
ENDBRANCH  26  27
ENDBRANCH  24  26
ENDBRANCH   4  24
TORSDOF 4
ENDMDL
MODEL        9
REMARK 921   NORMALIZED FREE ENERGY PREDICTED BY IDOCK:   -6.44 KCAL/MOL
REMARK 922        TOTAL FREE ENERGY PREDICTED BY IDOCK:   -7.73 KCAL/MOL
REMARK 923 INTER-LIGAND FREE ENERGY PREDICTED BY IDOCK:   -8.33 KCAL/MOL
REMARK 924 INTRA-LIGAND FREE ENERGY PREDICTED BY IDOCK:    0.61 KCAL/MOL
REMARK 927      BINDING AFFINITY PREDICTED BY RF-SCORE:    0.00 PKD
ROOT
HETATM    1  C   UNL     1     -10.574  10.526  65.921  1.00  0.00    -0.149 C  
HETATM    2  C   UNL     1      -9.534  10.415  64.971  1.00  0.00    -0.308 C  
HETATM    3  C   UNL     1      -9.088  10.944  66.296  1.00  0.00    -0.192 C  
HETATM    4  C   UNL     1     -10.405  10.832  67.883  1.00  0.00    -0.185 C  
HETATM    5  O   UNL     1     -10.660  18.619  65.502  1.00  0.00    -0.608 OA 
HETATM    6  O   UNL     1     -11.744  10.231  67.712  1.00  0.00    -0.643 OA 
HETATM    7  C   UNL     1      -9.476   9.952  67.408  1.00  0.00    -0.173 C  
HETATM    8  C   UNL     1      -9.292   8.455  67.518  1.00  0.00    -0.172 C  
HETATM    9  C   UNL     1      -8.377  11.313  68.218  1.00  0.00    -0.150 C  
HETATM   10  C   UNL     1     -10.302  17.449  65.470  1.00  0.00    -0.060 C  
HETATM   11  C   UNL     1     -11.114  16.426  64.791  1.00  0.00    -0.246 C  
HETATM   12  H   UNL     1     -12.350  10.180  68.441  1.00  0.00     0.000 HD 
HETATM   13  C   UNL     1      -9.151  12.870  68.086  1.00  0.00    -0.207 C  
HETATM   14  C   UNL     1      -9.012  16.947  66.031  1.00  0.00    -0.198 C  
HETATM   15  O   UNL     1      -9.106  13.619  69.065  1.00  0.00     0.103 OA 
HETATM   16  C   UNL     1     -11.573  15.058  67.762  1.00  0.00    -0.336 C  
HETATM   17  C   UNL     1      -9.962  13.344  66.676  1.00  0.00    -0.277 C  
HETATM   18  C   UNL     1     -11.054  12.278  66.030  1.00  0.00    -0.347 C  
HETATM   19  C   UNL     1     -10.490  14.841  66.686  1.00  0.00    -0.286 C  
HETATM   20  C   UNL     1      -9.269  15.798  67.001  1.00  0.00    -0.233 C  
HETATM   21  C   UNL     1     -11.483  12.775  64.640  1.00  0.00    -0.367 C  
HETATM   22  C   UNL     1     -12.079  14.175  64.691  1.00  0.00    -0.469 C  
HETATM   23  C   UNL     1     -11.174  15.197  65.339  1.00  0.00    -0.338 C  
ENDROOT
BRANCH   4  24
HETATM   24  C   UNL     1     -10.330  10.189  69.498  1.00  0.00    -0.240 C  
HETATM   25  O   UNL     1      -9.316   9.770  70.065  1.00  0.00    -0.225 OA 
BRANCH  24  26
HETATM   26  C   UNL     1     -11.633  10.103  70.337  1.00  0.00    -0.316 C  
BRANCH  26  27
HETATM   27  O   UNL     1     -12.121  11.434  70.656  1.00  0.00    -0.361 OA 
BRANCH  27  28
HETATM   28  C   UNL     1     -12.988  11.487  71.710  1.00  0.00    -0.394 C  
HETATM   29  C   UNL     1     -13.305  12.905  72.101  1.00  0.00    -0.615 C  
HETATM   30  O   UNL     1     -13.450  10.513  72.284  1.00  0.00    -0.340 OA 
ENDBRANCH  27  28
ENDBRANCH  26  27
ENDBRANCH  24  26
ENDBRANCH   4  24
TORSDOF 4
ENDMDL
MODEL       10
REMARK 921   NORMALIZED FREE ENERGY PREDICTED BY IDOCK:   -6.42 KCAL/MOL
REMARK 922        TOTAL FREE ENERGY PREDICTED BY IDOCK:   -7.70 KCAL/MOL
REMARK 923 INTER-LIGAND FREE ENERGY PREDICTED BY IDOCK:   -8.18 KCAL/MOL
REMARK 924 INTRA-LIGAND FREE ENERGY PREDICTED BY IDOCK:    0.48 KCAL/MOL
REMARK 927      BINDING AFFINITY PREDICTED BY RF-SCORE:    0.00 PKD
ROOT
HETATM    1  C   UNL     1      -8.468  13.748  67.306  1.00  0.00    -0.204 C  
HETATM    2  C   UNL     1      -8.245  13.342  68.641  1.00  0.00    -0.024 C  
HETATM    3  C   UNL     1      -9.358  14.328  68.488  1.00  0.00    -0.200 C  
HETATM    4  C   UNL     1     -10.034  14.744  66.580  1.00  0.00    -0.264 C  
HETATM    5  O   UNL     1      -5.413  21.142  68.602  1.00  0.00    -0.327 OA 
HETATM    6  O   UNL     1      -9.441  14.072  65.406  1.00  0.00    -0.533 OA 
HETATM    7  C   UNL     1     -10.394  13.788  67.485  1.00  0.00    -0.241 C  
HETATM    8  C   UNL     1     -11.068  12.438  67.376  1.00  0.00    -0.320 C  
HETATM    9  C   UNL     1     -11.135  15.389  68.262  1.00  0.00    -0.309 C  
HETATM   10  C   UNL     1      -5.948  20.052  68.759  1.00  0.00    -0.271 C  
HETATM   11  C   UNL     1      -5.341  18.825  68.220  1.00  0.00    -0.180 C  
HETATM   12  H   UNL     1      -9.751  14.264  64.529  1.00  0.00     0.000 HD 
HETATM   13  C   UNL     1     -10.137  16.764  67.875  1.00  0.00    -0.284 C  
HETATM   14  C   UNL     1      -7.197  19.835  69.548  1.00  0.00    -0.198 C  
HETATM   15  O   UNL     1     -10.701  17.816  67.565  1.00  0.00    -0.375 OA 
HETATM   16  C   UNL     1      -7.969  18.598  66.232  1.00  0.00    -0.276 C  
HETATM   17  C   UNL     1      -8.445  16.670  67.896  1.00  0.00    -0.194 C  
HETATM   18  C   UNL     1      -7.742  15.403  67.092  1.00  0.00    -0.246 C  
HETATM   19  C   UNL     1      -7.700  18.050  67.648  1.00  0.00    -0.215 C  
HETATM   20  C   UNL     1      -8.235  19.101  68.705  1.00  0.00    -0.404 C  
HETATM   21  C   UNL     1      -6.246  15.352  67.439  1.00  0.00    -0.035 C  
HETATM   22  C   UNL     1      -5.534  16.653  67.099  1.00  0.00    -0.170 C  
HETATM   23  C   UNL     1      -6.161  17.873  67.733  1.00  0.00    -0.158 C  
ENDROOT
BRANCH   4  24
HETATM   24  C   UNL     1     -11.587  14.727  65.797  1.00  0.00    -0.290 C  
HETATM   25  O   UNL     1     -12.661  14.423  66.325  1.00  0.00    -0.355 OA 
BRANCH  24  26
HETATM   26  C   UNL     1     -11.680  15.109  64.296  1.00  0.00    -0.224 C  
BRANCH  26  27
HETATM   27  O   UNL     1     -12.432  14.106  63.562  1.00  0.00    -0.817 OA 
BRANCH  27  28
HETATM   28  C   UNL     1     -11.825  12.886  63.477  1.00  0.00    -0.536 C  
HETATM   29  C   UNL     1     -12.748  11.772  63.891  1.00  0.00    -0.318 C  
HETATM   30  O   UNL     1     -10.670  12.704  63.122  1.00  0.00    -0.214 OA 
ENDBRANCH  27  28
ENDBRANCH  26  27
ENDBRANCH  24  26
ENDBRANCH   4  24
TORSDOF 4
ENDMDL
MODEL       11
REMARK 921   NORMALIZED FREE ENERGY PREDICTED BY IDOCK:   -6.37 KCAL/MOL
REMARK 922        TOTAL FREE ENERGY PREDICTED BY IDOCK:   -7.64 KCAL/MOL
REMARK 923 INTER-LIGAND FREE ENERGY PREDICTED BY IDOCK:   -7.89 KCAL/MOL
REMARK 924 INTRA-LIGAND FREE ENERGY PREDICTED BY IDOCK:    0.26 KCAL/MOL
REMARK 927      BINDING AFFINITY PREDICTED BY RF-SCORE:    0.00 PKD
ROOT
HETATM    1  C   UNL     1      -7.873  12.890  67.313  1.00  0.00    -0.134 C  
HETATM    2  C   UNL     1      -7.082  12.438  68.393  1.00  0.00    -0.106 C  
HETATM    3  C   UNL     1      -8.329  11.642  68.185  1.00  0.00    -0.154 C  
HETATM    4  C   UNL     1      -9.403  11.951  66.447  1.00  0.00    -0.226 C  
HETATM    5  O   UNL     1     -13.576  15.916  72.213  1.00  0.00    -0.440 OA 
HETATM    6  O   UNL     1      -8.938  12.921  65.435  1.00  0.00    -0.035 OA 
HETATM    7  C   UNL     1      -8.370  11.109  66.741  1.00  0.00    -0.152 C  
HETATM    8  C   UNL     1      -7.325  10.397  65.911  1.00  0.00    -0.135 C  
HETATM    9  C   UNL     1      -9.841  10.300  67.688  1.00  0.00    -0.199 C  
HETATM   10  C   UNL     1     -12.665  15.239  71.755  1.00  0.00    -0.371 C  
HETATM   11  C   UNL     1     -11.511  15.868  71.092  1.00  0.00    -0.471 C  
HETATM   12  H   UNL     1      -9.432  13.063  64.636  1.00  0.00     0.000 HD 
HETATM   13  C   UNL     1     -10.957  11.525  68.228  1.00  0.00    -0.224 C  
HETATM   14  C   UNL     1     -12.581  13.752  71.872  1.00  0.00    -0.284 C  
HETATM   15  O   UNL     1     -12.163  11.294  68.121  1.00  0.00    -0.622 OA 
HETATM   16  C   UNL     1     -12.524  14.406  68.309  1.00  0.00     0.200 C  
HETATM   17  C   UNL     1     -10.418  13.002  68.862  1.00  0.00    -0.110 C  
HETATM   18  C   UNL     1      -9.274  13.831  67.996  1.00  0.00    -0.195 C  
HETATM   19  C   UNL     1     -11.567  13.941  69.425  1.00  0.00    -0.350 C  
HETATM   20  C   UNL     1     -12.399  13.122  70.494  1.00  0.00    -0.380 C  
HETATM   21  C   UNL     1      -8.739  14.993  68.847  1.00  0.00    -0.197 C  
HETATM   22  C   UNL     1      -9.848  15.935  69.292  1.00  0.00    -0.259 C  
HETATM   23  C   UNL     1     -10.975  15.244  70.025  1.00  0.00    -0.306 C  
ENDROOT
BRANCH   4  24
HETATM   24  C   UNL     1     -10.006  10.925  65.178  1.00  0.00    -0.284 C  
HETATM   25  O   UNL     1      -9.610   9.785  64.919  1.00  0.00    -0.290 OA 
BRANCH  24  26
HETATM   26  C   UNL     1     -11.136  11.453  64.253  1.00  0.00    -0.285 C  
BRANCH  26  27
HETATM   27  O   UNL     1     -11.909  12.479  64.932  1.00  0.00    -0.349 OA 
BRANCH  27  28
HETATM   28  C   UNL     1     -12.156  13.596  64.184  1.00  0.00    -0.435 C  
HETATM   29  C   UNL     1     -11.768  14.853  64.914  1.00  0.00    -0.371 C  
HETATM   30  O   UNL     1     -12.642  13.592  63.064  1.00  0.00    -0.729 OA 
ENDBRANCH  27  28
ENDBRANCH  26  27
ENDBRANCH  24  26
ENDBRANCH   4  24
TORSDOF 4
ENDMDL
MODEL       12
REMARK 921   NORMALIZED FREE ENERGY PREDICTED BY IDOCK:   -6.29 KCAL/MOL
REMARK 922        TOTAL FREE ENERGY PREDICTED BY IDOCK:   -7.54 KCAL/MOL
REMARK 923 INTER-LIGAND FREE ENERGY PREDICTED BY IDOCK:   -8.30 KCAL/MOL
REMARK 924 INTRA-LIGAND FREE ENERGY PREDICTED BY IDOCK:    0.76 KCAL/MOL
REMARK 927      BINDING AFFINITY PREDICTED BY RF-SCORE:    0.00 PKD
ROOT
HETATM    1  C   UNL     1     -11.893  13.468  68.323  1.00  0.00    -0.401 C  
HETATM    2  C   UNL     1     -11.359  14.347  69.292  1.00  0.00    -0.319 C  
HETATM    3  C   UNL     1     -10.327  13.724  68.408  1.00  0.00    -0.247 C  
HETATM    4  C   UNL     1     -10.970  12.702  66.731  1.00  0.00    -0.262 C  
HETATM    5  O   UNL     1      -9.046   6.890  72.107  1.00  0.00    -0.133 OA 
HETATM    6  O   UNL     1     -12.409  12.606  66.411  1.00  0.00    -0.521 OA 
HETATM    7  C   UNL     1     -10.662  14.016  66.934  1.00  0.00    -0.285 C  
HETATM    8  C   UNL     1     -11.034  15.304  66.232  1.00  0.00    -0.300 C  
HETATM    9  C   UNL     1      -8.927  13.179  66.967  1.00  0.00    -0.228 C  
HETATM   10  C   UNL     1      -9.191   8.035  71.698  1.00  0.00    -0.150 C  
HETATM   11  C   UNL     1     -10.508   8.693  71.738  1.00  0.00    -0.394 C  
HETATM   12  H   UNL     1     -12.705  12.137  65.641  1.00  0.00     0.000 HD 
HETATM   13  C   UNL     1      -9.049  11.565  67.617  1.00  0.00    -0.168 C  
HETATM   14  C   UNL     1      -8.080   8.897  71.196  1.00  0.00    -0.201 C  
HETATM   15  O   UNL     1      -8.397  10.673  67.069  1.00  0.00    -0.123 OA 
HETATM   16  C   UNL     1     -10.419   8.699  68.437  1.00  0.00    -0.220 C  
HETATM   17  C   UNL     1     -10.045  11.213  68.942  1.00  0.00    -0.199 C  
HETATM   18  C   UNL     1     -11.607  11.762  68.889  1.00  0.00    -0.370 C  
HETATM   19  C   UNL     1      -9.930   9.724  69.481  1.00  0.00    -0.230 C  
HETATM   20  C   UNL     1      -8.409   9.427  69.804  1.00  0.00    -0.161 C  
HETATM   21  C   UNL     1     -12.258  11.568  70.268  1.00  0.00    -0.415 C  
HETATM   22  C   UNL     1     -12.224  10.114  70.718  1.00  0.00    -0.434 C  
HETATM   23  C   UNL     1     -10.839   9.510  70.720  1.00  0.00    -0.386 C  
ENDROOT
BRANCH   4  24
HETATM   24  C   UNL     1     -10.604  12.779  65.032  1.00  0.00    -0.308 C  
HETATM   25  O   UNL     1     -10.088  13.734  64.445  1.00  0.00    -0.319 OA 
BRANCH  24  26
HETATM   26  C   UNL     1     -10.951  11.564  64.130  1.00  0.00    -0.366 C  
BRANCH  26  27
HETATM   27  O   UNL     1     -10.219  10.386  64.562  1.00  0.00    -0.342 OA 
BRANCH  27  28
HETATM   28  C   UNL     1      -9.231   9.983  63.708  1.00  0.00    -0.271 C  
HETATM   29  C   UNL     1      -9.124  10.889  62.511  1.00  0.00    -0.361 C  
HETATM   30  O   UNL     1      -8.521   9.004  63.874  1.00  0.00    -0.182 OA 
ENDBRANCH  27  28
ENDBRANCH  26  27
ENDBRANCH  24  26
ENDBRANCH   4  24
TORSDOF 4
ENDMDL
MODEL       13
REMARK 921   NORMALIZED FREE ENERGY PREDICTED BY IDOCK:   -6.23 KCAL/MOL
REMARK 922        TOTAL FREE ENERGY PREDICTED BY IDOCK:   -7.47 KCAL/MOL
REMARK 923 INTER-LIGAND FREE ENERGY PREDICTED BY IDOCK:   -7.85 KCAL/MOL
REMARK 924 INTRA-LIGAND FREE ENERGY PREDICTED BY IDOCK:    0.38 KCAL/MOL
REMARK 927      BINDING AFFINITY PREDICTED BY RF-SCORE:    0.00 PKD
ROOT
HETATM    1  C   UNL     1     -11.035  10.726  66.031  1.00  0.00    -0.010 C  
HETATM    2  C   UNL     1     -10.403  10.608  64.773  1.00  0.00    -0.353 C  
HETATM    3  C   UNL     1      -9.451  10.770  65.913  1.00  0.00    -0.236 C  
HETATM    4  C   UNL     1     -10.195  10.600  67.834  1.00  0.00    -0.177 C  
HETATM    5  O   UNL     1      -9.247  18.607  66.659  1.00  0.00    -0.301 OA 
HETATM    6  O   UNL     1     -11.625  10.313  68.066  1.00  0.00    -0.673 OA 
HETATM    7  C   UNL     1      -9.707   9.671  66.962  1.00  0.00    -0.232 C  
HETATM    8  C   UNL     1      -9.874   8.174  66.817  1.00  0.00    -0.329 C  
HETATM    9  C   UNL     1      -8.110  10.608  67.498  1.00  0.00    -0.111 C  
HETATM   10  C   UNL     1      -9.218  17.419  66.362  1.00  0.00    -0.249 C  
HETATM   11  C   UNL     1     -10.427  16.726  65.889  1.00  0.00    -0.311 C  
HETATM   12  H   UNL     1     -11.967  10.235  68.949  1.00  0.00     0.000 HD 
HETATM   13  C   UNL     1      -8.477  12.279  67.835  1.00  0.00    -0.165 C  
HETATM   14  C   UNL     1      -7.983  16.579  66.375  1.00  0.00    -0.352 C  
HETATM   15  O   UNL     1      -7.948  12.797  68.821  1.00  0.00    -0.060 OA 
HETATM   16  C   UNL     1     -10.262  14.911  68.643  1.00  0.00    -0.236 C  
HETATM   17  C   UNL     1      -9.543  13.169  66.864  1.00  0.00    -0.248 C  
HETATM   18  C   UNL     1     -11.009  12.481  66.512  1.00  0.00    -0.303 C  
HETATM   19  C   UNL     1      -9.656  14.708  67.239  1.00  0.00    -0.221 C  
HETATM   20  C   UNL     1      -8.201  15.331  67.224  1.00  0.00    -0.230 C  
HETATM   21  C   UNL     1     -11.713  13.316  65.431  1.00  0.00    -0.370 C  
HETATM   22  C   UNL     1     -11.898  14.766  65.856  1.00  0.00    -0.204 C  
HETATM   23  C   UNL     1     -10.614  15.447  66.269  1.00  0.00    -0.311 C  
ENDROOT
BRANCH   4  24
HETATM   24  C   UNL     1      -9.783   9.648  69.230  1.00  0.00    -0.185 C  
HETATM   25  O   UNL     1      -8.642   9.439  69.653  1.00  0.00    -0.140 OA 
BRANCH  24  26
HETATM   26  C   UNL     1     -10.919   8.970  70.043  1.00  0.00    -0.214 C  
BRANCH  26  27
HETATM   27  O   UNL     1     -11.254   9.769  71.209  1.00  0.00    -0.361 OA 
BRANCH  27  28
HETATM   28  C   UNL     1     -12.586  10.032  71.357  1.00  0.00    -0.415 C  
HETATM   29  C   UNL     1     -12.870  11.510  71.334  1.00  0.00    -0.489 C  
HETATM   30  O   UNL     1     -13.453   9.184  71.503  1.00  0.00    -0.360 OA 
ENDBRANCH  27  28
ENDBRANCH  26  27
ENDBRANCH  24  26
ENDBRANCH   4  24
TORSDOF 4
ENDMDL
MODEL       14
REMARK 921   NORMALIZED FREE ENERGY PREDICTED BY IDOCK:   -6.22 KCAL/MOL
REMARK 922        TOTAL FREE ENERGY PREDICTED BY IDOCK:   -7.45 KCAL/MOL
REMARK 923 INTER-LIGAND FREE ENERGY PREDICTED BY IDOCK:   -8.13 KCAL/MOL
REMARK 924 INTRA-LIGAND FREE ENERGY PREDICTED BY IDOCK:    0.68 KCAL/MOL
REMARK 927      BINDING AFFINITY PREDICTED BY RF-SCORE:    0.00 PKD
ROOT
HETATM    1  C   UNL     1     -11.627  15.104  65.917  1.00  0.00    -0.086 C  
HETATM    2  C   UNL     1     -11.362  14.940  64.538  1.00  0.00    -0.306 C  
HETATM    3  C   UNL     1     -10.341  14.309  65.429  1.00  0.00    -0.391 C  
HETATM    4  C   UNL     1     -10.768  14.156  67.445  1.00  0.00    -0.284 C  
HETATM    5  O   UNL     1      -5.571  20.404  66.876  1.00  0.00    -0.170 OA 
HETATM    6  O   UNL     1     -12.054  14.646  67.983  1.00  0.00    -0.544 OA 
HETATM    7  C   UNL     1     -11.032  13.326  66.394  1.00  0.00    -0.301 C  
HETATM    8  C   UNL     1     -12.046  12.232  66.146  1.00  0.00    -0.189 C  
HETATM    9  C   UNL     1      -9.130  13.108  66.623  1.00  0.00    -0.180 C  
HETATM   10  C   UNL     1      -6.271  19.488  66.465  1.00  0.00    -0.168 C  
HETATM   11  C   UNL     1      -7.711  19.681  66.228  1.00  0.00    -0.326 C  
HETATM   12  H   UNL     1     -12.250  14.576  68.909  1.00  0.00     0.000 HD 
HETATM   13  C   UNL     1      -8.419  14.591  67.202  1.00  0.00    -0.212 C  
HETATM   14  C   UNL     1      -5.756  18.135  66.099  1.00  0.00    -0.215 C  
HETATM   15  O   UNL     1      -7.556  14.512  68.079  1.00  0.00    -0.111 OA 
HETATM   16  C   UNL     1      -8.233  17.520  68.669  1.00  0.00    -0.265 C  
HETATM   17  C   UNL     1      -8.904  16.102  66.606  1.00  0.00    -0.298 C  
HETATM   18  C   UNL     1     -10.531  16.412  66.549  1.00  0.00    -0.282 C  
HETATM   19  C   UNL     1      -8.058  17.331  67.149  1.00  0.00    -0.225 C  
HETATM   20  C   UNL     1      -6.529  17.054  66.848  1.00  0.00    -0.248 C  
HETATM   21  C   UNL     1     -10.771  17.706  65.755  1.00  0.00    -0.110 C  
HETATM   22  C   UNL     1     -10.028  18.892  66.354  1.00  0.00    -0.435 C  
HETATM   23  C   UNL     1      -8.543  18.662  66.513  1.00  0.00    -0.307 C  
ENDROOT
BRANCH   4  24
HETATM   24  C   UNL     1     -10.787  12.857  68.601  1.00  0.00    -0.258 C  
HETATM   25  O   UNL     1     -10.052  11.865  68.587  1.00  0.00    -0.216 OA 
BRANCH  24  26
HETATM   26  C   UNL     1     -11.811  12.898  69.767  1.00  0.00    -0.310 C  
BRANCH  26  27
HETATM   27  O   UNL     1     -12.152  11.551  70.190  1.00  0.00    -0.325 OA 
BRANCH  27  28
HETATM   28  C   UNL     1     -12.773  11.474  71.405  1.00  0.00    -0.364 C  
HETATM   29  C   UNL     1     -12.883  10.053  71.887  1.00  0.00    -0.524 C  
HETATM   30  O   UNL     1     -13.202  12.431  72.032  1.00  0.00    -0.481 OA 
ENDBRANCH  27  28
ENDBRANCH  26  27
ENDBRANCH  24  26
ENDBRANCH   4  24
TORSDOF 4
ENDMDL
MODEL       15
REMARK 921   NORMALIZED FREE ENERGY PREDICTED BY IDOCK:   -6.10 KCAL/MOL
REMARK 922        TOTAL FREE ENERGY PREDICTED BY IDOCK:   -7.31 KCAL/MOL
REMARK 923 INTER-LIGAND FREE ENERGY PREDICTED BY IDOCK:   -7.61 KCAL/MOL
REMARK 924 INTRA-LIGAND FREE ENERGY PREDICTED BY IDOCK:    0.31 KCAL/MOL
REMARK 927      BINDING AFFINITY PREDICTED BY RF-SCORE:    0.00 PKD
ROOT
HETATM    1  C   UNL     1     -12.134   7.872  72.209  1.00  0.00    -0.363 C  
HETATM    2  C   UNL     1     -13.357   7.419  71.666  1.00  0.00    -0.426 C  
HETATM    3  C   UNL     1     -12.152   6.933  70.927  1.00  0.00    -0.424 C  
HETATM    4  C   UNL     1     -10.299   7.213  71.797  1.00  0.00    -0.196 C  
HETATM    5  O   UNL     1     -10.797  12.962  66.046  1.00  0.00    -0.274 OA 
HETATM    6  O   UNL     1     -10.175   7.862  73.118  1.00  0.00    -0.312 OA 
HETATM    7  C   UNL     1     -11.209   6.201  71.899  1.00  0.00    -0.336 C  
HETATM    8  C   UNL     1     -11.478   5.128  72.931  1.00  0.00    -0.329 C  
HETATM    9  C   UNL     1     -10.507   5.943  70.122  1.00  0.00    -0.329 C  
HETATM   10  C   UNL     1     -11.182  12.016  66.720  1.00  0.00    -0.322 C  
HETATM   11  C   UNL     1     -11.779  12.226  68.049  1.00  0.00    -0.417 C  
HETATM   12  H   UNL     1      -9.324   7.990  73.518  1.00  0.00     0.000 HD 
HETATM   13  C   UNL     1     -10.065   7.477  69.421  1.00  0.00    -0.190 C  
HETATM   14  C   UNL     1     -11.160  10.594  66.265  1.00  0.00     0.084 C  
HETATM   15  O   UNL     1      -9.013   7.536  68.781  1.00  0.00    -0.131 OA 
HETATM   16  C   UNL     1      -9.167  10.630  69.291  1.00  0.00    -0.121 C  
HETATM   17  C   UNL     1     -11.028   8.858  69.622  1.00  0.00    -0.132 C  
HETATM   18  C   UNL     1     -11.519   9.227  71.161  1.00  0.00    -0.403 C  
HETATM   19  C   UNL     1     -10.543  10.130  68.805  1.00  0.00    -0.236 C  
HETATM   20  C   UNL     1     -10.423   9.725  67.280  1.00  0.00    -0.324 C  
HETATM   21  C   UNL     1     -12.574  10.343  71.101  1.00  0.00    -0.512 C  
HETATM   22  C   UNL     1     -12.051  11.589  70.401  1.00  0.00    -0.471 C  
HETATM   23  C   UNL     1     -11.510  11.325  69.014  1.00  0.00    -0.369 C  
ENDROOT
BRANCH   4  24
HETATM   24  C   UNL     1      -8.958   6.177  72.187  1.00  0.00    -0.142 C  
HETATM   25  O   UNL     1      -8.436   5.351  71.432  1.00  0.00    -0.123 OA 
BRANCH  24  26
HETATM   26  C   UNL     1      -8.334   6.252  73.607  1.00  0.00    -0.120 C  
BRANCH  26  27
HETATM   27  O   UNL     1      -6.991   6.804  73.542  1.00  0.00    -0.075 OA 
BRANCH  27  28
HETATM   28  C   UNL     1      -6.897   8.119  73.902  1.00  0.00    -0.128 C  
HETATM   29  C   UNL     1      -5.510   8.660  73.679  1.00  0.00    -0.094 C  
HETATM   30  O   UNL     1      -7.812   8.785  74.361  1.00  0.00    -0.399 OA 
ENDBRANCH  27  28
ENDBRANCH  26  27
ENDBRANCH  24  26
ENDBRANCH   4  24
TORSDOF 4
ENDMDL
MODEL       16
REMARK 921   NORMALIZED FREE ENERGY PREDICTED BY IDOCK:   -6.02 KCAL/MOL
REMARK 922        TOTAL FREE ENERGY PREDICTED BY IDOCK:   -7.21 KCAL/MOL
REMARK 923 INTER-LIGAND FREE ENERGY PREDICTED BY IDOCK:   -7.56 KCAL/MOL
REMARK 924 INTRA-LIGAND FREE ENERGY PREDICTED BY IDOCK:    0.35 KCAL/MOL
REMARK 927      BINDING AFFINITY PREDICTED BY RF-SCORE:    0.00 PKD
ROOT
HETATM    1  C   UNL     1     -10.822  12.571  64.458  1.00  0.00    -0.360 C  
HETATM    2  C   UNL     1     -11.997  11.916  64.024  1.00  0.00    -0.455 C  
HETATM    3  C   UNL     1     -12.102  12.496  65.397  1.00  0.00    -0.494 C  
HETATM    4  C   UNL     1     -10.610  13.778  66.030  1.00  0.00    -0.290 C  
HETATM    5  O   UNL     1      -9.017   6.712  69.760  1.00  0.00    -0.142 OA 
HETATM    6  O   UNL     1      -9.481  14.120  65.141  1.00  0.00    -0.478 OA 
HETATM    7  C   UNL     1     -11.773  14.000  65.351  1.00  0.00    -0.344 C  
HETATM    8  C   UNL     1     -12.264  15.101  64.437  1.00  0.00    -0.289 C  
HETATM    9  C   UNL     1     -12.405  13.609  67.130  1.00  0.00    -0.234 C  
HETATM   10  C   UNL     1      -9.624   7.478  69.023  1.00  0.00    -0.153 C  
HETATM   11  C   UNL     1      -9.175   7.720  67.643  1.00  0.00    -0.146 C  
HETATM   12  H   UNL     1      -8.796  14.708  65.431  1.00  0.00     0.000 HD 
HETATM   13  C   UNL     1     -11.336  12.476  67.913  1.00  0.00    -0.291 C  
HETATM   14  C   UNL     1     -10.889   8.179  69.397  1.00  0.00    -0.096 C  
HETATM   15  O   UNL     1     -11.060  12.670  69.099  1.00  0.00    -0.245 OA 
HETATM   16  C   UNL     1      -8.571  10.834  68.562  1.00  0.00    -0.148 C  
HETATM   17  C   UNL     1     -10.671  11.159  67.080  1.00  0.00    -0.316 C  
HETATM   18  C   UNL     1      -9.956  11.465  65.616  1.00  0.00    -0.282 C  
HETATM   19  C   UNL     1      -9.830  10.159  67.981  1.00  0.00    -0.169 C  
HETATM   20  C   UNL     1     -10.745   9.682  69.182  1.00  0.00    -0.237 C  
HETATM   21  C   UNL     1      -9.650  10.132  64.914  1.00  0.00    -0.369 C  
HETATM   22  C   UNL     1      -8.760   9.232  65.758  1.00  0.00    -0.182 C  
HETATM   23  C   UNL     1      -9.303   8.964  67.143  1.00  0.00    -0.182 C  
ENDROOT
BRANCH   4  24
HETATM   24  C   UNL     1     -10.572  15.388  66.686  1.00  0.00    -0.306 C  
HETATM   25  O   UNL     1     -11.296  15.820  67.588  1.00  0.00    -0.297 OA 
BRANCH  24  26
HETATM   26  C   UNL     1      -9.560  16.415  66.109  1.00  0.00    -0.325 C  
BRANCH  26  27
HETATM   27  O   UNL     1      -8.714  16.942  67.166  1.00  0.00    -0.193 OA 
BRANCH  27  28
HETATM   28  C   UNL     1      -7.427  16.485  67.148  1.00  0.00    -0.182 C  
HETATM   29  C   UNL     1      -6.447  17.562  67.529  1.00  0.00    -0.164 C  
HETATM   30  O   UNL     1      -7.093  15.349  66.849  1.00  0.00    -0.191 OA 
ENDBRANCH  27  28
ENDBRANCH  26  27
ENDBRANCH  24  26
ENDBRANCH   4  24
TORSDOF 4
ENDMDL
MODEL       17
REMARK 921   NORMALIZED FREE ENERGY PREDICTED BY IDOCK:   -6.00 KCAL/MOL
REMARK 922        TOTAL FREE ENERGY PREDICTED BY IDOCK:   -7.18 KCAL/MOL
REMARK 923 INTER-LIGAND FREE ENERGY PREDICTED BY IDOCK:   -8.29 KCAL/MOL
REMARK 924 INTRA-LIGAND FREE ENERGY PREDICTED BY IDOCK:    1.11 KCAL/MOL
REMARK 927      BINDING AFFINITY PREDICTED BY RF-SCORE:    0.00 PKD
ROOT
HETATM    1  C   UNL     1     -11.128  12.647  63.768  1.00  0.00    -0.504 C  
HETATM    2  C   UNL     1     -12.331  11.986  63.432  1.00  0.00    -0.635 C  
HETATM    3  C   UNL     1     -12.285  12.473  64.843  1.00  0.00    -0.534 C  
HETATM    4  C   UNL     1     -10.758  13.756  65.382  1.00  0.00    -0.317 C  
HETATM    5  O   UNL     1      -8.572   6.517  68.415  1.00  0.00    -0.119 OA 
HETATM    6  O   UNL     1      -9.751  14.189  64.391  1.00  0.00    -0.528 OA 
HETATM    7  C   UNL     1     -11.998  13.986  64.861  1.00  0.00    -0.416 C  
HETATM    8  C   UNL     1     -12.619  15.128  64.087  1.00  0.00     0.183 C  
HETATM    9  C   UNL     1     -12.404  13.463  66.672  1.00  0.00    -0.324 C  
HETATM   10  C   UNL     1      -9.281   7.310  67.808  1.00  0.00    -0.126 C  
HETATM   11  C   UNL     1      -9.004   7.654  66.404  1.00  0.00    -0.198 C  
HETATM   12  H   UNL     1      -9.049  14.778  64.639  1.00  0.00     0.000 HD 
HETATM   13  C   UNL     1     -11.225  12.315  67.245  1.00  0.00    -0.300 C  
HETATM   14  C   UNL     1     -10.507   7.947  68.374  1.00  0.00    -0.207 C  
HETATM   15  O   UNL     1     -10.814  12.440  68.401  1.00  0.00    -0.219 OA 
HETATM   16  C   UNL     1      -8.365  10.720  67.454  1.00  0.00    -0.119 C  
HETATM   17  C   UNL     1     -10.634  11.075  66.253  1.00  0.00    -0.295 C  
HETATM   18  C   UNL     1     -10.106  11.496  64.740  1.00  0.00    -0.316 C  
HETATM   19  C   UNL     1      -9.669  10.045  66.980  1.00  0.00    -0.227 C  
HETATM   20  C   UNL     1     -10.424   9.465  68.245  1.00  0.00    -0.260 C  
HETATM   21  C   UNL     1      -9.855  10.221  63.919  1.00  0.00    -0.251 C  
HETATM   22  C   UNL     1      -8.851   9.295  64.590  1.00  0.00    -0.218 C  
HETATM   23  C   UNL     1      -9.219   8.923  66.007  1.00  0.00    -0.287 C  
ENDROOT
BRANCH   4  24
HETATM   24  C   UNL     1     -10.679  15.322  66.136  1.00  0.00    -0.320 C  
HETATM   25  O   UNL     1     -10.867  16.406  65.577  1.00  0.00    -0.307 OA 
BRANCH  24  26
HETATM   26  C   UNL     1     -10.331  15.415  67.646  1.00  0.00    -0.262 C  
BRANCH  26  27
HETATM   27  O   UNL     1     -11.334  16.195  68.351  1.00  0.00    -0.366 OA 
BRANCH  27  28
HETATM   28  C   UNL     1     -11.590  15.777  69.626  1.00  0.00    -0.358 C  
HETATM   29  C   UNL     1     -10.327  15.400  70.353  1.00  0.00    -0.121 C  
HETATM   30  O   UNL     1     -12.701  15.702  70.128  1.00  0.00    -0.335 OA 
ENDBRANCH  27  28
ENDBRANCH  26  27
ENDBRANCH  24  26
ENDBRANCH   4  24
TORSDOF 4
ENDMDL
MODEL       18
REMARK 921   NORMALIZED FREE ENERGY PREDICTED BY IDOCK:   -5.94 KCAL/MOL
REMARK 922        TOTAL FREE ENERGY PREDICTED BY IDOCK:   -7.11 KCAL/MOL
REMARK 923 INTER-LIGAND FREE ENERGY PREDICTED BY IDOCK:   -7.54 KCAL/MOL
REMARK 924 INTRA-LIGAND FREE ENERGY PREDICTED BY IDOCK:    0.43 KCAL/MOL
REMARK 927      BINDING AFFINITY PREDICTED BY RF-SCORE:    0.00 PKD
ROOT
HETATM    1  C   UNL     1     -10.346  12.458  65.045  1.00  0.00    -0.319 C  
HETATM    2  C   UNL     1     -11.550  12.082  64.408  1.00  0.00    -0.411 C  
HETATM    3  C   UNL     1     -11.638  12.103  65.900  1.00  0.00    -0.425 C  
HETATM    4  C   UNL     1     -10.084  12.966  66.954  1.00  0.00    -0.241 C  
HETATM    5  O   UNL     1      -8.918   4.938  67.710  1.00  0.00    -0.106 OA 
HETATM    6  O   UNL     1      -8.929  13.557  66.247  1.00  0.00    -0.461 OA 
HETATM    7  C   UNL     1     -11.226  13.492  66.424  1.00  0.00    -0.322 C  
HETATM    8  C   UNL     1     -11.647  14.882  66.000  1.00  0.00    -0.226 C  
HETATM    9  C   UNL     1     -11.896  12.491  67.929  1.00  0.00    -0.383 C  
HETATM   10  C   UNL     1      -9.476   5.958  67.326  1.00  0.00    -0.114 C  
HETATM   11  C   UNL     1      -8.999   6.680  66.135  1.00  0.00    -0.157 C  
HETATM   12  H   UNL     1      -8.215  13.953  66.732  1.00  0.00     0.000 HD 
HETATM   13  C   UNL     1     -10.899  11.089  68.212  1.00  0.00    -0.215 C  
HETATM   14  C   UNL     1     -10.704   6.532  67.952  1.00  0.00    -0.357 C  
HETATM   15  O   UNL     1     -10.625  10.803  69.380  1.00  0.00    -0.219 OA 
HETATM   16  C   UNL     1      -8.235   9.175  68.158  1.00  0.00    -0.116 C  
HETATM   17  C   UNL     1     -10.299  10.151  66.934  1.00  0.00    -0.298 C  
HETATM   18  C   UNL     1      -9.554  10.950  65.687  1.00  0.00    -0.268 C  
HETATM   19  C   UNL     1      -9.523   8.840  67.380  1.00  0.00    -0.183 C  
HETATM   20  C   UNL     1     -10.475   7.995  68.320  1.00  0.00    -0.210 C  
HETATM   21  C   UNL     1      -9.314   9.968  64.529  1.00  0.00    -0.345 C  
HETATM   22  C   UNL     1      -8.483   8.768  64.959  1.00  0.00    -0.193 C  
HETATM   23  C   UNL     1      -9.054   8.025  66.145  1.00  0.00    -0.224 C  
ENDROOT
BRANCH   4  24
HETATM   24  C   UNL     1      -9.964  14.202  68.171  1.00  0.00    -0.232 C  
HETATM   25  O   UNL     1     -10.744  14.370  69.113  1.00  0.00    -0.248 OA 
BRANCH  24  26
HETATM   26  C   UNL     1      -8.793  15.219  68.101  1.00  0.00    -0.171 C  
BRANCH  26  27
HETATM   27  O   UNL     1      -9.230  16.528  68.555  1.00  0.00    -0.214 OA 
BRANCH  27  28
HETATM   28  C   UNL     1      -9.328  17.470  67.571  1.00  0.00    -0.246 C  
HETATM   29  C   UNL     1      -8.334  17.230  66.467  1.00  0.00    -0.312 C  
HETATM   30  O   UNL     1     -10.113  18.406  67.576  1.00  0.00    -0.324 OA 
ENDBRANCH  27  28
ENDBRANCH  26  27
ENDBRANCH  24  26
ENDBRANCH   4  24
TORSDOF 4
ENDMDL
MODEL       19
REMARK 921   NORMALIZED FREE ENERGY PREDICTED BY IDOCK:   -5.86 KCAL/MOL
REMARK 922        TOTAL FREE ENERGY PREDICTED BY IDOCK:   -7.01 KCAL/MOL
REMARK 923 INTER-LIGAND FREE ENERGY PREDICTED BY IDOCK:   -7.26 KCAL/MOL
REMARK 924 INTRA-LIGAND FREE ENERGY PREDICTED BY IDOCK:    0.25 KCAL/MOL
REMARK 927      BINDING AFFINITY PREDICTED BY RF-SCORE:    0.00 PKD
ROOT
HETATM    1  C   UNL     1     -10.496  10.119  70.262  1.00  0.00    -0.284 C  
HETATM    2  C   UNL     1     -11.790   9.559  70.355  1.00  0.00    -0.181 C  
HETATM    3  C   UNL     1     -11.019   9.101  69.160  1.00  0.00    -0.057 C  
HETATM    4  C   UNL     1      -9.004   9.547  69.071  1.00  0.00    -0.144 C  
HETATM    5  O   UNL     1     -12.548  14.879  64.032  1.00  0.00    -0.832 OA 
HETATM    6  O   UNL     1      -8.345  10.285  70.168  1.00  0.00    -0.348 OA 
HETATM    7  C   UNL     1      -9.678   8.490  69.609  1.00  0.00    -0.179 C  
HETATM    8  C   UNL     1      -9.356   7.471  70.679  1.00  0.00    -0.163 C  
HETATM    9  C   UNL     1      -9.846   8.164  67.717  1.00  0.00    -0.209 C  
HETATM   10  C   UNL     1     -12.502  13.956  64.834  1.00  0.00    -0.391 C  
HETATM   11  C   UNL     1     -12.442  14.213  66.283  1.00  0.00    -0.395 C  
HETATM   12  H   UNL     1      -7.419  10.490  70.127  1.00  0.00     0.000 HD 
HETATM   13  C   UNL     1      -9.903   9.674  66.848  1.00  0.00    -0.200 C  
HETATM   14  C   UNL     1     -12.572  12.512  64.461  1.00  0.00    -0.503 C  
HETATM   15  O   UNL     1      -9.268   9.756  65.794  1.00  0.00    -0.163 OA 
HETATM   16  C   UNL     1      -9.429  12.861  66.229  1.00  0.00    -0.205 C  
HETATM   17  C   UNL     1     -10.779  11.004  67.429  1.00  0.00    -0.303 C  
HETATM   18  C   UNL     1     -10.542  11.439  69.010  1.00  0.00    -0.224 C  
HETATM   19  C   UNL     1     -10.828  12.248  66.445  1.00  0.00    -0.299 C  
HETATM   20  C   UNL     1     -11.384  11.755  65.047  1.00  0.00    -0.288 C  
HETATM   21  C   UNL     1     -11.596  12.483  69.410  1.00  0.00    -0.368 C  
HETATM   22  C   UNL     1     -11.556  13.711  68.512  1.00  0.00    -0.371 C  
HETATM   23  C   UNL     1     -11.688  13.394  67.041  1.00  0.00    -0.426 C  
ENDROOT
BRANCH   4  24
HETATM   24  C   UNL     1      -7.551   8.622  68.830  1.00  0.00    -0.096 C  
HETATM   25  O   UNL     1      -7.449   7.597  68.148  1.00  0.00    -0.102 OA 
BRANCH  24  26
HETATM   26  C   UNL     1      -6.240   9.079  69.525  1.00  0.00    -0.040 C  
BRANCH  26  27
HETATM   27  O   UNL     1      -6.002   8.297  70.725  1.00  0.00    -0.032 OA 
BRANCH  27  28
HETATM   28  C   UNL     1      -5.989   9.019  71.885  1.00  0.00    -0.073 C  
HETATM   29  C   UNL     1      -6.373   8.177  73.071  1.00  0.00    -0.087 C  
HETATM   30  O   UNL     1      -5.714  10.206  71.965  1.00  0.00    -0.296 OA 
ENDBRANCH  27  28
ENDBRANCH  26  27
ENDBRANCH  24  26
ENDBRANCH   4  24
TORSDOF 4
ENDMDL
MODEL       20
REMARK 921   NORMALIZED FREE ENERGY PREDICTED BY IDOCK:   -5.85 KCAL/MOL
REMARK 922        TOTAL FREE ENERGY PREDICTED BY IDOCK:   -7.00 KCAL/MOL
REMARK 923 INTER-LIGAND FREE ENERGY PREDICTED BY IDOCK:   -7.51 KCAL/MOL
REMARK 924 INTRA-LIGAND FREE ENERGY PREDICTED BY IDOCK:    0.51 KCAL/MOL
REMARK 927      BINDING AFFINITY PREDICTED BY RF-SCORE:    0.00 PKD
ROOT
HETATM    1  C   UNL     1     -11.044  12.683  63.813  1.00  0.00    -0.504 C  
HETATM    2  C   UNL     1     -12.232  11.996  63.476  1.00  0.00    -0.653 C  
HETATM    3  C   UNL     1     -12.069  12.236  64.942  1.00  0.00    -0.422 C  
HETATM    4  C   UNL     1     -10.576  13.525  65.558  1.00  0.00    -0.296 C  
HETATM    5  O   UNL     1      -7.639   6.070  67.033  1.00  0.00    -0.093 OA 
HETATM    6  O   UNL     1      -9.707  14.199  64.572  1.00  0.00    -0.562 OA 
HETATM    7  C   UNL     1     -11.876  13.741  65.203  1.00  0.00    -0.365 C  
HETATM    8  C   UNL     1     -12.644  14.946  64.705  1.00  0.00    -0.030 C  
HETATM    9  C   UNL     1     -12.057  12.885  66.920  1.00  0.00    -0.313 C  
HETATM   10  C   UNL     1      -8.455   6.897  66.646  1.00  0.00    -0.121 C  
HETATM   11  C   UNL     1      -8.349   7.497  65.306  1.00  0.00    -0.112 C  
HETATM   12  H   UNL     1      -9.021  14.792  64.855  1.00  0.00     0.000 HD 
HETATM   13  C   UNL     1     -10.755  11.753  67.168  1.00  0.00    -0.241 C  
HETATM   14  C   UNL     1      -9.652   7.326  67.427  1.00  0.00    -0.176 C  
HETATM   15  O   UNL     1     -10.233  11.710  68.285  1.00  0.00    -0.186 OA 
HETATM   16  C   UNL     1      -7.796  10.378  66.824  1.00  0.00    -0.117 C  
HETATM   17  C   UNL     1     -10.195  10.752  65.920  1.00  0.00    -0.319 C  
HETATM   18  C   UNL     1      -9.856  11.467  64.464  1.00  0.00    -0.278 C  
HETATM   19  C   UNL     1      -9.097   9.693  66.360  1.00  0.00    -0.191 C  
HETATM   20  C   UNL     1      -9.678   8.846  67.564  1.00  0.00    -0.216 C  
HETATM   21  C   UNL     1      -9.614  10.376  63.409  1.00  0.00    -0.361 C  
HETATM   22  C   UNL     1      -8.489   9.432  63.809  1.00  0.00    -0.200 C  
HETATM   23  C   UNL     1      -8.683   8.794  65.165  1.00  0.00    -0.202 C  
ENDROOT
BRANCH   4  24
HETATM   24  C   UNL     1     -10.516  14.939  66.569  1.00  0.00    -0.297 C  
HETATM   25  O   UNL     1     -11.422  15.344  67.302  1.00  0.00    -0.286 OA 
BRANCH  24  26
HETATM   26  C   UNL     1      -9.230  15.809  66.574  1.00  0.00    -0.283 C  
BRANCH  26  27
HETATM   27  O   UNL     1      -8.048  14.967  66.658  1.00  0.00    -0.125 OA 
BRANCH  27  28
HETATM   28  C   UNL     1      -7.192  15.285  67.674  1.00  0.00    -0.180 C  
HETATM   29  C   UNL     1      -7.854  15.166  69.020  1.00  0.00    -0.181 C  
HETATM   30  O   UNL     1      -6.032  15.637  67.525  1.00  0.00    -0.199 OA 
ENDBRANCH  27  28
ENDBRANCH  26  27
ENDBRANCH  24  26
ENDBRANCH   4  24
TORSDOF 4
ENDMDL
MODEL       21
REMARK 921   NORMALIZED FREE ENERGY PREDICTED BY IDOCK:   -5.82 KCAL/MOL
REMARK 922        TOTAL FREE ENERGY PREDICTED BY IDOCK:   -6.97 KCAL/MOL
REMARK 923 INTER-LIGAND FREE ENERGY PREDICTED BY IDOCK:   -7.24 KCAL/MOL
REMARK 924 INTRA-LIGAND FREE ENERGY PREDICTED BY IDOCK:    0.27 KCAL/MOL
REMARK 927      BINDING AFFINITY PREDICTED BY RF-SCORE:    0.00 PKD
ROOT
HETATM    1  C   UNL     1     -10.483  10.017  70.216  1.00  0.00    -0.331 C  
HETATM    2  C   UNL     1     -11.768   9.432  70.265  1.00  0.00    -0.127 C  
HETATM    3  C   UNL     1     -10.949   8.991  69.095  1.00  0.00    -0.025 C  
HETATM    4  C   UNL     1      -8.941   9.477  69.075  1.00  0.00    -0.144 C  
HETATM    5  O   UNL     1     -12.417  14.744  63.922  1.00  0.00    -0.811 OA 
HETATM    6  O   UNL     1      -8.334  10.226  70.194  1.00  0.00    -0.348 OA 
HETATM    7  C   UNL     1      -9.613   8.406  69.590  1.00  0.00    -0.163 C  
HETATM    8  C   UNL     1      -9.307   7.392  70.670  1.00  0.00    -0.160 C  
HETATM    9  C   UNL     1      -9.710   8.079  67.692  1.00  0.00    -0.198 C  
HETATM   10  C   UNL     1     -12.380  13.821  64.726  1.00  0.00    -0.386 C  
HETATM   11  C   UNL     1     -12.374  14.077  66.175  1.00  0.00    -0.491 C  
HETATM   12  H   UNL     1      -7.411  10.449  70.185  1.00  0.00     0.000 HD 
HETATM   13  C   UNL     1      -9.767   9.588  66.823  1.00  0.00    -0.197 C  
HETATM   14  C   UNL     1     -12.409  12.376  64.349  1.00  0.00    -0.532 C  
HETATM   15  O   UNL     1      -9.098   9.685  65.791  1.00  0.00    -0.160 OA 
HETATM   16  C   UNL     1      -9.335  12.785  66.222  1.00  0.00    -0.156 C  
HETATM   17  C   UNL     1     -10.688  10.900  67.375  1.00  0.00    -0.305 C  
HETATM   18  C   UNL     1     -10.513  11.338  68.964  1.00  0.00    -0.221 C  
HETATM   19  C   UNL     1     -10.728  12.144  66.391  1.00  0.00    -0.292 C  
HETATM   20  C   UNL     1     -11.227  11.643  64.975  1.00  0.00    -0.275 C  
HETATM   21  C   UNL     1     -11.601  12.360  69.329  1.00  0.00    -0.379 C  
HETATM   22  C   UNL     1     -11.555  13.591  68.434  1.00  0.00    -0.378 C  
HETATM   23  C   UNL     1     -11.631  13.272  66.958  1.00  0.00    -0.404 C  
ENDROOT
BRANCH   4  24
HETATM   24  C   UNL     1      -7.463   8.580  68.883  1.00  0.00    -0.091 C  
HETATM   25  O   UNL     1      -7.288   7.397  69.191  1.00  0.00    -0.085 OA 
BRANCH  24  26
HETATM   26  C   UNL     1      -6.220   9.292  68.284  1.00  0.00    -0.053 C  
BRANCH  26  27
HETATM   27  O   UNL     1      -6.374  10.735  68.364  1.00  0.00    -0.053 OA 
BRANCH  27  28
HETATM   28  C   UNL     1      -5.960  11.416  67.255  1.00  0.00    -0.081 C  
HETATM   29  C   UNL     1      -5.695  10.490  66.098  1.00  0.00    -0.096 C  
HETATM   30  O   UNL     1      -5.808  12.626  67.195  1.00  0.00    -0.300 OA 
ENDBRANCH  27  28
ENDBRANCH  26  27
ENDBRANCH  24  26
ENDBRANCH   4  24
TORSDOF 4
ENDMDL
MODEL       22
REMARK 921   NORMALIZED FREE ENERGY PREDICTED BY IDOCK:   -5.76 KCAL/MOL
REMARK 922        TOTAL FREE ENERGY PREDICTED BY IDOCK:   -6.88 KCAL/MOL
REMARK 923 INTER-LIGAND FREE ENERGY PREDICTED BY IDOCK:   -6.99 KCAL/MOL
REMARK 924 INTRA-LIGAND FREE ENERGY PREDICTED BY IDOCK:    0.11 KCAL/MOL
REMARK 927      BINDING AFFINITY PREDICTED BY RF-SCORE:    0.00 PKD
ROOT
HETATM    1  C   UNL     1     -11.853   9.117  71.730  1.00  0.00    -0.453 C  
HETATM    2  C   UNL     1     -13.157   8.724  71.352  1.00  0.00    -0.297 C  
HETATM    3  C   UNL     1     -12.091   8.268  70.408  1.00  0.00     0.271 C  
HETATM    4  C   UNL     1     -10.120   8.456  71.001  1.00  0.00    -0.196 C  
HETATM    5  O   UNL     1     -11.325  14.590  65.775  1.00  0.00    -0.328 OA 
HETATM    6  O   UNL     1      -9.781   9.012  72.327  1.00  0.00    -0.260 OA 
HETATM    7  C   UNL     1     -11.032   7.455  71.176  1.00  0.00    -0.265 C  
HETATM    8  C   UNL     1     -11.171   6.320  72.166  1.00  0.00    -0.326 C  
HETATM    9  C   UNL     1     -10.614   7.307  69.299  1.00  0.00    -0.230 C  
HETATM   10  C   UNL     1     -11.629  13.607  66.438  1.00  0.00    -0.350 C  
HETATM   11  C   UNL     1     -12.012  13.736  67.854  1.00  0.00    -0.391 C  
HETATM   12  H   UNL     1      -8.875   9.098  72.599  1.00  0.00     0.000 HD 
HETATM   13  C   UNL     1     -10.242   8.877  68.639  1.00  0.00    -0.200 C  
HETATM   14  C   UNL     1     -11.715  12.219  65.895  1.00  0.00    -0.451 C  
HETATM   15  O   UNL     1      -9.297   8.961  67.851  1.00  0.00    -0.140 OA 
HETATM   16  C   UNL     1      -9.288  12.015  68.576  1.00  0.00    -0.127 C  
HETATM   17  C   UNL     1     -11.125  10.257  69.073  1.00  0.00    -0.277 C  
HETATM   18  C   UNL     1     -11.367  10.529  70.690  1.00  0.00    -0.363 C  
HETATM   19  C   UNL     1     -10.734  11.573  68.276  1.00  0.00    -0.247 C  
HETATM   20  C   UNL     1     -10.857  11.270  66.727  1.00  0.00    -0.334 C  
HETATM   21  C   UNL     1     -12.388  11.665  70.864  1.00  0.00    -0.436 C  
HETATM   22  C   UNL     1     -11.943  12.946  70.173  1.00  0.00    -0.373 C  
HETATM   23  C   UNL     1     -11.625  12.768  68.706  1.00  0.00    -0.353 C  
ENDROOT
BRANCH   4  24
HETATM   24  C   UNL     1      -8.764   7.373  71.114  1.00  0.00    -0.137 C  
HETATM   25  O   UNL     1      -8.538   6.415  70.369  1.00  0.00    -0.138 OA 
BRANCH  24  26
HETATM   26  C   UNL     1      -7.723   7.583  72.247  1.00  0.00    -0.090 C  
BRANCH  26  27
HETATM   27  O   UNL     1      -7.095   8.887  72.123  1.00  0.00    -0.290 OA 
BRANCH  27  28
HETATM   28  C   UNL     1      -6.223   9.004  71.078  1.00  0.00    -0.058 C  
HETATM   29  C   UNL     1      -6.618  10.115  70.143  1.00  0.00    -0.128 C  
HETATM   30  O   UNL     1      -5.245   8.294  70.902  1.00  0.00    -0.025 OA 
ENDBRANCH  27  28
ENDBRANCH  26  27
ENDBRANCH  24  26
ENDBRANCH   4  24
TORSDOF 4
ENDMDL
MODEL       23
REMARK 921   NORMALIZED FREE ENERGY PREDICTED BY IDOCK:   -5.75 KCAL/MOL
REMARK 922        TOTAL FREE ENERGY PREDICTED BY IDOCK:   -6.87 KCAL/MOL
REMARK 923 INTER-LIGAND FREE ENERGY PREDICTED BY IDOCK:   -7.38 KCAL/MOL
REMARK 924 INTRA-LIGAND FREE ENERGY PREDICTED BY IDOCK:    0.51 KCAL/MOL
REMARK 927      BINDING AFFINITY PREDICTED BY RF-SCORE:    0.00 PKD
ROOT
HETATM    1  C   UNL     1     -11.980  12.483  68.737  1.00  0.00    -0.283 C  
HETATM    2  C   UNL     1     -11.787  13.453  69.746  1.00  0.00    -0.393 C  
HETATM    3  C   UNL     1     -10.528  12.775  69.312  1.00  0.00     0.205 C  
HETATM    4  C   UNL     1     -10.592  11.598  67.614  1.00  0.00    -0.203 C  
HETATM    5  O   UNL     1     -10.620   6.318  73.820  1.00  0.00    -0.272 OA 
HETATM    6  O   UNL     1     -11.845  11.447  66.847  1.00  0.00    -0.489 OA 
HETATM    7  C   UNL     1     -10.353  12.930  67.789  1.00  0.00    -0.223 C  
HETATM    8  C   UNL     1     -10.457  14.144  66.893  1.00  0.00    -0.272 C  
HETATM    9  C   UNL     1      -8.736  12.131  68.469  1.00  0.00    -0.079 C  
HETATM   10  C   UNL     1     -10.609   7.420  73.286  1.00  0.00    -0.392 C  
HETATM   11  C   UNL     1     -11.857   8.054  72.830  1.00  0.00    -0.303 C  
HETATM   12  H   UNL     1     -11.875  10.906  66.067  1.00  0.00     0.000 HD 
HETATM   13  C   UNL     1      -9.085  10.579  69.182  1.00  0.00    -0.166 C  
HETATM   14  C   UNL     1      -9.384   8.255  73.104  1.00  0.00    -0.281 C  
HETATM   15  O   UNL     1      -8.299   9.655  68.963  1.00  0.00    -0.111 OA 
HETATM   16  C   UNL     1     -10.682   7.771  69.757  1.00  0.00    -0.236 C  
HETATM   17  C   UNL     1     -10.467  10.326  70.131  1.00  0.00    -0.259 C  
HETATM   18  C   UNL     1     -11.917  10.839  69.516  1.00  0.00    -0.364 C  
HETATM   19  C   UNL     1     -10.553   8.893  70.807  1.00  0.00    -0.281 C  
HETATM   20  C   UNL     1      -9.228   8.654  71.640  1.00  0.00    -0.326 C  
HETATM   21  C   UNL     1     -12.989  10.755  70.614  1.00  0.00    -0.313 C  
HETATM   22  C   UNL     1     -13.123   9.347  71.177  1.00  0.00    -0.294 C  
HETATM   23  C   UNL     1     -11.824   8.772  71.691  1.00  0.00    -0.399 C  
ENDROOT
BRANCH   4  24
HETATM   24  C   UNL     1      -9.684  11.531  66.132  1.00  0.00    -0.223 C  
HETATM   25  O   UNL     1      -8.722  12.246  65.839  1.00  0.00     0.118 OA 
BRANCH  24  26
HETATM   26  C   UNL     1     -10.091  10.502  65.043  1.00  0.00    -0.321 C  
BRANCH  26  27
HETATM   27  O   UNL     1     -11.162  11.034  64.218  1.00  0.00    -0.155 OA 
BRANCH  27  28
HETATM   28  C   UNL     1     -10.802  12.085  63.423  1.00  0.00    -0.405 C  
HETATM   29  C   UNL     1     -11.800  13.209  63.497  1.00  0.00    -0.539 C  
HETATM   30  O   UNL     1      -9.802  12.120  62.722  1.00  0.00    -0.125 OA 
ENDBRANCH  27  28
ENDBRANCH  26  27
ENDBRANCH  24  26
ENDBRANCH   4  24
TORSDOF 4
ENDMDL
MODEL       24
REMARK 921   NORMALIZED FREE ENERGY PREDICTED BY IDOCK:   -5.73 KCAL/MOL
REMARK 922        TOTAL FREE ENERGY PREDICTED BY IDOCK:   -6.85 KCAL/MOL
REMARK 923 INTER-LIGAND FREE ENERGY PREDICTED BY IDOCK:   -7.36 KCAL/MOL
REMARK 924 INTRA-LIGAND FREE ENERGY PREDICTED BY IDOCK:    0.51 KCAL/MOL
REMARK 927      BINDING AFFINITY PREDICTED BY RF-SCORE:    0.00 PKD
ROOT
HETATM    1  C   UNL     1      -7.736  13.269  67.730  1.00  0.00    -0.159 C  
HETATM    2  C   UNL     1      -7.235  13.396  69.045  1.00  0.00    -0.018 C  
HETATM    3  C   UNL     1      -8.721  13.524  68.951  1.00  0.00     0.216 C  
HETATM    4  C   UNL     1      -9.631  13.014  67.168  1.00  0.00    -0.230 C  
HETATM    5  O   UNL     1      -9.504  21.160  67.193  1.00  0.00    -0.256 OA 
HETATM    6  O   UNL     1      -8.832  12.522  66.026  1.00  0.00    -0.416 OA 
HETATM    7  C   UNL     1      -9.307  12.274  68.268  1.00  0.00    -0.199 C  
HETATM    8  C   UNL     1      -9.070  10.801  68.512  1.00  0.00    -0.170 C  
HETATM    9  C   UNL     1     -10.793  13.326  68.903  1.00  0.00    -0.245 C  
HETATM   10  C   UNL     1      -9.290  20.035  67.625  1.00  0.00    -0.360 C  
HETATM   11  C   UNL     1      -8.116  19.264  67.186  1.00  0.00    -0.290 C  
HETATM   12  H   UNL     1      -9.251  12.288  65.207  1.00  0.00     0.000 HD 
HETATM   13  C   UNL     1     -10.814  14.879  68.112  1.00  0.00    -0.256 C  
HETATM   14  C   UNL     1     -10.124  19.361  68.665  1.00  0.00    -0.515 C  
HETATM   15  O   UNL     1     -11.904  15.326  67.749  1.00  0.00    -0.287 OA 
HETATM   16  C   UNL     1     -10.234  17.140  65.806  1.00  0.00    -0.234 C  
HETATM   17  C   UNL     1      -9.388  15.749  67.821  1.00  0.00    -0.206 C  
HETATM   18  C   UNL     1      -8.130  14.935  67.114  1.00  0.00    -0.239 C  
HETATM   19  C   UNL     1      -9.608  17.199  67.213  1.00  0.00    -0.245 C  
HETATM   20  C   UNL     1     -10.587  17.995  68.168  1.00  0.00    -0.334 C  
HETATM   21  C   UNL     1      -6.867  15.810  67.170  1.00  0.00    -0.170 C  
HETATM   22  C   UNL     1      -7.073  17.157  66.492  1.00  0.00    -0.303 C  
HETATM   23  C   UNL     1      -8.253  17.934  67.028  1.00  0.00    -0.241 C  
ENDROOT
BRANCH   4  24
HETATM   24  C   UNL     1     -10.927  11.947  66.712  1.00  0.00    -0.292 C  
HETATM   25  O   UNL     1     -12.107  12.051  67.059  1.00  0.00    -0.603 OA 
BRANCH  24  26
HETATM   26  C   UNL     1     -10.617  10.731  65.798  1.00  0.00    -0.134 C  
BRANCH  26  27
HETATM   27  O   UNL     1     -11.070  10.989  64.441  1.00  0.00    -0.229 OA 
BRANCH  27  28
HETATM   28  C   UNL     1     -10.070  11.220  63.540  1.00  0.00    -0.396 C  
HETATM   29  C   UNL     1      -9.396   9.944  63.113  1.00  0.00    -0.217 C  
HETATM   30  O   UNL     1      -9.741  12.323  63.130  1.00  0.00    -0.334 OA 
ENDBRANCH  27  28
ENDBRANCH  26  27
ENDBRANCH  24  26
ENDBRANCH   4  24
TORSDOF 4
ENDMDL
MODEL       25
REMARK 921   NORMALIZED FREE ENERGY PREDICTED BY IDOCK:   -5.69 KCAL/MOL
REMARK 922        TOTAL FREE ENERGY PREDICTED BY IDOCK:   -6.80 KCAL/MOL
REMARK 923 INTER-LIGAND FREE ENERGY PREDICTED BY IDOCK:   -7.19 KCAL/MOL
REMARK 924 INTRA-LIGAND FREE ENERGY PREDICTED BY IDOCK:    0.39 KCAL/MOL
REMARK 927      BINDING AFFINITY PREDICTED BY RF-SCORE:    0.00 PKD
ROOT
HETATM    1  C   UNL     1     -10.583  10.612  65.704  1.00  0.00    -0.175 C  
HETATM    2  C   UNL     1      -9.678  10.559  64.620  1.00  0.00    -0.369 C  
HETATM    3  C   UNL     1      -9.045  10.949  65.916  1.00  0.00    -0.212 C  
HETATM    4  C   UNL     1     -10.152  10.728  67.647  1.00  0.00    -0.176 C  
HETATM    5  O   UNL     1     -10.388  18.708  66.021  1.00  0.00    -0.445 OA 
HETATM    6  O   UNL     1     -11.526  10.185  67.600  1.00  0.00    -0.562 OA 
HETATM    7  C   UNL     1      -9.329   9.870  66.978  1.00  0.00    -0.175 C  
HETATM    8  C   UNL     1      -9.194   8.364  66.929  1.00  0.00    -0.196 C  
HETATM    9  C   UNL     1      -8.080  11.116  67.754  1.00  0.00    -0.117 C  
HETATM   10  C   UNL     1     -10.086  17.536  65.838  1.00  0.00    -0.185 C  
HETATM   11  C   UNL     1     -11.020  16.605  65.183  1.00  0.00    -0.160 C  
HETATM   12  H   UNL     1     -12.035  10.084  68.395  1.00  0.00     0.000 HD 
HETATM   13  C   UNL     1      -8.799  12.700  67.864  1.00  0.00    -0.182 C  
HETATM   14  C   UNL     1      -8.757  16.947  66.179  1.00  0.00    -0.280 C  
HETATM   15  O   UNL     1      -8.599  13.354  68.890  1.00  0.00     0.047 OA 
HETATM   16  C   UNL     1     -11.151  14.979  68.055  1.00  0.00    -0.304 C  
HETATM   17  C   UNL     1      -9.764  13.328  66.619  1.00  0.00    -0.270 C  
HETATM   18  C   UNL     1     -10.972  12.360  66.030  1.00  0.00    -0.324 C  
HETATM   19  C   UNL     1     -10.224  14.832  66.832  1.00  0.00    -0.257 C  
HETATM   20  C   UNL     1      -8.934  15.719  67.067  1.00  0.00    -0.247 C  
HETATM   21  C   UNL     1     -11.555  12.996  64.758  1.00  0.00    -0.368 C  
HETATM   22  C   UNL     1     -12.081  14.402  65.011  1.00  0.00    -0.417 C  
HETATM   23  C   UNL     1     -11.060  15.333  65.623  1.00  0.00    -0.308 C  
ENDROOT
BRANCH   4  24
HETATM   24  C   UNL     1      -9.898   9.935  69.174  1.00  0.00    -0.198 C  
HETATM   25  O   UNL     1      -8.803   9.681  69.685  1.00  0.00    -0.168 OA 
BRANCH  24  26
HETATM   26  C   UNL     1     -11.130   9.476  70.000  1.00  0.00    -0.237 C  
BRANCH  26  27
HETATM   27  O   UNL     1     -11.395   8.066  69.774  1.00  0.00    -0.062 OA 
BRANCH  27  28
HETATM   28  C   UNL     1     -11.455   7.307  70.909  1.00  0.00    -0.292 C  
HETATM   29  C   UNL     1     -10.092   6.829  71.333  1.00  0.00    -0.198 C  
HETATM   30  O   UNL     1     -12.481   7.031  71.512  1.00  0.00    -0.349 OA 
ENDBRANCH  27  28
ENDBRANCH  26  27
ENDBRANCH  24  26
ENDBRANCH   4  24
TORSDOF 4
ENDMDL
MODEL       26
REMARK 921   NORMALIZED FREE ENERGY PREDICTED BY IDOCK:   -5.68 KCAL/MOL
REMARK 922        TOTAL FREE ENERGY PREDICTED BY IDOCK:   -6.79 KCAL/MOL
REMARK 923 INTER-LIGAND FREE ENERGY PREDICTED BY IDOCK:   -7.12 KCAL/MOL
REMARK 924 INTRA-LIGAND FREE ENERGY PREDICTED BY IDOCK:    0.32 KCAL/MOL
REMARK 927      BINDING AFFINITY PREDICTED BY RF-SCORE:    0.00 PKD
ROOT
HETATM    1  C   UNL     1     -11.433  10.528  68.560  1.00  0.00    -0.284 C  
HETATM    2  C   UNL     1     -11.041  10.215  69.880  1.00  0.00    -0.346 C  
HETATM    3  C   UNL     1     -10.052  11.057  69.141  1.00  0.00    -0.167 C  
HETATM    4  C   UNL     1     -10.634  11.888  67.341  1.00  0.00    -0.225 C  
HETATM    5  O   UNL     1      -5.915   5.568  65.298  1.00  0.00    -0.024 OA 
HETATM    6  O   UNL     1     -11.995  11.664  66.811  1.00  0.00    -0.536 OA 
HETATM    7  C   UNL     1     -10.741  12.335  68.626  1.00  0.00    -0.261 C  
HETATM    8  C   UNL     1     -11.642  13.331  69.321  1.00  0.00    -0.370 C  
HETATM    9  C   UNL     1      -8.855  12.527  68.280  1.00  0.00    -0.171 C  
HETATM   10  C   UNL     1      -6.504   6.328  66.056  1.00  0.00    -0.046 C  
HETATM   11  C   UNL     1      -7.929   6.135  66.368  1.00  0.00    -0.106 C  
HETATM   12  H   UNL     1     -12.262  12.046  65.984  1.00  0.00     0.000 HD 
HETATM   13  C   UNL     1      -8.314  11.288  67.180  1.00  0.00    -0.151 C  
HETATM   14  C   UNL     1      -5.855   7.458  66.785  1.00  0.00    -0.038 C  
HETATM   15  O   UNL     1      -7.524  11.612  66.291  1.00  0.00     0.023 OA 
HETATM   16  C   UNL     1      -8.484   9.004  64.831  1.00  0.00    -0.195 C  
HETATM   17  C   UNL     1      -8.864   9.689  67.300  1.00  0.00    -0.139 C  
HETATM   18  C   UNL     1     -10.500   9.454  67.425  1.00  0.00    -0.343 C  
HETATM   19  C   UNL     1      -8.167   8.671  66.302  1.00  0.00    -0.116 C  
HETATM   20  C   UNL     1      -6.601   8.761  66.514  1.00  0.00    -0.063 C  
HETATM   21  C   UNL     1     -10.774   7.983  67.776  1.00  0.00    -0.174 C  
HETATM   22  C   UNL     1     -10.179   7.029  66.750  1.00  0.00    -0.282 C  
HETATM   23  C   UNL     1      -8.700   7.229  66.519  1.00  0.00    -0.141 C  
ENDROOT
BRANCH   4  24
HETATM   24  C   UNL     1     -10.647  13.496  66.678  1.00  0.00    -0.280 C  
HETATM   25  O   UNL     1      -9.801  14.371  66.884  1.00  0.00    -0.248 OA 
BRANCH  24  26
HETATM   26  C   UNL     1     -11.815  13.919  65.746  1.00  0.00    -0.378 C  
BRANCH  26  27
HETATM   27  O   UNL     1     -11.377  13.937  64.361  1.00  0.00    -0.373 OA 
BRANCH  27  28
HETATM   28  C   UNL     1     -11.609  12.779  63.674  1.00  0.00    -0.506 C  
HETATM   29  C   UNL     1     -10.342  11.996  63.456  1.00  0.00    -0.492 C  
HETATM   30  O   UNL     1     -12.702  12.414  63.268  1.00  0.00    -0.688 OA 
ENDBRANCH  27  28
ENDBRANCH  26  27
ENDBRANCH  24  26
ENDBRANCH   4  24
TORSDOF 4
ENDMDL
MODEL       27
REMARK 921   NORMALIZED FREE ENERGY PREDICTED BY IDOCK:   -5.65 KCAL/MOL
REMARK 922        TOTAL FREE ENERGY PREDICTED BY IDOCK:   -6.75 KCAL/MOL
REMARK 923 INTER-LIGAND FREE ENERGY PREDICTED BY IDOCK:   -7.38 KCAL/MOL
REMARK 924 INTRA-LIGAND FREE ENERGY PREDICTED BY IDOCK:    0.63 KCAL/MOL
REMARK 927      BINDING AFFINITY PREDICTED BY RF-SCORE:    0.00 PKD
ROOT
HETATM    1  C   UNL     1      -8.222   9.946  70.171  1.00  0.00    -0.162 C  
HETATM    2  C   UNL     1      -6.905   9.434  70.148  1.00  0.00    -0.071 C  
HETATM    3  C   UNL     1      -7.817   8.800  69.148  1.00  0.00    -0.098 C  
HETATM    4  C   UNL     1      -9.659   9.675  68.817  1.00  0.00    -0.152 C  
HETATM    5  O   UNL     1     -11.234   3.198  73.501  1.00  0.00    -0.221 OA 
HETATM    6  O   UNL     1     -10.053  10.901  69.540  1.00  0.00    -0.410 OA 
HETATM    7  C   UNL     1      -8.436   9.887  68.249  1.00  0.00    -0.111 C  
HETATM    8  C   UNL     1      -7.807  11.045  67.507  1.00  0.00    -0.116 C  
HETATM    9  C   UNL     1      -8.942   8.180  67.510  1.00  0.00    -0.143 C  
HETATM   10  C   UNL     1     -10.536   3.982  72.871  1.00  0.00    -0.156 C  
HETATM   11  C   UNL     1     -10.097   5.255  73.467  1.00  0.00    -0.205 C  
HETATM   12  H   UNL     1     -10.899  11.303  69.388  1.00  0.00     0.000 HD 
HETATM   13  C   UNL     1      -9.915   7.293  68.653  1.00  0.00    -0.166 C  
HETATM   14  C   UNL     1     -10.006   3.721  71.500  1.00  0.00    -0.195 C  
HETATM   15  O   UNL     1     -10.895   6.680  68.222  1.00  0.00    -0.238 OA 
HETATM   16  C   UNL     1     -11.939   6.768  71.181  1.00  0.00    -0.421 C  
HETATM   17  C   UNL     1      -9.554   7.282  70.309  1.00  0.00    -0.165 C  
HETATM   18  C   UNL     1      -9.279   8.744  71.038  1.00  0.00    -0.278 C  
HETATM   19  C   UNL     1     -10.464   6.317  71.180  1.00  0.00    -0.271 C  
HETATM   20  C   UNL     1     -10.383   4.862  70.560  1.00  0.00    -0.242 C  
HETATM   21  C   UNL     1      -8.725   8.507  72.452  1.00  0.00    -0.242 C  
HETATM   22  C   UNL     1      -9.664   7.661  73.301  1.00  0.00    -0.346 C  
HETATM   23  C   UNL     1     -10.029   6.338  72.670  1.00  0.00    -0.183 C  
ENDROOT
BRANCH   4  24
HETATM   24  C   UNL     1     -10.516  10.237  67.411  1.00  0.00    -0.251 C  
HETATM   25  O   UNL     1     -10.529   9.691  66.304  1.00  0.00    -0.191 OA 
BRANCH  24  26
HETATM   26  C   UNL     1     -11.345  11.546  67.506  1.00  0.00    -0.299 C  
BRANCH  26  27
HETATM   27  O   UNL     1     -11.948  11.858  66.222  1.00  0.00    -0.554 OA 
BRANCH  27  28
HETATM   28  C   UNL     1     -12.217  13.183  66.024  1.00  0.00    -0.414 C  
HETATM   29  C   UNL     1     -11.349  14.063  66.883  1.00  0.00    -0.343 C  
HETATM   30  O   UNL     1     -13.063  13.618  65.258  1.00  0.00    -0.735 OA 
ENDBRANCH  27  28
ENDBRANCH  26  27
ENDBRANCH  24  26
ENDBRANCH   4  24
TORSDOF 4
ENDMDL
MODEL       28
REMARK 921   NORMALIZED FREE ENERGY PREDICTED BY IDOCK:   -5.64 KCAL/MOL
REMARK 922        TOTAL FREE ENERGY PREDICTED BY IDOCK:   -6.74 KCAL/MOL
REMARK 923 INTER-LIGAND FREE ENERGY PREDICTED BY IDOCK:   -7.03 KCAL/MOL
REMARK 924 INTRA-LIGAND FREE ENERGY PREDICTED BY IDOCK:    0.29 KCAL/MOL
REMARK 927      BINDING AFFINITY PREDICTED BY RF-SCORE:    0.00 PKD
ROOT
HETATM    1  C   UNL     1     -10.984  14.590  65.956  1.00  0.00    -0.324 C  
HETATM    2  C   UNL     1     -12.220  14.278  66.566  1.00  0.00    -0.419 C  
HETATM    3  C   UNL     1     -11.065  14.282  67.513  1.00  0.00    -0.309 C  
HETATM    4  C   UNL     1      -9.267  15.059  66.854  1.00  0.00    -0.246 C  
HETATM    5  O   UNL     1      -8.274   6.977  66.585  1.00  0.00    -0.107 OA 
HETATM    6  O   UNL     1      -9.138  15.607  65.488  1.00  0.00    -0.275 OA 
HETATM    7  C   UNL     1     -10.347  15.644  67.450  1.00  0.00    -0.275 C  
HETATM    8  C   UNL     1     -10.884  17.057  67.501  1.00  0.00    -0.203 C  
HETATM    9  C   UNL     1      -9.561  14.654  68.905  1.00  0.00    -0.184 C  
HETATM   10  C   UNL     1      -8.873   8.027  66.780  1.00  0.00    -0.140 C  
HETATM   11  C   UNL     1      -9.529   8.743  65.674  1.00  0.00    -0.171 C  
HETATM   12  H   UNL     1      -8.312  15.964  65.185  1.00  0.00     0.000 HD 
HETATM   13  C   UNL     1      -8.800  13.204  68.306  1.00  0.00    -0.175 C  
HETATM   14  C   UNL     1      -9.067   8.647  68.125  1.00  0.00    -0.142 C  
HETATM   15  O   UNL     1      -7.705  12.891  68.779  1.00  0.00    -0.093 OA 
HETATM   16  C   UNL     1      -7.350  11.173  66.176  1.00  0.00    -0.007 C  
HETATM   17  C   UNL     1      -9.516  12.258  67.095  1.00  0.00    -0.196 C  
HETATM   18  C   UNL     1     -10.056  13.040  65.737  1.00  0.00    -0.294 C  
HETATM   19  C   UNL     1      -8.749  10.907  66.768  1.00  0.00    -0.147 C  
HETATM   20  C   UNL     1      -8.580  10.093  68.115  1.00  0.00    -0.118 C  
HETATM   21  C   UNL     1     -10.888  12.064  64.890  1.00  0.00    -0.349 C  
HETATM   22  C   UNL     1     -10.098  10.821  64.506  1.00  0.00    -0.415 C  
HETATM   23  C   UNL     1      -9.503  10.089  65.686  1.00  0.00    -0.278 C  
ENDROOT
BRANCH   4  24
HETATM   24  C   UNL     1      -8.167  16.273  67.438  1.00  0.00    -0.160 C  
HETATM   25  O   UNL     1      -8.004  16.596  68.618  1.00  0.00    -0.212 OA 
BRANCH  24  26
HETATM   26  C   UNL     1      -7.296  17.056  66.418  1.00  0.00    -0.293 C  
BRANCH  26  27
HETATM   27  O   UNL     1      -8.067  18.126  65.809  1.00  0.00    -0.520 OA 
BRANCH  27  28
HETATM   28  C   UNL     1      -7.997  19.323  66.465  1.00  0.00    -0.294 C  
HETATM   29  C   UNL     1      -9.293  20.083  66.377  1.00  0.00    -0.481 C  
HETATM   30  O   UNL     1      -7.009  19.745  67.045  1.00  0.00    -0.206 OA 
ENDBRANCH  27  28
ENDBRANCH  26  27
ENDBRANCH  24  26
ENDBRANCH   4  24
TORSDOF 4
ENDMDL
MODEL       29
REMARK 921   NORMALIZED FREE ENERGY PREDICTED BY IDOCK:   -5.62 KCAL/MOL
REMARK 922        TOTAL FREE ENERGY PREDICTED BY IDOCK:   -6.71 KCAL/MOL
REMARK 923 INTER-LIGAND FREE ENERGY PREDICTED BY IDOCK:   -7.53 KCAL/MOL
REMARK 924 INTRA-LIGAND FREE ENERGY PREDICTED BY IDOCK:    0.82 KCAL/MOL
REMARK 927      BINDING AFFINITY PREDICTED BY RF-SCORE:    0.00 PKD
ROOT
HETATM    1  C   UNL     1     -10.732   5.916  70.394  1.00  0.00    -0.373 C  
HETATM    2  C   UNL     1      -9.545   5.269  70.805  1.00  0.00    -0.234 C  
HETATM    3  C   UNL     1      -9.517   6.752  70.984  1.00  0.00    -0.165 C  
HETATM    4  C   UNL     1     -11.288   7.793  70.765  1.00  0.00    -0.279 C  
HETATM    5  O   UNL     1      -7.207   9.130  63.841  1.00  0.00    -0.094 OA 
HETATM    6  O   UNL     1     -12.547   7.084  70.454  1.00  0.00    -0.618 OA 
HETATM    7  C   UNL     1     -10.714   7.193  71.848  1.00  0.00    -0.243 C  
HETATM    8  C   UNL     1     -11.244   6.663  73.161  1.00  0.00    -0.119 C  
HETATM    9  C   UNL     1      -9.594   8.742  71.595  1.00  0.00    -0.363 C  
HETATM   10  C   UNL     1      -7.400   8.660  64.955  1.00  0.00    -0.086 C  
HETATM   11  C   UNL     1      -8.201   7.438  65.134  1.00  0.00    -0.115 C  
HETATM   12  H   UNL     1     -13.360   7.563  70.353  1.00  0.00     0.000 HD 
HETATM   13  C   UNL     1      -9.504   9.150  69.903  1.00  0.00    -0.186 C  
HETATM   14  C   UNL     1      -6.810   9.207  66.213  1.00  0.00    -0.082 C  
HETATM   15  O   UNL     1      -9.561  10.342  69.594  1.00  0.00    -0.200 OA 
HETATM   16  C   UNL     1     -10.392   9.310  66.748  1.00  0.00    -0.296 C  
HETATM   17  C   UNL     1      -9.365   7.958  68.705  1.00  0.00    -0.146 C  
HETATM   18  C   UNL     1     -10.423   6.684  68.773  1.00  0.00    -0.241 C  
HETATM   19  C   UNL     1      -9.162   8.516  67.233  1.00  0.00    -0.168 C  
HETATM   20  C   UNL     1      -7.908   9.482  67.237  1.00  0.00    -0.098 C  
HETATM   21  C   UNL     1      -9.976   5.603  67.775  1.00  0.00    -0.175 C  
HETATM   22  C   UNL     1      -9.885   6.140  66.353  1.00  0.00    -0.141 C  
HETATM   23  C   UNL     1      -8.997   7.355  66.217  1.00  0.00    -0.192 C  
ENDROOT
BRANCH   4  24
HETATM   24  C   UNL     1     -12.175   8.926  71.742  1.00  0.00    -0.359 C  
HETATM   25  O   UNL     1     -12.434   8.801  72.942  1.00  0.00    -0.264 OA 
BRANCH  24  26
HETATM   26  C   UNL     1     -12.722  10.223  71.086  1.00  0.00    -0.403 C  
BRANCH  26  27
HETATM   27  O   UNL     1     -13.380  11.055  72.078  1.00  0.00    -0.455 OA 
BRANCH  27  28
HETATM   28  C   UNL     1     -13.239  12.399  71.880  1.00  0.00    -0.382 C  
HETATM   29  C   UNL     1     -12.373  12.700  70.687  1.00  0.00    -0.375 C  
HETATM   30  O   UNL     1     -13.739  13.265  72.582  1.00  0.00    -0.674 OA 
ENDBRANCH  27  28
ENDBRANCH  26  27
ENDBRANCH  24  26
ENDBRANCH   4  24
TORSDOF 4
ENDMDL
MODEL       30
REMARK 921   NORMALIZED FREE ENERGY PREDICTED BY IDOCK:   -5.57 KCAL/MOL
REMARK 922        TOTAL FREE ENERGY PREDICTED BY IDOCK:   -6.65 KCAL/MOL
REMARK 923 INTER-LIGAND FREE ENERGY PREDICTED BY IDOCK:   -7.16 KCAL/MOL
REMARK 924 INTRA-LIGAND FREE ENERGY PREDICTED BY IDOCK:    0.51 KCAL/MOL
REMARK 927      BINDING AFFINITY PREDICTED BY RF-SCORE:    0.00 PKD
ROOT
HETATM    1  C   UNL     1      -7.488  14.908  68.542  1.00  0.00    -0.118 C  
HETATM    2  C   UNL     1      -6.438  15.063  67.609  1.00  0.00    -0.175 C  
HETATM    3  C   UNL     1      -7.800  15.107  66.996  1.00  0.00    -0.197 C  
HETATM    4  C   UNL     1      -9.431  15.248  68.257  1.00  0.00    -0.205 C  
HETATM    5  O   UNL     1      -9.259   7.443  65.928  1.00  0.00    -0.099 OA 
HETATM    6  O   UNL     1      -9.250  15.319  69.721  1.00  0.00    -0.420 OA 
HETATM    7  C   UNL     1      -8.642  16.201  67.680  1.00  0.00    -0.181 C  
HETATM    8  C   UNL     1      -8.327  17.644  68.005  1.00  0.00    -0.246 C  
HETATM    9  C   UNL     1      -9.663  15.551  66.180  1.00  0.00    -0.348 C  
HETATM   10  C   UNL     1      -8.877   8.604  65.982  1.00  0.00    -0.178 C  
HETATM   11  C   UNL     1      -8.041   9.077  67.097  1.00  0.00    -0.106 C  
HETATM   12  H   UNL     1      -9.999  15.383  70.300  1.00  0.00     0.000 HD 
HETATM   13  C   UNL     1     -10.036  13.861  66.392  1.00  0.00    -0.295 C  
HETATM   14  C   UNL     1      -9.143   9.627  64.926  1.00  0.00    -0.284 C  
HETATM   15  O   UNL     1     -11.169  13.479  66.088  1.00  0.00    -0.291 OA 
HETATM   16  C   UNL     1     -10.569  11.023  67.950  1.00  0.00    -0.244 C  
HETATM   17  C   UNL     1      -8.899  12.770  67.015  1.00  0.00    -0.213 C  
HETATM   18  C   UNL     1      -8.112  13.203  68.408  1.00  0.00    -0.130 C  
HETATM   19  C   UNL     1      -9.365  11.252  67.014  1.00  0.00    -0.183 C  
HETATM   20  C   UNL     1      -9.792  10.864  65.540  1.00  0.00    -0.298 C  
HETATM   21  C   UNL     1      -6.960  12.218  68.664  1.00  0.00    -0.097 C  
HETATM   22  C   UNL     1      -7.446  10.779  68.758  1.00  0.00    -0.109 C  
HETATM   23  C   UNL     1      -8.243  10.327  67.556  1.00  0.00    -0.114 C  
ENDROOT
BRANCH   4  24
HETATM   24  C   UNL     1     -10.797  16.317  68.381  1.00  0.00    -0.334 C  
HETATM   25  O   UNL     1     -10.798  17.525  68.125  1.00  0.00    -0.361 OA 
BRANCH  24  26
HETATM   26  C   UNL     1     -12.159  15.749  68.865  1.00  0.00    -0.120 C  
BRANCH  26  27
HETATM   27  O   UNL     1     -11.987  15.001  70.098  1.00  0.00    -0.280 OA 
BRANCH  27  28
HETATM   28  C   UNL     1     -12.443  15.636  71.219  1.00  0.00    -0.444 C  
HETATM   29  C   UNL     1     -13.904  15.365  71.457  1.00  0.00    -0.599 C  
HETATM   30  O   UNL     1     -11.765  16.348  71.943  1.00  0.00    -0.493 OA 
ENDBRANCH  27  28
ENDBRANCH  26  27
ENDBRANCH  24  26
ENDBRANCH   4  24
TORSDOF 4
ENDMDL
MODEL       31
REMARK 921   NORMALIZED FREE ENERGY PREDICTED BY IDOCK:   -5.54 KCAL/MOL
REMARK 922        TOTAL FREE ENERGY PREDICTED BY IDOCK:   -6.62 KCAL/MOL
REMARK 923 INTER-LIGAND FREE ENERGY PREDICTED BY IDOCK:   -6.98 KCAL/MOL
REMARK 924 INTRA-LIGAND FREE ENERGY PREDICTED BY IDOCK:    0.36 KCAL/MOL
REMARK 927      BINDING AFFINITY PREDICTED BY RF-SCORE:    0.00 PKD
ROOT
HETATM    1  C   UNL     1      -9.809  18.370  65.851  1.00  0.00    -0.021 C  
HETATM    2  C   UNL     1     -11.141  18.834  65.931  1.00  0.00     0.301 C  
HETATM    3  C   UNL     1     -10.529  18.525  67.259  1.00  0.00    -0.455 C  
HETATM    4  C   UNL     1      -8.493  18.179  67.336  1.00  0.00    -0.240 C  
HETATM    5  O   UNL     1     -11.889  10.790  67.830  1.00  0.00    -0.538 OA 
HETATM    6  O   UNL     1      -7.669  18.251  66.112  1.00  0.00    -0.335 OA 
HETATM    7  C   UNL     1      -9.225  19.328  67.428  1.00  0.00    -0.356 C  
HETATM    8  C   UNL     1      -8.919  20.791  67.201  1.00  0.00    -0.277 C  
HETATM    9  C   UNL     1      -9.589  18.473  69.117  1.00  0.00    -0.130 C  
HETATM   10  C   UNL     1     -11.870  12.009  67.726  1.00  0.00    -0.238 C  
HETATM   11  C   UNL     1     -11.658  12.656  66.420  1.00  0.00    -0.441 C  
HETATM   12  H   UNL     1      -6.734  18.091  66.147  1.00  0.00     0.000 HD 
HETATM   13  C   UNL     1      -9.564  16.739  68.932  1.00  0.00    -0.249 C  
HETATM   14  C   UNL     1     -12.121  12.954  68.854  1.00  0.00    -0.182 C  
HETATM   15  O   UNL     1      -9.018  16.074  69.815  1.00  0.00    -0.063 OA 
HETATM   16  C   UNL     1      -8.818  13.816  67.643  1.00  0.00    -0.189 C  
HETATM   17  C   UNL     1     -10.243  15.978  67.578  1.00  0.00    -0.275 C  
HETATM   18  C   UNL     1      -9.826  16.565  66.085  1.00  0.00    -0.355 C  
HETATM   19  C   UNL     1     -10.248  14.392  67.641  1.00  0.00    -0.229 C  
HETATM   20  C   UNL     1     -10.972  13.950  68.978  1.00  0.00    -0.281 C  
HETATM   21  C   UNL     1     -10.728  15.922  65.020  1.00  0.00    -0.426 C  
HETATM   22  C   UNL     1     -10.639  14.402  65.034  1.00  0.00    -0.452 C  
HETATM   23  C   UNL     1     -10.930  13.789  66.384  1.00  0.00    -0.298 C  
ENDROOT
BRANCH   4  24
HETATM   24  C   UNL     1      -7.171  18.834  68.257  1.00  0.00    -0.260 C  
HETATM   25  O   UNL     1      -7.182  19.896  68.886  1.00  0.00    -0.319 OA 
BRANCH  24  26
HETATM   26  C   UNL     1      -5.831  18.052  68.314  1.00  0.00    -0.172 C  
BRANCH  26  27
HETATM   27  O   UNL     1      -6.067  16.628  68.149  1.00  0.00    -0.118 OA 
BRANCH  27  28
HETATM   28  C   UNL     1      -5.795  15.873  69.255  1.00  0.00    -0.120 C  
HETATM   29  C   UNL     1      -5.558  14.429  68.900  1.00  0.00    -0.086 C  
HETATM   30  O   UNL     1      -5.758  16.298  70.399  1.00  0.00    -0.174 OA 
ENDBRANCH  27  28
ENDBRANCH  26  27
ENDBRANCH  24  26
ENDBRANCH   4  24
TORSDOF 4
ENDMDL
MODEL       32
REMARK 921   NORMALIZED FREE ENERGY PREDICTED BY IDOCK:   -5.54 KCAL/MOL
REMARK 922        TOTAL FREE ENERGY PREDICTED BY IDOCK:   -6.62 KCAL/MOL
REMARK 923 INTER-LIGAND FREE ENERGY PREDICTED BY IDOCK:   -7.37 KCAL/MOL
REMARK 924 INTRA-LIGAND FREE ENERGY PREDICTED BY IDOCK:    0.75 KCAL/MOL
REMARK 927      BINDING AFFINITY PREDICTED BY RF-SCORE:    0.00 PKD
ROOT
HETATM    1  C   UNL     1      -8.514  11.847  67.459  1.00  0.00    -0.161 C  
HETATM    2  C   UNL     1      -8.412  11.166  66.225  1.00  0.00    -0.168 C  
HETATM    3  C   UNL     1      -9.813  11.293  66.730  1.00  0.00    -0.227 C  
HETATM    4  C   UNL     1     -10.162  12.558  68.326  1.00  0.00    -0.234 C  
HETATM    5  O   UNL     1     -10.294   5.069  71.530  1.00  0.00    -0.204 OA 
HETATM    6  O   UNL     1      -9.056  13.325  68.937  1.00  0.00    -0.386 OA 
HETATM    7  C   UNL     1     -10.142  12.777  66.979  1.00  0.00    -0.240 C  
HETATM    8  C   UNL     1      -9.939  14.002  66.115  1.00  0.00    -0.325 C  
HETATM    9  C   UNL     1     -11.778  11.784  67.210  1.00  0.00    -0.293 C  
HETATM   10  C   UNL     1     -10.178   5.907  70.646  1.00  0.00    -0.209 C  
HETATM   11  C   UNL     1      -8.904   6.613  70.432  1.00  0.00    -0.152 C  
HETATM   12  H   UNL     1      -9.217  13.906  69.671  1.00  0.00     0.000 HD 
HETATM   13  C   UNL     1     -11.620  10.662  68.534  1.00  0.00    -0.207 C  
HETATM   14  C   UNL     1     -11.252   6.251  69.667  1.00  0.00    -0.506 C  
HETATM   15  O   UNL     1     -12.575  10.541  69.305  1.00  0.00    -0.195 OA 
HETATM   16  C   UNL     1     -10.477   9.376  71.328  1.00  0.00    -0.385 C  
HETATM   17  C   UNL     1     -10.198   9.773  68.783  1.00  0.00    -0.210 C  
HETATM   18  C   UNL     1      -8.766  10.607  68.768  1.00  0.00    -0.157 C  
HETATM   19  C   UNL     1     -10.279   8.704  69.953  1.00  0.00    -0.206 C  
HETATM   20  C   UNL     1     -11.514   7.754  69.675  1.00  0.00     0.266 C  
HETATM   21  C   UNL     1      -7.599   9.608  68.753  1.00  0.00    -0.076 C  
HETATM   22  C   UNL     1      -7.644   8.657  69.941  1.00  0.00    -0.071 C  
HETATM   23  C   UNL     1      -8.951   7.910  70.073  1.00  0.00    -0.145 C  
ENDROOT
BRANCH   4  24
HETATM   24  C   UNL     1     -11.241  13.889  68.624  1.00  0.00    -0.270 C  
HETATM   25  O   UNL     1     -11.843  14.540  67.765  1.00  0.00    -0.366 OA 
BRANCH  24  26
HETATM   26  C   UNL     1     -11.493  14.344  70.087  1.00  0.00    -0.220 C  
BRANCH  26  27
HETATM   27  O   UNL     1     -12.362  13.401  70.769  1.00  0.00    -0.353 OA 
BRANCH  27  28
HETATM   28  C   UNL     1     -13.234  13.967  71.656  1.00  0.00    -0.370 C  
HETATM   29  C   UNL     1     -13.503  15.411  71.330  1.00  0.00    -0.607 C  
HETATM   30  O   UNL     1     -13.734  13.389  72.609  1.00  0.00    -0.687 OA 
ENDBRANCH  27  28
ENDBRANCH  26  27
ENDBRANCH  24  26
ENDBRANCH   4  24
TORSDOF 4
ENDMDL
MODEL       33
REMARK 921   NORMALIZED FREE ENERGY PREDICTED BY IDOCK:   -5.53 KCAL/MOL
REMARK 922        TOTAL FREE ENERGY PREDICTED BY IDOCK:   -6.61 KCAL/MOL
REMARK 923 INTER-LIGAND FREE ENERGY PREDICTED BY IDOCK:   -6.98 KCAL/MOL
REMARK 924 INTRA-LIGAND FREE ENERGY PREDICTED BY IDOCK:    0.37 KCAL/MOL
REMARK 927      BINDING AFFINITY PREDICTED BY RF-SCORE:    0.00 PKD
ROOT
HETATM    1  C   UNL     1     -10.951  13.457  69.251  1.00  0.00    -0.159 C  
HETATM    2  C   UNL     1     -12.258  13.857  69.611  1.00  0.00    -0.374 C  
HETATM    3  C   UNL     1     -12.074  13.649  68.142  1.00  0.00    -0.310 C  
HETATM    4  C   UNL     1     -10.339  12.729  67.499  1.00  0.00    -0.219 C  
HETATM    5  O   UNL     1      -9.213  20.645  65.934  1.00  0.00     0.088 OA 
HETATM    6  O   UNL     1      -9.319  12.279  68.469  1.00  0.00    -0.310 OA 
HETATM    7  C   UNL     1     -11.547  12.225  67.883  1.00  0.00    -0.416 C  
HETATM    8  C   UNL     1     -12.010  10.881  68.401  1.00  0.00    -0.081 C  
HETATM    9  C   UNL     1     -11.953  13.003  66.166  1.00  0.00    -0.488 C  
HETATM   10  C   UNL     1      -9.811  19.658  66.342  1.00  0.00    -0.437 C  
HETATM   11  C   UNL     1      -9.543  19.109  67.681  1.00  0.00    -0.375 C  
HETATM   12  H   UNL     1      -8.521  11.857  68.174  1.00  0.00     0.000 HD 
HETATM   13  C   UNL     1     -10.950  14.400  65.886  1.00  0.00    -0.312 C  
HETATM   14  C   UNL     1     -10.894  18.959  65.588  1.00  0.00    -0.117 C  
HETATM   15  O   UNL     1     -10.474  14.552  64.758  1.00  0.00    -0.423 OA 
HETATM   16  C   UNL     1      -8.377  16.418  66.163  1.00  0.00    -0.291 C  
HETATM   17  C   UNL     1     -10.608  15.513  67.119  1.00  0.00    -0.300 C  
HETATM   18  C   UNL     1     -10.086  14.906  68.570  1.00  0.00    -0.232 C  
HETATM   19  C   UNL     1      -9.791  16.791  66.652  1.00  0.00    -0.287 C  
HETATM   20  C   UNL     1     -10.574  17.473  65.457  1.00  0.00    -0.097 C  
HETATM   21  C   UNL     1     -10.079  16.033  69.615  1.00  0.00    -0.244 C  
HETATM   22  C   UNL     1      -9.207  17.205  69.189  1.00  0.00    -0.042 C  
HETATM   23  C   UNL     1      -9.569  17.771  67.835  1.00  0.00    -0.280 C  
ENDROOT
BRANCH   4  24
HETATM   24  C   UNL     1      -9.977  11.358  66.492  1.00  0.00    -0.211 C  
HETATM   25  O   UNL     1     -10.629  10.986  65.513  1.00  0.00    -0.256 OA 
BRANCH  24  26
HETATM   26  C   UNL     1      -8.736  10.485  66.823  1.00  0.00    -0.132 C  
BRANCH  26  27
HETATM   27  O   UNL     1      -9.104   9.397  67.713  1.00  0.00    -0.126 OA 
BRANCH  27  28
HETATM   28  C   UNL     1      -9.601   8.290  67.085  1.00  0.00    -0.180 C  
HETATM   29  C   UNL     1     -10.510   7.499  67.987  1.00  0.00    -0.253 C  
HETATM   30  O   UNL     1      -9.341   7.962  65.938  1.00  0.00    -0.115 OA 
ENDBRANCH  27  28
ENDBRANCH  26  27
ENDBRANCH  24  26
ENDBRANCH   4  24
TORSDOF 4
ENDMDL
MODEL       34
REMARK 921   NORMALIZED FREE ENERGY PREDICTED BY IDOCK:   -5.47 KCAL/MOL
REMARK 922        TOTAL FREE ENERGY PREDICTED BY IDOCK:   -6.53 KCAL/MOL
REMARK 923 INTER-LIGAND FREE ENERGY PREDICTED BY IDOCK:   -7.54 KCAL/MOL
REMARK 924 INTRA-LIGAND FREE ENERGY PREDICTED BY IDOCK:    1.01 KCAL/MOL
REMARK 927      BINDING AFFINITY PREDICTED BY RF-SCORE:    0.00 PKD
ROOT
HETATM    1  C   UNL     1     -10.428  16.650  67.860  1.00  0.00    -0.322 C  
HETATM    2  C   UNL     1     -10.799  16.730  69.221  1.00  0.00    -0.275 C  
HETATM    3  C   UNL     1      -9.392  16.275  69.005  1.00  0.00    -0.254 C  
HETATM    4  C   UNL     1      -8.594  16.446  67.106  1.00  0.00    -0.181 C  
HETATM    5  O   UNL     1     -10.418   8.545  67.904  1.00  0.00    -0.224 OA 
HETATM    6  O   UNL     1      -9.392  17.016  66.001  1.00  0.00    -0.449 OA 
HETATM    7  C   UNL     1      -8.635  17.315  68.157  1.00  0.00    -0.242 C  
HETATM    8  C   UNL     1      -8.531  18.819  68.284  1.00  0.00    -0.357 C  
HETATM    9  C   UNL     1      -7.342  16.014  68.750  1.00  0.00    -0.165 C  
HETATM   10  C   UNL     1     -10.343   9.718  68.246  1.00  0.00    -0.198 C  
HETATM   11  C   UNL     1     -11.372  10.693  67.846  1.00  0.00    -0.342 C  
HETATM   12  H   UNL     1      -9.025  17.094  65.129  1.00  0.00     0.000 HD 
HETATM   13  C   UNL     1      -7.732  14.441  68.109  1.00  0.00    -0.131 C  
HETATM   14  C   UNL     1      -9.280  10.268  69.139  1.00  0.00    -0.203 C  
HETATM   15  O   UNL     1      -6.805  13.742  67.693  1.00  0.00    -0.161 OA 
HETATM   16  C   UNL     1      -9.019  12.201  66.086  1.00  0.00    -0.043 C  
HETATM   17  C   UNL     1      -9.331  13.883  68.032  1.00  0.00    -0.204 C  
HETATM   18  C   UNL     1     -10.461  14.898  67.368  1.00  0.00    -0.255 C  
HETATM   19  C   UNL     1      -9.487  12.380  67.545  1.00  0.00    -0.187 C  
HETATM   20  C   UNL     1      -8.597  11.461  68.477  1.00  0.00    -0.150 C  
HETATM   21  C   UNL     1     -11.864  14.325  67.620  1.00  0.00    -0.420 C  
HETATM   22  C   UNL     1     -12.020  12.920  67.055  1.00  0.00    -0.390 C  
HETATM   23  C   UNL     1     -10.977  11.946  67.552  1.00  0.00    -0.299 C  
ENDROOT
BRANCH   4  24
HETATM   24  C   UNL     1      -7.161  17.170  66.438  1.00  0.00    -0.290 C  
HETATM   25  O   UNL     1      -6.024  16.691  66.471  1.00  0.00    -0.313 OA 
BRANCH  24  26
HETATM   26  C   UNL     1      -7.271  18.550  65.735  1.00  0.00    -0.189 C  
BRANCH  26  27
HETATM   27  O   UNL     1      -6.315  18.642  64.645  1.00  0.00    -0.457 OA 
BRANCH  27  28
HETATM   28  C   UNL     1      -6.047  19.914  64.225  1.00  0.00    -0.243 C  
HETATM   29  C   UNL     1      -5.477  19.935  62.833  1.00  0.00    -0.327 C  
HETATM   30  O   UNL     1      -6.232  20.922  64.890  1.00  0.00    -0.270 OA 
ENDBRANCH  27  28
ENDBRANCH  26  27
ENDBRANCH  24  26
ENDBRANCH   4  24
TORSDOF 4
ENDMDL
MODEL       35
REMARK 921   NORMALIZED FREE ENERGY PREDICTED BY IDOCK:   -5.46 KCAL/MOL
REMARK 922        TOTAL FREE ENERGY PREDICTED BY IDOCK:   -6.52 KCAL/MOL
REMARK 923 INTER-LIGAND FREE ENERGY PREDICTED BY IDOCK:   -6.94 KCAL/MOL
REMARK 924 INTRA-LIGAND FREE ENERGY PREDICTED BY IDOCK:    0.42 KCAL/MOL
REMARK 927      BINDING AFFINITY PREDICTED BY RF-SCORE:    0.00 PKD
ROOT
HETATM    1  C   UNL     1     -10.646  13.365  69.160  1.00  0.00    -0.035 C  
HETATM    2  C   UNL     1     -11.804  13.827  69.824  1.00  0.00    -0.394 C  
HETATM    3  C   UNL     1     -11.927  13.814  68.335  1.00  0.00    -0.395 C  
HETATM    4  C   UNL     1     -10.466  12.841  67.245  1.00  0.00    -0.232 C  
HETATM    5  O   UNL     1      -8.735  20.764  66.459  1.00  0.00     0.050 OA 
HETATM    6  O   UNL     1      -9.341  12.167  67.925  1.00  0.00    -0.179 OA 
HETATM    7  C   UNL     1     -11.630  12.399  67.802  1.00  0.00    -0.413 C  
HETATM    8  C   UNL     1     -12.141  11.043  68.236  1.00  0.00     0.057 C  
HETATM    9  C   UNL     1     -12.260  13.448  66.312  1.00  0.00    -0.456 C  
HETATM   10  C   UNL     1      -9.356  19.787  66.856  1.00  0.00    -0.366 C  
HETATM   11  C   UNL     1      -8.907  19.030  68.036  1.00  0.00    -0.346 C  
HETATM   12  H   UNL     1      -8.669  11.721  67.425  1.00  0.00     0.000 HD 
HETATM   13  C   UNL     1     -11.170  14.774  66.006  1.00  0.00    -0.341 C  
HETATM   14  C   UNL     1     -10.637  19.304  66.259  1.00  0.00    -0.545 C  
HETATM   15  O   UNL     1     -10.903  15.040  64.832  1.00  0.00    -0.393 OA 
HETATM   16  C   UNL     1      -8.373  16.488  65.997  1.00  0.00    -0.164 C  
HETATM   17  C   UNL     1     -10.474  15.664  67.269  1.00  0.00    -0.292 C  
HETATM   18  C   UNL     1      -9.761  14.811  68.499  1.00  0.00    -0.218 C  
HETATM   19  C   UNL     1      -9.615  16.915  66.805  1.00  0.00    -0.273 C  
HETATM   20  C   UNL     1     -10.524  17.829  65.886  1.00  0.00    -0.251 C  
HETATM   21  C   UNL     1      -9.424  15.772  69.650  1.00  0.00    -0.204 C  
HETATM   22  C   UNL     1      -8.517  16.909  69.201  1.00  0.00    -0.057 C  
HETATM   23  C   UNL     1      -9.060  17.692  68.028  1.00  0.00    -0.267 C  
ENDROOT
BRANCH   4  24
HETATM   24  C   UNL     1     -10.464  11.601  66.027  1.00  0.00    -0.251 C  
HETATM   25  O   UNL     1     -11.144  11.597  64.996  1.00  0.00    -0.299 OA 
BRANCH  24  26
HETATM   26  C   UNL     1      -9.550  10.360  66.214  1.00  0.00    -0.182 C  
BRANCH  26  27
HETATM   27  O   UNL     1      -8.275  10.564  65.548  1.00  0.00    -0.159 OA 
BRANCH  27  28
HETATM   28  C   UNL     1      -7.201  10.654  66.386  1.00  0.00    -0.134 C  
HETATM   29  C   UNL     1      -6.893   9.336  67.044  1.00  0.00    -0.080 C  
HETATM   30  O   UNL     1      -6.564  11.675  66.598  1.00  0.00    -0.123 OA 
ENDBRANCH  27  28
ENDBRANCH  26  27
ENDBRANCH  24  26
ENDBRANCH   4  24
TORSDOF 4
ENDMDL
MODEL       36
REMARK 921   NORMALIZED FREE ENERGY PREDICTED BY IDOCK:   -5.42 KCAL/MOL
REMARK 922        TOTAL FREE ENERGY PREDICTED BY IDOCK:   -6.47 KCAL/MOL
REMARK 923 INTER-LIGAND FREE ENERGY PREDICTED BY IDOCK:   -6.75 KCAL/MOL
REMARK 924 INTRA-LIGAND FREE ENERGY PREDICTED BY IDOCK:    0.28 KCAL/MOL
REMARK 927      BINDING AFFINITY PREDICTED BY RF-SCORE:    0.00 PKD
ROOT
HETATM    1  C   UNL     1      -8.676  11.492  67.380  1.00  0.00    -0.147 C  
HETATM    2  C   UNL     1      -9.195  11.183  68.657  1.00  0.00    -0.173 C  
HETATM    3  C   UNL     1     -10.208  11.747  67.715  1.00  0.00    -0.205 C  
HETATM    4  C   UNL     1      -9.694  11.917  65.720  1.00  0.00    -0.237 C  
HETATM    5  O   UNL     1      -9.086  19.481  68.687  1.00  0.00    -0.360 OA 
HETATM    6  O   UNL     1      -8.367  11.478  65.243  1.00  0.00    -0.345 OA 
HETATM    7  C   UNL     1     -10.254  10.896  66.432  1.00  0.00    -0.289 C  
HETATM    8  C   UNL     1     -10.343   9.399  66.231  1.00  0.00    -0.211 C  
HETATM    9  C   UNL     1     -11.702  12.164  66.325  1.00  0.00    -0.389 C  
HETATM   10  C   UNL     1      -9.297  18.276  68.726  1.00  0.00    -0.255 C  
HETATM   11  C   UNL     1      -8.191  17.316  68.875  1.00  0.00    -0.181 C  
HETATM   12  H   UNL     1      -8.131  11.556  64.327  1.00  0.00     0.000 HD 
HETATM   13  C   UNL     1     -11.078  13.791  66.305  1.00  0.00    -0.302 C  
HETATM   14  C   UNL     1     -10.657  17.659  68.700  1.00  0.00    -0.245 C  
HETATM   15  O   UNL     1     -11.599  14.598  65.532  1.00  0.00    -0.345 OA 
HETATM   16  C   UNL     1      -8.939  16.236  65.845  1.00  0.00    -0.222 C  
HETATM   17  C   UNL     1      -9.782  14.260  67.293  1.00  0.00    -0.234 C  
HETATM   18  C   UNL     1      -8.435  13.294  67.291  1.00  0.00    -0.203 C  
HETATM   19  C   UNL     1      -9.435  15.808  67.241  1.00  0.00    -0.217 C  
HETATM   20  C   UNL     1     -10.748  16.624  67.583  1.00  0.00    -0.306 C  
HETATM   21  C   UNL     1      -7.494  13.739  68.422  1.00  0.00    -0.119 C  
HETATM   22  C   UNL     1      -7.095  15.202  68.294  1.00  0.00    -0.114 C  
HETATM   23  C   UNL     1      -8.271  16.148  68.210  1.00  0.00    -0.162 C  
ENDROOT
BRANCH   4  24
HETATM   24  C   UNL     1     -10.401  11.389  64.221  1.00  0.00    -0.328 C  
HETATM   25  O   UNL     1     -11.608  11.271  63.992  1.00  0.00    -0.173 OA 
BRANCH  24  26
HETATM   26  C   UNL     1      -9.469  11.010  63.039  1.00  0.00    -0.363 C  
BRANCH  26  27
HETATM   27  O   UNL     1      -9.235   9.576  63.018  1.00  0.00    -0.226 OA 
BRANCH  27  28
HETATM   28  C   UNL     1      -7.928   9.209  63.171  1.00  0.00    -0.145 C  
HETATM   29  C   UNL     1      -7.801   7.846  63.798  1.00  0.00    -0.141 C  
HETATM   30  O   UNL     1      -6.968   9.894  62.855  1.00  0.00    -0.113 OA 
ENDBRANCH  27  28
ENDBRANCH  26  27
ENDBRANCH  24  26
ENDBRANCH   4  24
TORSDOF 4
ENDMDL
MODEL       37
REMARK 921   NORMALIZED FREE ENERGY PREDICTED BY IDOCK:   -5.41 KCAL/MOL
REMARK 922        TOTAL FREE ENERGY PREDICTED BY IDOCK:   -6.46 KCAL/MOL
REMARK 923 INTER-LIGAND FREE ENERGY PREDICTED BY IDOCK:   -6.91 KCAL/MOL
REMARK 924 INTRA-LIGAND FREE ENERGY PREDICTED BY IDOCK:    0.45 KCAL/MOL
REMARK 927      BINDING AFFINITY PREDICTED BY RF-SCORE:    0.00 PKD
ROOT
HETATM    1  C   UNL     1     -11.392   9.439  69.762  1.00  0.00    -0.071 C  
HETATM    2  C   UNL     1     -11.132   9.601  71.142  1.00  0.00    -0.444 C  
HETATM    3  C   UNL     1      -9.978   9.961  70.264  1.00  0.00    -0.261 C  
HETATM    4  C   UNL     1     -10.312  10.117  68.231  1.00  0.00    -0.186 C  
HETATM    5  O   UNL     1      -6.595   2.931  69.194  1.00  0.00    -0.033 OA 
HETATM    6  O   UNL     1     -11.659   9.891  67.668  1.00  0.00    -0.479 OA 
HETATM    7  C   UNL     1     -10.416  11.027  69.242  1.00  0.00    -0.210 C  
HETATM    8  C   UNL     1     -11.177  12.322  69.418  1.00  0.00    -0.243 C  
HETATM    9  C   UNL     1      -8.507  10.823  69.069  1.00  0.00    -0.137 C  
HETATM   10  C   UNL     1      -7.092   3.992  69.549  1.00  0.00    -0.046 C  
HETATM   11  C   UNL     1      -8.545   4.121  69.745  1.00  0.00    -0.099 C  
HETATM   12  H   UNL     1     -11.812   9.963  66.734  1.00  0.00     0.000 HD 
HETATM   13  C   UNL     1      -8.118   9.200  68.568  1.00  0.00    -0.103 C  
HETATM   14  C   UNL     1      -6.307   5.218  69.884  1.00  0.00    -0.026 C  
HETATM   15  O   UNL     1      -7.236   9.056  67.718  1.00  0.00    -0.081 OA 
HETATM   16  C   UNL     1      -8.529   6.241  67.213  1.00  0.00    -0.108 C  
HETATM   17  C   UNL     1      -8.931   7.854  69.200  1.00  0.00    -0.145 C  
HETATM   18  C   UNL     1     -10.587   7.902  69.214  1.00  0.00    -0.195 C  
HETATM   19  C   UNL     1      -8.356   6.451  68.730  1.00  0.00    -0.121 C  
HETATM   20  C   UNL     1      -6.811   6.407  69.072  1.00  0.00    -0.066 C  
HETATM   21  C   UNL     1     -11.119   6.724  70.045  1.00  0.00    -0.366 C  
HETATM   22  C   UNL     1     -10.634   5.382  69.514  1.00  0.00    -0.316 C  
HETATM   23  C   UNL     1      -9.131   5.283  69.396  1.00  0.00    -0.135 C  
ENDROOT
BRANCH   4  24
HETATM   24  C   UNL     1     -10.021  11.340  67.030  1.00  0.00    -0.198 C  
HETATM   25  O   UNL     1      -9.120  12.183  67.058  1.00  0.00    -0.185 OA 
BRANCH  24  26
HETATM   26  C   UNL     1     -10.962  11.427  65.798  1.00  0.00    -0.194 C  
BRANCH  26  27
HETATM   27  O   UNL     1     -12.137  12.222  66.111  1.00  0.00    -0.625 OA 
BRANCH  27  28
HETATM   28  C   UNL     1     -12.660  12.909  65.053  1.00  0.00    -0.472 C  
HETATM   29  C   UNL     1     -12.607  12.103  63.783  1.00  0.00    -0.585 C  
HETATM   30  O   UNL     1     -13.110  14.043  65.110  1.00  0.00    -0.776 OA 
ENDBRANCH  27  28
ENDBRANCH  26  27
ENDBRANCH  24  26
ENDBRANCH   4  24
TORSDOF 4
ENDMDL
MODEL       38
REMARK 921   NORMALIZED FREE ENERGY PREDICTED BY IDOCK:   -5.40 KCAL/MOL
REMARK 922        TOTAL FREE ENERGY PREDICTED BY IDOCK:   -6.44 KCAL/MOL
REMARK 923 INTER-LIGAND FREE ENERGY PREDICTED BY IDOCK:   -7.13 KCAL/MOL
REMARK 924 INTRA-LIGAND FREE ENERGY PREDICTED BY IDOCK:    0.69 KCAL/MOL
REMARK 927      BINDING AFFINITY PREDICTED BY RF-SCORE:    0.00 PKD
ROOT
HETATM    1  C   UNL     1      -7.332  11.860  67.787  1.00  0.00    -0.109 C  
HETATM    2  C   UNL     1      -7.398  11.684  69.188  1.00  0.00    -0.032 C  
HETATM    3  C   UNL     1      -8.732  11.867  68.539  1.00  0.00    -0.108 C  
HETATM    4  C   UNL     1      -8.832  11.782  66.477  1.00  0.00    -0.183 C  
HETATM    5  O   UNL     1      -9.251  19.720  68.264  1.00  0.00    -0.340 OA 
HETATM    6  O   UNL     1      -7.619  11.532  65.672  1.00  0.00    -0.246 OA 
HETATM    7  C   UNL     1      -8.920  10.812  67.433  1.00  0.00    -0.141 C  
HETATM    8  C   UNL     1      -8.703   9.315  67.436  1.00  0.00    -0.121 C  
HETATM    9  C   UNL     1     -10.600  11.736  67.630  1.00  0.00    -0.237 C  
HETATM   10  C   UNL     1      -9.153  18.522  68.498  1.00  0.00    -0.328 C  
HETATM   11  C   UNL     1      -7.853  17.837  68.412  1.00  0.00    -0.284 C  
HETATM   12  H   UNL     1      -7.664  11.494  64.725  1.00  0.00     0.000 HD 
HETATM   13  C   UNL     1     -10.408  13.425  67.242  1.00  0.00    -0.244 C  
HETATM   14  C   UNL     1     -10.282  17.659  68.954  1.00  0.00    -0.354 C  
HETATM   15  O   UNL     1     -11.295  13.968  66.578  1.00  0.00    -0.317 OA 
HETATM   16  C   UNL     1      -9.115  16.120  65.889  1.00  0.00    -0.268 C  
HETATM   17  C   UNL     1      -9.043  14.301  67.733  1.00  0.00    -0.195 C  
HETATM   18  C   UNL     1      -7.558  13.630  67.431  1.00  0.00    -0.144 C  
HETATM   19  C   UNL     1      -9.099  15.854  67.408  1.00  0.00    -0.205 C  
HETATM   20  C   UNL     1     -10.424  16.447  68.038  1.00  0.00    -0.303 C  
HETATM   21  C   UNL     1      -6.479  14.440  68.167  1.00  0.00    -0.139 C  
HETATM   22  C   UNL     1      -6.488  15.907  67.764  1.00  0.00    -0.177 C  
HETATM   23  C   UNL     1      -7.831  16.577  67.936  1.00  0.00    -0.162 C  
ENDROOT
BRANCH   4  24
HETATM   24  C   UNL     1      -9.772  10.873  65.330  1.00  0.00    -0.238 C  
HETATM   25  O   UNL     1     -10.243   9.746  65.510  1.00  0.00    -0.256 OA 
BRANCH  24  26
HETATM   26  C   UNL     1     -10.062  11.489  63.935  1.00  0.00    -0.345 C  
BRANCH  26  27
HETATM   27  O   UNL     1     -11.436  11.230  63.541  1.00  0.00    -0.266 OA 
BRANCH  27  28
HETATM   28  C   UNL     1     -12.320  12.220  63.867  1.00  0.00    -0.509 C  
HETATM   29  C   UNL     1     -11.824  13.574  63.436  1.00  0.00    -0.221 C  
HETATM   30  O   UNL     1     -13.380  12.046  64.447  1.00  0.00    -0.657 OA 
ENDBRANCH  27  28
ENDBRANCH  26  27
ENDBRANCH  24  26
ENDBRANCH   4  24
TORSDOF 4
ENDMDL
MODEL       39
REMARK 921   NORMALIZED FREE ENERGY PREDICTED BY IDOCK:   -5.39 KCAL/MOL
REMARK 922        TOTAL FREE ENERGY PREDICTED BY IDOCK:   -6.43 KCAL/MOL
REMARK 923 INTER-LIGAND FREE ENERGY PREDICTED BY IDOCK:   -7.12 KCAL/MOL
REMARK 924 INTRA-LIGAND FREE ENERGY PREDICTED BY IDOCK:    0.69 KCAL/MOL
REMARK 927      BINDING AFFINITY PREDICTED BY RF-SCORE:    0.00 PKD
ROOT
HETATM    1  C   UNL     1      -9.196  10.808  66.063  1.00  0.00    -0.210 C  
HETATM    2  C   UNL     1     -10.095  10.187  65.167  1.00  0.00    -0.329 C  
HETATM    3  C   UNL     1     -10.762  10.847  66.331  1.00  0.00    -0.257 C  
HETATM    4  C   UNL     1      -9.625  12.090  67.528  1.00  0.00    -0.177 C  
HETATM    5  O   UNL     1     -10.339   5.175  71.777  1.00  0.00    -0.202 OA 
HETATM    6  O   UNL     1      -8.197  12.327  67.229  1.00  0.00    -0.167 OA 
HETATM    7  C   UNL     1     -10.346  12.329  66.394  1.00  0.00    -0.250 C  
HETATM    8  C   UNL     1     -10.303  13.399  65.326  1.00  0.00    -0.330 C  
HETATM    9  C   UNL     1     -11.728  12.068  67.713  1.00  0.00    -0.379 C  
HETATM   10  C   UNL     1     -10.503   5.927  70.825  1.00  0.00    -0.248 C  
HETATM   11  C   UNL     1      -9.470   6.070  69.785  1.00  0.00    -0.173 C  
HETATM   12  H   UNL     1      -7.675  12.897  67.779  1.00  0.00     0.000 HD 
HETATM   13  C   UNL     1     -11.199  10.931  68.923  1.00  0.00    -0.267 C  
HETATM   14  C   UNL     1     -11.751   6.707  70.573  1.00  0.00    -0.453 C  
HETATM   15  O   UNL     1     -11.467  11.177  70.101  1.00  0.00    -0.296 OA 
HETATM   16  C   UNL     1      -9.130   9.198  70.788  1.00  0.00    -0.313 C  
HETATM   17  C   UNL     1     -10.323   9.539  68.514  1.00  0.00    -0.234 C  
HETATM   18  C   UNL     1      -9.013   9.729  67.517  1.00  0.00    -0.138 C  
HETATM   19  C   UNL     1     -10.041   8.552  69.725  1.00  0.00    -0.197 C  
HETATM   20  C   UNL     1     -11.425   8.187  70.402  1.00  0.00    -0.126 C  
HETATM   21  C   UNL     1      -8.517   8.346  67.065  1.00  0.00    -0.122 C  
HETATM   22  C   UNL     1      -8.159   7.452  68.244  1.00  0.00    -0.125 C  
HETATM   23  C   UNL     1      -9.278   7.289  69.246  1.00  0.00    -0.144 C  
ENDROOT
BRANCH   4  24
HETATM   24  C   UNL     1      -9.774  13.730  68.085  1.00  0.00    -0.227 C  
HETATM   25  O   UNL     1     -10.753  14.213  68.662  1.00  0.00    -0.241 OA 
BRANCH  24  26
HETATM   26  C   UNL     1      -8.600  14.718  67.848  1.00  0.00    -0.166 C  
BRANCH  26  27
HETATM   27  O   UNL     1      -9.095  16.080  67.748  1.00  0.00    -0.195 OA 
BRANCH  27  28
HETATM   28  C   UNL     1      -8.994  16.634  66.503  1.00  0.00    -0.277 C  
HETATM   29  C   UNL     1      -7.671  17.323  66.305  1.00  0.00    -0.353 C  
HETATM   30  O   UNL     1      -9.865  16.595  65.648  1.00  0.00    -0.528 OA 
ENDBRANCH  27  28
ENDBRANCH  26  27
ENDBRANCH  24  26
ENDBRANCH   4  24
TORSDOF 4
ENDMDL
MODEL       40
REMARK 921   NORMALIZED FREE ENERGY PREDICTED BY IDOCK:   -5.39 KCAL/MOL
REMARK 922        TOTAL FREE ENERGY PREDICTED BY IDOCK:   -6.43 KCAL/MOL
REMARK 923 INTER-LIGAND FREE ENERGY PREDICTED BY IDOCK:   -6.95 KCAL/MOL
REMARK 924 INTRA-LIGAND FREE ENERGY PREDICTED BY IDOCK:    0.52 KCAL/MOL
REMARK 927      BINDING AFFINITY PREDICTED BY RF-SCORE:    0.00 PKD
ROOT
HETATM    1  C   UNL     1     -10.760  10.301  70.319  1.00  0.00    -0.310 C  
HETATM    2  C   UNL     1     -12.093   9.862  70.479  1.00  0.00    -0.289 C  
HETATM    3  C   UNL     1     -11.394   9.252  69.308  1.00  0.00     0.176 C  
HETATM    4  C   UNL     1      -9.351   9.517  69.148  1.00  0.00    -0.163 C  
HETATM    5  O   UNL     1     -12.561  14.740  63.781  1.00  0.00    -0.806 OA 
HETATM    6  O   UNL     1      -8.605  10.276  70.173  1.00  0.00    -0.351 OA 
HETATM    7  C   UNL     1     -10.098   8.565  69.778  1.00  0.00    -0.197 C  
HETATM    8  C   UNL     1      -9.835   7.605  70.917  1.00  0.00    -0.179 C  
HETATM    9  C   UNL     1     -10.340   8.113  67.919  1.00  0.00    -0.280 C  
HETATM   10  C   UNL     1     -12.573  13.879  64.652  1.00  0.00    -0.249 C  
HETATM   11  C   UNL     1     -12.455  14.237  66.075  1.00  0.00    -0.392 C  
HETATM   12  H   UNL     1      -7.667  10.398  70.099  1.00  0.00     0.000 HD 
HETATM   13  C   UNL     1     -10.291   9.553  66.938  1.00  0.00    -0.237 C  
HETATM   14  C   UNL     1     -12.773  12.422  64.391  1.00  0.00    -0.434 C  
HETATM   15  O   UNL     1      -9.678   9.502  65.870  1.00  0.00    -0.245 OA 
HETATM   16  C   UNL     1      -9.569  12.633  66.068  1.00  0.00    -0.190 C  
HETATM   17  C   UNL     1     -11.038  10.993  67.433  1.00  0.00    -0.370 C  
HETATM   18  C   UNL     1     -10.726  11.523  68.971  1.00  0.00    -0.233 C  
HETATM   19  C   UNL     1     -11.007  12.160  66.357  1.00  0.00    -0.327 C  
HETATM   20  C   UNL     1     -11.638  11.613  65.012  1.00  0.00    -0.133 C  
HETATM   21  C   UNL     1     -11.680  12.680  69.309  1.00  0.00    -0.379 C  
HETATM   22  C   UNL     1     -11.560  13.830  68.319  1.00  0.00    -0.373 C  
HETATM   23  C   UNL     1     -11.754  13.416  66.879  1.00  0.00    -0.434 C  
ENDROOT
BRANCH   4  24
HETATM   24  C   UNL     1      -7.987   8.456  68.951  1.00  0.00    -0.115 C  
HETATM   25  O   UNL     1      -7.809   7.388  69.545  1.00  0.00    -0.115 OA 
BRANCH  24  26
HETATM   26  C   UNL     1      -6.860   8.850  67.960  1.00  0.00    -0.070 C  
BRANCH  26  27
HETATM   27  O   UNL     1      -6.374   7.679  67.251  1.00  0.00    -0.050 OA 
BRANCH  27  28
HETATM   28  C   UNL     1      -6.885   7.519  65.994  1.00  0.00    -0.057 C  
HETATM   29  C   UNL     1      -7.781   6.313  65.906  1.00  0.00    -0.093 C  
HETATM   30  O   UNL     1      -6.646   8.249  65.045  1.00  0.00    -0.058 OA 
ENDBRANCH  27  28
ENDBRANCH  26  27
ENDBRANCH  24  26
ENDBRANCH   4  24
TORSDOF 4
ENDMDL
MODEL       41
REMARK 921   NORMALIZED FREE ENERGY PREDICTED BY IDOCK:   -5.34 KCAL/MOL
REMARK 922        TOTAL FREE ENERGY PREDICTED BY IDOCK:   -6.37 KCAL/MOL
REMARK 923 INTER-LIGAND FREE ENERGY PREDICTED BY IDOCK:   -7.28 KCAL/MOL
REMARK 924 INTRA-LIGAND FREE ENERGY PREDICTED BY IDOCK:    0.91 KCAL/MOL
REMARK 927      BINDING AFFINITY PREDICTED BY RF-SCORE:    0.00 PKD
ROOT
HETATM    1  C   UNL     1      -9.809   9.617  69.469  1.00  0.00    -0.219 C  
HETATM    2  C   UNL     1      -8.630   9.686  70.244  1.00  0.00    -0.234 C  
HETATM    3  C   UNL     1      -8.380   9.530  68.779  1.00  0.00    -0.117 C  
HETATM    4  C   UNL     1      -9.977   9.769  67.489  1.00  0.00    -0.184 C  
HETATM    5  O   UNL     1      -8.851   1.713  67.953  1.00  0.00    -0.092 OA 
HETATM    6  O   UNL     1     -11.321  10.098  68.005  1.00  0.00    -0.498 OA 
HETATM    7  C   UNL     1      -9.087  10.662  68.009  1.00  0.00    -0.147 C  
HETATM    8  C   UNL     1      -9.106  12.158  68.233  1.00  0.00    -0.191 C  
HETATM    9  C   UNL     1      -8.005   9.699  66.738  1.00  0.00    -0.105 C  
HETATM   10  C   UNL     1      -8.636   2.891  68.207  1.00  0.00    -0.088 C  
HETATM   11  C   UNL     1      -9.422   3.602  69.228  1.00  0.00    -0.244 C  
HETATM   12  H   UNL     1     -12.055  10.208  67.412  1.00  0.00     0.000 HD 
HETATM   13  C   UNL     1      -8.549   8.048  66.612  1.00  0.00    -0.136 C  
HETATM   14  C   UNL     1      -7.543   3.699  67.588  1.00  0.00    -0.070 C  
HETATM   15  O   UNL     1      -8.601   7.542  65.489  1.00  0.00    -0.141 OA 
HETATM   16  C   UNL     1     -10.590   5.484  66.779  1.00  0.00    -0.360 C  
HETATM   17  C   UNL     1      -9.019   7.159  67.978  1.00  0.00    -0.127 C  
HETATM   18  C   UNL     1     -10.089   7.875  69.021  1.00  0.00    -0.204 C  
HETATM   19  C   UNL     1      -9.357   5.635  67.693  1.00  0.00    -0.111 C  
HETATM   20  C   UNL     1      -8.112   4.974  66.973  1.00  0.00    -0.107 C  
HETATM   21  C   UNL     1     -10.187   7.030  70.302  1.00  0.00    -0.206 C  
HETATM   22  C   UNL     1     -10.611   5.597  70.011  1.00  0.00    -0.388 C  
HETATM   23  C   UNL     1      -9.729   4.894  69.005  1.00  0.00    -0.245 C  
ENDROOT
BRANCH   4  24
HETATM   24  C   UNL     1     -10.284  10.746  66.083  1.00  0.00    -0.250 C  
HETATM   25  O   UNL     1     -10.115  10.401  64.910  1.00  0.00    -0.322 OA 
BRANCH  24  26
HETATM   26  C   UNL     1     -10.806  12.196  66.271  1.00  0.00    -0.282 C  
BRANCH  26  27
HETATM   27  O   UNL     1     -12.254  12.232  66.153  1.00  0.00    -0.647 OA 
BRANCH  27  28
HETATM   28  C   UNL     1     -12.719  12.801  65.001  1.00  0.00    -0.380 C  
HETATM   29  C   UNL     1     -12.378  14.265  64.926  1.00  0.00    -0.435 C  
HETATM   30  O   UNL     1     -13.346  12.212  64.134  1.00  0.00    -0.750 OA 
ENDBRANCH  27  28
ENDBRANCH  26  27
ENDBRANCH  24  26
ENDBRANCH   4  24
TORSDOF 4
ENDMDL
MODEL       42
REMARK 921   NORMALIZED FREE ENERGY PREDICTED BY IDOCK:   -5.32 KCAL/MOL
REMARK 922        TOTAL FREE ENERGY PREDICTED BY IDOCK:   -6.35 KCAL/MOL
REMARK 923 INTER-LIGAND FREE ENERGY PREDICTED BY IDOCK:   -7.11 KCAL/MOL
REMARK 924 INTRA-LIGAND FREE ENERGY PREDICTED BY IDOCK:    0.76 KCAL/MOL
REMARK 927      BINDING AFFINITY PREDICTED BY RF-SCORE:    0.00 PKD
ROOT
HETATM    1  C   UNL     1      -9.117   8.403  65.580  1.00  0.00    -0.108 C  
HETATM    2  C   UNL     1      -7.842   8.611  65.008  1.00  0.00    -0.116 C  
HETATM    3  C   UNL     1      -7.960   9.106  66.413  1.00  0.00    -0.100 C  
HETATM    4  C   UNL     1      -9.633   8.562  67.499  1.00  0.00    -0.154 C  
HETATM    5  O   UNL     1     -11.000  16.281  65.278  1.00  0.00    -0.325 OA 
HETATM    6  O   UNL     1     -10.671   7.697  66.902  1.00  0.00    -0.378 OA 
HETATM    7  C   UNL     1      -8.421   7.957  67.330  1.00  0.00    -0.121 C  
HETATM    8  C   UNL     1      -7.928   6.534  67.469  1.00  0.00    -0.114 C  
HETATM    9  C   UNL     1      -7.979   9.449  68.466  1.00  0.00    -0.093 C  
HETATM   10  C   UNL     1     -10.382  15.227  65.343  1.00  0.00    -0.393 C  
HETATM   11  C   UNL     1     -10.680  14.114  64.426  1.00  0.00    -0.176 C  
HETATM   12  H   UNL     1     -11.440   7.448  67.401  1.00  0.00     0.000 HD 
HETATM   13  C   UNL     1      -9.024  10.801  68.120  1.00  0.00    -0.140 C  
HETATM   14  C   UNL     1      -9.244  14.975  66.277  1.00  0.00    -0.324 C  
HETATM   15  O   UNL     1      -9.460  11.451  69.073  1.00  0.00    -0.104 OA 
HETATM   16  C   UNL     1     -11.681  12.417  67.076  1.00  0.00    -0.423 C  
HETATM   17  C   UNL     1      -9.455  11.208  66.532  1.00  0.00    -0.215 C  
HETATM   18  C   UNL     1     -10.011   9.989  65.557  1.00  0.00    -0.367 C  
HETATM   19  C   UNL     1     -10.303  12.544  66.397  1.00  0.00    -0.261 C  
HETATM   20  C   UNL     1      -9.501  13.715  67.097  1.00  0.00    -0.244 C  
HETATM   21  C   UNL     1     -10.102  10.501  64.111  1.00  0.00    -0.351 C  
HETATM   22  C   UNL     1     -11.001  11.723  63.991  1.00  0.00    -0.451 C  
HETATM   23  C   UNL     1     -10.608  12.859  64.908  1.00  0.00    -0.342 C  
ENDROOT
BRANCH   4  24
HETATM   24  C   UNL     1      -9.902   7.810  69.043  1.00  0.00    -0.169 C  
HETATM   25  O   UNL     1      -9.194   6.939  69.558  1.00  0.00    -0.148 OA 
BRANCH  24  26
HETATM   26  C   UNL     1     -11.138   8.231  69.883  1.00  0.00    -0.100 C  
BRANCH  26  27
HETATM   27  O   UNL     1     -10.719   8.807  71.149  1.00  0.00    -0.216 OA 
BRANCH  27  28
HETATM   28  C   UNL     1     -11.482   8.445  72.222  1.00  0.00    -0.384 C  
HETATM   29  C   UNL     1     -10.678   7.701  73.254  1.00  0.00    -0.409 C  
HETATM   30  O   UNL     1     -12.676   8.678  72.341  1.00  0.00    -0.383 OA 
ENDBRANCH  27  28
ENDBRANCH  26  27
ENDBRANCH  24  26
ENDBRANCH   4  24
TORSDOF 4
ENDMDL
MODEL       43
REMARK 921   NORMALIZED FREE ENERGY PREDICTED BY IDOCK:   -5.32 KCAL/MOL
REMARK 922        TOTAL FREE ENERGY PREDICTED BY IDOCK:   -6.35 KCAL/MOL
REMARK 923 INTER-LIGAND FREE ENERGY PREDICTED BY IDOCK:   -7.20 KCAL/MOL
REMARK 924 INTRA-LIGAND FREE ENERGY PREDICTED BY IDOCK:    0.85 KCAL/MOL
REMARK 927      BINDING AFFINITY PREDICTED BY RF-SCORE:    0.00 PKD
ROOT
HETATM    1  C   UNL     1      -9.160   9.820  66.932  1.00  0.00    -0.162 C  
HETATM    2  C   UNL     1      -9.998   9.104  66.048  1.00  0.00    -0.293 C  
HETATM    3  C   UNL     1     -10.739   9.982  67.003  1.00  0.00    -0.248 C  
HETATM    4  C   UNL     1      -9.655  11.349  68.111  1.00  0.00    -0.190 C  
HETATM    5  O   UNL     1     -11.301   5.288  73.301  1.00  0.00    -0.308 OA 
HETATM    6  O   UNL     1      -8.191  11.460  67.948  1.00  0.00    -0.122 OA 
HETATM    7  C   UNL     1     -10.231  11.431  66.877  1.00  0.00    -0.254 C  
HETATM    8  C   UNL     1      -9.999  12.303  65.663  1.00  0.00    -0.271 C  
HETATM    9  C   UNL     1     -11.762  11.465  68.048  1.00  0.00    -0.324 C  
HETATM   10  C   UNL     1     -11.308   5.877  72.228  1.00  0.00    -0.298 C  
HETATM   11  C   UNL     1     -10.162   5.791  71.308  1.00  0.00    -0.270 C  
HETATM   12  H   UNL     1      -7.692  12.088  68.457  1.00  0.00     0.000 HD 
HETATM   13  C   UNL     1     -11.447  10.521  69.479  1.00  0.00    -0.272 C  
HETATM   14  C   UNL     1     -12.465   6.666  71.708  1.00  0.00    -0.360 C  
HETATM   15  O   UNL     1     -11.824  10.974  70.562  1.00  0.00    -0.331 OA 
HETATM   16  C   UNL     1      -9.716   9.022  71.829  1.00  0.00    -0.311 C  
HETATM   17  C   UNL     1     -10.630   9.037  69.404  1.00  0.00    -0.231 C  
HETATM   18  C   UNL     1      -9.210   8.991  68.552  1.00  0.00    -0.136 C  
HETATM   19  C   UNL     1     -10.550   8.254  70.783  1.00  0.00    -0.236 C  
HETATM   20  C   UNL     1     -12.021   8.078  71.341  1.00  0.00    -0.328 C  
HETATM   21  C   UNL     1      -8.765   7.529  68.389  1.00  0.00    -0.123 C  
HETATM   22  C   UNL     1      -8.599   6.829  69.730  1.00  0.00    -0.141 C  
HETATM   23  C   UNL     1      -9.829   6.891  70.606  1.00  0.00    -0.191 C  
ENDROOT
BRANCH   4  24
HETATM   24  C   UNL     1      -9.750  13.065  68.376  1.00  0.00    -0.192 C  
HETATM   25  O   UNL     1     -10.593  13.646  69.065  1.00  0.00    -0.213 OA 
BRANCH  24  26
HETATM   26  C   UNL     1      -8.707  13.992  67.696  1.00  0.00    -0.189 C  
BRANCH  26  27
HETATM   27  O   UNL     1      -9.241  15.335  67.550  1.00  0.00    -0.195 OA 
BRANCH  27  28
HETATM   28  C   UNL     1      -8.858  15.981  66.408  1.00  0.00    -0.328 C  
HETATM   29  C   UNL     1      -7.479  16.570  66.537  1.00  0.00    -0.270 C  
HETATM   30  O   UNL     1      -9.542  16.088  65.403  1.00  0.00    -0.409 OA 
ENDBRANCH  27  28
ENDBRANCH  26  27
ENDBRANCH  24  26
ENDBRANCH   4  24
TORSDOF 4
ENDMDL
MODEL       44
REMARK 921   NORMALIZED FREE ENERGY PREDICTED BY IDOCK:   -5.29 KCAL/MOL
REMARK 922        TOTAL FREE ENERGY PREDICTED BY IDOCK:   -6.30 KCAL/MOL
REMARK 923 INTER-LIGAND FREE ENERGY PREDICTED BY IDOCK:   -6.93 KCAL/MOL
REMARK 924 INTRA-LIGAND FREE ENERGY PREDICTED BY IDOCK:    0.63 KCAL/MOL
REMARK 927      BINDING AFFINITY PREDICTED BY RF-SCORE:    0.00 PKD
ROOT
HETATM    1  C   UNL     1     -12.169   7.816  72.175  1.00  0.00    -0.325 C  
HETATM    2  C   UNL     1     -13.346   7.337  71.556  1.00  0.00    -0.435 C  
HETATM    3  C   UNL     1     -12.086   6.862  70.907  1.00  0.00    -0.424 C  
HETATM    4  C   UNL     1     -10.301   7.183  71.896  1.00  0.00    -0.192 C  
HETATM    5  O   UNL     1     -10.497  12.855  66.051  1.00  0.00    -0.267 OA 
HETATM    6  O   UNL     1     -10.277   7.849  73.214  1.00  0.00    -0.324 OA 
HETATM    7  C   UNL     1     -11.199   6.157  71.950  1.00  0.00    -0.336 C  
HETATM    8  C   UNL     1     -11.521   5.092  72.975  1.00  0.00    -0.349 C  
HETATM    9  C   UNL     1     -10.375   5.890  70.228  1.00  0.00    -0.298 C  
HETATM   10  C   UNL     1     -10.912  11.910  66.710  1.00  0.00    -0.292 C  
HETATM   11  C   UNL     1     -11.601  12.126  67.993  1.00  0.00    -0.411 C  
HETATM   12  H   UNL     1      -9.457   7.997  73.669  1.00  0.00     0.000 HD 
HETATM   13  C   UNL     1      -9.911   7.423  69.539  1.00  0.00    -0.165 C  
HETATM   14  C   UNL     1     -10.837  10.483  66.276  1.00  0.00    -0.063 C  
HETATM   15  O   UNL     1      -8.818   7.492  68.971  1.00  0.00    -0.133 OA 
HETATM   16  C   UNL     1      -9.055  10.588  69.428  1.00  0.00    -0.123 C  
HETATM   17  C   UNL     1     -10.906   8.790  69.656  1.00  0.00    -0.175 C  
HETATM   18  C   UNL     1     -11.506   9.169  71.154  1.00  0.00    -0.388 C  
HETATM   19  C   UNL     1     -10.387  10.059  68.858  1.00  0.00    -0.217 C  
HETATM   20  C   UNL     1     -10.157   9.639  67.349  1.00  0.00    -0.257 C  
HETATM   21  C   UNL     1     -12.572  10.266  71.008  1.00  0.00    -0.487 C  
HETATM   22  C   UNL     1     -12.022  11.512  70.328  1.00  0.00    -0.455 C  
HETATM   23  C   UNL     1     -11.385  11.241  68.985  1.00  0.00    -0.344 C  
ENDROOT
BRANCH   4  24
HETATM   24  C   UNL     1      -8.973   6.174  72.390  1.00  0.00    -0.136 C  
HETATM   25  O   UNL     1      -9.027   4.960  72.607  1.00  0.00    -0.126 OA 
BRANCH  24  26
HETATM   26  C   UNL     1      -7.575   6.815  72.600  1.00  0.00    -0.091 C  
BRANCH  26  27
HETATM   27  O   UNL     1      -6.832   6.835  71.352  1.00  0.00    -0.060 OA 
BRANCH  27  28
HETATM   28  C   UNL     1      -6.076   5.720  71.120  1.00  0.00    -0.034 C  
HETATM   29  C   UNL     1      -6.044   5.362  69.659  1.00  0.00    -0.021 C  
HETATM   30  O   UNL     1      -5.500   5.076  71.982  1.00  0.00    -0.007 OA 
ENDBRANCH  27  28
ENDBRANCH  26  27
ENDBRANCH  24  26
ENDBRANCH   4  24
TORSDOF 4
ENDMDL
MODEL       45
REMARK 921   NORMALIZED FREE ENERGY PREDICTED BY IDOCK:   -5.27 KCAL/MOL
REMARK 922        TOTAL FREE ENERGY PREDICTED BY IDOCK:   -6.29 KCAL/MOL
REMARK 923 INTER-LIGAND FREE ENERGY PREDICTED BY IDOCK:   -7.66 KCAL/MOL
REMARK 924 INTRA-LIGAND FREE ENERGY PREDICTED BY IDOCK:    1.37 KCAL/MOL
REMARK 927      BINDING AFFINITY PREDICTED BY RF-SCORE:    0.00 PKD
ROOT
HETATM    1  C   UNL     1     -11.829  15.097  69.778  1.00  0.00    -0.364 C  
HETATM    2  C   UNL     1     -11.175  15.467  70.974  1.00  0.00    -0.408 C  
HETATM    3  C   UNL     1     -10.249  14.994  69.901  1.00  0.00    -0.101 C  
HETATM    4  C   UNL     1     -11.008  14.756  67.994  1.00  0.00    -0.271 C  
HETATM    5  O   UNL     1     -10.477   7.198  70.988  1.00  0.00    -0.214 OA 
HETATM    6  O   UNL     1     -12.424  15.061  67.702  1.00  0.00    -0.350 OA 
HETATM    7  C   UNL     1     -10.459  15.834  68.627  1.00  0.00    -0.231 C  
HETATM    8  C   UNL     1     -10.543  17.330  68.422  1.00  0.00    -0.368 C  
HETATM    9  C   UNL     1      -8.922  14.710  68.321  1.00  0.00    -0.184 C  
HETATM   10  C   UNL     1     -10.380   8.418  71.003  1.00  0.00    -0.198 C  
HETATM   11  C   UNL     1     -11.543   9.268  71.304  1.00  0.00    -0.419 C  
HETATM   12  H   UNL     1     -12.773  14.952  66.826  1.00  0.00     0.000 HD 
HETATM   13  C   UNL     1      -9.384  13.030  68.380  1.00  0.00    -0.149 C  
HETATM   14  C   UNL     1      -9.102   9.162  70.796  1.00  0.00    -0.313 C  
HETATM   15  O   UNL     1      -8.896  12.269  67.541  1.00  0.00    -0.166 OA 
HETATM   16  C   UNL     1     -11.319  10.386  68.204  1.00  0.00    -0.284 C  
HETATM   17  C   UNL     1     -10.483  12.448  69.532  1.00  0.00     0.478 C  
HETATM   18  C   UNL     1     -11.905  13.279  69.716  1.00  0.00    -0.394 C  
HETATM   19  C   UNL     1     -10.683  10.874  69.522  1.00  0.00    -0.251 C  
HETATM   20  C   UNL     1      -9.264  10.191  69.680  1.00  0.00    -0.206 C  
HETATM   21  C   UNL     1     -12.638  12.757  70.962  1.00  0.00    -0.362 C  
HETATM   22  C   UNL     1     -12.907  11.261  70.883  1.00  0.00    -0.343 C  
HETATM   23  C   UNL     1     -11.667  10.433  70.638  1.00  0.00    -0.444 C  
ENDROOT
BRANCH   4  24
HETATM   24  C   UNL     1     -10.564  15.336  66.416  1.00  0.00    -0.308 C  
HETATM   25  O   UNL     1     -11.341  15.573  65.486  1.00  0.00    -0.230 OA 
BRANCH  24  26
HETATM   26  C   UNL     1      -9.065  15.581  66.095  1.00  0.00    -0.324 C  
BRANCH  26  27
HETATM   27  O   UNL     1      -8.851  16.960  65.692  1.00  0.00    -0.472 OA 
BRANCH  27  28
HETATM   28  C   UNL     1      -7.655  17.491  66.083  1.00  0.00    -0.285 C  
HETATM   29  C   UNL     1      -7.698  18.994  66.124  1.00  0.00    -0.291 C  
HETATM   30  O   UNL     1      -6.658  16.840  66.358  1.00  0.00    -0.211 OA 
ENDBRANCH  27  28
ENDBRANCH  26  27
ENDBRANCH  24  26
ENDBRANCH   4  24
TORSDOF 4
ENDMDL
MODEL       46
REMARK 921   NORMALIZED FREE ENERGY PREDICTED BY IDOCK:   -5.24 KCAL/MOL
REMARK 922        TOTAL FREE ENERGY PREDICTED BY IDOCK:   -6.25 KCAL/MOL
REMARK 923 INTER-LIGAND FREE ENERGY PREDICTED BY IDOCK:   -7.59 KCAL/MOL
REMARK 924 INTRA-LIGAND FREE ENERGY PREDICTED BY IDOCK:    1.35 KCAL/MOL
REMARK 927      BINDING AFFINITY PREDICTED BY RF-SCORE:    0.00 PKD
ROOT
HETATM    1  C   UNL     1      -9.437  10.888  66.723  1.00  0.00    -0.200 C  
HETATM    2  C   UNL     1     -10.394  10.389  65.811  1.00  0.00    -0.257 C  
HETATM    3  C   UNL     1     -10.988  11.139  66.959  1.00  0.00    -0.348 C  
HETATM    4  C   UNL     1      -9.718  12.223  68.176  1.00  0.00    -0.213 C  
HETATM    5  O   UNL     1     -11.443   5.489  72.426  1.00  0.00    -0.267 OA 
HETATM    6  O   UNL     1      -8.266  12.264  67.906  1.00  0.00    -0.140 OA 
HETATM    7  C   UNL     1     -10.377  12.551  67.028  1.00  0.00    -0.236 C  
HETATM    8  C   UNL     1     -10.169  13.600  65.958  1.00  0.00    -0.312 C  
HETATM    9  C   UNL     1     -11.808  12.486  68.319  1.00  0.00    -0.361 C  
HETATM   10  C   UNL     1     -11.484   6.251  71.469  1.00  0.00    -0.293 C  
HETATM   11  C   UNL     1     -10.422   6.248  70.450  1.00  0.00    -0.277 C  
HETATM   12  H   UNL     1      -7.682  12.761  68.465  1.00  0.00     0.000 HD 
HETATM   13  C   UNL     1     -11.461  11.294  69.542  1.00  0.00    -0.307 C  
HETATM   14  C   UNL     1     -12.611   7.191  71.190  1.00  0.00    -0.384 C  
HETATM   15  O   UNL     1     -11.717  11.580  70.714  1.00  0.00    -0.204 OA 
HETATM   16  C   UNL     1      -9.682   9.307  71.453  1.00  0.00    -0.269 C  
HETATM   17  C   UNL     1     -10.773   9.794  69.154  1.00  0.00    -0.242 C  
HETATM   18  C   UNL     1      -9.430   9.801  68.183  1.00  0.00    -0.146 C  
HETATM   19  C   UNL     1     -10.651   8.785  70.373  1.00  0.00    -0.251 C  
HETATM   20  C   UNL     1     -12.084   8.613  71.022  1.00  0.00    -0.247 C  
HETATM   21  C   UNL     1      -9.117   8.361  67.745  1.00  0.00    -0.142 C  
HETATM   22  C   UNL     1      -8.905   7.434  68.933  1.00  0.00    -0.131 C  
HETATM   23  C   UNL     1     -10.056   7.427  69.912  1.00  0.00    -0.195 C  
ENDROOT
BRANCH   4  24
HETATM   24  C   UNL     1      -9.655  13.871  68.727  1.00  0.00    -0.070 C  
HETATM   25  O   UNL     1      -8.640  14.569  68.812  1.00  0.00    -0.168 OA 
BRANCH  24  26
HETATM   26  C   UNL     1     -10.968  14.568  69.173  1.00  0.00    -0.268 C  
BRANCH  26  27
HETATM   27  O   UNL     1     -10.784  15.223  70.457  1.00  0.00    -0.287 OA 
BRANCH  27  28
HETATM   28  C   UNL     1     -11.943  15.563  71.096  1.00  0.00    -0.382 C  
HETATM   29  C   UNL     1     -11.730  15.758  72.573  1.00  0.00    -0.566 C  
HETATM   30  O   UNL     1     -13.030  15.687  70.552  1.00  0.00    -0.429 OA 
ENDBRANCH  27  28
ENDBRANCH  26  27
ENDBRANCH  24  26
ENDBRANCH   4  24
TORSDOF 4
ENDMDL
MODEL       47
REMARK 921   NORMALIZED FREE ENERGY PREDICTED BY IDOCK:   -5.22 KCAL/MOL
REMARK 922        TOTAL FREE ENERGY PREDICTED BY IDOCK:   -6.22 KCAL/MOL
REMARK 923 INTER-LIGAND FREE ENERGY PREDICTED BY IDOCK:   -6.49 KCAL/MOL
REMARK 924 INTRA-LIGAND FREE ENERGY PREDICTED BY IDOCK:    0.27 KCAL/MOL
REMARK 927      BINDING AFFINITY PREDICTED BY RF-SCORE:    0.00 PKD
ROOT
HETATM    1  C   UNL     1      -7.420  11.988  67.471  1.00  0.00    -0.140 C  
HETATM    2  C   UNL     1      -6.783  11.733  68.706  1.00  0.00    -0.083 C  
HETATM    3  C   UNL     1      -8.009  10.910  68.478  1.00  0.00    -0.134 C  
HETATM    4  C   UNL     1      -8.844  10.909  66.588  1.00  0.00    -0.159 C  
HETATM    5  O   UNL     1     -13.645  15.802  70.991  1.00  0.00    -0.568 OA 
HETATM    6  O   UNL     1      -8.233  11.690  65.493  1.00  0.00    -0.302 OA 
HETATM    7  C   UNL     1      -7.874  10.133  67.154  1.00  0.00    -0.099 C  
HETATM    8  C   UNL     1      -6.745   9.291  66.603  1.00  0.00    -0.076 C  
HETATM    9  C   UNL     1      -9.470   9.496  68.027  1.00  0.00    -0.147 C  
HETATM   10  C   UNL     1     -12.696  15.058  70.779  1.00  0.00    -0.381 C  
HETATM   11  C   UNL     1     -11.454  15.566  70.173  1.00  0.00    -0.342 C  
HETATM   12  H   UNL     1      -8.617  11.690  64.625  1.00  0.00     0.000 HD 
HETATM   13  C   UNL     1     -10.622  10.794  68.198  1.00  0.00    -0.203 C  
HETATM   14  C   UNL     1     -12.657  13.614  71.160  1.00  0.00    -0.452 C  
HETATM   15  O   UNL     1     -11.809  10.544  67.976  1.00  0.00    -0.425 OA 
HETATM   16  C   UNL     1     -12.130  13.641  67.577  1.00  0.00    -0.352 C  
HETATM   17  C   UNL     1     -10.140  12.360  68.632  1.00  0.00    -0.143 C  
HETATM   18  C   UNL     1      -8.878  13.029  67.793  1.00  0.00    -0.188 C  
HETATM   19  C   UNL     1     -11.334  13.379  68.871  1.00  0.00    -0.331 C  
HETATM   20  C   UNL     1     -12.312  12.755  69.948  1.00  0.00    -0.138 C  
HETATM   21  C   UNL     1      -8.434  14.323  68.493  1.00  0.00    -0.164 C  
HETATM   22  C   UNL     1      -9.573  15.325  68.621  1.00  0.00    -0.206 C  
HETATM   23  C   UNL     1     -10.798  14.768  69.309  1.00  0.00    -0.275 C  
ENDROOT
BRANCH   4  24
HETATM   24  C   UNL     1      -9.298   9.677  65.447  1.00  0.00    -0.259 C  
HETATM   25  O   UNL     1      -9.555   8.499  65.717  1.00  0.00    -0.152 OA 
BRANCH  24  26
HETATM   26  C   UNL     1      -9.390  10.040  63.941  1.00  0.00    -0.263 C  
BRANCH  26  27
HETATM   27  O   UNL     1      -8.689   9.053  63.137  1.00  0.00    -0.192 OA 
BRANCH  27  28
HETATM   28  C   UNL     1      -7.353   9.289  62.980  1.00  0.00    -0.105 C  
HETATM   29  C   UNL     1      -6.629   8.077  62.459  1.00  0.00    -0.086 C  
HETATM   30  O   UNL     1      -6.796  10.345  63.236  1.00  0.00    -0.126 OA 
ENDBRANCH  27  28
ENDBRANCH  26  27
ENDBRANCH  24  26
ENDBRANCH   4  24
TORSDOF 4
ENDMDL
MODEL       48
REMARK 921   NORMALIZED FREE ENERGY PREDICTED BY IDOCK:   -5.20 KCAL/MOL
REMARK 922        TOTAL FREE ENERGY PREDICTED BY IDOCK:   -6.20 KCAL/MOL
REMARK 923 INTER-LIGAND FREE ENERGY PREDICTED BY IDOCK:   -6.53 KCAL/MOL
REMARK 924 INTRA-LIGAND FREE ENERGY PREDICTED BY IDOCK:    0.34 KCAL/MOL
REMARK 927      BINDING AFFINITY PREDICTED BY RF-SCORE:    0.00 PKD
ROOT
HETATM    1  C   UNL     1      -9.892   9.856  64.857  1.00  0.00    -0.282 C  
HETATM    2  C   UNL     1      -9.121  10.359  63.784  1.00  0.00    -0.273 C  
HETATM    3  C   UNL     1      -8.407  10.368  65.097  1.00  0.00    -0.165 C  
HETATM    4  C   UNL     1      -9.261   9.347  66.677  1.00  0.00    -0.153 C  
HETATM    5  O   UNL     1     -10.865  17.198  68.151  1.00  0.00    -0.373 OA 
HETATM    6  O   UNL     1     -10.534   8.618  66.505  1.00  0.00    -0.272 OA 
HETATM    7  C   UNL     1      -8.402   8.948  65.694  1.00  0.00    -0.144 C  
HETATM    8  C   UNL     1      -8.052   7.610  65.082  1.00  0.00    -0.134 C  
HETATM    9  C   UNL     1      -7.270  10.039  66.810  1.00  0.00    -0.091 C  
HETATM   10  C   UNL     1     -10.416  16.243  67.529  1.00  0.00    -0.302 C  
HETATM   11  C   UNL     1     -11.271  15.456  66.626  1.00  0.00    -0.175 C  
HETATM   12  H   UNL     1     -10.927   8.149  67.231  1.00  0.00     0.000 HD 
HETATM   13  C   UNL     1      -8.199  11.321  67.540  1.00  0.00    -0.124 C  
HETATM   14  C   UNL     1      -8.983  15.821  67.555  1.00  0.00    -0.201 C  
HETATM   15  O   UNL     1      -7.981  11.589  68.724  1.00  0.00    -0.145 OA 
HETATM   16  C   UNL     1     -10.825  12.916  68.690  1.00  0.00    -0.288 C  
HETATM   17  C   UNL     1      -9.384  12.166  66.672  1.00  0.00    -0.226 C  
HETATM   18  C   UNL     1     -10.496  11.271  65.829  1.00  0.00    -0.310 C  
HETATM   19  C   UNL     1     -10.035  13.386  67.452  1.00  0.00    -0.230 C  
HETATM   20  C   UNL     1      -8.872  14.347  67.932  1.00  0.00    -0.179 C  
HETATM   21  C   UNL     1     -11.310  12.204  64.919  1.00  0.00    -0.378 C  
HETATM   22  C   UNL     1     -12.006  13.307  65.704  1.00  0.00    -0.455 C  
HETATM   23  C   UNL     1     -11.070  14.125  66.563  1.00  0.00    -0.318 C  
ENDROOT
BRANCH   4  24
HETATM   24  C   UNL     1      -8.716   8.120  67.784  1.00  0.00    -0.130 C  
HETATM   25  O   UNL     1      -7.556   7.960  68.173  1.00  0.00    -0.110 OA 
BRANCH  24  26
HETATM   26  C   UNL     1      -9.745   7.105  68.351  1.00  0.00    -0.142 C  
BRANCH  26  27
HETATM   27  O   UNL     1      -9.888   7.276  69.787  1.00  0.00    -0.175 OA 
BRANCH  27  28
HETATM   28  C   UNL     1     -10.307   8.517  70.175  1.00  0.00    -0.207 C  
HETATM   29  C   UNL     1      -9.614   8.974  71.430  1.00  0.00    -0.356 C  
HETATM   30  O   UNL     1     -11.150   9.183  69.593  1.00  0.00    -0.196 OA 
ENDBRANCH  27  28
ENDBRANCH  26  27
ENDBRANCH  24  26
ENDBRANCH   4  24
TORSDOF 4
ENDMDL
MODEL       49
REMARK 921   NORMALIZED FREE ENERGY PREDICTED BY IDOCK:   -5.20 KCAL/MOL
REMARK 922        TOTAL FREE ENERGY PREDICTED BY IDOCK:   -6.20 KCAL/MOL
REMARK 923 INTER-LIGAND FREE ENERGY PREDICTED BY IDOCK:   -7.52 KCAL/MOL
REMARK 924 INTRA-LIGAND FREE ENERGY PREDICTED BY IDOCK:    1.33 KCAL/MOL
REMARK 927      BINDING AFFINITY PREDICTED BY RF-SCORE:    0.00 PKD
ROOT
HETATM    1  C   UNL     1     -11.763  15.127  65.704  1.00  0.00    -0.036 C  
HETATM    2  C   UNL     1     -11.418  15.414  64.364  1.00  0.00    -0.260 C  
HETATM    3  C   UNL     1     -10.558  14.370  64.998  1.00  0.00    -0.452 C  
HETATM    4  C   UNL     1     -11.151  13.592  66.818  1.00  0.00    -0.299 C  
HETATM    5  O   UNL     1      -5.163  18.811  68.629  1.00  0.00    -0.185 OA 
HETATM    6  O   UNL     1     -12.400  14.048  67.463  1.00  0.00    -0.529 OA 
HETATM    7  C   UNL     1     -11.439  13.226  65.535  1.00  0.00    -0.335 C  
HETATM    8  C   UNL     1     -12.565  12.448  64.890  1.00  0.00    -0.372 C  
HETATM    9  C   UNL     1      -9.604  12.665  65.720  1.00  0.00    -0.117 C  
HETATM   10  C   UNL     1      -5.942  18.208  67.903  1.00  0.00    -0.163 C  
HETATM   11  C   UNL     1      -7.324  18.682  67.713  1.00  0.00    -0.242 C  
HETATM   12  H   UNL     1     -12.673  13.691  68.299  1.00  0.00     0.000 HD 
HETATM   13  C   UNL     1      -8.754  13.733  66.804  1.00  0.00    -0.087 C  
HETATM   14  C   UNL     1      -5.580  17.006  67.094  1.00  0.00    -0.195 C  
HETATM   15  O   UNL     1      -7.976  13.228  67.617  1.00  0.00    -0.148 OA 
HETATM   16  C   UNL     1      -8.303  15.909  69.217  1.00  0.00    -0.238 C  
HETATM   17  C   UNL     1      -8.993  15.411  66.770  1.00  0.00    -0.288 C  
HETATM   18  C   UNL     1     -10.558  15.957  66.786  1.00  0.00    -0.309 C  
HETATM   19  C   UNL     1      -8.039  16.236  67.733  1.00  0.00    -0.160 C  
HETATM   20  C   UNL     1      -6.540  15.859  67.392  1.00  0.00    -0.222 C  
HETATM   21  C   UNL     1     -10.568  17.466  66.495  1.00  0.00    -0.184 C  
HETATM   22  C   UNL     1      -9.726  18.248  67.494  1.00  0.00    -0.305 C  
HETATM   23  C   UNL     1      -8.299  17.761  67.598  1.00  0.00    -0.228 C  
ENDROOT
BRANCH   4  24
HETATM   24  C   UNL     1     -11.424  11.990  67.438  1.00  0.00    -0.336 C  
HETATM   25  O   UNL     1     -12.344  11.650  68.187  1.00  0.00    -0.429 OA 
BRANCH  24  26
HETATM   26  C   UNL     1     -10.439  10.853  67.051  1.00  0.00    -0.244 C  
BRANCH  26  27
HETATM   27  O   UNL     1     -10.899   9.582  67.583  1.00  0.00    -0.279 OA 
BRANCH  27  28
HETATM   28  C   UNL     1     -10.508   8.488  66.864  1.00  0.00    -0.275 C  
HETATM   29  C   UNL     1      -9.505   8.848  65.801  1.00  0.00    -0.272 C  
HETATM   30  O   UNL     1     -10.920   7.352  67.041  1.00  0.00    -0.332 OA 
ENDBRANCH  27  28
ENDBRANCH  26  27
ENDBRANCH  24  26
ENDBRANCH   4  24
TORSDOF 4
ENDMDL
MODEL       50
REMARK 921   NORMALIZED FREE ENERGY PREDICTED BY IDOCK:   -5.19 KCAL/MOL
REMARK 922        TOTAL FREE ENERGY PREDICTED BY IDOCK:   -6.18 KCAL/MOL
REMARK 923 INTER-LIGAND FREE ENERGY PREDICTED BY IDOCK:   -6.78 KCAL/MOL
REMARK 924 INTRA-LIGAND FREE ENERGY PREDICTED BY IDOCK:    0.60 KCAL/MOL
REMARK 927      BINDING AFFINITY PREDICTED BY RF-SCORE:    0.00 PKD
ROOT
HETATM    1  C   UNL     1     -10.647  10.235  70.261  1.00  0.00    -0.264 C  
HETATM    2  C   UNL     1     -11.984   9.819  70.447  1.00  0.00    -0.218 C  
HETATM    3  C   UNL     1     -11.331   9.230  69.238  1.00  0.00     0.176 C  
HETATM    4  C   UNL     1      -9.288   9.459  69.027  1.00  0.00    -0.153 C  
HETATM    5  O   UNL     1     -12.540  14.903  63.912  1.00  0.00    -0.831 OA 
HETATM    6  O   UNL     1      -8.498  10.172  70.052  1.00  0.00    -0.339 OA 
HETATM    7  C   UNL     1     -10.037   8.503  69.650  1.00  0.00    -0.202 C  
HETATM    8  C   UNL     1      -9.762   7.505  70.753  1.00  0.00    -0.174 C  
HETATM    9  C   UNL     1     -10.340   8.113  67.787  1.00  0.00    -0.295 C  
HETATM   10  C   UNL     1     -12.545  14.017  64.756  1.00  0.00    -0.296 C  
HETATM   11  C   UNL     1     -12.380  14.330  66.185  1.00  0.00    -0.411 C  
HETATM   12  H   UNL     1      -7.560  10.277  69.955  1.00  0.00     0.000 HD 
HETATM   13  C   UNL     1     -10.290   9.580  66.848  1.00  0.00    -0.237 C  
HETATM   14  C   UNL     1     -12.782  12.573  64.459  1.00  0.00    -0.440 C  
HETATM   15  O   UNL     1      -9.708   9.549  65.761  1.00  0.00    -0.256 OA 
HETATM   16  C   UNL     1      -9.528  12.670  66.048  1.00  0.00    -0.140 C  
HETATM   17  C   UNL     1     -10.992  11.019  67.406  1.00  0.00    -0.349 C  
HETATM   18  C   UNL     1     -10.626  11.497  68.949  1.00  0.00    -0.236 C  
HETATM   19  C   UNL     1     -10.968  12.216  66.364  1.00  0.00    -0.327 C  
HETATM   20  C   UNL     1     -11.647  11.723  65.022  1.00  0.00    -0.214 C  
HETATM   21  C   UNL     1     -11.545  12.662  69.349  1.00  0.00    -0.369 C  
HETATM   22  C   UNL     1     -11.429  13.838  68.390  1.00  0.00    -0.351 C  
HETATM   23  C   UNL     1     -11.673  13.471  66.945  1.00  0.00    -0.424 C  
ENDROOT
BRANCH   4  24
HETATM   24  C   UNL     1      -7.953   8.377  68.760  1.00  0.00    -0.120 C  
HETATM   25  O   UNL     1      -7.785   7.664  67.767  1.00  0.00    -0.116 OA 
BRANCH  24  26
HETATM   26  C   UNL     1      -6.852   8.254  69.849  1.00  0.00    -0.043 C  
BRANCH  26  27
HETATM   27  O   UNL     1      -6.061   7.054  69.636  1.00  0.00    -0.028 OA 
BRANCH  27  28
HETATM   28  C   UNL     1      -6.382   6.006  70.450  1.00  0.00    -0.032 C  
HETATM   29  C   UNL     1      -6.746   4.777  69.661  1.00  0.00    -0.047 C  
HETATM   30  O   UNL     1      -6.391   6.047  71.671  1.00  0.00    -0.046 OA 
ENDBRANCH  27  28
ENDBRANCH  26  27
ENDBRANCH  24  26
ENDBRANCH   4  24
TORSDOF 4
ENDMDL
MODEL       51
REMARK 921   NORMALIZED FREE ENERGY PREDICTED BY IDOCK:   -5.15 KCAL/MOL
REMARK 922        TOTAL FREE ENERGY PREDICTED BY IDOCK:   -6.13 KCAL/MOL
REMARK 923 INTER-LIGAND FREE ENERGY PREDICTED BY IDOCK:   -6.85 KCAL/MOL
REMARK 924 INTRA-LIGAND FREE ENERGY PREDICTED BY IDOCK:    0.72 KCAL/MOL
REMARK 927      BINDING AFFINITY PREDICTED BY RF-SCORE:    0.00 PKD
ROOT
HETATM    1  C   UNL     1      -7.716  13.186  68.375  1.00  0.00    -0.138 C  
HETATM    2  C   UNL     1      -6.782  12.730  67.417  1.00  0.00    -0.138 C  
HETATM    3  C   UNL     1      -8.189  12.775  66.914  1.00  0.00    -0.031 C  
HETATM    4  C   UNL     1      -9.604  13.744  68.066  1.00  0.00    -0.214 C  
HETATM    5  O   UNL     1     -10.928   5.812  69.368  1.00  0.00    -0.342 OA 
HETATM    6  O   UNL     1      -9.228  14.387  69.342  1.00  0.00    -0.391 OA 
HETATM    7  C   UNL     1      -8.759  14.194  67.094  1.00  0.00    -0.239 C  
HETATM    8  C   UNL     1      -8.188  15.550  66.741  1.00  0.00    -0.277 C  
HETATM    9  C   UNL     1     -10.051  13.186  66.079  1.00  0.00    -0.286 C  
HETATM   10  C   UNL     1     -10.370   6.791  68.891  1.00  0.00    -0.192 C  
HETATM   11  C   UNL     1      -9.335   7.516  69.646  1.00  0.00    -0.153 C  
HETATM   12  H   UNL     1      -9.878  14.832  69.871  1.00  0.00     0.000 HD 
HETATM   13  C   UNL     1     -10.648  11.849  67.025  1.00  0.00    -0.227 C  
HETATM   14  C   UNL     1     -10.609   7.306  67.510  1.00  0.00    -0.344 C  
HETATM   15  O   UNL     1     -11.855  11.601  66.975  1.00  0.00    -0.591 OA 
HETATM   16  C   UNL     1     -11.405  10.089  69.689  1.00  0.00    -0.253 C  
HETATM   17  C   UNL     1      -9.621  10.923  68.005  1.00  0.00    -0.170 C  
HETATM   18  C   UNL     1      -8.605  11.739  69.029  1.00  0.00     0.228 C  
HETATM   19  C   UNL     1     -10.310   9.666  68.688  1.00  0.00    -0.226 C  
HETATM   20  C   UNL     1     -10.976   8.786  67.554  1.00  0.00     0.076 C  
HETATM   21  C   UNL     1      -7.594  10.750  69.631  1.00  0.00    -0.052 C  
HETATM   22  C   UNL     1      -8.279   9.607  70.367  1.00  0.00    -0.194 C  
HETATM   23  C   UNL     1      -9.283   8.856  69.524  1.00  0.00    -0.150 C  
ENDROOT
BRANCH   4  24
HETATM   24  C   UNL     1     -10.763  15.009  67.779  1.00  0.00    -0.278 C  
HETATM   25  O   UNL     1     -11.731  14.945  67.015  1.00  0.00    -0.348 OA 
BRANCH  24  26
HETATM   26  C   UNL     1     -10.600  16.364  68.518  1.00  0.00    -0.304 C  
BRANCH  26  27
HETATM   27  O   UNL     1     -11.012  17.463  67.661  1.00  0.00    -0.294 OA 
BRANCH  27  28
HETATM   28  C   UNL     1     -10.248  18.590  67.770  1.00  0.00    -0.382 C  
HETATM   29  C   UNL     1     -10.515  19.556  66.648  1.00  0.00    -0.593 C  
HETATM   30  O   UNL     1      -9.435  18.799  68.657  1.00  0.00    -0.344 OA 
ENDBRANCH  27  28
ENDBRANCH  26  27
ENDBRANCH  24  26
ENDBRANCH   4  24
TORSDOF 4
ENDMDL
MODEL       52
REMARK 921   NORMALIZED FREE ENERGY PREDICTED BY IDOCK:   -5.08 KCAL/MOL
REMARK 922        TOTAL FREE ENERGY PREDICTED BY IDOCK:   -6.05 KCAL/MOL
REMARK 923 INTER-LIGAND FREE ENERGY PREDICTED BY IDOCK:   -6.57 KCAL/MOL
REMARK 924 INTRA-LIGAND FREE ENERGY PREDICTED BY IDOCK:    0.52 KCAL/MOL
REMARK 927      BINDING AFFINITY PREDICTED BY RF-SCORE:    0.00 PKD
ROOT
HETATM    1  C   UNL     1     -11.909  11.792  68.918  1.00  0.00    -0.381 C  
HETATM    2  C   UNL     1     -11.796  12.846  69.853  1.00  0.00    -0.373 C  
HETATM    3  C   UNL     1     -10.482  12.292  69.407  1.00  0.00     0.279 C  
HETATM    4  C   UNL     1     -10.467  11.001  67.793  1.00  0.00    -0.199 C  
HETATM    5  O   UNL     1      -9.625   6.197  74.320  1.00  0.00    -0.164 OA 
HETATM    6  O   UNL     1     -11.721  10.651  67.095  1.00  0.00    -0.281 OA 
HETATM    7  C   UNL     1     -10.384  12.361  67.871  1.00  0.00    -0.215 C  
HETATM    8  C   UNL     1     -10.667  13.489  66.904  1.00  0.00    -0.274 C  
HETATM    9  C   UNL     1      -8.658  11.807  68.526  1.00  0.00    -0.123 C  
HETATM   10  C   UNL     1      -9.767   7.253  73.716  1.00  0.00    -0.298 C  
HETATM   11  C   UNL     1     -11.099   7.702  73.278  1.00  0.00    -0.254 C  
HETATM   12  H   UNL     1     -11.714  10.058  66.354  1.00  0.00     0.000 HD 
HETATM   13  C   UNL     1      -8.790  10.278  69.353  1.00  0.00    -0.163 C  
HETATM   14  C   UNL     1      -8.660   8.211  73.426  1.00  0.00    -0.313 C  
HETATM   15  O   UNL     1      -7.907   9.439  69.158  1.00  0.00    -0.076 OA 
HETATM   16  C   UNL     1     -10.014   7.348  70.179  1.00  0.00    -0.184 C  
HETATM   17  C   UNL     1     -10.095   9.930  70.378  1.00  0.00    -0.258 C  
HETATM   18  C   UNL     1     -11.619  10.225  69.798  1.00  0.00    -0.294 C  
HETATM   19  C   UNL     1      -9.983   8.547  71.148  1.00  0.00    -0.265 C  
HETATM   20  C   UNL     1      -8.608   8.524  71.933  1.00  0.00    -0.254 C  
HETATM   21  C   UNL     1     -12.631  10.091  70.947  1.00  0.00    -0.424 C  
HETATM   22  C   UNL     1     -12.573   8.720  71.605  1.00  0.00    -0.393 C  
HETATM   23  C   UNL     1     -11.195   8.339  72.095  1.00  0.00    -0.413 C  
ENDROOT
BRANCH   4  24
HETATM   24  C   UNL     1      -9.614  10.939  66.279  1.00  0.00    -0.200 C  
HETATM   25  O   UNL     1      -8.784  11.762  65.880  1.00  0.00    -0.086 OA 
BRANCH  24  26
HETATM   26  C   UNL     1      -9.896   9.767  65.300  1.00  0.00    -0.265 C  
BRANCH  26  27
HETATM   27  O   UNL     1      -8.778   8.840  65.284  1.00  0.00    -0.182 OA 
BRANCH  27  28
HETATM   28  C   UNL     1      -8.837   7.858  66.233  1.00  0.00    -0.159 C  
HETATM   29  C   UNL     1     -10.251   7.591  66.672  1.00  0.00    -0.261 C  
HETATM   30  O   UNL     1      -7.869   7.268  66.688  1.00  0.00    -0.098 OA 
ENDBRANCH  27  28
ENDBRANCH  26  27
ENDBRANCH  24  26
ENDBRANCH   4  24
TORSDOF 4
ENDMDL
MODEL       53
REMARK 921   NORMALIZED FREE ENERGY PREDICTED BY IDOCK:   -5.05 KCAL/MOL
REMARK 922        TOTAL FREE ENERGY PREDICTED BY IDOCK:   -6.02 KCAL/MOL
REMARK 923 INTER-LIGAND FREE ENERGY PREDICTED BY IDOCK:   -7.23 KCAL/MOL
REMARK 924 INTRA-LIGAND FREE ENERGY PREDICTED BY IDOCK:    1.21 KCAL/MOL
REMARK 927      BINDING AFFINITY PREDICTED BY RF-SCORE:    0.00 PKD
ROOT
HETATM    1  C   UNL     1     -12.283   7.856  72.189  1.00  0.00    -0.353 C  
HETATM    2  C   UNL     1     -13.472   7.420  71.563  1.00  0.00    -0.445 C  
HETATM    3  C   UNL     1     -12.228   6.886  70.932  1.00  0.00    -0.404 C  
HETATM    4  C   UNL     1     -10.440   7.142  71.936  1.00  0.00    -0.197 C  
HETATM    5  O   UNL     1     -10.342  12.753  66.029  1.00  0.00    -0.265 OA 
HETATM    6  O   UNL     1     -10.401   7.822  73.247  1.00  0.00    -0.334 OA 
HETATM    7  C   UNL     1     -11.381   6.156  71.991  1.00  0.00    -0.348 C  
HETATM    8  C   UNL     1     -11.757   5.117  73.025  1.00  0.00    -0.231 C  
HETATM    9  C   UNL     1     -10.552   5.836  70.281  1.00  0.00    -0.369 C  
HETATM   10  C   UNL     1     -10.802  11.834  66.694  1.00  0.00    -0.276 C  
HETATM   11  C   UNL     1     -11.494  12.092  67.967  1.00  0.00    -0.380 C  
HETATM   12  H   UNL     1      -9.580   7.940  73.708  1.00  0.00     0.000 HD 
HETATM   13  C   UNL     1     -10.017   7.340  69.580  1.00  0.00    -0.170 C  
HETATM   14  C   UNL     1     -10.783  10.401  66.276  1.00  0.00    -0.107 C  
HETATM   15  O   UNL     1      -8.917   7.357  69.022  1.00  0.00    -0.132 OA 
HETATM   16  C   UNL     1      -9.029  10.466  69.445  1.00  0.00    -0.168 C  
HETATM   17  C   UNL     1     -10.956   8.748  69.673  1.00  0.00    -0.114 C  
HETATM   18  C   UNL     1     -11.554   9.169  71.160  1.00  0.00    -0.386 C  
HETATM   19  C   UNL     1     -10.376   9.987  68.866  1.00  0.00    -0.217 C  
HETATM   20  C   UNL     1     -10.149   9.540  67.365  1.00  0.00    -0.262 C  
HETATM   21  C   UNL     1     -12.571  10.308  70.992  1.00  0.00    -0.487 C  
HETATM   22  C   UNL     1     -11.963  11.523  70.305  1.00  0.00    -0.455 C  
HETATM   23  C   UNL     1     -11.324  11.211  68.971  1.00  0.00    -0.343 C  
ENDROOT
BRANCH   4  24
HETATM   24  C   UNL     1      -9.160   6.084  72.453  1.00  0.00    -0.136 C  
HETATM   25  O   UNL     1      -8.531   6.172  73.512  1.00  0.00    -0.119 OA 
BRANCH  24  26
HETATM   26  C   UNL     1      -8.727   4.915  71.529  1.00  0.00    -0.130 C  
BRANCH  26  27
HETATM   27  O   UNL     1      -8.301   3.773  72.320  1.00  0.00    -0.086 OA 
BRANCH  27  28
HETATM   28  C   UNL     1      -9.160   2.712  72.299  1.00  0.00    -0.084 C  
HETATM   29  C   UNL     1      -9.608   2.329  73.684  1.00  0.00    -0.111 C  
HETATM   30  O   UNL     1      -9.522   2.125  71.291  1.00  0.00    -0.119 OA 
ENDBRANCH  27  28
ENDBRANCH  26  27
ENDBRANCH  24  26
ENDBRANCH   4  24
TORSDOF 4
ENDMDL
MODEL       54
REMARK 921   NORMALIZED FREE ENERGY PREDICTED BY IDOCK:   -5.05 KCAL/MOL
REMARK 922        TOTAL FREE ENERGY PREDICTED BY IDOCK:   -6.02 KCAL/MOL
REMARK 923 INTER-LIGAND FREE ENERGY PREDICTED BY IDOCK:   -7.01 KCAL/MOL
REMARK 924 INTRA-LIGAND FREE ENERGY PREDICTED BY IDOCK:    0.99 KCAL/MOL
REMARK 927      BINDING AFFINITY PREDICTED BY RF-SCORE:    0.00 PKD
ROOT
HETATM    1  C   UNL     1     -10.570  14.145  64.999  1.00  0.00    -0.436 C  
HETATM    2  C   UNL     1     -11.929  14.006  64.637  1.00  0.00    -0.449 C  
HETATM    3  C   UNL     1     -11.724  14.528  66.022  1.00  0.00    -0.347 C  
HETATM    4  C   UNL     1      -9.820  15.117  66.568  1.00  0.00    -0.262 C  
HETATM    5  O   UNL     1     -10.842   7.837  70.081  1.00  0.00    -0.242 OA 
HETATM    6  O   UNL     1      -8.700  15.036  65.608  1.00  0.00    -0.099 OA 
HETATM    7  C   UNL     1     -10.846  15.793  65.975  1.00  0.00    -0.256 C  
HETATM    8  C   UNL     1     -10.930  17.032  65.112  1.00  0.00    -0.016 C  
HETATM    9  C   UNL     1     -11.474  15.603  67.788  1.00  0.00    -0.209 C  
HETATM   10  C   UNL     1     -11.152   8.806  69.399  1.00  0.00     0.067 C  
HETATM   11  C   UNL     1     -10.725   8.912  67.994  1.00  0.00    -0.168 C  
HETATM   12  H   UNL     1      -7.826  15.307  65.859  1.00  0.00     0.000 HD 
HETATM   13  C   UNL     1     -10.878  14.118  68.479  1.00  0.00    -0.252 C  
HETATM   14  C   UNL     1     -12.027   9.920  69.869  1.00  0.00    -0.006 C  
HETATM   15  O   UNL     1     -10.480  14.145  69.646  1.00  0.00     0.009 OA 
HETATM   16  C   UNL     1      -8.921  11.520  68.912  1.00  0.00     0.029 C  
HETATM   17  C   UNL     1     -10.819  12.680  67.583  1.00  0.00    -0.248 C  
HETATM   18  C   UNL     1     -10.129  12.748  66.078  1.00  0.00    -0.277 C  
HETATM   19  C   UNL     1     -10.374  11.400  68.411  1.00  0.00    -0.209 C  
HETATM   20  C   UNL     1     -11.330  11.262  69.665  1.00  0.00    -0.359 C  
HETATM   21  C   UNL     1     -10.399  11.428  65.339  1.00  0.00    -0.331 C  
HETATM   22  C   UNL     1      -9.874  10.223  66.107  1.00  0.00    -0.284 C  
HETATM   23  C   UNL     1     -10.396  10.129  67.521  1.00  0.00    -0.279 C  
ENDROOT
BRANCH   4  24
HETATM   24  C   UNL     1      -9.129  16.564  67.242  1.00  0.00    -0.204 C  
HETATM   25  O   UNL     1      -9.488  17.121  68.284  1.00  0.00    -0.258 OA 
BRANCH  24  26
HETATM   26  C   UNL     1      -7.959  17.260  66.496  1.00  0.00    -0.283 C  
BRANCH  26  27
HETATM   27  O   UNL     1      -8.450  18.390  65.726  1.00  0.00    -0.468 OA 
BRANCH  27  28
HETATM   28  C   UNL     1      -8.490  19.572  66.409  1.00  0.00    -0.352 C  
HETATM   29  C   UNL     1      -9.871  20.171  66.406  1.00  0.00    -0.560 C  
HETATM   30  O   UNL     1      -7.531  20.099  66.952  1.00  0.00    -0.259 OA 
ENDBRANCH  27  28
ENDBRANCH  26  27
ENDBRANCH  24  26
ENDBRANCH   4  24
TORSDOF 4
ENDMDL
MODEL       55
REMARK 921   NORMALIZED FREE ENERGY PREDICTED BY IDOCK:   -4.99 KCAL/MOL
REMARK 922        TOTAL FREE ENERGY PREDICTED BY IDOCK:   -5.93 KCAL/MOL
REMARK 923 INTER-LIGAND FREE ENERGY PREDICTED BY IDOCK:   -7.11 KCAL/MOL
REMARK 924 INTRA-LIGAND FREE ENERGY PREDICTED BY IDOCK:    1.17 KCAL/MOL
REMARK 927      BINDING AFFINITY PREDICTED BY RF-SCORE:    0.00 PKD
ROOT
HETATM    1  C   UNL     1     -11.731  14.589  68.702  1.00  0.00    -0.364 C  
HETATM    2  C   UNL     1     -11.625  14.740  70.103  1.00  0.00    -0.338 C  
HETATM    3  C   UNL     1     -10.335  14.937  69.376  1.00  0.00    -0.217 C  
HETATM    4  C   UNL     1     -10.392  15.099  67.316  1.00  0.00    -0.261 C  
HETATM    5  O   UNL     1      -7.768   7.519  68.746  1.00  0.00    -0.113 OA 
HETATM    6  O   UNL     1     -11.677  15.036  66.590  1.00  0.00    -0.278 OA 
HETATM    7  C   UNL     1     -10.504  16.032  68.306  1.00  0.00    -0.269 C  
HETATM    8  C   UNL     1     -11.110  17.416  68.383  1.00  0.00     0.028 C  
HETATM    9  C   UNL     1      -8.630  15.587  68.372  1.00  0.00    -0.168 C  
HETATM   10  C   UNL     1      -8.165   8.640  69.034  1.00  0.00    -0.122 C  
HETATM   11  C   UNL     1      -9.603   8.955  69.047  1.00  0.00    -0.158 C  
HETATM   12  H   UNL     1     -11.703  15.110  65.644  1.00  0.00     0.000 HD 
HETATM   13  C   UNL     1      -8.391  13.919  67.925  1.00  0.00    -0.167 C  
HETATM   14  C   UNL     1      -7.279   9.763  69.463  1.00  0.00    -0.087 C  
HETATM   15  O   UNL     1      -7.436  13.650  67.193  1.00  0.00    -0.094 OA 
HETATM   16  C   UNL     1      -9.005  11.012  66.533  1.00  0.00    -0.181 C  
HETATM   17  C   UNL     1      -9.440  12.697  68.453  1.00  0.00    -0.163 C  
HETATM   18  C   UNL     1     -11.066  12.953  68.260  1.00  0.00    -0.294 C  
HETATM   19  C   UNL     1      -8.995  11.225  68.061  1.00  0.00    -0.156 C  
HETATM   20  C   UNL     1      -7.522  10.992  68.593  1.00  0.00    -0.112 C  
HETATM   21  C   UNL     1     -11.843  11.866  69.020  1.00  0.00    -0.368 C  
HETATM   22  C   UNL     1     -11.470  10.465  68.555  1.00  0.00    -0.231 C  
HETATM   23  C   UNL     1      -9.989  10.175  68.626  1.00  0.00    -0.181 C  
ENDROOT
BRANCH   4  24
HETATM   24  C   UNL     1      -9.802  16.255  66.159  1.00  0.00    -0.334 C  
HETATM   25  O   UNL     1     -10.448  16.742  65.227  1.00  0.00    -0.630 OA 
BRANCH  24  26
HETATM   26  C   UNL     1      -8.330  16.741  66.261  1.00  0.00    -0.318 C  
BRANCH  26  27
HETATM   27  O   UNL     1      -8.206  18.093  65.744  1.00  0.00    -0.509 OA 
BRANCH  27  28
HETATM   28  C   UNL     1      -8.178  19.069  66.699  1.00  0.00    -0.291 C  
HETATM   29  C   UNL     1      -9.357  19.997  66.584  1.00  0.00    -0.505 C  
HETATM   30  O   UNL     1      -7.304  19.195  67.543  1.00  0.00    -0.224 OA 
ENDBRANCH  27  28
ENDBRANCH  26  27
ENDBRANCH  24  26
ENDBRANCH   4  24
TORSDOF 4
ENDMDL
MODEL       56
REMARK 921   NORMALIZED FREE ENERGY PREDICTED BY IDOCK:   -4.96 KCAL/MOL
REMARK 922        TOTAL FREE ENERGY PREDICTED BY IDOCK:   -5.90 KCAL/MOL
REMARK 923 INTER-LIGAND FREE ENERGY PREDICTED BY IDOCK:   -7.15 KCAL/MOL
REMARK 924 INTRA-LIGAND FREE ENERGY PREDICTED BY IDOCK:    1.24 KCAL/MOL
REMARK 927      BINDING AFFINITY PREDICTED BY RF-SCORE:    0.00 PKD
ROOT
HETATM    1  C   UNL     1     -11.105  15.698  67.714  1.00  0.00    -0.311 C  
HETATM    2  C   UNL     1     -11.731  15.692  68.981  1.00  0.00    -0.408 C  
HETATM    3  C   UNL     1     -10.242  15.575  69.043  1.00  0.00    -0.229 C  
HETATM    4  C   UNL     1      -9.165  15.923  67.314  1.00  0.00    -0.206 C  
HETATM    5  O   UNL     1      -9.259   7.816  68.121  1.00  0.00    -0.139 OA 
HETATM    6  O   UNL     1      -9.852  16.291  66.059  1.00  0.00    -0.305 OA 
HETATM    7  C   UNL     1      -9.598  16.761  68.301  1.00  0.00    -0.244 C  
HETATM    8  C   UNL     1      -9.864  18.248  68.377  1.00  0.00    -0.386 C  
HETATM    9  C   UNL     1      -8.176  15.796  69.175  1.00  0.00    -0.247 C  
HETATM   10  C   UNL     1      -9.518   8.975  68.419  1.00  0.00    -0.146 C  
HETATM   11  C   UNL     1     -10.648   9.684  67.796  1.00  0.00    -0.320 C  
HETATM   12  H   UNL     1      -9.357  16.451  65.264  1.00  0.00     0.000 HD 
HETATM   13  C   UNL     1      -8.072  14.175  68.545  1.00  0.00    -0.143 C  
HETATM   14  C   UNL     1      -8.793   9.758  69.463  1.00  0.00    -0.202 C  
HETATM   15  O   UNL     1      -6.950  13.709  68.334  1.00  0.00    -0.086 OA 
HETATM   16  C   UNL     1      -8.415  11.694  66.425  1.00  0.00    -0.114 C  
HETATM   17  C   UNL     1      -9.459  13.261  68.205  1.00  0.00    -0.222 C  
HETATM   18  C   UNL     1     -10.646  13.985  67.304  1.00  0.00    -0.273 C  
HETATM   19  C   UNL     1      -9.175  11.762  67.765  1.00  0.00    -0.181 C  
HETATM   20  C   UNL     1      -8.289  11.075  68.883  1.00  0.00    -0.123 C  
HETATM   21  C   UNL     1     -11.904  13.103  67.323  1.00  0.00    -0.420 C  
HETATM   22  C   UNL     1     -11.628  11.699  66.803  1.00  0.00    -0.220 C  
HETATM   23  C   UNL     1     -10.502  10.994  67.523  1.00  0.00    -0.244 C  
ENDROOT
BRANCH   4  24
HETATM   24  C   UNL     1      -7.836  16.959  66.883  1.00  0.00    -0.217 C  
HETATM   25  O   UNL     1      -7.671  17.510  65.791  1.00  0.00    -0.530 OA 
BRANCH  24  26
HETATM   26  C   UNL     1      -6.725  17.237  67.932  1.00  0.00    -0.164 C  
BRANCH  26  27
HETATM   27  O   UNL     1      -6.485  18.665  68.050  1.00  0.00    -0.208 OA 
BRANCH  27  28
HETATM   28  C   UNL     1      -6.240  19.099  69.322  1.00  0.00    -0.275 C  
HETATM   29  C   UNL     1      -5.450  18.092  70.113  1.00  0.00    -0.252 C  
HETATM   30  O   UNL     1      -6.618  20.166  69.780  1.00  0.00    -0.331 OA 
ENDBRANCH  27  28
ENDBRANCH  26  27
ENDBRANCH  24  26
ENDBRANCH   4  24
TORSDOF 4
ENDMDL
MODEL       57
REMARK 921   NORMALIZED FREE ENERGY PREDICTED BY IDOCK:   -4.95 KCAL/MOL
REMARK 922        TOTAL FREE ENERGY PREDICTED BY IDOCK:   -5.89 KCAL/MOL
REMARK 923 INTER-LIGAND FREE ENERGY PREDICTED BY IDOCK:   -6.11 KCAL/MOL
REMARK 924 INTRA-LIGAND FREE ENERGY PREDICTED BY IDOCK:    0.22 KCAL/MOL
REMARK 927      BINDING AFFINITY PREDICTED BY RF-SCORE:    0.00 PKD
ROOT
HETATM    1  C   UNL     1      -8.002   9.206  69.047  1.00  0.00    -0.101 C  
HETATM    2  C   UNL     1      -7.294   9.618  70.198  1.00  0.00    -0.141 C  
HETATM    3  C   UNL     1      -8.747   9.370  70.441  1.00  0.00    -0.278 C  
HETATM    4  C   UNL     1      -9.835   8.430  68.957  1.00  0.00    -0.183 C  
HETATM    5  O   UNL     1     -11.867  16.299  68.375  1.00  0.00    -0.202 OA 
HETATM    6  O   UNL     1      -9.187   8.005  67.699  1.00  0.00    -0.133 OA 
HETATM    7  C   UNL     1      -9.109   7.938  70.002  1.00  0.00    -0.152 C  
HETATM    8  C   UNL     1      -8.444   6.610  70.289  1.00  0.00    -0.135 C  
HETATM    9  C   UNL     1     -10.657   8.670  70.887  1.00  0.00    -0.265 C  
HETATM   10  C   UNL     1     -11.279  15.323  68.825  1.00  0.00    -0.287 C  
HETATM   11  C   UNL     1     -10.059  14.810  68.182  1.00  0.00    -0.221 C  
HETATM   12  H   UNL     1      -9.687   7.574  67.017  1.00  0.00     0.000 HD 
HETATM   13  C   UNL     1     -11.250  10.058  70.015  1.00  0.00    -0.288 C  
HETATM   14  C   UNL     1     -11.673  14.606  70.074  1.00  0.00    -0.348 C  
HETATM   15  O   UNL     1     -12.470  10.177  69.883  1.00  0.00    -0.064 OA 
HETATM   16  C   UNL     1     -11.775  12.077  67.483  1.00  0.00    -0.351 C  
HETATM   17  C   UNL     1     -10.196  11.203  69.342  1.00  0.00    -0.041 C  
HETATM   18  C   UNL     1      -8.941  10.635  68.421  1.00  0.00    -0.149 C  
HETATM   19  C   UNL     1     -10.912  12.466  68.700  1.00  0.00    -0.283 C  
HETATM   20  C   UNL     1     -11.850  13.117  69.796  1.00  0.00    -0.386 C  
HETATM   21  C   UNL     1      -7.971  11.789  68.122  1.00  0.00    -0.146 C  
HETATM   22  C   UNL     1      -8.661  12.948  67.416  1.00  0.00    -0.195 C  
HETATM   23  C   UNL     1      -9.869  13.477  68.154  1.00  0.00    -0.237 C  
ENDROOT
BRANCH   4  24
HETATM   24  C   UNL     1     -10.867   7.031  68.890  1.00  0.00    -0.167 C  
HETATM   25  O   UNL     1     -11.542   6.584  69.822  1.00  0.00    -0.394 OA 
BRANCH  24  26
HETATM   26  C   UNL     1     -10.973   6.234  67.562  1.00  0.00    -0.350 C  
BRANCH  26  27
HETATM   27  O   UNL     1     -10.108   5.067  67.601  1.00  0.00    -0.169 OA 
BRANCH  27  28
HETATM   28  C   UNL     1      -9.333   4.893  66.489  1.00  0.00    -0.142 C  
HETATM   29  C   UNL     1      -9.007   3.443  66.258  1.00  0.00    -0.149 C  
HETATM   30  O   UNL     1      -8.936   5.794  65.767  1.00  0.00    -0.156 OA 
ENDBRANCH  27  28
ENDBRANCH  26  27
ENDBRANCH  24  26
ENDBRANCH   4  24
TORSDOF 4
ENDMDL
MODEL       58
REMARK 921   NORMALIZED FREE ENERGY PREDICTED BY IDOCK:   -4.93 KCAL/MOL
REMARK 922        TOTAL FREE ENERGY PREDICTED BY IDOCK:   -5.86 KCAL/MOL
REMARK 923 INTER-LIGAND FREE ENERGY PREDICTED BY IDOCK:   -6.35 KCAL/MOL
REMARK 924 INTRA-LIGAND FREE ENERGY PREDICTED BY IDOCK:    0.49 KCAL/MOL
REMARK 927      BINDING AFFINITY PREDICTED BY RF-SCORE:    0.00 PKD
ROOT
HETATM    1  C   UNL     1     -10.248  15.778  65.120  1.00  0.00    -0.252 C  
HETATM    2  C   UNL     1     -11.621  15.766  64.784  1.00  0.00    -0.173 C  
HETATM    3  C   UNL     1     -11.358  15.965  66.241  1.00  0.00     0.225 C  
HETATM    4  C   UNL     1      -9.419  16.357  66.837  1.00  0.00    -0.235 C  
HETATM    5  O   UNL     1     -10.635   8.523  68.712  1.00  0.00    -0.208 OA 
HETATM    6  O   UNL     1      -8.329  16.452  65.843  1.00  0.00    -0.334 OA 
HETATM    7  C   UNL     1     -10.433  17.180  66.441  1.00  0.00    -0.255 C  
HETATM    8  C   UNL     1     -10.490  18.581  65.872  1.00  0.00    -0.379 C  
HETATM    9  C   UNL     1     -11.019  16.619  68.189  1.00  0.00    -0.327 C  
HETATM   10  C   UNL     1     -10.924   9.627  68.269  1.00  0.00    -0.121 C  
HETATM   11  C   UNL     1     -10.531  10.024  66.907  1.00  0.00    -0.284 C  
HETATM   12  H   UNL     1      -7.438  16.632  66.117  1.00  0.00     0.000 HD 
HETATM   13  C   UNL     1     -10.464  14.999  68.519  1.00  0.00    -0.232 C  
HETATM   14  C   UNL     1     -11.741  10.639  69.000  1.00  0.00    -0.305 C  
HETATM   15  O   UNL     1     -10.034  14.757  69.649  1.00  0.00    -0.087 OA 
HETATM   16  C   UNL     1      -8.601  12.307  68.308  1.00  0.00    -0.172 C  
HETATM   17  C   UNL     1     -10.486  13.791  67.330  1.00  0.00    -0.256 C  
HETATM   18  C   UNL     1      -9.834  14.165  65.853  1.00  0.00    -0.312 C  
HETATM   19  C   UNL     1     -10.070  12.348  67.843  1.00  0.00    -0.208 C  
HETATM   20  C   UNL     1     -10.998  11.970  69.069  1.00  0.00    -0.260 C  
HETATM   21  C   UNL     1     -10.175  13.048  64.854  1.00  0.00    -0.304 C  
HETATM   22  C   UNL     1      -9.678  11.688  65.322  1.00  0.00    -0.255 C  
HETATM   23  C   UNL     1     -10.166  11.303  66.699  1.00  0.00    -0.268 C  
ENDROOT
BRANCH   4  24
HETATM   24  C   UNL     1      -8.653  17.598  67.786  1.00  0.00    -0.228 C  
HETATM   25  O   UNL     1      -9.169  18.664  68.136  1.00  0.00    -0.295 OA 
BRANCH  24  26
HETATM   26  C   UNL     1      -7.185  17.397  68.247  1.00  0.00    -0.214 C  
BRANCH  26  27
HETATM   27  O   UNL     1      -7.129  16.494  69.384  1.00  0.00    -0.227 OA 
BRANCH  27  28
HETATM   28  C   UNL     1      -6.253  15.455  69.246  1.00  0.00    -0.124 C  
HETATM   29  C   UNL     1      -5.955  15.165  67.799  1.00  0.00    -0.150 C  
HETATM   30  O   UNL     1      -5.770  14.821  70.171  1.00  0.00    -0.112 OA 
ENDBRANCH  27  28
ENDBRANCH  26  27
ENDBRANCH  24  26
ENDBRANCH   4  24
TORSDOF 4
ENDMDL
MODEL       59
REMARK 921   NORMALIZED FREE ENERGY PREDICTED BY IDOCK:   -4.87 KCAL/MOL
REMARK 922        TOTAL FREE ENERGY PREDICTED BY IDOCK:   -5.79 KCAL/MOL
REMARK 923 INTER-LIGAND FREE ENERGY PREDICTED BY IDOCK:   -6.44 KCAL/MOL
REMARK 924 INTRA-LIGAND FREE ENERGY PREDICTED BY IDOCK:    0.65 KCAL/MOL
REMARK 927      BINDING AFFINITY PREDICTED BY RF-SCORE:    0.00 PKD
ROOT
HETATM    1  C   UNL     1      -8.225  13.125  68.324  1.00  0.00    -0.154 C  
HETATM    2  C   UNL     1      -7.243  13.909  67.678  1.00  0.00    -0.187 C  
HETATM    3  C   UNL     1      -8.590  13.978  67.034  1.00  0.00    -0.193 C  
HETATM    4  C   UNL     1     -10.199  13.178  68.054  1.00  0.00    -0.233 C  
HETATM    5  O   UNL     1      -8.387   7.654  62.347  1.00  0.00    -0.136 OA 
HETATM    6  O   UNL     1     -10.020  12.570  69.389  1.00  0.00    -0.149 OA 
HETATM    7  C   UNL     1      -9.639  14.422  68.071  1.00  0.00    -0.216 C  
HETATM    8  C   UNL     1      -9.636  15.562  69.066  1.00  0.00    -0.238 C  
HETATM    9  C   UNL     1     -10.514  14.390  66.354  1.00  0.00    -0.295 C  
HETATM   10  C   UNL     1      -8.262   8.696  62.977  1.00  0.00    -0.179 C  
HETATM   11  C   UNL     1      -7.533   8.726  64.256  1.00  0.00    -0.108 C  
HETATM   12  H   UNL     1     -10.759  12.202  69.857  1.00  0.00     0.000 HD 
HETATM   13  C   UNL     1     -10.514  12.771  65.709  1.00  0.00    -0.276 C  
HETATM   14  C   UNL     1      -8.753  10.026  62.510  1.00  0.00    -0.226 C  
HETATM   15  O   UNL     1     -11.542  12.371  65.157  1.00  0.00    -0.336 OA 
HETATM   16  C   UNL     1     -10.409   9.492  65.687  1.00  0.00     0.172 C  
HETATM   17  C   UNL     1      -9.163  11.758  65.846  1.00  0.00    -0.178 C  
HETATM   18  C   UNL     1      -8.470  11.611  67.345  1.00  0.00    -0.150 C  
HETATM   19  C   UNL     1      -9.293  10.370  65.086  1.00  0.00    -0.271 C  
HETATM   20  C   UNL     1      -9.644  10.665  63.571  1.00  0.00    -0.366 C  
HETATM   21  C   UNL     1      -7.131  10.868  67.212  1.00  0.00    -0.097 C  
HETATM   22  C   UNL     1      -7.297   9.498  66.570  1.00  0.00    -0.090 C  
HETATM   23  C   UNL     1      -7.993   9.535  65.229  1.00  0.00    -0.112 C  
ENDROOT
BRANCH   4  24
HETATM   24  C   UNL     1     -11.761  13.769  68.540  1.00  0.00    -0.356 C  
HETATM   25  O   UNL     1     -12.524  14.452  67.851  1.00  0.00    -0.092 OA 
BRANCH  24  26
HETATM   26  C   UNL     1     -12.281  13.444  69.967  1.00  0.00    -0.298 C  
BRANCH  26  27
HETATM   27  O   UNL     1     -12.239  14.630  70.805  1.00  0.00    -0.282 OA 
BRANCH  27  28
HETATM   28  C   UNL     1     -12.768  14.465  72.053  1.00  0.00    -0.328 C  
HETATM   29  C   UNL     1     -12.311  15.542  73.000  1.00  0.00    -0.554 C  
HETATM   30  O   UNL     1     -13.514  13.555  72.382  1.00  0.00    -0.511 OA 
ENDBRANCH  27  28
ENDBRANCH  26  27
ENDBRANCH  24  26
ENDBRANCH   4  24
TORSDOF 4
ENDMDL
MODEL       60
REMARK 921   NORMALIZED FREE ENERGY PREDICTED BY IDOCK:   -4.79 KCAL/MOL
REMARK 922        TOTAL FREE ENERGY PREDICTED BY IDOCK:   -5.69 KCAL/MOL
REMARK 923 INTER-LIGAND FREE ENERGY PREDICTED BY IDOCK:   -5.93 KCAL/MOL
REMARK 924 INTRA-LIGAND FREE ENERGY PREDICTED BY IDOCK:    0.24 KCAL/MOL
REMARK 927      BINDING AFFINITY PREDICTED BY RF-SCORE:    0.00 PKD
ROOT
HETATM    1  C   UNL     1      -6.925  11.706  67.631  1.00  0.00    -0.095 C  
HETATM    2  C   UNL     1      -6.794  11.675  69.037  1.00  0.00    -0.105 C  
HETATM    3  C   UNL     1      -8.183  11.413  68.555  1.00  0.00    -0.153 C  
HETATM    4  C   UNL     1      -8.467  11.076  66.536  1.00  0.00    -0.161 C  
HETATM    5  O   UNL     1     -10.946  18.742  67.744  1.00  0.00    -0.341 OA 
HETATM    6  O   UNL     1      -7.322  11.081  65.602  1.00  0.00    -0.358 OA 
HETATM    7  C   UNL     1      -8.176  10.231  67.567  1.00  0.00    -0.114 C  
HETATM    8  C   UNL     1      -7.542   8.860  67.658  1.00  0.00    -0.093 C  
HETATM    9  C   UNL     1     -10.020  10.675  67.909  1.00  0.00    -0.189 C  
HETATM   10  C   UNL     1     -10.487  17.651  68.056  1.00  0.00    -0.394 C  
HETATM   11  C   UNL     1      -9.062  17.343  67.854  1.00  0.00    -0.255 C  
HETATM   12  H   UNL     1      -7.452  10.927  64.675  1.00  0.00     0.000 HD 
HETATM   13  C   UNL     1     -10.359  12.298  67.370  1.00  0.00    -0.206 C  
HETATM   14  C   UNL     1     -11.270  16.566  68.719  1.00  0.00    -0.277 C  
HETATM   15  O   UNL     1     -11.426  12.501  66.787  1.00  0.00    -0.319 OA 
HETATM   16  C   UNL     1     -10.034  15.077  65.657  1.00  0.00    -0.387 C  
HETATM   17  C   UNL     1      -9.257  13.564  67.611  1.00  0.00    -0.214 C  
HETATM   18  C   UNL     1      -7.682  13.296  67.171  1.00  0.00    -0.018 C  
HETATM   19  C   UNL     1      -9.786  14.996  67.177  1.00  0.00    -0.233 C  
HETATM   20  C   UNL     1     -11.154  15.268  67.926  1.00  0.00    -0.321 C  
HETATM   21  C   UNL     1      -6.808  14.447  67.697  1.00  0.00    -0.202 C  
HETATM   22  C   UNL     1      -7.277  15.802  67.185  1.00  0.00    -0.241 C  
HETATM   23  C   UNL     1      -8.731  16.092  67.478  1.00  0.00    -0.195 C  
ENDROOT
BRANCH   4  24
HETATM   24  C   UNL     1      -9.221   9.823  65.595  1.00  0.00    -0.199 C  
HETATM   25  O   UNL     1     -10.144   9.093  65.968  1.00  0.00    -0.284 OA 
BRANCH  24  26
HETATM   26  C   UNL     1      -8.714   9.555  64.152  1.00  0.00    -0.215 C  
BRANCH  26  27
HETATM   27  O   UNL     1      -7.973   8.306  64.099  1.00  0.00    -0.139 OA 
BRANCH  27  28
HETATM   28  C   UNL     1      -6.719   8.409  63.566  1.00  0.00    -0.084 C  
HETATM   29  C   UNL     1      -6.394   7.240  62.676  1.00  0.00    -0.054 C  
HETATM   30  O   UNL     1      -5.940   9.325  63.783  1.00  0.00    -0.084 OA 
ENDBRANCH  27  28
ENDBRANCH  26  27
ENDBRANCH  24  26
ENDBRANCH   4  24
TORSDOF 4
ENDMDL
MODEL       61
REMARK 921   NORMALIZED FREE ENERGY PREDICTED BY IDOCK:   -4.77 KCAL/MOL
REMARK 922        TOTAL FREE ENERGY PREDICTED BY IDOCK:   -5.66 KCAL/MOL
REMARK 923 INTER-LIGAND FREE ENERGY PREDICTED BY IDOCK:   -5.91 KCAL/MOL
REMARK 924 INTRA-LIGAND FREE ENERGY PREDICTED BY IDOCK:    0.25 KCAL/MOL
REMARK 927      BINDING AFFINITY PREDICTED BY RF-SCORE:    0.00 PKD
ROOT
HETATM    1  C   UNL     1      -7.764   7.606  72.331  1.00  0.00    -0.113 C  
HETATM    2  C   UNL     1      -7.566   8.564  73.350  1.00  0.00    -0.043 C  
HETATM    3  C   UNL     1      -8.993   8.154  73.177  1.00  0.00    -0.330 C  
HETATM    4  C   UNL     1      -9.397   6.518  71.981  1.00  0.00    -0.147 C  
HETATM    5  O   UNL     1     -11.296  12.978  67.394  1.00  0.00    -0.275 OA 
HETATM    6  O   UNL     1      -8.302   5.769  71.331  1.00  0.00    -0.124 OA 
HETATM    7  C   UNL     1      -9.113   6.624  73.312  1.00  0.00    -0.143 C  
HETATM    8  C   UNL     1      -8.568   5.670  74.351  1.00  0.00    -0.114 C  
HETATM    9  C   UNL     1     -10.904   7.330  73.217  1.00  0.00    -0.404 C  
HETATM   10  C   UNL     1     -10.896  12.390  68.390  1.00  0.00    -0.238 C  
HETATM   11  C   UNL     1      -9.506  11.913  68.483  1.00  0.00    -0.151 C  
HETATM   12  H   UNL     1      -8.488   5.018  70.782  1.00  0.00     0.000 HD 
HETATM   13  C   UNL     1     -11.160   8.122  71.686  1.00  0.00    -0.255 C  
HETATM   14  C   UNL     1     -11.716  12.157  69.616  1.00  0.00    -0.396 C  
HETATM   15  O   UNL     1     -12.239   7.942  71.117  1.00  0.00    -0.304 OA 
HETATM   16  C   UNL     1     -10.735   8.848  68.515  1.00  0.00    -0.124 C  
HETATM   17  C   UNL     1      -9.965   9.093  70.976  1.00  0.00    -0.367 C  
HETATM   18  C   UNL     1      -8.435   8.466  70.873  1.00  0.00    -0.158 C  
HETATM   19  C   UNL     1     -10.418   9.841  69.651  1.00  0.00    -0.263 C  
HETATM   20  C   UNL     1     -11.726  10.673  69.972  1.00  0.00    -0.405 C  
HETATM   21  C   UNL     1      -7.462   9.575  70.444  1.00  0.00    -0.158 C  
HETATM   22  C   UNL     1      -7.863  10.209  69.119  1.00  0.00    -0.120 C  
HETATM   23  C   UNL     1      -9.278  10.740  69.103  1.00  0.00    -0.131 C  
ENDROOT
BRANCH   4  24
HETATM   24  C   UNL     1     -10.279   5.034  72.190  1.00  0.00    -0.201 C  
HETATM   25  O   UNL     1     -11.323   4.896  72.834  1.00  0.00    -0.259 OA 
BRANCH  24  26
HETATM   26  C   UNL     1      -9.737   3.735  71.535  1.00  0.00    -0.171 C  
BRANCH  26  27
HETATM   27  O   UNL     1      -9.970   3.754  70.101  1.00  0.00    -0.128 OA 
BRANCH  27  28
HETATM   28  C   UNL     1      -8.933   3.283  69.347  1.00  0.00    -0.114 C  
HETATM   29  C   UNL     1      -9.274   1.975  68.684  1.00  0.00    -0.223 C  
HETATM   30  O   UNL     1      -7.851   3.835  69.225  1.00  0.00    -0.052 OA 
ENDBRANCH  27  28
ENDBRANCH  26  27
ENDBRANCH  24  26
ENDBRANCH   4  24
TORSDOF 4
ENDMDL
MODEL       62
REMARK 921   NORMALIZED FREE ENERGY PREDICTED BY IDOCK:   -4.69 KCAL/MOL
REMARK 922        TOTAL FREE ENERGY PREDICTED BY IDOCK:   -5.57 KCAL/MOL
REMARK 923 INTER-LIGAND FREE ENERGY PREDICTED BY IDOCK:   -6.09 KCAL/MOL
REMARK 924 INTRA-LIGAND FREE ENERGY PREDICTED BY IDOCK:    0.52 KCAL/MOL
REMARK 927      BINDING AFFINITY PREDICTED BY RF-SCORE:    0.00 PKD
ROOT
HETATM    1  C   UNL     1     -11.849  11.198  68.732  1.00  0.00    -0.388 C  
HETATM    2  C   UNL     1     -12.118  11.918  69.917  1.00  0.00    -0.344 C  
HETATM    3  C   UNL     1     -10.794  12.238  69.305  1.00  0.00    -0.082 C  
HETATM    4  C   UNL     1     -10.408  11.540  67.399  1.00  0.00    -0.207 C  
HETATM    5  O   UNL     1      -6.274   6.544  72.332  1.00  0.00    -0.045 OA 
HETATM    6  O   UNL     1     -11.423  10.759  66.661  1.00  0.00    -0.169 OA 
HETATM    7  C   UNL     1     -10.992  12.689  67.845  1.00  0.00    -0.262 C  
HETATM    8  C   UNL     1     -11.945  13.692  67.233  1.00  0.00    -0.420 C  
HETATM    9  C   UNL     1      -9.137  12.976  68.282  1.00  0.00    -0.179 C  
HETATM   10  C   UNL     1      -7.012   7.478  72.045  1.00  0.00    -0.063 C  
HETATM   11  C   UNL     1      -8.443   7.261  71.779  1.00  0.00    -0.116 C  
HETATM   12  H   UNL     1     -11.245  10.437  65.786  1.00  0.00     0.000 HD 
HETATM   13  C   UNL     1      -8.365  11.459  68.660  1.00  0.00    -0.136 C  
HETATM   14  C   UNL     1      -6.581   8.908  72.003  1.00  0.00    -0.014 C  
HETATM   15  O   UNL     1      -7.230  11.265  68.220  1.00  0.00    -0.073 OA 
HETATM   16  C   UNL     1      -7.842   8.220  68.677  1.00  0.00    -0.120 C  
HETATM   17  C   UNL     1      -9.146  10.269  69.580  1.00  0.00    -0.149 C  
HETATM   18  C   UNL     1     -10.689   9.855  69.140  1.00  0.00    -0.247 C  
HETATM   19  C   UNL     1      -8.246   9.011  69.938  1.00  0.00    -0.124 C  
HETATM   20  C   UNL     1      -6.932   9.526  70.653  1.00  0.00    -0.121 C  
HETATM   21  C   UNL     1     -11.304   8.965  70.232  1.00  0.00    -0.179 C  
HETATM   22  C   UNL     1     -10.475   7.715  70.486  1.00  0.00    -0.221 C  
HETATM   23  C   UNL     1      -9.029   8.001  70.819  1.00  0.00    -0.148 C  
ENDROOT
BRANCH   4  24
HETATM   24  C   UNL     1      -9.892  12.267  65.906  1.00  0.00    -0.251 C  
HETATM   25  O   UNL     1      -9.343  13.367  65.787  1.00  0.00    -0.025 OA 
BRANCH  24  26
HETATM   26  C   UNL     1     -10.134  11.508  64.573  1.00  0.00    -0.278 C  
BRANCH  26  27
HETATM   27  O   UNL     1     -10.504  12.438  63.520  1.00  0.00    -0.435 OA 
BRANCH  27  28
HETATM   28  C   UNL     1     -11.804  12.859  63.560  1.00  0.00    -0.536 C  
HETATM   29  C   UNL     1     -12.763  11.732  63.287  1.00  0.00    -0.314 C  
HETATM   30  O   UNL     1     -12.160  14.007  63.777  1.00  0.00    -0.447 OA 
ENDBRANCH  27  28
ENDBRANCH  26  27
ENDBRANCH  24  26
ENDBRANCH   4  24
TORSDOF 4
ENDMDL
MODEL       63
REMARK 921   NORMALIZED FREE ENERGY PREDICTED BY IDOCK:   -4.66 KCAL/MOL
REMARK 922        TOTAL FREE ENERGY PREDICTED BY IDOCK:   -5.53 KCAL/MOL
REMARK 923 INTER-LIGAND FREE ENERGY PREDICTED BY IDOCK:   -5.90 KCAL/MOL
REMARK 924 INTRA-LIGAND FREE ENERGY PREDICTED BY IDOCK:    0.36 KCAL/MOL
REMARK 927      BINDING AFFINITY PREDICTED BY RF-SCORE:    0.00 PKD
ROOT
HETATM    1  C   UNL     1      -6.369   9.434  66.700  1.00  0.00    -0.066 C  
HETATM    2  C   UNL     1      -5.559   8.281  66.801  1.00  0.00    -0.033 C  
HETATM    3  C   UNL     1      -6.954   7.999  66.345  1.00  0.00    -0.070 C  
HETATM    4  C   UNL     1      -8.145   9.601  65.812  1.00  0.00    -0.113 C  
HETATM    5  O   UNL     1     -10.744   7.439  73.225  1.00  0.00    -0.357 OA 
HETATM    6  O   UNL     1      -7.623  10.982  65.867  1.00  0.00    -0.301 OA 
HETATM    7  C   UNL     1      -7.270   8.840  65.093  1.00  0.00    -0.087 C  
HETATM    8  C   UNL     1      -6.490   9.056  63.815  1.00  0.00    -0.088 C  
HETATM    9  C   UNL     1      -8.747   7.629  65.354  1.00  0.00    -0.029 C  
HETATM   10  C   UNL     1     -10.045   7.381  72.222  1.00  0.00    -0.196 C  
HETATM   11  C   UNL     1      -8.877   8.263  72.060  1.00  0.00    -0.256 C  
HETATM   12  H   UNL     1      -8.171  11.718  65.623  1.00  0.00     0.000 HD 
HETATM   13  C   UNL     1      -9.529   7.953  66.879  1.00  0.00    -0.191 C  
HETATM   14  C   UNL     1     -10.240   6.398  71.115  1.00  0.00    -0.224 C  
HETATM   15  O   UNL     1     -10.761   7.928  66.911  1.00  0.00    -0.333 OA 
HETATM   16  C   UNL     1     -10.481   9.644  69.524  1.00  0.00    -0.240 C  
HETATM   17  C   UNL     1      -8.640   8.316  68.276  1.00  0.00    -0.133 C  
HETATM   18  C   UNL     1      -7.467   9.479  68.151  1.00  0.00    -0.079 C  
HETATM   19  C   UNL     1      -9.507   8.450  69.598  1.00  0.00    -0.166 C  
HETATM   20  C   UNL     1     -10.351   7.122  69.777  1.00  0.00    -0.224 C  
HETATM   21  C   UNL     1      -6.617   9.479  69.432  1.00  0.00    -0.044 C  
HETATM   22  C   UNL     1      -7.460   9.709  70.679  1.00  0.00    -0.106 C  
HETATM   23  C   UNL     1      -8.604   8.734  70.828  1.00  0.00    -0.218 C  
ENDROOT
BRANCH   4  24
HETATM   24  C   UNL     1      -9.084  10.019  64.408  1.00  0.00    -0.247 C  
HETATM   25  O   UNL     1      -8.802   9.740  63.239  1.00  0.00    -0.213 OA 
BRANCH  24  26
HETATM   26  C   UNL     1     -10.397  10.827  64.592  1.00  0.00    -0.324 C  
BRANCH  26  27
HETATM   27  O   UNL     1     -10.574  11.198  65.985  1.00  0.00    -0.256 OA 
BRANCH  27  28
HETATM   28  C   UNL     1     -11.475  12.203  66.198  1.00  0.00    -0.371 C  
HETATM   29  C   UNL     1     -11.032  13.124  67.302  1.00  0.00    -0.288 C  
HETATM   30  O   UNL     1     -12.521  12.344  65.585  1.00  0.00    -0.640 OA 
ENDBRANCH  27  28
ENDBRANCH  26  27
ENDBRANCH  24  26
ENDBRANCH   4  24
TORSDOF 4
ENDMDL
MODEL       64
REMARK 921   NORMALIZED FREE ENERGY PREDICTED BY IDOCK:   -4.66 KCAL/MOL
REMARK 922        TOTAL FREE ENERGY PREDICTED BY IDOCK:   -5.53 KCAL/MOL
REMARK 923 INTER-LIGAND FREE ENERGY PREDICTED BY IDOCK:   -7.46 KCAL/MOL
REMARK 924 INTRA-LIGAND FREE ENERGY PREDICTED BY IDOCK:    1.93 KCAL/MOL
REMARK 927      BINDING AFFINITY PREDICTED BY RF-SCORE:    0.00 PKD
ROOT
HETATM    1  C   UNL     1      -7.688  13.463  67.457  1.00  0.00    -0.182 C  
HETATM    2  C   UNL     1      -6.920  13.609  68.635  1.00  0.00    -0.103 C  
HETATM    3  C   UNL     1      -8.394  13.718  68.858  1.00  0.00     0.111 C  
HETATM    4  C   UNL     1      -9.656  13.180  67.313  1.00  0.00    -0.233 C  
HETATM    5  O   UNL     1      -9.642  21.327  67.259  1.00  0.00    -0.240 OA 
HETATM    6  O   UNL     1      -9.111  12.688  66.030  1.00  0.00    -0.429 OA 
HETATM    7  C   UNL     1      -9.094  12.454  68.323  1.00  0.00    -0.183 C  
HETATM    8  C   UNL     1      -8.789  10.986  68.521  1.00  0.00    -0.159 C  
HETATM    9  C   UNL     1     -10.426  13.493  69.254  1.00  0.00     0.108 C  
HETATM   10  C   UNL     1      -9.325  20.208  67.643  1.00  0.00    -0.365 C  
HETATM   11  C   UNL     1      -8.260  19.448  66.968  1.00  0.00    -0.297 C  
HETATM   12  H   UNL     1      -9.691  12.441  65.320  1.00  0.00     0.000 HD 
HETATM   13  C   UNL     1     -10.636  15.038  68.475  1.00  0.00    -0.235 C  
HETATM   14  C   UNL     1      -9.908  19.534  68.840  1.00  0.00    -0.522 C  
HETATM   15  O   UNL     1     -11.785  15.469  68.350  1.00  0.00    -0.365 OA 
HETATM   16  C   UNL     1     -10.593  17.285  66.084  1.00  0.00    -0.204 C  
HETATM   17  C   UNL     1      -9.318  15.923  67.882  1.00  0.00    -0.207 C  
HETATM   18  C   UNL     1      -8.228  15.119  66.928  1.00  0.00    -0.234 C  
HETATM   19  C   UNL     1      -9.682  17.365  67.326  1.00  0.00    -0.267 C  
HETATM   20  C   UNL     1     -10.448  18.157  68.462  1.00  0.00    -0.267 C  
HETATM   21  C   UNL     1      -6.995  16.010  66.708  1.00  0.00    -0.030 C  
HETATM   22  C   UNL     1      -7.359  17.348  66.081  1.00  0.00    -0.331 C  
HETATM   23  C   UNL     1      -8.409  18.115  66.852  1.00  0.00    -0.258 C  
ENDROOT
BRANCH   4  24
HETATM   24  C   UNL     1     -11.003  12.092  67.150  1.00  0.00    -0.268 C  
HETATM   25  O   UNL     1     -12.024  12.297  66.486  1.00  0.00    -0.596 OA 
BRANCH  24  26
HETATM   26  C   UNL     1     -10.971  10.733  67.900  1.00  0.00    -0.289 C  
BRANCH  26  27
HETATM   27  O   UNL     1     -12.135  10.600  68.760  1.00  0.00    -0.389 OA 
BRANCH  27  28
HETATM   28  C   UNL     1     -11.849  10.443  70.087  1.00  0.00    -0.297 C  
HETATM   29  C   UNL     1     -12.784  11.239  70.957  1.00  0.00    -0.457 C  
HETATM   30  O   UNL     1     -10.943   9.754  70.529  1.00  0.00    -0.271 OA 
ENDBRANCH  27  28
ENDBRANCH  26  27
ENDBRANCH  24  26
ENDBRANCH   4  24
TORSDOF 4
ENDMDL
MODEL       65
REMARK 921   NORMALIZED FREE ENERGY PREDICTED BY IDOCK:   -4.65 KCAL/MOL
REMARK 922        TOTAL FREE ENERGY PREDICTED BY IDOCK:   -5.52 KCAL/MOL
REMARK 923 INTER-LIGAND FREE ENERGY PREDICTED BY IDOCK:   -7.01 KCAL/MOL
REMARK 924 INTRA-LIGAND FREE ENERGY PREDICTED BY IDOCK:    1.50 KCAL/MOL
REMARK 927      BINDING AFFINITY PREDICTED BY RF-SCORE:    0.00 PKD
ROOT
HETATM    1  C   UNL     1     -10.246  10.001  65.649  1.00  0.00    -0.258 C  
HETATM    2  C   UNL     1      -9.249   9.990  64.647  1.00  0.00    -0.310 C  
HETATM    3  C   UNL     1      -8.763  10.471  65.976  1.00  0.00    -0.174 C  
HETATM    4  C   UNL     1      -9.996  10.213  67.614  1.00  0.00    -0.181 C  
HETATM    5  O   UNL     1     -10.720  18.093  65.673  1.00  0.00    -0.538 OA 
HETATM    6  O   UNL     1     -11.313   9.558  67.472  1.00  0.00    -0.365 OA 
HETATM    7  C   UNL     1      -9.052   9.405  67.050  1.00  0.00    -0.155 C  
HETATM    8  C   UNL     1      -8.796   7.914  67.070  1.00  0.00    -0.140 C  
HETATM    9  C   UNL     1      -7.978  10.773  67.881  1.00  0.00    -0.110 C  
HETATM   10  C   UNL     1     -10.311  16.944  65.561  1.00  0.00    -0.177 C  
HETATM   11  C   UNL     1     -11.108  15.920  64.866  1.00  0.00    -0.400 C  
HETATM   12  H   UNL     1     -11.880   9.440  68.225  1.00  0.00     0.000 HD 
HETATM   13  C   UNL     1      -8.827  12.295  67.870  1.00  0.00    -0.178 C  
HETATM   14  C   UNL     1      -8.974  16.476  66.035  1.00  0.00    -0.276 C  
HETATM   15  O   UNL     1      -8.770  12.994  68.884  1.00  0.00     0.101 OA 
HETATM   16  C   UNL     1     -11.360  14.379  67.775  1.00  0.00    -0.331 C  
HETATM   17  C   UNL     1      -9.727  12.803  66.526  1.00  0.00    -0.255 C  
HETATM   18  C   UNL     1     -10.799  11.721  65.873  1.00  0.00    -0.339 C  
HETATM   19  C   UNL     1     -10.321  14.270  66.641  1.00  0.00    -0.279 C  
HETATM   20  C   UNL     1      -9.131  15.267  66.951  1.00  0.00    -0.263 C  
HETATM   21  C   UNL     1     -11.317  12.268  64.534  1.00  0.00    -0.385 C  
HETATM   22  C   UNL     1     -11.972  13.633  64.688  1.00  0.00    -0.441 C  
HETATM   23  C   UNL     1     -11.085  14.663  65.348  1.00  0.00    -0.349 C  
ENDROOT
BRANCH   4  24
HETATM   24  C   UNL     1      -9.814   9.492  69.186  1.00  0.00    -0.176 C  
HETATM   25  O   UNL     1     -10.665   8.822  69.779  1.00  0.00    -0.228 OA 
BRANCH  24  26
HETATM   26  C   UNL     1      -8.482   9.691  69.959  1.00  0.00    -0.204 C  
BRANCH  26  27
HETATM   27  O   UNL     1      -7.854   8.408  70.225  1.00  0.00    -0.089 OA 
BRANCH  27  28
HETATM   28  C   UNL     1      -7.570   8.173  71.540  1.00  0.00    -0.083 C  
HETATM   29  C   UNL     1      -6.695   6.961  71.715  1.00  0.00    -0.053 C  
HETATM   30  O   UNL     1      -7.978   8.847  72.474  1.00  0.00    -0.374 OA 
ENDBRANCH  27  28
ENDBRANCH  26  27
ENDBRANCH  24  26
ENDBRANCH   4  24
TORSDOF 4
ENDMDL
MODEL       66
REMARK 921   NORMALIZED FREE ENERGY PREDICTED BY IDOCK:   -4.60 KCAL/MOL
REMARK 922        TOTAL FREE ENERGY PREDICTED BY IDOCK:   -5.45 KCAL/MOL
REMARK 923 INTER-LIGAND FREE ENERGY PREDICTED BY IDOCK:   -5.83 KCAL/MOL
REMARK 924 INTRA-LIGAND FREE ENERGY PREDICTED BY IDOCK:    0.37 KCAL/MOL
REMARK 927      BINDING AFFINITY PREDICTED BY RF-SCORE:    0.00 PKD
ROOT
HETATM    1  C   UNL     1      -9.996  10.311  67.526  1.00  0.00    -0.226 C  
HETATM    2  C   UNL     1      -9.427  11.456  68.128  1.00  0.00    -0.181 C  
HETATM    3  C   UNL     1      -8.486  10.301  68.021  1.00  0.00    -0.118 C  
HETATM    4  C   UNL     1      -9.050   8.689  66.857  1.00  0.00    -0.144 C  
HETATM    5  O   UNL     1     -10.269   6.251  74.535  1.00  0.00    -0.330 OA 
HETATM    6  O   UNL     1     -10.342   8.691  66.141  1.00  0.00    -0.382 OA 
HETATM    7  C   UNL     1      -8.389   9.844  66.553  1.00  0.00    -0.125 C  
HETATM    8  C   UNL     1      -8.172  10.627  65.278  1.00  0.00    -0.105 C  
HETATM    9  C   UNL     1      -7.061   8.859  67.545  1.00  0.00    -0.076 C  
HETATM   10  C   UNL     1      -9.951   7.026  73.643  1.00  0.00    -0.310 C  
HETATM   11  C   UNL     1     -10.965   7.826  72.936  1.00  0.00    -0.467 C  
HETATM   12  H   UNL     1     -10.602   7.951  65.607  1.00  0.00     0.000 HD 
HETATM   13  C   UNL     1      -7.827   7.861  68.751  1.00  0.00    -0.118 C  
HETATM   14  C   UNL     1      -8.543   7.300  73.228  1.00  0.00    -0.168 C  
HETATM   15  O   UNL     1      -7.394   6.717  68.912  1.00  0.00    -0.088 OA 
HETATM   16  C   UNL     1     -10.182   6.114  70.223  1.00  0.00    -0.254 C  
HETATM   17  C   UNL     1      -9.140   8.419  69.666  1.00  0.00    -0.153 C  
HETATM   18  C   UNL     1     -10.396   9.122  68.845  1.00  0.00    -0.232 C  
HETATM   19  C   UNL     1      -9.624   7.427  70.806  1.00  0.00    -0.170 C  
HETATM   20  C   UNL     1      -8.383   7.083  71.726  1.00  0.00    -0.110 C  
HETATM   21  C   UNL     1     -11.352   9.782  69.851  1.00  0.00    -0.238 C  
HETATM   22  C   UNL     1     -11.881   8.788  70.876  1.00  0.00    -0.267 C  
HETATM   23  C   UNL     1     -10.795   8.044  71.618  1.00  0.00    -0.288 C  
ENDROOT
BRANCH   4  24
HETATM   24  C   UNL     1      -8.328   7.814  65.539  1.00  0.00    -0.146 C  
HETATM   25  O   UNL     1      -7.697   8.309  64.601  1.00  0.00    -0.102 OA 
BRANCH  24  26
HETATM   26  C   UNL     1      -8.474   6.270  65.488  1.00  0.00    -0.144 C  
BRANCH  26  27
HETATM   27  O   UNL     1      -9.489   5.825  66.428  1.00  0.00    -0.152 OA 
BRANCH  27  28
HETATM   28  C   UNL     1     -10.050   4.615  66.131  1.00  0.00    -0.266 C  
HETATM   29  C   UNL     1      -9.510   3.519  67.010  1.00  0.00    -0.207 C  
HETATM   30  O   UNL     1     -10.880   4.426  65.255  1.00  0.00    -0.260 OA 
ENDBRANCH  27  28
ENDBRANCH  26  27
ENDBRANCH  24  26
ENDBRANCH   4  24
TORSDOF 4
ENDMDL
MODEL       67
REMARK 921   NORMALIZED FREE ENERGY PREDICTED BY IDOCK:   -4.58 KCAL/MOL
REMARK 922        TOTAL FREE ENERGY PREDICTED BY IDOCK:   -5.44 KCAL/MOL
REMARK 923 INTER-LIGAND FREE ENERGY PREDICTED BY IDOCK:   -5.94 KCAL/MOL
REMARK 924 INTRA-LIGAND FREE ENERGY PREDICTED BY IDOCK:    0.50 KCAL/MOL
REMARK 927      BINDING AFFINITY PREDICTED BY RF-SCORE:    0.00 PKD
ROOT
HETATM    1  C   UNL     1     -11.274   9.165  69.959  1.00  0.00    -0.168 C  
HETATM    2  C   UNL     1     -11.281   9.789  71.227  1.00  0.00    -0.417 C  
HETATM    3  C   UNL     1      -9.953   9.829  70.543  1.00  0.00    -0.258 C  
HETATM    4  C   UNL     1      -9.866   9.279  68.553  1.00  0.00    -0.158 C  
HETATM    5  O   UNL     1      -6.935   2.859  72.624  1.00  0.00    -0.029 OA 
HETATM    6  O   UNL     1     -11.088   8.874  67.828  1.00  0.00    -0.493 OA 
HETATM    7  C   UNL     1     -10.103  10.480  69.156  1.00  0.00    -0.240 C  
HETATM    8  C   UNL     1     -10.790  11.757  68.723  1.00  0.00    -0.268 C  
HETATM    9  C   UNL     1      -8.217  10.231  69.466  1.00  0.00    -0.165 C  
HETATM   10  C   UNL     1      -7.415   3.977  72.491  1.00  0.00    -0.068 C  
HETATM   11  C   UNL     1      -8.865   4.164  72.321  1.00  0.00    -0.124 C  
HETATM   12  H   UNL     1     -11.047   8.621  66.914  1.00  0.00     0.000 HD 
HETATM   13  C   UNL     1      -7.853   8.535  69.630  1.00  0.00    -0.095 C  
HETATM   14  C   UNL     1      -6.627   5.244  72.553  1.00  0.00    -0.064 C  
HETATM   15  O   UNL     1      -6.832   8.109  69.084  1.00  0.00    -0.053 OA 
HETATM   16  C   UNL     1      -8.198   5.290  69.289  1.00  0.00    -0.092 C  
HETATM   17  C   UNL     1      -8.869   7.485  70.491  1.00  0.00    -0.147 C  
HETATM   18  C   UNL     1     -10.487   7.533  70.139  1.00  0.00    -0.226 C  
HETATM   19  C   UNL     1      -8.313   6.007  70.650  1.00  0.00    -0.125 C  
HETATM   20  C   UNL     1      -6.874   6.083  71.303  1.00  0.00    -0.067 C  
HETATM   21  C   UNL     1     -11.256   6.710  71.185  1.00  0.00    -0.340 C  
HETATM   22  C   UNL     1     -10.772   5.269  71.248  1.00  0.00    -0.198 C  
HETATM   23  C   UNL     1      -9.286   5.136  71.489  1.00  0.00    -0.187 C  
ENDROOT
BRANCH   4  24
HETATM   24  C   UNL     1      -9.257  10.018  67.102  1.00  0.00    -0.141 C  
HETATM   25  O   UNL     1      -8.365  10.870  67.041  1.00  0.00    -0.126 OA 
BRANCH  24  26
HETATM   26  C   UNL     1      -9.868   9.611  65.734  1.00  0.00    -0.302 C  
BRANCH  26  27
HETATM   27  O   UNL     1     -10.730  10.665  65.229  1.00  0.00    -0.179 OA 
BRANCH  27  28
HETATM   28  C   UNL     1     -10.500  11.018  63.929  1.00  0.00    -0.354 C  
HETATM   29  C   UNL     1     -11.326  12.207  63.519  1.00  0.00    -0.535 C  
HETATM   30  O   UNL     1      -9.731  10.442  63.175  1.00  0.00    -0.319 OA 
ENDBRANCH  27  28
ENDBRANCH  26  27
ENDBRANCH  24  26
ENDBRANCH   4  24
TORSDOF 4
ENDMDL
MODEL       68
REMARK 921   NORMALIZED FREE ENERGY PREDICTED BY IDOCK:   -4.55 KCAL/MOL
REMARK 922        TOTAL FREE ENERGY PREDICTED BY IDOCK:   -5.40 KCAL/MOL
REMARK 923 INTER-LIGAND FREE ENERGY PREDICTED BY IDOCK:   -5.71 KCAL/MOL
REMARK 924 INTRA-LIGAND FREE ENERGY PREDICTED BY IDOCK:    0.31 KCAL/MOL
REMARK 927      BINDING AFFINITY PREDICTED BY RF-SCORE:    0.00 PKD
ROOT
HETATM    1  C   UNL     1      -7.032   8.897  69.560  1.00  0.00    -0.051 C  
HETATM    2  C   UNL     1      -6.413   9.854  70.396  1.00  0.00    -0.115 C  
HETATM    3  C   UNL     1      -7.801   9.495  70.815  1.00  0.00    -0.093 C  
HETATM    4  C   UNL     1      -8.700   7.866  69.916  1.00  0.00    -0.140 C  
HETATM    5  O   UNL     1     -12.078  14.359  66.336  1.00  0.00    -0.414 OA 
HETATM    6  O   UNL     1      -7.980   7.074  68.898  1.00  0.00    -0.116 OA 
HETATM    7  C   UNL     1      -7.904   7.971  71.019  1.00  0.00    -0.090 C  
HETATM    8  C   UNL     1      -7.018   7.005  71.774  1.00  0.00    -0.068 C  
HETATM    9  C   UNL     1      -9.561   8.740  71.634  1.00  0.00    -0.363 C  
HETATM   10  C   UNL     1     -11.331  13.763  67.102  1.00  0.00    -0.324 C  
HETATM   11  C   UNL     1     -10.035  13.237  66.641  1.00  0.00    -0.272 C  
HETATM   12  H   UNL     1      -8.393   6.326  68.484  1.00  0.00     0.000 HD 
HETATM   13  C   UNL     1     -10.383   9.531  70.316  1.00  0.00    -0.269 C  
HETATM   14  C   UNL     1     -11.599  13.569  68.558  1.00  0.00    -0.368 C  
HETATM   15  O   UNL     1     -11.605   9.387  70.230  1.00  0.00    -0.233 OA 
HETATM   16  C   UNL     1     -11.242  10.219  67.225  1.00  0.00    -0.090 C  
HETATM   17  C   UNL     1      -9.544  10.453  69.168  1.00  0.00    -0.226 C  
HETATM   18  C   UNL     1      -8.203   9.770  68.475  1.00  0.00    -0.106 C  
HETATM   19  C   UNL     1     -10.467  11.208  68.120  1.00  0.00    -0.215 C  
HETATM   20  C   UNL     1     -11.511  12.089  68.919  1.00  0.00    -0.356 C  
HETATM   21  C   UNL     1      -7.450  10.840  67.669  1.00  0.00    -0.095 C  
HETATM   22  C   UNL     1      -8.328  11.479  66.603  1.00  0.00    -0.167 C  
HETATM   23  C   UNL     1      -9.614  12.061  67.143  1.00  0.00    -0.195 C  
ENDROOT
BRANCH   4  24
HETATM   24  C   UNL     1      -9.470   6.416  70.491  1.00  0.00    -0.162 C  
HETATM   25  O   UNL     1     -10.125   6.307  71.531  1.00  0.00    -0.187 OA 
BRANCH  24  26
HETATM   26  C   UNL     1      -9.339   5.112  69.659  1.00  0.00    -0.129 C  
BRANCH  26  27
HETATM   27  O   UNL     1     -10.439   4.999  68.716  1.00  0.00    -0.111 OA 
BRANCH  27  28
HETATM   28  C   UNL     1     -10.169   5.474  67.464  1.00  0.00    -0.199 C  
HETATM   29  C   UNL     1     -11.065   6.627  67.099  1.00  0.00    -0.427 C  
HETATM   30  O   UNL     1      -9.317   5.022  66.715  1.00  0.00    -0.125 OA 
ENDBRANCH  27  28
ENDBRANCH  26  27
ENDBRANCH  24  26
ENDBRANCH   4  24
TORSDOF 4
ENDMDL
MODEL       69
REMARK 921   NORMALIZED FREE ENERGY PREDICTED BY IDOCK:   -4.54 KCAL/MOL
REMARK 922        TOTAL FREE ENERGY PREDICTED BY IDOCK:   -5.38 KCAL/MOL
REMARK 923 INTER-LIGAND FREE ENERGY PREDICTED BY IDOCK:   -6.70 KCAL/MOL
REMARK 924 INTRA-LIGAND FREE ENERGY PREDICTED BY IDOCK:    1.33 KCAL/MOL
REMARK 927      BINDING AFFINITY PREDICTED BY RF-SCORE:    0.00 PKD
ROOT
HETATM    1  C   UNL     1      -7.373  12.416  67.305  1.00  0.00    -0.127 C  
HETATM    2  C   UNL     1      -6.576  12.536  68.466  1.00  0.00    -0.077 C  
HETATM    3  C   UNL     1      -7.629  11.480  68.563  1.00  0.00    -0.130 C  
HETATM    4  C   UNL     1      -8.634  10.945  66.839  1.00  0.00    -0.136 C  
HETATM    5  O   UNL     1     -13.846  15.710  70.903  1.00  0.00    -0.516 OA 
HETATM    6  O   UNL     1      -8.307  11.581  65.546  1.00  0.00    -0.374 OA 
HETATM    7  C   UNL     1      -7.477  10.486  67.397  1.00  0.00    -0.094 C  
HETATM    8  C   UNL     1      -6.263   9.762  66.857  1.00  0.00    -0.064 C  
HETATM    9  C   UNL     1      -8.816   9.770  68.584  1.00  0.00    -0.126 C  
HETATM   10  C   UNL     1     -12.794  15.117  70.700  1.00  0.00    -0.388 C  
HETATM   11  C   UNL     1     -11.747  15.702  69.847  1.00  0.00    -0.372 C  
HETATM   12  H   UNL     1      -8.769  11.336  64.754  1.00  0.00     0.000 HD 
HETATM   13  C   UNL     1     -10.181  10.850  68.674  1.00  0.00    -0.189 C  
HETATM   14  C   UNL     1     -12.429  13.813  71.328  1.00  0.00    -0.428 C  
HETATM   15  O   UNL     1     -11.310  10.355  68.668  1.00  0.00    -0.256 OA 
HETATM   16  C   UNL     1     -12.283  13.198  67.761  1.00  0.00    -0.124 C  
HETATM   17  C   UNL     1      -9.981  12.532  68.746  1.00  0.00    -0.028 C  
HETATM   18  C   UNL     1      -8.970  13.227  67.632  1.00  0.00    -0.199 C  
HETATM   19  C   UNL     1     -11.324  13.352  68.959  1.00  0.00    -0.335 C  
HETATM   20  C   UNL     1     -12.044  12.799  70.256  1.00  0.00    -0.373 C  
HETATM   21  C   UNL     1      -8.725  14.695  68.018  1.00  0.00    -0.167 C  
HETATM   22  C   UNL     1     -10.023  15.484  68.118  1.00  0.00    -0.217 C  
HETATM   23  C   UNL     1     -11.035  14.873  69.059  1.00  0.00    -0.251 C  
ENDROOT
BRANCH   4  24
HETATM   24  C   UNL     1      -8.946   9.446  66.015  1.00  0.00    -0.168 C  
HETATM   25  O   UNL     1      -8.939   9.276  64.792  1.00  0.00    -0.205 OA 
BRANCH  24  26
HETATM   26  C   UNL     1      -9.279   8.180  66.851  1.00  0.00    -0.160 C  
BRANCH  26  27
HETATM   27  O   UNL     1     -10.650   7.762  66.614  1.00  0.00    -0.276 OA 
BRANCH  27  28
HETATM   28  C   UNL     1     -10.925   6.475  66.980  1.00  0.00    -0.396 C  
HETATM   29  C   UNL     1     -11.042   6.333  68.474  1.00  0.00    -0.397 C  
HETATM   30  O   UNL     1     -11.052   5.540  66.205  1.00  0.00    -0.129 OA 
ENDBRANCH  27  28
ENDBRANCH  26  27
ENDBRANCH  24  26
ENDBRANCH   4  24
TORSDOF 4
ENDMDL
MODEL       70
REMARK 921   NORMALIZED FREE ENERGY PREDICTED BY IDOCK:   -4.49 KCAL/MOL
REMARK 922        TOTAL FREE ENERGY PREDICTED BY IDOCK:   -5.33 KCAL/MOL
REMARK 923 INTER-LIGAND FREE ENERGY PREDICTED BY IDOCK:   -6.09 KCAL/MOL
REMARK 924 INTRA-LIGAND FREE ENERGY PREDICTED BY IDOCK:    0.77 KCAL/MOL
REMARK 927      BINDING AFFINITY PREDICTED BY RF-SCORE:    0.00 PKD
ROOT
HETATM    1  C   UNL     1     -11.663   7.873  71.359  1.00  0.00    -0.311 C  
HETATM    2  C   UNL     1     -11.742   8.530  72.608  1.00  0.00    -0.301 C  
HETATM    3  C   UNL     1     -10.401   8.631  71.956  1.00  0.00    -0.416 C  
HETATM    4  C   UNL     1     -10.228   8.033  69.986  1.00  0.00    -0.205 C  
HETATM    5  O   UNL     1      -7.027   1.918  74.314  1.00  0.00    -0.022 OA 
HETATM    6  O   UNL     1     -11.403   7.535  69.242  1.00  0.00    -0.441 OA 
HETATM    7  C   UNL     1     -10.553   9.234  70.547  1.00  0.00    -0.309 C  
HETATM    8  C   UNL     1     -11.303  10.454  70.060  1.00  0.00    -0.384 C  
HETATM    9  C   UNL     1      -8.664   9.109  70.911  1.00  0.00    -0.277 C  
HETATM   10  C   UNL     1      -7.570   3.001  74.136  1.00  0.00    -0.056 C  
HETATM   11  C   UNL     1      -9.024   3.095  73.925  1.00  0.00    -0.081 C  
HETATM   12  H   UNL     1     -11.324   7.260  68.337  1.00  0.00     0.000 HD 
HETATM   13  C   UNL     1      -8.203   7.442  71.134  1.00  0.00    -0.106 C  
HETATM   14  C   UNL     1      -6.861   4.314  74.181  1.00  0.00    -0.060 C  
HETATM   15  O   UNL     1      -7.145   7.064  70.626  1.00  0.00    -0.064 OA 
HETATM   16  C   UNL     1      -8.344   4.174  70.879  1.00  0.00    -0.092 C  
HETATM   17  C   UNL     1      -9.177   6.357  71.999  1.00  0.00    -0.148 C  
HETATM   18  C   UNL     1     -10.786   6.298  71.606  1.00  0.00    -0.284 C  
HETATM   19  C   UNL     1      -8.539   4.920  72.215  1.00  0.00    -0.124 C  
HETATM   20  C   UNL     1      -7.124   5.102  72.901  1.00  0.00    -0.087 C  
HETATM   21  C   UNL     1     -11.531   5.459  72.656  1.00  0.00    -0.305 C  
HETATM   22  C   UNL     1     -10.964   4.051  72.773  1.00  0.00    -0.077 C  
HETATM   23  C   UNL     1      -9.480   4.016  73.055  1.00  0.00    -0.145 C  
ENDROOT
BRANCH   4  24
HETATM   24  C   UNL     1      -9.626   8.768  68.529  1.00  0.00    -0.150 C  
HETATM   25  O   UNL     1      -8.534   9.329  68.398  1.00  0.00    -0.119 OA 
BRANCH  24  26
HETATM   26  C   UNL     1     -10.511   8.751  67.253  1.00  0.00    -0.283 C  
BRANCH  26  27
HETATM   27  O   UNL     1     -10.052   9.750  66.304  1.00  0.00    -0.244 OA 
BRANCH  27  28
HETATM   28  C   UNL     1     -10.551  11.005  66.510  1.00  0.00    -0.254 C  
HETATM   29  C   UNL     1      -9.567  12.070  66.109  1.00  0.00    -0.252 C  
HETATM   30  O   UNL     1     -11.654  11.251  66.973  1.00  0.00    -0.496 OA 
ENDBRANCH  27  28
ENDBRANCH  26  27
ENDBRANCH  24  26
ENDBRANCH   4  24
TORSDOF 4
ENDMDL
MODEL       71
REMARK 921   NORMALIZED FREE ENERGY PREDICTED BY IDOCK:   -4.47 KCAL/MOL
REMARK 922        TOTAL FREE ENERGY PREDICTED BY IDOCK:   -5.30 KCAL/MOL
REMARK 923 INTER-LIGAND FREE ENERGY PREDICTED BY IDOCK:   -5.66 KCAL/MOL
REMARK 924 INTRA-LIGAND FREE ENERGY PREDICTED BY IDOCK:    0.36 KCAL/MOL
REMARK 927      BINDING AFFINITY PREDICTED BY RF-SCORE:    0.00 PKD
ROOT
HETATM    1  C   UNL     1      -7.428  10.341  68.621  1.00  0.00    -0.086 C  
HETATM    2  C   UNL     1      -7.424  10.452  70.030  1.00  0.00    -0.088 C  
HETATM    3  C   UNL     1      -8.778  10.207  69.448  1.00  0.00    -0.186 C  
HETATM    4  C   UNL     1      -8.900   9.673  67.456  1.00  0.00    -0.125 C  
HETATM    5  O   UNL     1     -11.034  17.533  67.645  1.00  0.00    -0.294 OA 
HETATM    6  O   UNL     1      -7.678   9.524  66.638  1.00  0.00    -0.097 OA 
HETATM    7  C   UNL     1      -8.750   8.928  68.590  1.00  0.00    -0.134 C  
HETATM    8  C   UNL     1      -8.206   7.546  68.877  1.00  0.00    -0.128 C  
HETATM    9  C   UNL     1     -10.589   9.494  68.709  1.00  0.00    -0.240 C  
HETATM   10  C   UNL     1     -10.667  16.460  68.107  1.00  0.00    -0.336 C  
HETATM   11  C   UNL     1      -9.250  16.065  68.072  1.00  0.00    -0.193 C  
HETATM   12  H   UNL     1      -7.734   9.279  65.723  1.00  0.00     0.000 HD 
HETATM   13  C   UNL     1     -10.785  11.065  67.980  1.00  0.00    -0.217 C  
HETATM   14  C   UNL     1     -11.567  15.491  68.799  1.00  0.00    -0.390 C  
HETATM   15  O   UNL     1     -11.784  11.255  67.282  1.00  0.00    -0.566 OA 
HETATM   16  C   UNL     1     -10.151  13.628  66.033  1.00  0.00    -0.320 C  
HETATM   17  C   UNL     1      -9.639  12.295  68.194  1.00  0.00    -0.213 C  
HETATM   18  C   UNL     1      -8.048  11.908  67.934  1.00  0.00    -0.147 C  
HETATM   19  C   UNL     1     -10.045  13.696  67.570  1.00  0.00    -0.237 C  
HETATM   20  C   UNL     1     -11.455  14.112  68.156  1.00  0.00    -0.340 C  
HETATM   21  C   UNL     1      -7.161  13.064  68.421  1.00  0.00    -0.103 C  
HETATM   22  C   UNL     1      -7.504  14.378  67.734  1.00  0.00    -0.182 C  
HETATM   23  C   UNL     1      -8.959  14.767  67.857  1.00  0.00    -0.172 C  
ENDROOT
BRANCH   4  24
HETATM   24  C   UNL     1      -9.638   8.365  66.579  1.00  0.00    -0.236 C  
HETATM   25  O   UNL     1     -10.704   7.812  66.864  1.00  0.00    -0.345 OA 
BRANCH  24  26
HETATM   26  C   UNL     1      -8.923   7.800  65.322  1.00  0.00     0.210 C  
BRANCH  26  27
HETATM   27  O   UNL     1      -8.026   6.718  65.693  1.00  0.00    -0.102 OA 
BRANCH  27  28
HETATM   28  C   UNL     1      -8.550   5.465  65.543  1.00  0.00    -0.148 C  
HETATM   29  C   UNL     1      -8.452   4.664  66.813  1.00  0.00    -0.105 C  
HETATM   30  O   UNL     1      -9.033   5.029  64.510  1.00  0.00    -0.137 OA 
ENDBRANCH  27  28
ENDBRANCH  26  27
ENDBRANCH  24  26
ENDBRANCH   4  24
TORSDOF 4
ENDMDL
MODEL       72
REMARK 921   NORMALIZED FREE ENERGY PREDICTED BY IDOCK:   -4.47 KCAL/MOL
REMARK 922        TOTAL FREE ENERGY PREDICTED BY IDOCK:   -5.30 KCAL/MOL
REMARK 923 INTER-LIGAND FREE ENERGY PREDICTED BY IDOCK:   -5.67 KCAL/MOL
REMARK 924 INTRA-LIGAND FREE ENERGY PREDICTED BY IDOCK:    0.38 KCAL/MOL
REMARK 927      BINDING AFFINITY PREDICTED BY RF-SCORE:    0.00 PKD
ROOT
HETATM    1  C   UNL     1      -6.239  12.251  68.186  1.00  0.00    -0.058 C  
HETATM    2  C   UNL     1      -6.150  12.387  69.590  1.00  0.00    -0.135 C  
HETATM    3  C   UNL     1      -7.488  11.923  69.113  1.00  0.00     0.066 C  
HETATM    4  C   UNL     1      -7.669  11.340  67.138  1.00  0.00    -0.147 C  
HETATM    5  O   UNL     1     -10.995  18.772  67.437  1.00  0.00    -0.422 OA 
HETATM    6  O   UNL     1      -6.503  11.370  66.232  1.00  0.00    -0.319 OA 
HETATM    7  C   UNL     1      -7.322  10.649  68.263  1.00  0.00    -0.089 C  
HETATM    8  C   UNL     1      -6.548   9.374  68.517  1.00  0.00    -0.053 C  
HETATM    9  C   UNL     1      -9.213  10.921  68.516  1.00  0.00    -0.181 C  
HETATM   10  C   UNL     1     -10.431  17.778  67.877  1.00  0.00    -0.397 C  
HETATM   11  C   UNL     1      -8.975  17.608  67.739  1.00  0.00    -0.247 C  
HETATM   12  H   UNL     1      -6.586  11.102  65.325  1.00  0.00     0.000 HD 
HETATM   13  C   UNL     1      -9.707  12.429  67.794  1.00  0.00    -0.201 C  
HETATM   14  C   UNL     1     -11.114  16.692  68.641  1.00  0.00    -0.294 C  
HETATM   15  O   UNL     1     -10.771  12.448  67.171  1.00  0.00    -0.228 OA 
HETATM   16  C   UNL     1      -9.629  15.025  65.789  1.00  0.00    -0.327 C  
HETATM   17  C   UNL     1      -8.756  13.827  67.914  1.00  0.00    -0.183 C  
HETATM   18  C   UNL     1      -7.148  13.689  67.537  1.00  0.00    -0.166 C  
HETATM   19  C   UNL     1      -9.422  15.136  67.313  1.00  0.00    -0.214 C  
HETATM   20  C   UNL     1     -10.834  15.336  68.000  1.00  0.00    -0.288 C  
HETATM   21  C   UNL     1      -6.420  14.979  67.949  1.00  0.00    -0.175 C  
HETATM   22  C   UNL     1      -7.015  16.210  67.281  1.00  0.00    -0.234 C  
HETATM   23  C   UNL     1      -8.500  16.369  67.511  1.00  0.00    -0.182 C  
ENDROOT
BRANCH   4  24
HETATM   24  C   UNL     1      -8.255   9.917  66.328  1.00  0.00    -0.114 C  
HETATM   25  O   UNL     1      -9.156   9.174  66.728  1.00  0.00    -0.137 OA 
BRANCH  24  26
HETATM   26  C   UNL     1      -7.608   9.496  64.980  1.00  0.00    -0.113 C  
BRANCH  26  27
HETATM   27  O   UNL     1      -7.937  10.453  63.938  1.00  0.00    -0.147 OA 
BRANCH  27  28
HETATM   28  C   UNL     1      -8.799   9.987  62.986  1.00  0.00    -0.234 C  
HETATM   29  C   UNL     1      -8.381   8.638  62.468  1.00  0.00    -0.195 C  
HETATM   30  O   UNL     1      -9.786  10.584  62.585  1.00  0.00    -0.260 OA 
ENDBRANCH  27  28
ENDBRANCH  26  27
ENDBRANCH  24  26
ENDBRANCH   4  24
TORSDOF 4
ENDMDL
MODEL       73
REMARK 921   NORMALIZED FREE ENERGY PREDICTED BY IDOCK:   -4.42 KCAL/MOL
REMARK 922        TOTAL FREE ENERGY PREDICTED BY IDOCK:   -5.24 KCAL/MOL
REMARK 923 INTER-LIGAND FREE ENERGY PREDICTED BY IDOCK:   -5.66 KCAL/MOL
REMARK 924 INTRA-LIGAND FREE ENERGY PREDICTED BY IDOCK:    0.42 KCAL/MOL
REMARK 927      BINDING AFFINITY PREDICTED BY RF-SCORE:    0.00 PKD
ROOT
HETATM    1  C   UNL     1      -9.988   7.638  68.482  1.00  0.00    -0.190 C  
HETATM    2  C   UNL     1     -11.158   6.973  68.052  1.00  0.00    -0.112 C  
HETATM    3  C   UNL     1     -10.132   7.144  66.979  1.00  0.00    -0.308 C  
HETATM    4  C   UNL     1      -8.243   7.773  67.529  1.00  0.00    -0.124 C  
HETATM    5  O   UNL     1     -11.812  14.383  64.374  1.00  0.00    -0.425 OA 
HETATM    6  O   UNL     1      -7.916   8.032  68.947  1.00  0.00    -0.114 OA 
HETATM    7  C   UNL     1      -8.796   6.529  67.436  1.00  0.00    -0.115 C  
HETATM    8  C   UNL     1      -8.476   5.187  68.055  1.00  0.00    -0.100 C  
HETATM    9  C   UNL     1      -8.590   7.026  65.585  1.00  0.00    -0.121 C  
HETATM   10  C   UNL     1     -11.733  13.215  64.731  1.00  0.00    -0.347 C  
HETATM   11  C   UNL     1     -11.958  12.834  66.135  1.00  0.00    -0.476 C  
HETATM   12  H   UNL     1      -7.048   8.321  69.199  1.00  0.00     0.000 HD 
HETATM   13  C   UNL     1      -8.773   8.750  65.400  1.00  0.00    -0.183 C  
HETATM   14  C   UNL     1     -11.480  12.068  63.808  1.00  0.00    -0.547 C  
HETATM   15  O   UNL     1      -7.999   9.333  64.638  1.00  0.00    -0.113 OA 
HETATM   16  C   UNL     1      -8.784  11.926  66.224  1.00  0.00    -0.070 C  
HETATM   17  C   UNL     1      -9.957   9.615  66.251  1.00  0.00    -0.335 C  
HETATM   18  C   UNL     1     -10.064   9.356  67.884  1.00  0.00    -0.239 C  
HETATM   19  C   UNL     1     -10.066  11.150  65.859  1.00  0.00    -0.296 C  
HETATM   20  C   UNL     1     -10.288  11.250  64.295  1.00  0.00    -0.399 C  
HETATM   21  C   UNL     1     -11.340  10.025  68.419  1.00  0.00    -0.117 C  
HETATM   22  C   UNL     1     -11.375  11.516  68.118  1.00  0.00    -0.367 C  
HETATM   23  C   UNL     1     -11.205  11.845  66.653  1.00  0.00    -0.384 C  
ENDROOT
BRANCH   4  24
HETATM   24  C   UNL     1      -6.628   7.180  67.272  1.00  0.00    -0.059 C  
HETATM   25  O   UNL     1      -6.219   6.609  66.257  1.00  0.00    -0.035 OA 
BRANCH  24  26
HETATM   26  C   UNL     1      -5.573   7.351  68.398  1.00  0.00    -0.023 C  
BRANCH  26  27
HETATM   27  O   UNL     1      -5.221   6.060  68.963  1.00  0.00    -0.004 OA 
BRANCH  27  28
HETATM   28  C   UNL     1      -5.640   5.867  70.249  1.00  0.00    -0.013 C  
HETATM   29  C   UNL     1      -5.282   7.031  71.134  1.00  0.00    -0.027 C  
HETATM   30  O   UNL     1      -6.224   4.873  70.652  1.00  0.00    -0.018 OA 
ENDBRANCH  27  28
ENDBRANCH  26  27
ENDBRANCH  24  26
ENDBRANCH   4  24
TORSDOF 4
ENDMDL
MODEL       74
REMARK 921   NORMALIZED FREE ENERGY PREDICTED BY IDOCK:   -4.41 KCAL/MOL
REMARK 922        TOTAL FREE ENERGY PREDICTED BY IDOCK:   -5.22 KCAL/MOL
REMARK 923 INTER-LIGAND FREE ENERGY PREDICTED BY IDOCK:   -6.41 KCAL/MOL
REMARK 924 INTRA-LIGAND FREE ENERGY PREDICTED BY IDOCK:    1.19 KCAL/MOL
REMARK 927      BINDING AFFINITY PREDICTED BY RF-SCORE:    0.00 PKD
ROOT
HETATM    1  C   UNL     1      -8.075  12.354  68.374  1.00  0.00    -0.143 C  
HETATM    2  C   UNL     1      -6.804  12.312  67.759  1.00  0.00    -0.109 C  
HETATM    3  C   UNL     1      -7.890  11.688  66.943  1.00  0.00    -0.156 C  
HETATM    4  C   UNL     1      -9.846  11.983  67.539  1.00  0.00    -0.186 C  
HETATM    5  O   UNL     1      -8.060   4.397  69.915  1.00  0.00    -0.062 OA 
HETATM    6  O   UNL     1     -10.158  12.800  68.729  1.00  0.00    -0.390 OA 
HETATM    7  C   UNL     1      -9.024  12.706  66.724  1.00  0.00    -0.197 C  
HETATM    8  C   UNL     1      -8.995  14.150  66.274  1.00  0.00     0.026 C  
HETATM    9  C   UNL     1      -9.425  11.165  65.638  1.00  0.00    -0.252 C  
HETATM   10  C   UNL     1      -7.848   5.493  69.411  1.00  0.00    -0.087 C  
HETATM   11  C   UNL     1      -7.476   6.650  70.241  1.00  0.00    -0.094 C  
HETATM   12  H   UNL     1     -11.057  12.936  69.003  1.00  0.00     0.000 HD 
HETATM   13  C   UNL     1      -9.656   9.762  66.645  1.00  0.00    -0.187 C  
HETATM   14  C   UNL     1      -7.870   5.762  67.942  1.00  0.00    -0.097 C  
HETATM   15  O   UNL     1     -10.579   8.995  66.362  1.00  0.00    -0.148 OA 
HETATM   16  C   UNL     1     -10.345   8.012  69.334  1.00  0.00    -0.217 C  
HETATM   17  C   UNL     1      -8.668   9.458  67.989  1.00  0.00    -0.124 C  
HETATM   18  C   UNL     1      -8.427  10.703  69.055  1.00  0.00    -0.148 C  
HETATM   19  C   UNL     1      -8.936   8.069  68.709  1.00  0.00    -0.141 C  
HETATM   20  C   UNL     1      -8.816   6.917  67.630  1.00  0.00    -0.118 C  
HETATM   21  C   UNL     1      -7.318  10.314  70.045  1.00  0.00    -0.157 C  
HETATM   22  C   UNL     1      -7.645   9.031  70.796  1.00  0.00    -0.131 C  
HETATM   23  C   UNL     1      -7.955   7.860  69.893  1.00  0.00    -0.109 C  
ENDROOT
BRANCH   4  24
HETATM   24  C   UNL     1     -11.289  12.570  66.765  1.00  0.00    -0.334 C  
HETATM   25  O   UNL     1     -12.139  11.879  66.197  1.00  0.00    -0.519 OA 
BRANCH  24  26
HETATM   26  C   UNL     1     -11.571  14.097  66.753  1.00  0.00    -0.391 C  
BRANCH  26  27
HETATM   27  O   UNL     1     -12.637  14.408  65.816  1.00  0.00    -0.397 OA 
BRANCH  27  28
HETATM   28  C   UNL     1     -12.222  14.640  64.535  1.00  0.00    -0.456 C  
HETATM   29  C   UNL     1     -11.382  15.884  64.437  1.00  0.00    -0.276 C  
HETATM   30  O   UNL     1     -12.500  13.939  63.574  1.00  0.00    -0.810 OA 
ENDBRANCH  27  28
ENDBRANCH  26  27
ENDBRANCH  24  26
ENDBRANCH   4  24
TORSDOF 4
ENDMDL
MODEL       75
REMARK 921   NORMALIZED FREE ENERGY PREDICTED BY IDOCK:   -4.39 KCAL/MOL
REMARK 922        TOTAL FREE ENERGY PREDICTED BY IDOCK:   -5.20 KCAL/MOL
REMARK 923 INTER-LIGAND FREE ENERGY PREDICTED BY IDOCK:   -5.64 KCAL/MOL
REMARK 924 INTRA-LIGAND FREE ENERGY PREDICTED BY IDOCK:    0.44 KCAL/MOL
REMARK 927      BINDING AFFINITY PREDICTED BY RF-SCORE:    0.00 PKD
ROOT
HETATM    1  C   UNL     1      -7.516  11.175  67.723  1.00  0.00    -0.095 C  
HETATM    2  C   UNL     1      -6.726  11.181  66.551  1.00  0.00    -0.128 C  
HETATM    3  C   UNL     1      -8.090  10.604  66.356  1.00  0.00    -0.148 C  
HETATM    4  C   UNL     1      -9.477  10.846  67.868  1.00  0.00    -0.159 C  
HETATM    5  O   UNL     1      -6.942   3.136  68.574  1.00  0.00    -0.047 OA 
HETATM    6  O   UNL     1      -9.128  11.583  69.100  1.00  0.00    -0.390 OA 
HETATM    7  C   UNL     1      -9.154  11.626  66.796  1.00  0.00    -0.186 C  
HETATM    8  C   UNL     1      -9.316  13.096  66.478  1.00  0.00    -0.222 C  
HETATM    9  C   UNL     1     -10.087  10.156  65.969  1.00  0.00    -0.317 C  
HETATM   10  C   UNL     1      -6.982   4.263  68.098  1.00  0.00    -0.055 C  
HETATM   11  C   UNL     1      -6.213   5.367  68.696  1.00  0.00    -0.030 C  
HETATM   12  H   UNL     1      -9.765  11.695  69.796  1.00  0.00     0.000 HD 
HETATM   13  C   UNL     1      -9.819   8.689  66.871  1.00  0.00    -0.238 C  
HETATM   14  C   UNL     1      -7.730   4.626  66.858  1.00  0.00    -0.091 C  
HETATM   15  O   UNL     1     -10.779   7.935  67.044  1.00  0.00    -0.339 OA 
HETATM   16  C   UNL     1      -9.113   6.765  69.433  1.00  0.00    -0.144 C  
HETATM   17  C   UNL     1      -8.299   8.306  67.516  1.00  0.00    -0.130 C  
HETATM   18  C   UNL     1      -7.523   9.482  68.389  1.00  0.00    -0.077 C  
HETATM   19  C   UNL     1      -8.206   6.872  68.190  1.00  0.00    -0.119 C  
HETATM   20  C   UNL     1      -8.674   5.792  67.131  1.00  0.00    -0.108 C  
HETATM   21  C   UNL     1      -6.078   9.037  68.664  1.00  0.00    -0.045 C  
HETATM   22  C   UNL     1      -6.019   7.706  69.401  1.00  0.00    -0.030 C  
HETATM   23  C   UNL     1      -6.770   6.593  68.708  1.00  0.00    -0.057 C  
ENDROOT
BRANCH   4  24
HETATM   24  C   UNL     1     -11.097  11.472  67.960  1.00  0.00    -0.254 C  
HETATM   25  O   UNL     1     -11.668  12.134  67.088  1.00  0.00    -0.465 OA 
BRANCH  24  26
HETATM   26  C   UNL     1     -11.936  11.211  69.239  1.00  0.00    -0.351 C  
BRANCH  26  27
HETATM   27  O   UNL     1     -11.358  10.125  70.012  1.00  0.00    -0.253 OA 
BRANCH  27  28
HETATM   28  C   UNL     1     -12.030   9.822  71.162  1.00  0.00    -0.376 C  
HETATM   29  C   UNL     1     -11.580   8.507  71.742  1.00  0.00    -0.380 C  
HETATM   30  O   UNL     1     -12.900  10.515  71.666  1.00  0.00    -0.412 OA 
ENDBRANCH  27  28
ENDBRANCH  26  27
ENDBRANCH  24  26
ENDBRANCH   4  24
TORSDOF 4
ENDMDL
MODEL       76
REMARK 921   NORMALIZED FREE ENERGY PREDICTED BY IDOCK:   -4.39 KCAL/MOL
REMARK 922        TOTAL FREE ENERGY PREDICTED BY IDOCK:   -5.19 KCAL/MOL
REMARK 923 INTER-LIGAND FREE ENERGY PREDICTED BY IDOCK:   -5.51 KCAL/MOL
REMARK 924 INTRA-LIGAND FREE ENERGY PREDICTED BY IDOCK:    0.32 KCAL/MOL
REMARK 927      BINDING AFFINITY PREDICTED BY RF-SCORE:    0.00 PKD
ROOT
HETATM    1  C   UNL     1      -9.523   6.542  67.287  1.00  0.00    -0.140 C  
HETATM    2  C   UNL     1     -10.835   6.220  66.872  1.00  0.00    -0.428 C  
HETATM    3  C   UNL     1     -10.777   7.302  67.901  1.00  0.00    -0.239 C  
HETATM    4  C   UNL     1      -8.934   8.125  68.346  1.00  0.00    -0.136 C  
HETATM    5  O   UNL     1     -10.529   3.094  74.553  1.00  0.00    -0.173 OA 
HETATM    6  O   UNL     1      -7.714   7.663  67.652  1.00  0.00    -0.116 OA 
HETATM    7  C   UNL     1      -9.869   8.443  67.404  1.00  0.00    -0.249 C  
HETATM    8  C   UNL     1      -9.823   9.176  66.081  1.00  0.00    -0.363 C  
HETATM    9  C   UNL     1     -10.704   9.049  69.032  1.00  0.00    -0.163 C  
HETATM   10  C   UNL     1     -10.734   3.657  73.485  1.00  0.00    -0.217 C  
HETATM   11  C   UNL     1     -10.148   3.149  72.234  1.00  0.00    -0.216 C  
HETATM   12  H   UNL     1      -6.868   8.041  67.856  1.00  0.00     0.000 HD 
HETATM   13  C   UNL     1     -10.228   8.034  70.367  1.00  0.00    -0.201 C  
HETATM   14  C   UNL     1     -11.630   4.840  73.316  1.00  0.00    -0.286 C  
HETATM   15  O   UNL     1      -9.965   8.581  71.441  1.00  0.00    -0.195 OA 
HETATM   16  C   UNL     1      -8.397   5.946  72.114  1.00  0.00    -0.118 C  
HETATM   17  C   UNL     1     -10.101   6.352  70.206  1.00  0.00    -0.216 C  
HETATM   18  C   UNL     1      -9.242   5.773  68.912  1.00  0.00    -0.127 C  
HETATM   19  C   UNL     1      -9.786   5.577  71.555  1.00  0.00    -0.201 C  
HETATM   20  C   UNL     1     -10.882   5.976  72.625  1.00  0.00    -0.280 C  
HETATM   21  C   UNL     1      -9.458   4.255  68.801  1.00  0.00    -0.230 C  
HETATM   22  C   UNL     1      -9.054   3.524  70.073  1.00  0.00    -0.197 C  
HETATM   23  C   UNL     1      -9.737   4.045  71.317  1.00  0.00    -0.255 C  
ENDROOT
BRANCH   4  24
HETATM   24  C   UNL     1      -8.290   9.740  68.391  1.00  0.00    -0.110 C  
HETATM   25  O   UNL     1      -8.930  10.769  68.626  1.00  0.00    -0.148 OA 
BRANCH  24  26
HETATM   26  C   UNL     1      -6.780   9.958  68.104  1.00  0.00    -0.060 C  
BRANCH  26  27
HETATM   27  O   UNL     1      -6.111  10.487  69.281  1.00  0.00    -0.037 OA 
BRANCH  27  28
HETATM   28  C   UNL     1      -6.136   9.662  70.370  1.00  0.00    -0.065 C  
HETATM   29  C   UNL     1      -5.320   8.417  70.146  1.00  0.00    -0.022 C  
HETATM   30  O   UNL     1      -6.749   9.886  71.402  1.00  0.00    -0.323 OA 
ENDBRANCH  27  28
ENDBRANCH  26  27
ENDBRANCH  24  26
ENDBRANCH   4  24
TORSDOF 4
ENDMDL
MODEL       77
REMARK 921   NORMALIZED FREE ENERGY PREDICTED BY IDOCK:   -4.38 KCAL/MOL
REMARK 922        TOTAL FREE ENERGY PREDICTED BY IDOCK:   -5.18 KCAL/MOL
REMARK 923 INTER-LIGAND FREE ENERGY PREDICTED BY IDOCK:   -5.43 KCAL/MOL
REMARK 924 INTRA-LIGAND FREE ENERGY PREDICTED BY IDOCK:    0.25 KCAL/MOL
REMARK 927      BINDING AFFINITY PREDICTED BY RF-SCORE:    0.00 PKD
ROOT
HETATM    1  C   UNL     1      -8.358   5.669  68.323  1.00  0.00    -0.102 C  
HETATM    2  C   UNL     1      -7.068   5.689  67.746  1.00  0.00    -0.071 C  
HETATM    3  C   UNL     1      -7.168   6.450  69.028  1.00  0.00    -0.084 C  
HETATM    4  C   UNL     1      -8.878   6.224  70.165  1.00  0.00    -0.149 C  
HETATM    5  O   UNL     1      -9.759  13.436  66.479  1.00  0.00    -0.269 OA 
HETATM    6  O   UNL     1      -9.963   5.322  69.725  1.00  0.00    -0.192 OA 
HETATM    7  C   UNL     1      -7.705   5.528  70.139  1.00  0.00    -0.085 C  
HETATM    8  C   UNL     1      -7.299   4.132  70.558  1.00  0.00    -0.041 C  
HETATM    9  C   UNL     1      -7.182   7.184  70.977  1.00  0.00    -0.074 C  
HETATM   10  C   UNL     1      -9.206  12.380  66.758  1.00  0.00    -0.212 C  
HETATM   11  C   UNL     1      -9.563  11.131  66.065  1.00  0.00    -0.248 C  
HETATM   12  H   UNL     1     -10.749   5.218  70.247  1.00  0.00     0.000 HD 
HETATM   13  C   UNL     1      -8.141   8.501  70.358  1.00  0.00    -0.108 C  
HETATM   14  C   UNL     1      -8.093  12.248  67.745  1.00  0.00    -0.155 C  
HETATM   15  O   UNL     1      -8.545   9.346  71.160  1.00  0.00    -0.297 OA 
HETATM   16  C   UNL     1     -10.687  10.037  68.971  1.00  0.00    -0.244 C  
HETATM   17  C   UNL     1      -8.534   8.620  68.713  1.00  0.00    -0.129 C  
HETATM   18  C   UNL     1      -9.154   7.270  67.979  1.00  0.00    -0.133 C  
HETATM   19  C   UNL     1      -9.298   9.951  68.307  1.00  0.00    -0.136 C  
HETATM   20  C   UNL     1      -8.432  11.187  68.786  1.00  0.00    -0.134 C  
HETATM   21  C   UNL     1      -9.202   7.498  66.460  1.00  0.00    -0.217 C  
HETATM   22  C   UNL     1     -10.024   8.724  66.090  1.00  0.00    -0.244 C  
HETATM   23  C   UNL     1      -9.571   9.990  66.780  1.00  0.00    -0.228 C  
ENDROOT
BRANCH   4  24
HETATM   24  C   UNL     1      -9.205   5.800  71.819  1.00  0.00    -0.145 C  
HETATM   25  O   UNL     1      -8.503   6.087  72.793  1.00  0.00    -0.121 OA 
BRANCH  24  26
HETATM   26  C   UNL     1     -10.478   4.974  72.150  1.00  0.00    -0.210 C  
BRANCH  26  27
HETATM   27  O   UNL     1     -11.523   5.839  72.670  1.00  0.00    -0.296 OA 
BRANCH  27  28
HETATM   28  C   UNL     1     -11.941   6.811  71.806  1.00  0.00    -0.339 C  
HETATM   29  C   UNL     1     -11.923   8.173  72.446  1.00  0.00    -0.431 C  
HETATM   30  O   UNL     1     -12.301   6.616  70.655  1.00  0.00    -0.340 OA 
ENDBRANCH  27  28
ENDBRANCH  26  27
ENDBRANCH  24  26
ENDBRANCH   4  24
TORSDOF 4
ENDMDL
MODEL       78
REMARK 921   NORMALIZED FREE ENERGY PREDICTED BY IDOCK:   -4.37 KCAL/MOL
REMARK 922        TOTAL FREE ENERGY PREDICTED BY IDOCK:   -5.17 KCAL/MOL
REMARK 923 INTER-LIGAND FREE ENERGY PREDICTED BY IDOCK:   -6.61 KCAL/MOL
REMARK 924 INTRA-LIGAND FREE ENERGY PREDICTED BY IDOCK:    1.44 KCAL/MOL
REMARK 927      BINDING AFFINITY PREDICTED BY RF-SCORE:    0.00 PKD
ROOT
HETATM    1  C   UNL     1     -10.987  13.041  69.042  1.00  0.00    -0.242 C  
HETATM    2  C   UNL     1     -12.382  13.236  69.159  1.00  0.00    -0.016 C  
HETATM    3  C   UNL     1     -11.886  13.259  67.750  1.00  0.00    -0.394 C  
HETATM    4  C   UNL     1      -9.947  12.643  67.389  1.00  0.00    -0.204 C  
HETATM    5  O   UNL     1      -9.656  20.776  67.020  1.00  0.00    -0.400 OA 
HETATM    6  O   UNL     1      -9.084  12.179  68.495  1.00  0.00    -0.294 OA 
HETATM    7  C   UNL     1     -11.124  11.955  67.446  1.00  0.00    -0.336 C  
HETATM    8  C   UNL     1     -11.487  10.508  67.696  1.00  0.00    -0.078 C  
HETATM    9  C   UNL     1     -11.291  12.917  65.784  1.00  0.00    -0.349 C  
HETATM   10  C   UNL     1     -10.178  19.680  67.175  1.00  0.00    -0.435 C  
HETATM   11  C   UNL     1     -10.104  18.981  68.468  1.00  0.00    -0.467 C  
HETATM   12  H   UNL     1      -8.194  11.896  68.330  1.00  0.00     0.000 HD 
HETATM   13  C   UNL     1     -10.457  14.445  65.886  1.00  0.00    -0.308 C  
HETATM   14  C   UNL     1     -10.983  18.976  66.132  1.00  0.00    -0.072 C  
HETATM   15  O   UNL     1      -9.796  14.807  64.910  1.00  0.00    -0.200 OA 
HETATM   16  C   UNL     1      -8.297  16.681  66.934  1.00  0.00    -0.243 C  
HETATM   17  C   UNL     1     -10.524  15.403  67.283  1.00  0.00    -0.282 C  
HETATM   18  C   UNL     1     -10.217  14.661  68.732  1.00  0.00    -0.242 C  
HETATM   19  C   UNL     1      -9.818  16.819  67.150  1.00  0.00    -0.259 C  
HETATM   20  C   UNL     1     -10.439  17.570  65.903  1.00  0.00    -0.251 C  
HETATM   21  C   UNL     1     -10.573  15.621  69.877  1.00  0.00    -0.328 C  
HETATM   22  C   UNL     1      -9.807  16.934  69.783  1.00  0.00     0.329 C  
HETATM   23  C   UNL     1      -9.972  17.640  68.458  1.00  0.00    -0.368 C  
ENDROOT
BRANCH   4  24
HETATM   24  C   UNL     1      -9.206  11.478  66.332  1.00  0.00    -0.208 C  
HETATM   25  O   UNL     1      -8.274  10.722  66.624  1.00  0.00    -0.129 OA 
BRANCH  24  26
HETATM   26  C   UNL     1      -9.722  11.347  64.873  1.00  0.00    -0.247 C  
BRANCH  26  27
HETATM   27  O   UNL     1      -8.619  11.074  63.968  1.00  0.00    -0.016 OA 
BRANCH  27  28
HETATM   28  C   UNL     1      -8.709   9.885  63.301  1.00  0.00    -0.223 C  
HETATM   29  C   UNL     1      -7.714   8.879  63.816  1.00  0.00    -0.129 C  
HETATM   30  O   UNL     1      -9.486   9.653  62.388  1.00  0.00    -0.216 OA 
ENDBRANCH  27  28
ENDBRANCH  26  27
ENDBRANCH  24  26
ENDBRANCH   4  24
TORSDOF 4
ENDMDL
MODEL       79
REMARK 921   NORMALIZED FREE ENERGY PREDICTED BY IDOCK:   -4.37 KCAL/MOL
REMARK 922        TOTAL FREE ENERGY PREDICTED BY IDOCK:   -5.17 KCAL/MOL
REMARK 923 INTER-LIGAND FREE ENERGY PREDICTED BY IDOCK:   -5.61 KCAL/MOL
REMARK 924 INTRA-LIGAND FREE ENERGY PREDICTED BY IDOCK:    0.44 KCAL/MOL
REMARK 927      BINDING AFFINITY PREDICTED BY RF-SCORE:    0.00 PKD
ROOT
HETATM    1  C   UNL     1      -8.048  10.904  69.198  1.00  0.00    -0.104 C  
HETATM    2  C   UNL     1      -6.742  10.533  68.804  1.00  0.00    -0.054 C  
HETATM    3  C   UNL     1      -7.808  10.086  67.857  1.00  0.00    -0.090 C  
HETATM    4  C   UNL     1      -9.713  10.847  68.105  1.00  0.00    -0.166 C  
HETATM    5  O   UNL     1     -10.064   3.303  71.161  1.00  0.00    -0.050 OA 
HETATM    6  O   UNL     1     -10.004  11.817  69.180  1.00  0.00    -0.412 OA 
HETATM    7  C   UNL     1      -8.637  11.300  67.398  1.00  0.00    -0.136 C  
HETATM    8  C   UNL     1      -8.215  12.657  66.878  1.00  0.00    -0.048 C  
HETATM    9  C   UNL     1      -9.212   9.789  66.348  1.00  0.00    -0.200 C  
HETATM   10  C   UNL     1      -9.537   4.277  70.639  1.00  0.00    -0.190 C  
HETATM   11  C   UNL     1      -9.039   5.398  71.453  1.00  0.00    -0.163 C  
HETATM   12  H   UNL     1     -10.879  12.167  69.294  1.00  0.00     0.000 HD 
HETATM   13  C   UNL     1      -9.901   8.565  67.380  1.00  0.00    -0.187 C  
HETATM   14  C   UNL     1      -9.280   4.410  69.174  1.00  0.00    -0.202 C  
HETATM   15  O   UNL     1     -10.921   7.992  66.992  1.00  0.00    -0.191 OA 
HETATM   16  C   UNL     1     -11.358   7.256  70.012  1.00  0.00    -0.195 C  
HETATM   17  C   UNL     1      -9.217   8.180  68.882  1.00  0.00    -0.147 C  
HETATM   18  C   UNL     1      -8.861   9.436  69.902  1.00  0.00    -0.212 C  
HETATM   19  C   UNL     1      -9.896   6.952  69.625  1.00  0.00    -0.171 C  
HETATM   20  C   UNL     1      -9.882   5.708  68.646  1.00  0.00    -0.190 C  
HETATM   21  C   UNL     1      -8.028   8.909  71.082  1.00  0.00    -0.181 C  
HETATM   22  C   UNL     1      -8.745   7.800  71.839  1.00  0.00    -0.150 C  
HETATM   23  C   UNL     1      -9.175   6.646  70.964  1.00  0.00    -0.160 C  
ENDROOT
BRANCH   4  24
HETATM   24  C   UNL     1     -10.855  11.658  67.073  1.00  0.00    -0.266 C  
HETATM   25  O   UNL     1     -10.920  11.556  65.845  1.00  0.00    -0.284 OA 
BRANCH  24  26
HETATM   26  C   UNL     1     -11.898  12.616  67.708  1.00  0.00    -0.323 C  
BRANCH  26  27
HETATM   27  O   UNL     1     -11.424  13.989  67.657  1.00  0.00    -0.299 OA 
BRANCH  27  28
HETATM   28  C   UNL     1     -11.091  14.524  68.869  1.00  0.00    -0.256 C  
HETATM   29  C   UNL     1     -12.261  14.530  69.816  1.00  0.00    -0.360 C  
HETATM   30  O   UNL     1      -9.988  14.959  69.162  1.00  0.00    -0.223 OA 
ENDBRANCH  27  28
ENDBRANCH  26  27
ENDBRANCH  24  26
ENDBRANCH   4  24
TORSDOF 4
ENDMDL
MODEL       80
REMARK 921   NORMALIZED FREE ENERGY PREDICTED BY IDOCK:   -4.34 KCAL/MOL
REMARK 922        TOTAL FREE ENERGY PREDICTED BY IDOCK:   -5.13 KCAL/MOL
REMARK 923 INTER-LIGAND FREE ENERGY PREDICTED BY IDOCK:   -5.28 KCAL/MOL
REMARK 924 INTRA-LIGAND FREE ENERGY PREDICTED BY IDOCK:    0.14 KCAL/MOL
REMARK 927      BINDING AFFINITY PREDICTED BY RF-SCORE:    0.00 PKD
ROOT
HETATM    1  C   UNL     1      -6.682   6.077  68.878  1.00  0.00    -0.060 C  
HETATM    2  C   UNL     1      -6.673   4.891  69.647  1.00  0.00    -0.051 C  
HETATM    3  C   UNL     1      -7.788   4.959  68.654  1.00  0.00    -0.077 C  
HETATM    4  C   UNL     1      -7.732   6.451  67.226  1.00  0.00    -0.100 C  
HETATM    5  O   UNL     1     -13.209   8.997  72.694  1.00  0.00    -0.443 OA 
HETATM    6  O   UNL     1      -6.611   7.412  67.183  1.00  0.00    -0.057 OA 
HETATM    7  C   UNL     1      -7.214   5.188  67.244  1.00  0.00    -0.081 C  
HETATM    8  C   UNL     1      -6.089   4.502  66.502  1.00  0.00    -0.031 C  
HETATM    9  C   UNL     1      -9.102   4.855  67.042  1.00  0.00    -0.120 C  
HETATM   10  C   UNL     1     -12.375   8.242  72.211  1.00  0.00    -0.356 C  
HETATM   11  C   UNL     1     -10.936   8.465  72.426  1.00  0.00    -0.425 C  
HETATM   12  H   UNL     1      -6.585   8.098  66.527  1.00  0.00     0.000 HD 
HETATM   13  C   UNL     1     -10.022   6.093  67.854  1.00  0.00    -0.134 C  
HETATM   14  C   UNL     1     -12.705   7.009  71.436  1.00  0.00    -0.421 C  
HETATM   15  O   UNL     1     -11.024   6.532  67.285  1.00  0.00    -0.344 OA 
HETATM   16  C   UNL     1     -10.707   9.016  69.178  1.00  0.00    -0.176 C  
HETATM   17  C   UNL     1      -9.556   6.702  69.365  1.00  0.00    -0.148 C  
HETATM   18  C   UNL     1      -7.976   7.170  69.544  1.00  0.00    -0.128 C  
HETATM   19  C   UNL     1     -10.581   7.726  70.013  1.00  0.00    -0.238 C  
HETATM   20  C   UNL     1     -12.002   7.031  70.083  1.00  0.00    -0.133 C  
HETATM   21  C   UNL     1      -7.696   7.445  71.030  1.00  0.00    -0.091 C  
HETATM   22  C   UNL     1      -8.628   8.503  71.603  1.00  0.00    -0.247 C  
HETATM   23  C   UNL     1     -10.094   8.190  71.412  1.00  0.00    -0.248 C  
ENDROOT
BRANCH   4  24
HETATM   24  C   UNL     1      -7.826   6.493  65.490  1.00  0.00    -0.104 C  
HETATM   25  O   UNL     1      -8.438   5.690  64.778  1.00  0.00    -0.141 OA 
BRANCH  24  26
HETATM   26  C   UNL     1      -7.080   7.615  64.720  1.00  0.00    -0.064 C  
BRANCH  26  27
HETATM   27  O   UNL     1      -7.572   8.921  65.125  1.00  0.00    -0.094 OA 
BRANCH  27  28
HETATM   28  C   UNL     1      -8.735   9.305  64.520  1.00  0.00    -0.187 C  
HETATM   29  C   UNL     1      -9.796   9.660  65.526  1.00  0.00    -0.352 C  
HETATM   30  O   UNL     1      -8.913   9.349  63.312  1.00  0.00    -0.227 OA 
ENDBRANCH  27  28
ENDBRANCH  26  27
ENDBRANCH  24  26
ENDBRANCH   4  24
TORSDOF 4
ENDMDL
MODEL       81
REMARK 921   NORMALIZED FREE ENERGY PREDICTED BY IDOCK:   -4.33 KCAL/MOL
REMARK 922        TOTAL FREE ENERGY PREDICTED BY IDOCK:   -5.12 KCAL/MOL
REMARK 923 INTER-LIGAND FREE ENERGY PREDICTED BY IDOCK:   -6.04 KCAL/MOL
REMARK 924 INTRA-LIGAND FREE ENERGY PREDICTED BY IDOCK:    0.93 KCAL/MOL
REMARK 927      BINDING AFFINITY PREDICTED BY RF-SCORE:    0.00 PKD
ROOT
HETATM    1  C   UNL     1      -8.012  12.500  68.234  1.00  0.00    -0.153 C  
HETATM    2  C   UNL     1      -6.901  12.383  67.369  1.00  0.00    -0.147 C  
HETATM    3  C   UNL     1      -8.144  11.742  66.844  1.00  0.00    -0.160 C  
HETATM    4  C   UNL     1      -9.925  12.128  67.816  1.00  0.00    -0.198 C  
HETATM    5  O   UNL     1      -7.789   4.655  70.259  1.00  0.00    -0.056 OA 
HETATM    6  O   UNL     1      -9.965  13.026  68.989  1.00  0.00    -0.420 OA 
HETATM    7  C   UNL     1      -9.284  12.777  66.802  1.00  0.00    -0.225 C  
HETATM    8  C   UNL     1      -9.329  14.189  66.261  1.00  0.00    -0.215 C  
HETATM    9  C   UNL     1      -9.929  11.184  65.928  1.00  0.00    -0.285 C  
HETATM   10  C   UNL     1      -7.673   5.711  69.650  1.00  0.00    -0.083 C  
HETATM   11  C   UNL     1      -7.116   6.906  70.305  1.00  0.00    -0.067 C  
HETATM   12  H   UNL     1     -10.784  13.203  69.436  1.00  0.00     0.000 HD 
HETATM   13  C   UNL     1      -9.962   9.852  67.052  1.00  0.00    -0.200 C  
HETATM   14  C   UNL     1      -8.001   5.890  68.205  1.00  0.00    -0.109 C  
HETATM   15  O   UNL     1     -10.935   9.096  67.020  1.00  0.00    -0.098 OA 
HETATM   16  C   UNL     1     -10.091   8.291  69.934  1.00  0.00    -0.195 C  
HETATM   17  C   UNL     1      -8.716   9.603  68.174  1.00  0.00    -0.119 C  
HETATM   18  C   UNL     1      -8.237  10.904  69.081  1.00  0.00    -0.090 C  
HETATM   19  C   UNL     1      -8.846   8.269  69.025  1.00  0.00    -0.143 C  
HETATM   20  C   UNL     1      -8.974   7.051  68.023  1.00  0.00    -0.126 C  
HETATM   21  C   UNL     1      -6.949  10.545  69.839  1.00  0.00    -0.151 C  
HETATM   22  C   UNL     1      -7.128   9.321  70.725  1.00  0.00    -0.121 C  
HETATM   23  C   UNL     1      -7.639   8.105  69.987  1.00  0.00    -0.077 C  
ENDROOT
BRANCH   4  24
HETATM   24  C   UNL     1     -11.490  12.708  67.327  1.00  0.00    -0.342 C  
HETATM   25  O   UNL     1     -12.171  12.261  66.399  1.00  0.00    -0.613 OA 
BRANCH  24  26
HETATM   26  C   UNL     1     -12.125  13.902  68.090  1.00  0.00    -0.282 C  
BRANCH  26  27
HETATM   27  O   UNL     1     -12.245  13.594  69.505  1.00  0.00    -0.319 OA 
BRANCH  27  28
HETATM   28  C   UNL     1     -12.136  14.674  70.335  1.00  0.00    -0.319 C  
HETATM   29  C   UNL     1     -13.479  15.125  70.842  1.00  0.00    -0.432 C  
HETATM   30  O   UNL     1     -11.087  15.225  70.630  1.00  0.00    -0.300 OA 
ENDBRANCH  27  28
ENDBRANCH  26  27
ENDBRANCH  24  26
ENDBRANCH   4  24
TORSDOF 4
ENDMDL
MODEL       82
REMARK 921   NORMALIZED FREE ENERGY PREDICTED BY IDOCK:   -4.31 KCAL/MOL
REMARK 922        TOTAL FREE ENERGY PREDICTED BY IDOCK:   -5.10 KCAL/MOL
REMARK 923 INTER-LIGAND FREE ENERGY PREDICTED BY IDOCK:   -6.46 KCAL/MOL
REMARK 924 INTRA-LIGAND FREE ENERGY PREDICTED BY IDOCK:    1.36 KCAL/MOL
REMARK 927      BINDING AFFINITY PREDICTED BY RF-SCORE:    0.00 PKD
ROOT
HETATM    1  C   UNL     1     -11.576  11.621  67.427  1.00  0.00    -0.330 C  
HETATM    2  C   UNL     1     -11.841  11.418  68.801  1.00  0.00    -0.388 C  
HETATM    3  C   UNL     1     -10.622  12.242  68.537  1.00  0.00    -0.254 C  
HETATM    4  C   UNL     1     -10.302  12.918  66.610  1.00  0.00    -0.251 C  
HETATM    5  O   UNL     1      -5.173   6.651  67.504  1.00  0.00    -0.007 OA 
HETATM    6  O   UNL     1     -11.262  12.606  65.532  1.00  0.00    -0.286 OA 
HETATM    7  C   UNL     1     -10.994  13.452  67.659  1.00  0.00    -0.277 C  
HETATM    8  C   UNL     1     -12.114  14.461  67.775  1.00  0.00    -0.304 C  
HETATM    9  C   UNL     1      -9.162  13.691  68.211  1.00  0.00    -0.198 C  
HETATM   10  C   UNL     1      -6.047   7.441  67.839  1.00  0.00    -0.035 C  
HETATM   11  C   UNL     1      -7.454   7.217  67.471  1.00  0.00    -0.101 C  
HETATM   12  H   UNL     1     -11.115  12.916  64.647  1.00  0.00     0.000 HD 
HETATM   13  C   UNL     1      -8.173  12.397  67.591  1.00  0.00    -0.169 C  
HETATM   14  C   UNL     1      -5.811   8.644  68.691  1.00  0.00    -0.044 C  
HETATM   15  O   UNL     1      -7.060  12.686  67.144  1.00  0.00    -0.129 OA 
HETATM   16  C   UNL     1      -7.232   9.945  65.624  1.00  0.00    -0.113 C  
HETATM   17  C   UNL     1      -8.716  10.791  67.572  1.00  0.00    -0.125 C  
HETATM   18  C   UNL     1     -10.222  10.503  66.945  1.00  0.00    -0.280 C  
HETATM   19  C   UNL     1      -7.634   9.730  67.097  1.00  0.00    -0.092 C  
HETATM   20  C   UNL     1      -6.345   9.895  68.001  1.00  0.00    -0.055 C  
HETATM   21  C   UNL     1     -10.627   9.052  67.248  1.00  0.00    -0.301 C  
HETATM   22  C   UNL     1      -9.625   8.050  66.695  1.00  0.00    -0.297 C  
HETATM   23  C   UNL     1      -8.206   8.289  67.159  1.00  0.00    -0.119 C  
ENDROOT
BRANCH   4  24
HETATM   24  C   UNL     1     -10.007  14.472  65.889  1.00  0.00    -0.329 C  
HETATM   25  O   UNL     1     -10.380  14.834  64.769  1.00  0.00    -0.382 OA 
BRANCH  24  26
HETATM   26  C   UNL     1      -9.193  15.531  66.682  1.00  0.00    -0.271 C  
BRANCH  26  27
HETATM   27  O   UNL     1      -8.519  16.440  65.771  1.00  0.00    -0.346 OA 
BRANCH  27  28
HETATM   28  C   UNL     1      -8.237  17.669  66.296  1.00  0.00    -0.229 C  
HETATM   29  C   UNL     1      -8.648  17.766  67.741  1.00  0.00    -0.237 C  
HETATM   30  O   UNL     1      -7.725  18.591  65.680  1.00  0.00    -0.509 OA 
ENDBRANCH  27  28
ENDBRANCH  26  27
ENDBRANCH  24  26
ENDBRANCH   4  24
TORSDOF 4
ENDMDL
MODEL       83
REMARK 921   NORMALIZED FREE ENERGY PREDICTED BY IDOCK:   -4.30 KCAL/MOL
REMARK 922        TOTAL FREE ENERGY PREDICTED BY IDOCK:   -5.08 KCAL/MOL
REMARK 923 INTER-LIGAND FREE ENERGY PREDICTED BY IDOCK:   -6.49 KCAL/MOL
REMARK 924 INTRA-LIGAND FREE ENERGY PREDICTED BY IDOCK:    1.41 KCAL/MOL
REMARK 927      BINDING AFFINITY PREDICTED BY RF-SCORE:    0.00 PKD
ROOT
HETATM    1  C   UNL     1      -8.936   8.402  67.347  1.00  0.00    -0.143 C  
HETATM    2  C   UNL     1      -9.816   7.604  66.583  1.00  0.00    -0.283 C  
HETATM    3  C   UNL     1     -10.506   8.630  67.422  1.00  0.00    -0.351 C  
HETATM    4  C   UNL     1      -9.353  10.093  68.316  1.00  0.00    -0.133 C  
HETATM    5  O   UNL     1     -11.093   4.853  74.308  1.00  0.00    -0.272 OA 
HETATM    6  O   UNL     1      -7.890  10.128  68.116  1.00  0.00    -0.094 OA 
HETATM    7  C   UNL     1      -9.953  10.029  67.092  1.00  0.00    -0.251 C  
HETATM    8  C   UNL     1      -9.717  10.720  65.767  1.00  0.00    -0.278 C  
HETATM    9  C   UNL     1     -11.456  10.276  68.272  1.00  0.00    -0.149 C  
HETATM   10  C   UNL     1     -11.102   5.292  73.165  1.00  0.00    -0.324 C  
HETATM   11  C   UNL     1      -9.980   5.041  72.246  1.00  0.00    -0.233 C  
HETATM   12  H   UNL     1      -7.360  10.800  68.526  1.00  0.00     0.000 HD 
HETATM   13  C   UNL     1     -11.143   9.524  69.813  1.00  0.00    -0.191 C  
HETATM   14  C   UNL     1     -12.243   6.045  72.562  1.00  0.00    -0.044 C  
HETATM   15  O   UNL     1     -11.481  10.132  70.831  1.00  0.00    -0.327 OA 
HETATM   16  C   UNL     1      -9.414   8.294  72.316  1.00  0.00    -0.341 C  
HETATM   17  C   UNL     1     -10.378   8.015  69.927  1.00  0.00    -0.221 C  
HETATM   18  C   UNL     1      -8.979   7.802  69.065  1.00  0.00    -0.145 C  
HETATM   19  C   UNL     1     -10.295   7.423  71.398  1.00  0.00    -0.208 C  
HETATM   20  C   UNL     1     -11.759   7.378  71.999  1.00  0.00    -0.325 C  
HETATM   21  C   UNL     1      -8.588   6.317  69.096  1.00  0.00    -0.120 C  
HETATM   22  C   UNL     1      -8.417   5.798  70.517  1.00  0.00    -0.127 C  
HETATM   23  C   UNL     1      -9.625   6.023  71.396  1.00  0.00    -0.180 C  
ENDROOT
BRANCH   4  24
HETATM   24  C   UNL     1      -9.384  11.832  68.347  1.00  0.00    -0.185 C  
HETATM   25  O   UNL     1      -8.398  12.574  68.348  1.00  0.00    -0.167 OA 
BRANCH  24  26
HETATM   26  C   UNL     1     -10.754  12.562  68.390  1.00  0.00    -0.240 C  
BRANCH  26  27
HETATM   27  O   UNL     1     -10.823  13.571  67.347  1.00  0.00    -0.264 OA 
BRANCH  27  28
HETATM   28  C   UNL     1     -11.025  14.845  67.798  1.00  0.00    -0.293 C  
HETATM   29  C   UNL     1     -10.365  15.863  66.909  1.00  0.00    -0.291 C  
HETATM   30  O   UNL     1     -11.652  15.138  68.804  1.00  0.00    -0.315 OA 
ENDBRANCH  27  28
ENDBRANCH  26  27
ENDBRANCH  24  26
ENDBRANCH   4  24
TORSDOF 4
ENDMDL
MODEL       84
REMARK 921   NORMALIZED FREE ENERGY PREDICTED BY IDOCK:   -4.29 KCAL/MOL
REMARK 922        TOTAL FREE ENERGY PREDICTED BY IDOCK:   -5.08 KCAL/MOL
REMARK 923 INTER-LIGAND FREE ENERGY PREDICTED BY IDOCK:   -5.38 KCAL/MOL
REMARK 924 INTRA-LIGAND FREE ENERGY PREDICTED BY IDOCK:    0.31 KCAL/MOL
REMARK 927      BINDING AFFINITY PREDICTED BY RF-SCORE:    0.00 PKD
ROOT
HETATM    1  C   UNL     1      -8.658   7.312  71.291  1.00  0.00    -0.119 C  
HETATM    2  C   UNL     1      -9.483   7.956  72.241  1.00  0.00    -0.248 C  
HETATM    3  C   UNL     1     -10.235   7.350  71.101  1.00  0.00    -0.199 C  
HETATM    4  C   UNL     1      -9.218   6.081  69.826  1.00  0.00    -0.143 C  
HETATM    5  O   UNL     1      -9.818  13.105  65.742  1.00  0.00    -0.269 OA 
HETATM    6  O   UNL     1      -7.790   5.773  70.049  1.00  0.00    -0.088 OA 
HETATM    7  C   UNL     1      -9.893   5.853  70.990  1.00  0.00    -0.225 C  
HETATM    8  C   UNL     1      -9.847   4.761  72.036  1.00  0.00    -0.234 C  
HETATM    9  C   UNL     1     -11.324   6.202  69.747  1.00  0.00    -0.452 C  
HETATM   10  C   UNL     1      -9.969  12.342  66.687  1.00  0.00    -0.225 C  
HETATM   11  C   UNL     1      -8.894  12.132  67.671  1.00  0.00    -0.172 C  
HETATM   12  H   UNL     1      -7.322   5.191  69.464  1.00  0.00     0.000 HD 
HETATM   13  C   UNL     1     -10.803   7.338  68.532  1.00  0.00    -0.060 C  
HETATM   14  C   UNL     1     -11.238  11.616  66.988  1.00  0.00    -0.376 C  
HETATM   15  O   UNL     1     -11.140   7.128  67.365  1.00  0.00    -0.247 OA 
HETATM   16  C   UNL     1      -8.750   9.012  66.597  1.00  0.00    -0.140 C  
HETATM   17  C   UNL     1      -9.844   8.681  68.922  1.00  0.00    -0.184 C  
HETATM   18  C   UNL     1      -8.497   8.411  69.849  1.00  0.00    -0.126 C  
HETATM   19  C   UNL     1      -9.576   9.677  67.716  1.00  0.00    -0.161 C  
HETATM   20  C   UNL     1     -10.973  10.119  67.116  1.00  0.00    -0.204 C  
HETATM   21  C   UNL     1      -7.916   9.761  70.300  1.00  0.00    -0.185 C  
HETATM   22  C   UNL     1      -7.574  10.660  69.120  1.00  0.00    -0.131 C  
HETATM   23  C   UNL     1      -8.733  10.895  68.179  1.00  0.00    -0.133 C  
ENDROOT
BRANCH   4  24
HETATM   24  C   UNL     1      -9.471   4.461  69.248  1.00  0.00    -0.179 C  
HETATM   25  O   UNL     1      -9.771   3.483  69.940  1.00  0.00    -0.176 OA 
BRANCH  24  26
HETATM   26  C   UNL     1      -9.303   4.165  67.733  1.00  0.00    -0.168 C  
BRANCH  26  27
HETATM   27  O   UNL     1      -8.491   5.192  67.103  1.00  0.00    -0.107 OA 
BRANCH  27  28
HETATM   28  C   UNL     1      -8.570   5.224  65.739  1.00  0.00    -0.139 C  
HETATM   29  C   UNL     1      -9.723   4.404  65.227  1.00  0.00    -0.199 C  
HETATM   30  O   UNL     1      -7.800   5.830  65.009  1.00  0.00    -0.094 OA 
ENDBRANCH  27  28
ENDBRANCH  26  27
ENDBRANCH  24  26
ENDBRANCH   4  24
TORSDOF 4
ENDMDL
MODEL       85
REMARK 921   NORMALIZED FREE ENERGY PREDICTED BY IDOCK:   -4.28 KCAL/MOL
REMARK 922        TOTAL FREE ENERGY PREDICTED BY IDOCK:   -5.06 KCAL/MOL
REMARK 923 INTER-LIGAND FREE ENERGY PREDICTED BY IDOCK:   -5.70 KCAL/MOL
REMARK 924 INTRA-LIGAND FREE ENERGY PREDICTED BY IDOCK:    0.64 KCAL/MOL
REMARK 927      BINDING AFFINITY PREDICTED BY RF-SCORE:    0.00 PKD
ROOT
HETATM    1  C   UNL     1      -6.912   8.704  68.768  1.00  0.00    -0.063 C  
HETATM    2  C   UNL     1      -6.052   9.607  69.432  1.00  0.00    -0.036 C  
HETATM    3  C   UNL     1      -7.351   9.384  70.135  1.00  0.00    -0.110 C  
HETATM    4  C   UNL     1      -8.558   7.838  69.485  1.00  0.00    -0.135 C  
HETATM    5  O   UNL     1     -12.002  14.582  66.479  1.00  0.00    -0.397 OA 
HETATM    6  O   UNL     1      -8.136   6.971  68.365  1.00  0.00    -0.121 OA 
HETATM    7  C   UNL     1      -7.546   7.879  70.400  1.00  0.00    -0.082 C  
HETATM    8  C   UNL     1      -6.615   6.842  70.987  1.00  0.00    -0.053 C  
HETATM    9  C   UNL     1      -8.966   8.807  71.316  1.00  0.00    -0.295 C  
HETATM   10  C   UNL     1     -11.170  13.927  67.093  1.00  0.00    -0.313 C  
HETATM   11  C   UNL     1     -10.049  13.277  66.394  1.00  0.00    -0.290 C  
HETATM   12  H   UNL     1      -8.690   6.261  68.066  1.00  0.00     0.000 HD 
HETATM   13  C   UNL     1      -9.967   9.658  70.170  1.00  0.00    -0.261 C  
HETATM   14  C   UNL     1     -11.150  13.773  68.578  1.00  0.00    -0.292 C  
HETATM   15  O   UNL     1     -11.188   9.627  70.339  1.00  0.00    -0.248 OA 
HETATM   16  C   UNL     1     -11.376  10.391  67.300  1.00  0.00     0.021 C  
HETATM   17  C   UNL     1      -9.301  10.485  68.849  1.00  0.00    -0.192 C  
HETATM   18  C   UNL     1      -8.198   9.672  67.918  1.00  0.00    -0.106 C  
HETATM   19  C   UNL     1     -10.348  11.312  67.989  1.00  0.00    -0.204 C  
HETATM   20  C   UNL     1     -11.122  12.296  68.957  1.00  0.00    -0.289 C  
HETATM   21  C   UNL     1      -7.533  10.659  66.945  1.00  0.00    -0.115 C  
HETATM   22  C   UNL     1      -8.551  11.366  66.062  1.00  0.00    -0.094 C  
HETATM   23  C   UNL     1      -9.641  12.071  66.834  1.00  0.00    -0.209 C  
ENDROOT
BRANCH   4  24
HETATM   24  C   UNL     1      -9.320   6.473  70.246  1.00  0.00    -0.159 C  
HETATM   25  O   UNL     1      -8.775   5.672  71.011  1.00  0.00    -0.130 OA 
BRANCH  24  26
HETATM   26  C   UNL     1     -10.819   6.188  69.959  1.00  0.00    -0.341 C  
BRANCH  26  27
HETATM   27  O   UNL     1     -11.486   5.719  71.161  1.00  0.00    -0.175 OA 
BRANCH  27  28
HETATM   28  C   UNL     1     -11.977   6.708  71.965  1.00  0.00    -0.319 C  
HETATM   29  C   UNL     1     -13.328   7.183  71.504  1.00  0.00    -0.413 C  
HETATM   30  O   UNL     1     -11.397   7.171  72.936  1.00  0.00    -0.281 OA 
ENDBRANCH  27  28
ENDBRANCH  26  27
ENDBRANCH  24  26
ENDBRANCH   4  24
TORSDOF 4
ENDMDL
MODEL       86
REMARK 921   NORMALIZED FREE ENERGY PREDICTED BY IDOCK:   -4.25 KCAL/MOL
REMARK 922        TOTAL FREE ENERGY PREDICTED BY IDOCK:   -5.02 KCAL/MOL
REMARK 923 INTER-LIGAND FREE ENERGY PREDICTED BY IDOCK:   -5.51 KCAL/MOL
REMARK 924 INTRA-LIGAND FREE ENERGY PREDICTED BY IDOCK:    0.49 KCAL/MOL
REMARK 927      BINDING AFFINITY PREDICTED BY RF-SCORE:    0.00 PKD
ROOT
HETATM    1  C   UNL     1      -7.804  11.505  67.054  1.00  0.00    -0.161 C  
HETATM    2  C   UNL     1      -7.200  10.796  65.992  1.00  0.00    -0.105 C  
HETATM    3  C   UNL     1      -8.520  10.239  66.415  1.00  0.00    -0.132 C  
HETATM    4  C   UNL     1      -9.682  11.361  67.703  1.00  0.00    -0.172 C  
HETATM    5  O   UNL     1      -6.383   5.566  72.383  1.00  0.00    -0.047 OA 
HETATM    6  O   UNL     1      -9.223  12.683  68.176  1.00  0.00    -0.201 OA 
HETATM    7  C   UNL     1      -9.595  11.339  66.341  1.00  0.00    -0.223 C  
HETATM    8  C   UNL     1      -9.935  12.329  65.249  1.00  0.00    -0.250 C  
HETATM    9  C   UNL     1     -10.503   9.682  66.721  1.00  0.00    -0.257 C  
HETATM   10  C   UNL     1      -6.595   6.184  71.348  1.00  0.00    -0.051 C  
HETATM   11  C   UNL     1      -5.850   7.414  71.032  1.00  0.00    -0.035 C  
HETATM   12  H   UNL     1      -9.757  13.199  68.768  1.00  0.00     0.000 HD 
HETATM   13  C   UNL     1      -9.972   9.042  68.253  1.00  0.00    -0.173 C  
HETATM   14  C   UNL     1      -7.549   5.745  70.286  1.00  0.00    -0.090 C  
HETATM   15  O   UNL     1     -10.824   8.558  69.002  1.00  0.00    -0.140 OA 
HETATM   16  C   UNL     1      -8.722   9.023  71.287  1.00  0.00    -0.240 C  
HETATM   17  C   UNL     1      -8.344   9.096  68.725  1.00  0.00    -0.121 C  
HETATM   18  C   UNL     1      -7.558  10.548  68.582  1.00  0.00    -0.099 C  
HETATM   19  C   UNL     1      -8.024   8.350  70.088  1.00  0.00    -0.102 C  
HETATM   20  C   UNL     1      -8.543   6.859  69.974  1.00  0.00    -0.141 C  
HETATM   21  C   UNL     1      -6.054  10.332  68.812  1.00  0.00    -0.047 C  
HETATM   22  C   UNL     1      -5.765   9.706  70.169  1.00  0.00    -0.042 C  
HETATM   23  C   UNL     1      -6.507   8.412  70.412  1.00  0.00    -0.035 C  
ENDROOT
BRANCH   4  24
HETATM   24  C   UNL     1     -11.321  11.944  67.685  1.00  0.00    -0.304 C  
HETATM   25  O   UNL     1     -12.035  12.069  66.685  1.00  0.00    -0.614 OA 
BRANCH  24  26
HETATM   26  C   UNL     1     -11.986  12.370  69.022  1.00  0.00    -0.241 C  
BRANCH  26  27
HETATM   27  O   UNL     1     -11.437  11.603  70.127  1.00  0.00    -0.241 OA 
BRANCH  27  28
HETATM   28  C   UNL     1     -12.328  11.323  71.125  1.00  0.00    -0.324 C  
HETATM   29  C   UNL     1     -12.303   9.867  71.502  1.00  0.00    -0.504 C  
HETATM   30  O   UNL     1     -13.069  12.140  71.649  1.00  0.00    -0.418 OA 
ENDBRANCH  27  28
ENDBRANCH  26  27
ENDBRANCH  24  26
ENDBRANCH   4  24
TORSDOF 4
ENDMDL
MODEL       87
REMARK 921   NORMALIZED FREE ENERGY PREDICTED BY IDOCK:   -4.23 KCAL/MOL
REMARK 922        TOTAL FREE ENERGY PREDICTED BY IDOCK:   -5.00 KCAL/MOL
REMARK 923 INTER-LIGAND FREE ENERGY PREDICTED BY IDOCK:   -5.28 KCAL/MOL
REMARK 924 INTRA-LIGAND FREE ENERGY PREDICTED BY IDOCK:    0.28 KCAL/MOL
REMARK 927      BINDING AFFINITY PREDICTED BY RF-SCORE:    0.00 PKD
ROOT
HETATM    1  C   UNL     1     -10.298   9.440  70.976  1.00  0.00    -0.382 C  
HETATM    2  C   UNL     1     -11.159  10.128  70.092  1.00  0.00    -0.378 C  
HETATM    3  C   UNL     1     -11.411   8.656  70.155  1.00  0.00    -0.083 C  
HETATM    4  C   UNL     1     -10.482   7.573  71.650  1.00  0.00    -0.200 C  
HETATM    5  O   UNL     1      -6.178   5.964  64.923  1.00  0.00    -0.028 OA 
HETATM    6  O   UNL     1      -9.607   8.243  72.635  1.00  0.00    -0.253 OA 
HETATM    7  C   UNL     1     -11.674   8.238  71.614  1.00  0.00    -0.341 C  
HETATM    8  C   UNL     1     -12.584   8.823  72.671  1.00  0.00    -0.282 C  
HETATM    9  C   UNL     1     -12.028   6.699  70.509  1.00  0.00    -0.377 C  
HETATM   10  C   UNL     1      -7.063   6.486  65.589  1.00  0.00    -0.061 C  
HETATM   11  C   UNL     1      -6.802   7.701  66.378  1.00  0.00    -0.062 C  
HETATM   12  H   UNL     1      -9.180   7.745  73.321  1.00  0.00     0.000 HD 
HETATM   13  C   UNL     1     -10.577   6.208  69.677  1.00  0.00    -0.284 C  
HETATM   14  C   UNL     1      -8.479   6.014  65.623  1.00  0.00    -0.151 C  
HETATM   15  O   UNL     1     -10.338   5.000  69.599  1.00  0.00    -0.260 OA 
HETATM   16  C   UNL     1      -7.370   5.873  69.069  1.00  0.00    -0.084 C  
HETATM   17  C   UNL     1      -9.505   7.340  69.013  1.00  0.00    -0.147 C  
HETATM   18  C   UNL     1      -9.027   8.597  69.982  1.00  0.00    -0.148 C  
HETATM   19  C   UNL     1      -8.309   6.712  68.179  1.00  0.00    -0.117 C  
HETATM   20  C   UNL     1      -8.921   5.771  67.063  1.00  0.00    -0.114 C  
HETATM   21  C   UNL     1      -8.276   9.633  69.132  1.00  0.00    -0.120 C  
HETATM   22  C   UNL     1      -7.074   9.028  68.420  1.00  0.00    -0.076 C  
HETATM   23  C   UNL     1      -7.411   7.824  67.573  1.00  0.00    -0.097 C  
ENDROOT
BRANCH   4  24
HETATM   24  C   UNL     1     -11.021   6.475  72.887  1.00  0.00    -0.250 C  
HETATM   25  O   UNL     1     -12.010   5.739  72.821  1.00  0.00    -0.199 OA 
BRANCH  24  26
HETATM   26  C   UNL     1     -10.225   6.386  74.216  1.00  0.00    -0.344 C  
BRANCH  26  27
HETATM   27  O   UNL     1      -9.572   5.093  74.330  1.00  0.00    -0.128 OA 
BRANCH  27  28
HETATM   28  C   UNL     1      -8.757   4.770  73.282  1.00  0.00    -0.104 C  
HETATM   29  C   UNL     1      -9.055   3.396  72.746  1.00  0.00    -0.113 C  
HETATM   30  O   UNL     1      -7.882   5.492  72.830  1.00  0.00    -0.097 OA 
ENDBRANCH  27  28
ENDBRANCH  26  27
ENDBRANCH  24  26
ENDBRANCH   4  24
TORSDOF 4
ENDMDL
MODEL       88
REMARK 921   NORMALIZED FREE ENERGY PREDICTED BY IDOCK:   -4.21 KCAL/MOL
REMARK 922        TOTAL FREE ENERGY PREDICTED BY IDOCK:   -4.98 KCAL/MOL
REMARK 923 INTER-LIGAND FREE ENERGY PREDICTED BY IDOCK:   -6.24 KCAL/MOL
REMARK 924 INTRA-LIGAND FREE ENERGY PREDICTED BY IDOCK:    1.26 KCAL/MOL
REMARK 927      BINDING AFFINITY PREDICTED BY RF-SCORE:    0.00 PKD
ROOT
HETATM    1  C   UNL     1      -9.766   9.087  68.276  1.00  0.00    -0.169 C  
HETATM    2  C   UNL     1     -10.871   8.243  68.025  1.00  0.00    -0.008 C  
HETATM    3  C   UNL     1      -9.967   8.420  66.848  1.00  0.00    -0.341 C  
HETATM    4  C   UNL     1      -8.136   9.328  67.154  1.00  0.00    -0.109 C  
HETATM    5  O   UNL     1     -12.776  15.081  63.725  1.00  0.00    -0.741 OA 
HETATM    6  O   UNL     1      -7.732   9.775  68.503  1.00  0.00    -0.080 OA 
HETATM    7  C   UNL     1      -8.529   8.024  67.235  1.00  0.00    -0.125 C  
HETATM    8  C   UNL     1      -7.989   6.804  67.947  1.00  0.00    -0.114 C  
HETATM    9  C   UNL     1      -8.541   8.340  65.333  1.00  0.00    -0.176 C  
HETATM   10  C   UNL     1     -12.518  13.976  64.185  1.00  0.00    -0.234 C  
HETATM   11  C   UNL     1     -12.577  13.724  65.634  1.00  0.00    -0.551 C  
HETATM   12  H   UNL     1      -6.891  10.193  68.644  1.00  0.00     0.000 HD 
HETATM   13  C   UNL     1      -8.960   9.999  65.000  1.00  0.00    -0.199 C  
HETATM   14  C   UNL     1     -12.195  12.775  63.358  1.00  0.00    -0.594 C  
HETATM   15  O   UNL     1      -8.333  10.585  64.116  1.00  0.00    -0.164 OA 
HETATM   16  C   UNL     1      -9.316  13.220  65.511  1.00  0.00     0.308 C  
HETATM   17  C   UNL     1     -10.173  10.802  65.871  1.00  0.00    -0.319 C  
HETATM   18  C   UNL     1     -10.113  10.708  67.524  1.00  0.00    -0.217 C  
HETATM   19  C   UNL     1     -10.512  12.261  65.345  1.00  0.00    -0.302 C  
HETATM   20  C   UNL     1     -10.871  12.164  63.807  1.00  0.00    -0.490 C  
HETATM   21  C   UNL     1     -11.417  11.272  68.110  1.00  0.00    -0.376 C  
HETATM   22  C   UNL     1     -11.669  12.708  67.671  1.00  0.00    -0.420 C  
HETATM   23  C   UNL     1     -11.662  12.895  66.172  1.00  0.00    -0.451 C  
ENDROOT
BRANCH   4  24
HETATM   24  C   UNL     1      -6.485   8.910  66.805  1.00  0.00    -0.064 C  
HETATM   25  O   UNL     1      -5.498   9.231  67.474  1.00  0.00    -0.037 OA 
BRANCH  24  26
HETATM   26  C   UNL     1      -6.171   8.067  65.539  1.00  0.00    -0.038 C  
BRANCH  26  27
HETATM   27  O   UNL     1      -5.188   8.743  64.710  1.00  0.00    -0.038 OA 
BRANCH  27  28
HETATM   28  C   UNL     1      -5.437   8.686  63.368  1.00  0.00    -0.064 C  
HETATM   29  C   UNL     1      -5.433   7.269  62.859  1.00  0.00    -0.037 C  
HETATM   30  O   UNL     1      -5.629   9.656  62.651  1.00  0.00    -0.087 OA 
ENDBRANCH  27  28
ENDBRANCH  26  27
ENDBRANCH  24  26
ENDBRANCH   4  24
TORSDOF 4
ENDMDL
MODEL       89
REMARK 921   NORMALIZED FREE ENERGY PREDICTED BY IDOCK:   -4.16 KCAL/MOL
REMARK 922        TOTAL FREE ENERGY PREDICTED BY IDOCK:   -4.91 KCAL/MOL
REMARK 923 INTER-LIGAND FREE ENERGY PREDICTED BY IDOCK:   -5.55 KCAL/MOL
REMARK 924 INTRA-LIGAND FREE ENERGY PREDICTED BY IDOCK:    0.64 KCAL/MOL
REMARK 927      BINDING AFFINITY PREDICTED BY RF-SCORE:    0.00 PKD
ROOT
HETATM    1  C   UNL     1      -8.794   9.263  64.883  1.00  0.00    -0.233 C  
HETATM    2  C   UNL     1      -7.694   9.605  64.065  1.00  0.00    -0.128 C  
HETATM    3  C   UNL     1      -7.615  10.167  65.447  1.00  0.00    -0.144 C  
HETATM    4  C   UNL     1      -8.955   9.472  66.858  1.00  0.00    -0.131 C  
HETATM    5  O   UNL     1     -11.826  16.776  64.670  1.00  0.00    -0.117 OA 
HETATM    6  O   UNL     1      -9.951   8.438  66.509  1.00  0.00    -0.258 OA 
HETATM    7  C   UNL     1      -7.723   9.027  66.477  1.00  0.00    -0.096 C  
HETATM    8  C   UNL     1      -7.010   7.696  66.569  1.00  0.00    -0.067 C  
HETATM    9  C   UNL     1      -7.295  10.635  67.450  1.00  0.00    -0.093 C  
HETATM   10  C   UNL     1     -11.059  15.822  64.651  1.00  0.00    -0.361 C  
HETATM   11  C   UNL     1     -11.360  14.623  63.851  1.00  0.00     0.469 C  
HETATM   12  H   UNL     1     -10.566   8.119  67.158  1.00  0.00     0.000 HD 
HETATM   13  C   UNL     1      -8.572  11.808  67.267  1.00  0.00    -0.162 C  
HETATM   14  C   UNL     1      -9.741  15.787  65.352  1.00  0.00    -0.146 C  
HETATM   15  O   UNL     1      -8.911  12.452  68.262  1.00  0.00    -0.185 OA 
HETATM   16  C   UNL     1     -11.585  12.979  66.706  1.00  0.00    -0.420 C  
HETATM   17  C   UNL     1      -9.351  12.051  65.781  1.00  0.00    -0.133 C  
HETATM   18  C   UNL     1      -9.897  10.708  64.978  1.00  0.00    -0.353 C  
HETATM   19  C   UNL     1     -10.393  13.247  65.766  1.00  0.00    -0.290 C  
HETATM   20  C   UNL     1      -9.653  14.559  66.252  1.00  0.00    -0.328 C  
HETATM   21  C   UNL     1     -10.333  11.109  63.560  1.00  0.00    -0.446 C  
HETATM   22  C   UNL     1     -11.406  12.188  63.575  1.00  0.00    -0.535 C  
HETATM   23  C   UNL     1     -11.017  13.422  64.355  1.00  0.00    -0.413 C  
ENDROOT
BRANCH   4  24
HETATM   24  C   UNL     1      -8.815   8.790  68.452  1.00  0.00    -0.138 C  
HETATM   25  O   UNL     1      -7.947   9.067  69.285  1.00  0.00    -0.092 OA 
BRANCH  24  26
HETATM   26  C   UNL     1      -9.846   7.723  68.910  1.00  0.00    -0.166 C  
BRANCH  26  27
HETATM   27  O   UNL     1      -9.364   7.025  70.089  1.00  0.00    -0.161 OA 
BRANCH  27  28
HETATM   28  C   UNL     1      -8.889   5.766  69.853  1.00  0.00    -0.127 C  
HETATM   29  C   UNL     1      -9.199   4.831  70.991  1.00  0.00    -0.194 C  
HETATM   30  O   UNL     1      -8.276   5.427  68.853  1.00  0.00    -0.099 OA 
ENDBRANCH  27  28
ENDBRANCH  26  27
ENDBRANCH  24  26
ENDBRANCH   4  24
TORSDOF 4
ENDMDL
MODEL       90
REMARK 921   NORMALIZED FREE ENERGY PREDICTED BY IDOCK:   -4.14 KCAL/MOL
REMARK 922        TOTAL FREE ENERGY PREDICTED BY IDOCK:   -4.89 KCAL/MOL
REMARK 923 INTER-LIGAND FREE ENERGY PREDICTED BY IDOCK:   -5.31 KCAL/MOL
REMARK 924 INTRA-LIGAND FREE ENERGY PREDICTED BY IDOCK:    0.42 KCAL/MOL
REMARK 927      BINDING AFFINITY PREDICTED BY RF-SCORE:    0.00 PKD
ROOT
HETATM    1  C   UNL     1     -10.935   6.857  68.535  1.00  0.00    -0.198 C  
HETATM    2  C   UNL     1     -10.681   5.910  69.552  1.00  0.00    -0.414 C  
HETATM    3  C   UNL     1      -9.587   6.911  69.375  1.00  0.00    -0.147 C  
HETATM    4  C   UNL     1      -9.958   8.559  68.184  1.00  0.00    -0.181 C  
HETATM    5  O   UNL     1      -5.408   3.623  63.566  1.00  0.00    -0.008 OA 
HETATM    6  O   UNL     1     -11.275   8.743  67.540  1.00  0.00    -0.380 OA 
HETATM    7  C   UNL     1     -10.159   8.335  69.515  1.00  0.00    -0.197 C  
HETATM    8  C   UNL     1     -11.065   8.946  70.560  1.00  0.00    -0.288 C  
HETATM    9  C   UNL     1      -8.241   8.500  69.411  1.00  0.00    -0.114 C  
HETATM   10  C   UNL     1      -6.023   3.971  64.566  1.00  0.00    -0.018 C  
HETATM   11  C   UNL     1      -7.479   3.779  64.666  1.00  0.00    -0.072 C  
HETATM   12  H   UNL     1     -11.445   9.500  66.993  1.00  0.00     0.000 HD 
HETATM   13  C   UNL     1      -7.667   7.906  67.876  1.00  0.00    -0.125 C  
HETATM   14  C   UNL     1      -5.386   4.542  65.789  1.00  0.00    -0.009 C  
HETATM   15  O   UNL     1      -6.784   8.547  67.303  1.00  0.00    -0.061 OA 
HETATM   16  C   UNL     1      -7.741   7.071  64.703  1.00  0.00    -0.116 C  
HETATM   17  C   UNL     1      -8.309   6.506  67.167  1.00  0.00    -0.113 C  
HETATM   18  C   UNL     1      -9.959   6.388  67.072  1.00  0.00    -0.209 C  
HETATM   19  C   UNL     1      -7.577   6.040  65.838  1.00  0.00    -0.087 C  
HETATM   20  C   UNL     1      -6.034   5.875  66.151  1.00  0.00    -0.025 C  
HETATM   21  C   UNL     1     -10.340   4.962  66.643  1.00  0.00    -0.285 C  
HETATM   22  C   UNL     1      -9.705   4.575  65.315  1.00  0.00    -0.182 C  
HETATM   23  C   UNL     1      -8.202   4.728  65.291  1.00  0.00    -0.120 C  
ENDROOT
BRANCH   4  24
HETATM   24  C   UNL     1      -9.827  10.280  68.394  1.00  0.00    -0.156 C  
HETATM   25  O   UNL     1      -8.865  10.879  68.885  1.00  0.00    -0.163 OA 
BRANCH  24  26
HETATM   26  C   UNL     1     -11.006  11.187  67.950  1.00  0.00    -0.253 C  
BRANCH  26  27
HETATM   27  O   UNL     1     -11.060  11.274  66.500  1.00  0.00    -0.285 OA 
BRANCH  27  28
HETATM   28  C   UNL     1     -11.045  12.547  66.004  1.00  0.00    -0.294 C  
HETATM   29  C   UNL     1     -12.409  12.983  65.543  1.00  0.00    -0.527 C  
HETATM   30  O   UNL     1     -10.052  13.254  65.926  1.00  0.00    -0.285 OA 
ENDBRANCH  27  28
ENDBRANCH  26  27
ENDBRANCH  24  26
ENDBRANCH   4  24
TORSDOF 4
ENDMDL
MODEL       91
REMARK 921   NORMALIZED FREE ENERGY PREDICTED BY IDOCK:   -4.13 KCAL/MOL
REMARK 922        TOTAL FREE ENERGY PREDICTED BY IDOCK:   -4.87 KCAL/MOL
REMARK 923 INTER-LIGAND FREE ENERGY PREDICTED BY IDOCK:   -5.94 KCAL/MOL
REMARK 924 INTRA-LIGAND FREE ENERGY PREDICTED BY IDOCK:    1.07 KCAL/MOL
REMARK 927      BINDING AFFINITY PREDICTED BY RF-SCORE:    0.00 PKD
ROOT
HETATM    1  C   UNL     1     -11.056  14.245  67.054  1.00  0.00    -0.317 C  
HETATM    2  C   UNL     1     -11.267  14.443  65.671  1.00  0.00    -0.323 C  
HETATM    3  C   UNL     1      -9.957  13.800  65.995  1.00  0.00    -0.319 C  
HETATM    4  C   UNL     1      -9.655  13.126  67.925  1.00  0.00    -0.218 C  
HETATM    5  O   UNL     1      -5.464  20.098  67.466  1.00  0.00    -0.173 OA 
HETATM    6  O   UNL     1     -10.712  13.265  68.947  1.00  0.00    -0.302 OA 
HETATM    7  C   UNL     1     -10.197  12.526  66.826  1.00  0.00    -0.243 C  
HETATM    8  C   UNL     1     -11.147  11.367  66.622  1.00  0.00    -0.333 C  
HETATM    9  C   UNL     1      -8.321  12.573  66.384  1.00  0.00     0.260 C  
HETATM   10  C   UNL     1      -6.190  19.199  67.063  1.00  0.00    -0.178 C  
HETATM   11  C   UNL     1      -7.635  19.204  67.347  1.00  0.00    -0.256 C  
HETATM   12  H   UNL     1     -10.573  12.956  69.834  1.00  0.00     0.000 HD 
HETATM   13  C   UNL     1      -7.572  13.980  67.088  1.00  0.00     0.064 C  
HETATM   14  C   UNL     1      -5.729  18.066  66.205  1.00  0.00    -0.229 C  
HETATM   15  O   UNL     1      -6.457  13.845  67.597  1.00  0.00    -0.170 OA 
HETATM   16  C   UNL     1      -7.121  16.489  69.154  1.00  0.00    -0.227 C  
HETATM   17  C   UNL     1      -8.346  15.488  67.102  1.00  0.00    -0.243 C  
HETATM   18  C   UNL     1      -9.913  15.535  67.640  1.00  0.00    -0.233 C  
HETATM   19  C   UNL     1      -7.463  16.682  67.663  1.00  0.00    -0.168 C  
HETATM   20  C   UNL     1      -6.113  16.733  66.838  1.00  0.00    -0.212 C  
HETATM   21  C   UNL     1     -10.509  16.919  67.339  1.00  0.00    -0.310 C  
HETATM   22  C   UNL     1      -9.700  18.042  67.971  1.00  0.00    -0.309 C  
HETATM   23  C   UNL     1      -8.237  18.025  67.592  1.00  0.00    -0.241 C  
ENDROOT
BRANCH   4  24
HETATM   24  C   UNL     1      -9.175  11.613  68.635  1.00  0.00    -0.108 C  
HETATM   25  O   UNL     1      -8.015  11.227  68.805  1.00  0.00    -0.141 OA 
BRANCH  24  26
HETATM   26  C   UNL     1     -10.271  10.618  69.103  1.00  0.00    -0.220 C  
BRANCH  26  27
HETATM   27  O   UNL     1      -9.668   9.379  69.565  1.00  0.00    -0.167 OA 
BRANCH  27  28
HETATM   28  C   UNL     1     -10.435   8.265  69.374  1.00  0.00    -0.220 C  
HETATM   29  C   UNL     1     -10.957   7.716  70.675  1.00  0.00    -0.259 C  
HETATM   30  O   UNL     1     -10.669   7.756  68.289  1.00  0.00    -0.148 OA 
ENDBRANCH  27  28
ENDBRANCH  26  27
ENDBRANCH  24  26
ENDBRANCH   4  24
TORSDOF 4
ENDMDL
MODEL       92
REMARK 921   NORMALIZED FREE ENERGY PREDICTED BY IDOCK:   -4.13 KCAL/MOL
REMARK 922        TOTAL FREE ENERGY PREDICTED BY IDOCK:   -4.87 KCAL/MOL
REMARK 923 INTER-LIGAND FREE ENERGY PREDICTED BY IDOCK:   -5.18 KCAL/MOL
REMARK 924 INTRA-LIGAND FREE ENERGY PREDICTED BY IDOCK:    0.31 KCAL/MOL
REMARK 927      BINDING AFFINITY PREDICTED BY RF-SCORE:    0.00 PKD
ROOT
HETATM    1  C   UNL     1      -7.891   3.296  67.427  1.00  0.00    -0.077 C  
HETATM    2  C   UNL     1      -8.668   2.165  67.765  1.00  0.00    -0.130 C  
HETATM    3  C   UNL     1      -9.449   3.261  67.116  1.00  0.00    -0.178 C  
HETATM    4  C   UNL     1      -8.405   4.819  66.249  1.00  0.00    -0.111 C  
HETATM    5  O   UNL     1     -11.155   7.818  73.307  1.00  0.00    -0.373 OA 
HETATM    6  O   UNL     1      -6.928   4.837  66.260  1.00  0.00    -0.066 OA 
HETATM    7  C   UNL     1      -8.816   3.614  65.757  1.00  0.00    -0.127 C  
HETATM    8  C   UNL     1      -8.367   2.739  64.608  1.00  0.00    -0.087 C  
HETATM    9  C   UNL     1     -10.473   4.592  65.885  1.00  0.00    -0.305 C  
HETATM   10  C   UNL     1     -10.983   6.970  72.442  1.00  0.00    -0.248 C  
HETATM   11  C   UNL     1      -9.742   6.179  72.391  1.00  0.00    -0.169 C  
HETATM   12  H   UNL     1      -6.448   5.553  65.862  1.00  0.00     0.000 HD 
HETATM   13  C   UNL     1     -10.412   5.706  67.224  1.00  0.00    -0.258 C  
HETATM   14  C   UNL     1     -12.001   6.598  71.414  1.00  0.00    -0.405 C  
HETATM   15  O   UNL     1     -10.883   6.834  67.057  1.00  0.00    -0.340 OA 
HETATM   16  C   UNL     1      -9.110   7.666  69.511  1.00  0.00    -0.146 C  
HETATM   17  C   UNL     1      -9.713   5.278  68.708  1.00  0.00    -0.203 C  
HETATM   18  C   UNL     1      -8.207   4.588  68.669  1.00  0.00    -0.082 C  
HETATM   19  C   UNL     1      -9.866   6.366  69.853  1.00  0.00    -0.191 C  
HETATM   20  C   UNL     1     -11.404   6.706  70.014  1.00  0.00    -0.440 C  
HETATM   21  C   UNL     1      -7.863   4.047  70.065  1.00  0.00    -0.051 C  
HETATM   22  C   UNL     1      -7.919   5.132  71.131  1.00  0.00    -0.103 C  
HETATM   23  C   UNL     1      -9.239   5.866  71.181  1.00  0.00    -0.163 C  
ENDROOT
BRANCH   4  24
HETATM   24  C   UNL     1      -8.396   5.567  64.679  1.00  0.00    -0.131 C  
HETATM   25  O   UNL     1      -8.752   5.037  63.622  1.00  0.00    -0.140 OA 
BRANCH  24  26
HETATM   26  C   UNL     1      -7.891   7.028  64.541  1.00  0.00    -0.118 C  
BRANCH  26  27
HETATM   27  O   UNL     1      -7.799   7.658  65.847  1.00  0.00    -0.093 OA 
BRANCH  27  28
HETATM   28  C   UNL     1      -8.312   8.923  65.908  1.00  0.00    -0.127 C  
HETATM   29  C   UNL     1      -8.987   9.314  64.621  1.00  0.00    -0.202 C  
HETATM   30  O   UNL     1      -8.231   9.663  66.876  1.00  0.00    -0.112 OA 
ENDBRANCH  27  28
ENDBRANCH  26  27
ENDBRANCH  24  26
ENDBRANCH   4  24
TORSDOF 4
ENDMDL
MODEL       93
REMARK 921   NORMALIZED FREE ENERGY PREDICTED BY IDOCK:   -4.12 KCAL/MOL
REMARK 922        TOTAL FREE ENERGY PREDICTED BY IDOCK:   -4.87 KCAL/MOL
REMARK 923 INTER-LIGAND FREE ENERGY PREDICTED BY IDOCK:   -5.32 KCAL/MOL
REMARK 924 INTRA-LIGAND FREE ENERGY PREDICTED BY IDOCK:    0.45 KCAL/MOL
REMARK 927      BINDING AFFINITY PREDICTED BY RF-SCORE:    0.00 PKD
ROOT
HETATM    1  C   UNL     1      -6.962   8.178  70.603  1.00  0.00    -0.037 C  
HETATM    2  C   UNL     1      -6.528   9.451  71.037  1.00  0.00    -0.086 C  
HETATM    3  C   UNL     1      -7.984   9.199  71.265  1.00  0.00    -0.066 C  
HETATM    4  C   UNL     1      -8.690   7.273  71.013  1.00  0.00    -0.140 C  
HETATM    5  O   UNL     1     -11.017  11.247  64.292  1.00  0.00    -0.354 OA 
HETATM    6  O   UNL     1      -7.774   6.177  70.633  1.00  0.00    -0.099 OA 
HETATM    7  C   UNL     1      -8.164   7.915  72.097  1.00  0.00    -0.160 C  
HETATM    8  C   UNL     1      -7.496   7.451  73.372  1.00  0.00    -0.108 C  
HETATM    9  C   UNL     1      -9.900   8.737  71.935  1.00  0.00    -0.395 C  
HETATM   10  C   UNL     1     -10.477  11.110  65.383  1.00  0.00    -0.259 C  
HETATM   11  C   UNL     1      -9.123  10.543  65.492  1.00  0.00    -0.214 C  
HETATM   12  H   UNL     1      -8.099   5.293  70.517  1.00  0.00     0.000 HD 
HETATM   13  C   UNL     1     -10.383   8.802  70.262  1.00  0.00    -0.203 C  
HETATM   14  C   UNL     1     -11.075  11.550  66.678  1.00  0.00    -0.355 C  
HETATM   15  O   UNL     1     -11.555   8.534  69.989  1.00  0.00    -0.022 OA 
HETATM   16  C   UNL     1     -10.498   7.997  67.083  1.00  0.00    -0.408 C  
HETATM   17  C   UNL     1      -9.283   9.195  69.033  1.00  0.00    -0.143 C  
HETATM   18  C   UNL     1      -7.835   8.389  69.020  1.00  0.00    -0.102 C  
HETATM   19  C   UNL     1      -9.925   9.336  67.588  1.00  0.00    -0.245 C  
HETATM   20  C   UNL     1     -11.104  10.390  67.669  1.00  0.00    -0.361 C  
HETATM   21  C   UNL     1      -6.894   9.058  68.005  1.00  0.00    -0.069 C  
HETATM   22  C   UNL     1      -7.492   9.092  66.606  1.00  0.00    -0.086 C  
HETATM   23  C   UNL     1      -8.854   9.743  66.542  1.00  0.00    -0.154 C  
ENDROOT
BRANCH   4  24
HETATM   24  C   UNL     1      -9.602   6.163  71.992  1.00  0.00    -0.152 C  
HETATM   25  O   UNL     1      -9.844   6.288  73.196  1.00  0.00    -0.161 OA 
BRANCH  24  26
HETATM   26  C   UNL     1     -10.175   4.876  71.339  1.00  0.00    -0.187 C  
BRANCH  26  27
HETATM   27  O   UNL     1     -10.480   5.110  69.938  1.00  0.00    -0.295 OA 
BRANCH  27  28
HETATM   28  C   UNL     1      -9.873   4.247  69.070  1.00  0.00    -0.078 C  
HETATM   29  C   UNL     1      -9.385   3.006  69.767  1.00  0.00    -0.215 C  
HETATM   30  O   UNL     1      -9.726   4.447  67.874  1.00  0.00    -0.163 OA 
ENDBRANCH  27  28
ENDBRANCH  26  27
ENDBRANCH  24  26
ENDBRANCH   4  24
TORSDOF 4
ENDMDL
MODEL       94
REMARK 921   NORMALIZED FREE ENERGY PREDICTED BY IDOCK:   -4.12 KCAL/MOL
REMARK 922        TOTAL FREE ENERGY PREDICTED BY IDOCK:   -4.86 KCAL/MOL
REMARK 923 INTER-LIGAND FREE ENERGY PREDICTED BY IDOCK:   -6.00 KCAL/MOL
REMARK 924 INTRA-LIGAND FREE ENERGY PREDICTED BY IDOCK:    1.14 KCAL/MOL
REMARK 927      BINDING AFFINITY PREDICTED BY RF-SCORE:    0.00 PKD
ROOT
HETATM    1  C   UNL     1      -9.536   6.651  67.235  1.00  0.00    -0.151 C  
HETATM    2  C   UNL     1     -10.813   6.233  66.799  1.00  0.00    -0.367 C  
HETATM    3  C   UNL     1     -10.852   7.330  67.812  1.00  0.00    -0.214 C  
HETATM    4  C   UNL     1      -9.080   8.286  68.281  1.00  0.00    -0.135 C  
HETATM    5  O   UNL     1     -10.453   3.243  74.531  1.00  0.00    -0.180 OA 
HETATM    6  O   UNL     1      -7.817   7.901  67.619  1.00  0.00    -0.117 OA 
HETATM    7  C   UNL     1     -10.015   8.525  67.316  1.00  0.00    -0.289 C  
HETATM    8  C   UNL     1      -9.992   9.241  65.984  1.00  0.00    -0.325 C  
HETATM    9  C   UNL     1     -10.924   9.094  68.918  1.00  0.00    -0.016 C  
HETATM   10  C   UNL     1     -10.675   3.775  73.451  1.00  0.00    -0.207 C  
HETATM   11  C   UNL     1     -10.028   3.291  72.221  1.00  0.00    -0.235 C  
HETATM   12  H   UNL     1      -7.003   8.339  67.835  1.00  0.00     0.000 HD 
HETATM   13  C   UNL     1     -10.407   8.133  70.277  1.00  0.00    -0.209 C  
HETATM   14  C   UNL     1     -11.647   4.890  73.247  1.00  0.00    -0.276 C  
HETATM   15  O   UNL     1     -10.206   8.712  71.348  1.00  0.00    -0.210 OA 
HETATM   16  C   UNL     1      -8.473   6.202  72.093  1.00  0.00    -0.116 C  
HETATM   17  C   UNL     1     -10.161   6.461  70.144  1.00  0.00    -0.209 C  
HETATM   18  C   UNL     1      -9.236   5.926  68.878  1.00  0.00    -0.126 C  
HETATM   19  C   UNL     1      -9.821   5.730  71.512  1.00  0.00    -0.209 C  
HETATM   20  C   UNL     1     -10.965   6.066  72.553  1.00  0.00    -0.300 C  
HETATM   21  C   UNL     1      -9.344   4.396  68.785  1.00  0.00    -0.213 C  
HETATM   22  C   UNL     1      -8.917   3.712  70.077  1.00  0.00    -0.168 C  
HETATM   23  C   UNL     1      -9.661   4.201  71.298  1.00  0.00    -0.242 C  
ENDROOT
BRANCH   4  24
HETATM   24  C   UNL     1      -8.550   9.942  68.315  1.00  0.00    -0.115 C  
HETATM   25  O   UNL     1      -7.433  10.352  67.988  1.00  0.00    -0.088 OA 
BRANCH  24  26
HETATM   26  C   UNL     1      -9.534  11.039  68.805  1.00  0.00    -0.183 C  
BRANCH  26  27
HETATM   27  O   UNL     1      -9.262  12.299  68.135  1.00  0.00    -0.189 OA 
BRANCH  27  28
HETATM   28  C   UNL     1     -10.097  12.582  67.091  1.00  0.00    -0.214 C  
HETATM   29  C   UNL     1     -11.543  12.392  67.466  1.00  0.00    -0.431 C  
HETATM   30  O   UNL     1      -9.733  12.936  65.981  1.00  0.00    -0.266 OA 
ENDBRANCH  27  28
ENDBRANCH  26  27
ENDBRANCH  24  26
ENDBRANCH   4  24
TORSDOF 4
ENDMDL
MODEL       95
REMARK 921   NORMALIZED FREE ENERGY PREDICTED BY IDOCK:   -4.05 KCAL/MOL
REMARK 922        TOTAL FREE ENERGY PREDICTED BY IDOCK:   -4.78 KCAL/MOL
REMARK 923 INTER-LIGAND FREE ENERGY PREDICTED BY IDOCK:   -5.55 KCAL/MOL
REMARK 924 INTRA-LIGAND FREE ENERGY PREDICTED BY IDOCK:    0.77 KCAL/MOL
REMARK 927      BINDING AFFINITY PREDICTED BY RF-SCORE:    0.00 PKD
ROOT
HETATM    1  C   UNL     1      -8.277  11.960  68.847  1.00  0.00     0.089 C  
HETATM    2  C   UNL     1      -7.001  12.324  68.360  1.00  0.00    -0.082 C  
HETATM    3  C   UNL     1      -8.054  12.254  67.302  1.00  0.00    -0.182 C  
HETATM    4  C   UNL     1     -10.025  12.084  67.898  1.00  0.00    -0.197 C  
HETATM    5  O   UNL     1      -7.919   4.592  65.489  1.00  0.00    -0.093 OA 
HETATM    6  O   UNL     1     -10.379  12.048  69.332  1.00  0.00    -0.420 OA 
HETATM    7  C   UNL     1      -9.231  13.173  67.680  1.00  0.00    -0.207 C  
HETATM    8  C   UNL     1      -9.263  14.610  68.151  1.00  0.00    -0.192 C  
HETATM    9  C   UNL     1      -9.557  12.537  65.889  1.00  0.00    -0.174 C  
HETATM   10  C   UNL     1      -7.753   5.783  65.721  1.00  0.00    -0.095 C  
HETATM   11  C   UNL     1      -7.437   6.254  67.079  1.00  0.00    -0.084 C  
HETATM   12  H   UNL     1     -11.285  11.970  69.606  1.00  0.00     0.000 HD 
HETATM   13  C   UNL     1      -9.731  10.802  65.889  1.00  0.00    -0.224 C  
HETATM   14  C   UNL     1      -7.778   6.853  64.680  1.00  0.00    -0.116 C  
HETATM   15  O   UNL     1     -10.618  10.313  65.185  1.00  0.00    -0.136 OA 
HETATM   16  C   UNL     1     -10.357   7.795  67.043  1.00  0.00    -0.405 C  
HETATM   17  C   UNL     1      -8.738   9.808  66.836  1.00  0.00    -0.143 C  
HETATM   18  C   UNL     1      -8.560  10.210  68.434  1.00  0.00    -0.119 C  
HETATM   19  C   UNL     1      -8.949   8.251  66.610  1.00  0.00    -0.179 C  
HETATM   20  C   UNL     1      -8.772   7.944  65.067  1.00  0.00     0.070 C  
HETATM   21  C   UNL     1      -7.440   9.355  69.048  1.00  0.00    -0.073 C  
HETATM   22  C   UNL     1      -7.714   7.864  68.906  1.00  0.00    -0.105 C  
HETATM   23  C   UNL     1      -7.966   7.425  67.482  1.00  0.00    -0.113 C  
ENDROOT
BRANCH   4  24
HETATM   24  C   UNL     1     -11.488  12.964  67.565  1.00  0.00    -0.335 C  
HETATM   25  O   UNL     1     -12.236  12.787  66.599  1.00  0.00    -0.481 OA 
BRANCH  24  26
HETATM   26  C   UNL     1     -11.928  14.092  68.537  1.00  0.00    -0.348 C  
BRANCH  26  27
HETATM   27  O   UNL     1     -12.604  13.529  69.694  1.00  0.00    -0.146 OA 
BRANCH  27  28
HETATM   28  C   UNL     1     -12.409  14.216  70.859  1.00  0.00    -0.368 C  
HETATM   29  C   UNL     1     -11.981  15.636  70.605  1.00  0.00    -0.438 C  
HETATM   30  O   UNL     1     -12.549  13.746  71.978  1.00  0.00    -0.252 OA 
ENDBRANCH  27  28
ENDBRANCH  26  27
ENDBRANCH  24  26
ENDBRANCH   4  24
TORSDOF 4
ENDMDL
MODEL       96
REMARK 921   NORMALIZED FREE ENERGY PREDICTED BY IDOCK:   -4.05 KCAL/MOL
REMARK 922        TOTAL FREE ENERGY PREDICTED BY IDOCK:   -4.77 KCAL/MOL
REMARK 923 INTER-LIGAND FREE ENERGY PREDICTED BY IDOCK:   -5.51 KCAL/MOL
REMARK 924 INTRA-LIGAND FREE ENERGY PREDICTED BY IDOCK:    0.74 KCAL/MOL
REMARK 927      BINDING AFFINITY PREDICTED BY RF-SCORE:    0.00 PKD
ROOT
HETATM    1  C   UNL     1      -7.710   7.329  70.973  1.00  0.00    -0.089 C  
HETATM    2  C   UNL     1      -6.775   8.367  71.186  1.00  0.00    -0.052 C  
HETATM    3  C   UNL     1      -8.196   8.828  71.173  1.00  0.00    -0.204 C  
HETATM    4  C   UNL     1      -9.685   7.397  71.227  1.00  0.00    -0.165 C  
HETATM    5  O   UNL     1      -9.419   9.842  63.460  1.00  0.00    -0.266 OA 
HETATM    6  O   UNL     1      -9.349   5.960  71.292  1.00  0.00    -0.155 OA 
HETATM    7  C   UNL     1      -9.007   8.042  72.220  1.00  0.00    -0.230 C  
HETATM    8  C   UNL     1      -8.723   7.732  73.673  1.00  0.00    -0.308 C  
HETATM    9  C   UNL     1     -10.155   9.432  71.538  1.00  0.00    -0.183 C  
HETATM   10  C   UNL     1      -9.086   9.814  64.637  1.00  0.00    -0.245 C  
HETATM   11  C   UNL     1      -8.155   8.789  65.137  1.00  0.00    -0.133 C  
HETATM   12  H   UNL     1     -10.033   5.302  71.317  1.00  0.00     0.000 HD 
HETATM   13  C   UNL     1     -10.427   9.205  69.831  1.00  0.00    -0.223 C  
HETATM   14  C   UNL     1      -9.511  10.819  65.657  1.00  0.00    -0.250 C  
HETATM   15  O   UNL     1     -11.568   9.390  69.400  1.00  0.00     0.111 OA 
HETATM   16  C   UNL     1     -10.660   7.640  66.957  1.00  0.00    -0.406 C  
HETATM   17  C   UNL     1      -9.181   8.724  68.787  1.00  0.00    -0.141 C  
HETATM   18  C   UNL     1      -8.267   7.419  69.243  1.00  0.00    -0.131 C  
HETATM   19  C   UNL     1      -9.576   8.697  67.250  1.00  0.00    -0.216 C  
HETATM   20  C   UNL     1     -10.143  10.122  66.857  1.00  0.00    -0.279 C  
HETATM   21  C   UNL     1      -7.051   7.303  68.310  1.00  0.00    -0.081 C  
HETATM   22  C   UNL     1      -7.460   7.178  66.849  1.00  0.00    -0.100 C  
HETATM   23  C   UNL     1      -8.362   8.292  66.372  1.00  0.00    -0.117 C  
ENDROOT
BRANCH   4  24
HETATM   24  C   UNL     1     -11.076   7.111  72.231  1.00  0.00    -0.254 C  
HETATM   25  O   UNL     1     -12.191   7.622  72.089  1.00  0.00    -0.296 OA 
BRANCH  24  26
HETATM   26  C   UNL     1     -10.950   6.139  73.436  1.00  0.00    -0.155 C  
BRANCH  26  27
HETATM   27  O   UNL     1     -11.667   4.904  73.169  1.00  0.00    -0.315 OA 
BRANCH  27  28
HETATM   28  C   UNL     1     -11.076   3.781  73.674  1.00  0.00    -0.228 C  
HETATM   29  C   UNL     1      -9.860   4.111  74.497  1.00  0.00    -0.183 C  
HETATM   30  O   UNL     1     -11.466   2.639  73.480  1.00  0.00    -0.217 OA 
ENDBRANCH  27  28
ENDBRANCH  26  27
ENDBRANCH  24  26
ENDBRANCH   4  24
TORSDOF 4
ENDMDL
MODEL       97
REMARK 921   NORMALIZED FREE ENERGY PREDICTED BY IDOCK:   -4.01 KCAL/MOL
REMARK 922        TOTAL FREE ENERGY PREDICTED BY IDOCK:   -4.72 KCAL/MOL
REMARK 923 INTER-LIGAND FREE ENERGY PREDICTED BY IDOCK:   -5.60 KCAL/MOL
REMARK 924 INTRA-LIGAND FREE ENERGY PREDICTED BY IDOCK:    0.88 KCAL/MOL
REMARK 927      BINDING AFFINITY PREDICTED BY RF-SCORE:    0.00 PKD
ROOT
HETATM    1  C   UNL     1      -8.185  10.442  69.536  1.00  0.00    -0.137 C  
HETATM    2  C   UNL     1      -6.779  10.294  69.528  1.00  0.00    -0.073 C  
HETATM    3  C   UNL     1      -7.380  10.420  68.166  1.00  0.00    -0.088 C  
HETATM    4  C   UNL     1      -9.360  10.993  68.024  1.00  0.00    -0.163 C  
HETATM    5  O   UNL     1      -9.408   2.959  66.673  1.00  0.00    -0.143 OA 
HETATM    6  O   UNL     1     -10.151  11.283  69.238  1.00  0.00    -0.403 OA 
HETATM    7  C   UNL     1      -8.206  11.718  68.081  1.00  0.00    -0.153 C  
HETATM    8  C   UNL     1      -7.873  13.138  68.482  1.00  0.00    -0.105 C  
HETATM    9  C   UNL     1      -8.135  10.972  66.305  1.00  0.00    -0.159 C  
HETATM   10  C   UNL     1      -8.913   4.050  66.925  1.00  0.00    -0.132 C  
HETATM   11  C   UNL     1      -8.911   4.583  68.297  1.00  0.00    -0.143 C  
HETATM   12  H   UNL     1     -11.061  11.546  69.173  1.00  0.00     0.000 HD 
HETATM   13  C   UNL     1      -8.906   9.409  66.277  1.00  0.00    -0.147 C  
HETATM   14  C   UNL     1      -8.213   4.907  65.923  1.00  0.00    -0.113 C  
HETATM   15  O   UNL     1      -9.628   9.140  65.314  1.00  0.00    -0.199 OA 
HETATM   16  C   UNL     1     -10.905   6.973  67.192  1.00  0.00    -0.427 C  
HETATM   17  C   UNL     1      -8.702   8.292  67.536  1.00  0.00    -0.129 C  
HETATM   18  C   UNL     1      -8.923   8.841  69.084  1.00  0.00    -0.137 C  
HETATM   19  C   UNL     1      -9.368   6.875  67.280  1.00  0.00    -0.152 C  
HETATM   20  C   UNL     1      -8.820   6.307  65.908  1.00  0.00    -0.148 C  
HETATM   21  C   UNL     1      -8.448   7.764  70.074  1.00  0.00    -0.135 C  
HETATM   22  C   UNL     1      -9.175   6.442  69.873  1.00  0.00    -0.154 C  
HETATM   23  C   UNL     1      -9.088   5.908  68.462  1.00  0.00    -0.111 C  
ENDROOT
BRANCH   4  24
HETATM   24  C   UNL     1     -10.218  12.245  67.175  1.00  0.00    -0.211 C  
HETATM   25  O   UNL     1     -10.584  12.202  65.996  1.00  0.00    -0.243 OA 
BRANCH  24  26
HETATM   26  C   UNL     1     -10.568  13.561  67.921  1.00  0.00    -0.248 C  
BRANCH  26  27
HETATM   27  O   UNL     1     -11.184  14.512  67.012  1.00  0.00    -0.315 OA 
BRANCH  27  28
HETATM   28  C   UNL     1     -10.588  15.741  66.982  1.00  0.00    -0.316 C  
HETATM   29  C   UNL     1      -9.507  15.813  65.938  1.00  0.00    -0.377 C  
HETATM   30  O   UNL     1     -10.878  16.675  67.715  1.00  0.00    -0.340 OA 
ENDBRANCH  27  28
ENDBRANCH  26  27
ENDBRANCH  24  26
ENDBRANCH   4  24
TORSDOF 4
ENDMDL
MODEL       98
REMARK 921   NORMALIZED FREE ENERGY PREDICTED BY IDOCK:   -3.99 KCAL/MOL
REMARK 922        TOTAL FREE ENERGY PREDICTED BY IDOCK:   -4.71 KCAL/MOL
REMARK 923 INTER-LIGAND FREE ENERGY PREDICTED BY IDOCK:   -5.21 KCAL/MOL
REMARK 924 INTRA-LIGAND FREE ENERGY PREDICTED BY IDOCK:    0.51 KCAL/MOL
REMARK 927      BINDING AFFINITY PREDICTED BY RF-SCORE:    0.00 PKD
ROOT
HETATM    1  C   UNL     1      -7.785   7.984  65.065  1.00  0.00    -0.112 C  
HETATM    2  C   UNL     1      -6.701   8.827  65.398  1.00  0.00    -0.068 C  
HETATM    3  C   UNL     1      -6.764   7.575  66.211  1.00  0.00    -0.057 C  
HETATM    4  C   UNL     1      -8.068   6.089  65.612  1.00  0.00    -0.126 C  
HETATM    5  O   UNL     1     -11.759   9.691  71.919  1.00  0.00    -0.357 OA 
HETATM    6  O   UNL     1      -8.902   6.258  64.404  1.00  0.00    -0.330 OA 
HETATM    7  C   UNL     1      -6.771   6.350  65.278  1.00  0.00    -0.047 C  
HETATM    8  C   UNL     1      -5.896   5.990  64.097  1.00  0.00    -0.022 C  
HETATM    9  C   UNL     1      -6.606   5.690  67.081  1.00  0.00    -0.056 C  
HETATM   10  C   UNL     1     -10.874   9.510  71.093  1.00  0.00    -0.355 C  
HETATM   11  C   UNL     1     -10.976  10.074  69.737  1.00  0.00    -0.317 C  
HETATM   12  H   UNL     1      -9.502   5.576  64.129  1.00  0.00     0.000 HD 
HETATM   13  C   UNL     1      -8.014   6.123  68.013  1.00  0.00    -0.110 C  
HETATM   14  C   UNL     1      -9.599   8.785  71.370  1.00  0.00    -0.337 C  
HETATM   15  O   UNL     1      -8.482   5.276  68.777  1.00  0.00    -0.092 OA 
HETATM   16  C   UNL     1     -11.124   6.965  68.634  1.00  0.00    -0.152 C  
HETATM   17  C   UNL     1      -8.744   7.646  67.867  1.00  0.00    -0.124 C  
HETATM   18  C   UNL     1      -9.070   8.191  66.337  1.00  0.00    -0.226 C  
HETATM   19  C   UNL     1      -9.933   7.912  68.885  1.00  0.00    -0.194 C  
HETATM   20  C   UNL     1      -9.394   7.666  70.354  1.00  0.00    -0.160 C  
HETATM   21  C   UNL     1      -9.486   9.669  66.405  1.00  0.00    -0.244 C  
HETATM   22  C   UNL     1     -10.690   9.885  67.310  1.00  0.00    -0.304 C  
HETATM   23  C   UNL     1     -10.504   9.344  68.709  1.00  0.00    -0.236 C  
ENDROOT
BRANCH   4  24
HETATM   24  C   UNL     1      -7.918   4.392  65.262  1.00  0.00    -0.101 C  
HETATM   25  O   UNL     1      -7.300   3.565  65.939  1.00  0.00    -0.073 OA 
BRANCH  24  26
HETATM   26  C   UNL     1      -8.597   3.821  63.988  1.00  0.00    -0.092 C  
BRANCH  26  27
HETATM   27  O   UNL     1      -9.764   3.033  64.345  1.00  0.00    -0.151 OA 
BRANCH  27  28
HETATM   28  C   UNL     1     -10.687   2.896  63.346  1.00  0.00    -0.242 C  
HETATM   29  C   UNL     1     -10.581   4.003  62.333  1.00  0.00    -0.188 C  
HETATM   30  O   UNL     1     -11.512   1.998  63.276  1.00  0.00    -0.339 OA 
ENDBRANCH  27  28
ENDBRANCH  26  27
ENDBRANCH  24  26
ENDBRANCH   4  24
TORSDOF 4
ENDMDL
MODEL       99
REMARK 921   NORMALIZED FREE ENERGY PREDICTED BY IDOCK:   -3.97 KCAL/MOL
REMARK 922        TOTAL FREE ENERGY PREDICTED BY IDOCK:   -4.67 KCAL/MOL
REMARK 923 INTER-LIGAND FREE ENERGY PREDICTED BY IDOCK:   -5.05 KCAL/MOL
REMARK 924 INTRA-LIGAND FREE ENERGY PREDICTED BY IDOCK:    0.37 KCAL/MOL
REMARK 927      BINDING AFFINITY PREDICTED BY RF-SCORE:    0.00 PKD
ROOT
HETATM    1  C   UNL     1      -9.562   9.107  69.449  1.00  0.00    -0.165 C  
HETATM    2  C   UNL     1     -10.477   9.401  68.414  1.00  0.00    -0.256 C  
HETATM    3  C   UNL     1     -10.901   8.267  69.290  1.00  0.00    -0.063 C  
HETATM    4  C   UNL     1      -9.856   7.948  71.043  1.00  0.00    -0.170 C  
HETATM    5  O   UNL     1      -7.141   2.224  65.920  1.00  0.00    -0.053 OA 
HETATM    6  O   UNL     1      -8.732   8.828  71.423  1.00  0.00    -0.185 OA 
HETATM    7  C   UNL     1     -10.936   8.731  70.758  1.00  0.00    -0.294 C  
HETATM    8  C   UNL     1     -11.548   9.955  71.402  1.00  0.00    -0.428 C  
HETATM    9  C   UNL     1     -11.689   6.957  70.703  1.00  0.00    -0.417 C  
HETATM   10  C   UNL     1      -7.809   3.188  66.271  1.00  0.00    -0.078 C  
HETATM   11  C   UNL     1      -7.249   4.549  66.246  1.00  0.00    -0.076 C  
HETATM   12  H   UNL     1      -8.251   8.681  72.228  1.00  0.00     0.000 HD 
HETATM   13  C   UNL     1     -10.496   5.814  70.147  1.00  0.00    -0.278 C  
HETATM   14  C   UNL     1      -9.242   3.112  66.683  1.00  0.00    -0.165 C  
HETATM   15  O   UNL     1     -10.436   4.722  70.717  1.00  0.00    -0.160 OA 
HETATM   16  C   UNL     1      -7.532   4.546  69.537  1.00  0.00    -0.051 C  
HETATM   17  C   UNL     1      -9.431   6.183  68.882  1.00  0.00    -0.131 C  
HETATM   18  C   UNL     1      -8.621   7.626  68.965  1.00  0.00    -0.136 C  
HETATM   19  C   UNL     1      -8.505   4.979  68.421  1.00  0.00    -0.094 C  
HETATM   20  C   UNL     1      -9.433   3.749  68.056  1.00  0.00    -0.221 C  
HETATM   21  C   UNL     1      -7.915   7.887  67.625  1.00  0.00    -0.124 C  
HETATM   22  C   UNL     1      -6.957   6.764  67.253  1.00  0.00    -0.074 C  
HETATM   23  C   UNL     1      -7.602   5.398  67.231  1.00  0.00    -0.092 C  
ENDROOT
BRANCH   4  24
HETATM   24  C   UNL     1     -10.290   7.791  72.720  1.00  0.00    -0.313 C  
HETATM   25  O   UNL     1     -11.436   7.664  73.163  1.00  0.00    -0.314 OA 
BRANCH  24  26
HETATM   26  C   UNL     1      -9.171   7.819  73.796  1.00  0.00    -0.256 C  
BRANCH  26  27
HETATM   27  O   UNL     1      -9.042   6.517  74.428  1.00  0.00    -0.160 OA 
BRANCH  27  28
HETATM   28  C   UNL     1      -8.293   5.614  73.727  1.00  0.00    -0.114 C  
HETATM   29  C   UNL     1      -7.075   6.253  73.117  1.00  0.00    -0.083 C  
HETATM   30  O   UNL     1      -8.570   4.432  73.593  1.00  0.00    -0.096 OA 
ENDBRANCH  27  28
ENDBRANCH  26  27
ENDBRANCH  24  26
ENDBRANCH   4  24
TORSDOF 4
ENDMDL
MODEL      100
REMARK 921   NORMALIZED FREE ENERGY PREDICTED BY IDOCK:   -3.96 KCAL/MOL
REMARK 922        TOTAL FREE ENERGY PREDICTED BY IDOCK:   -4.66 KCAL/MOL
REMARK 923 INTER-LIGAND FREE ENERGY PREDICTED BY IDOCK:   -5.13 KCAL/MOL
REMARK 924 INTRA-LIGAND FREE ENERGY PREDICTED BY IDOCK:    0.46 KCAL/MOL
REMARK 927      BINDING AFFINITY PREDICTED BY RF-SCORE:    0.00 PKD
ROOT
HETATM    1  C   UNL     1     -11.150   9.667  68.430  1.00  0.00    -0.090 C  
HETATM    2  C   UNL     1     -11.032   9.307  69.791  1.00  0.00    -0.213 C  
HETATM    3  C   UNL     1      -9.782   9.884  69.210  1.00  0.00    -0.218 C  
HETATM    4  C   UNL     1      -9.896  10.779  67.351  1.00  0.00    -0.177 C  
HETATM    5  O   UNL     1      -6.499   3.505  65.963  1.00  0.00    -0.032 OA 
HETATM    6  O   UNL     1     -11.183  10.856  66.628  1.00  0.00    -0.207 OA 
HETATM    7  C   UNL     1     -10.082  11.271  68.610  1.00  0.00    -0.216 C  
HETATM    8  C   UNL     1     -10.821  12.463  69.176  1.00  0.00    -0.148 C  
HETATM    9  C   UNL     1      -8.171  11.022  68.543  1.00  0.00    -0.146 C  
HETATM   10  C   UNL     1      -7.001   4.397  66.634  1.00  0.00    -0.059 C  
HETATM   11  C   UNL     1      -8.463   4.540  66.735  1.00  0.00    -0.105 C  
HETATM   12  H   UNL     1     -11.235  11.267  65.774  1.00  0.00     0.000 HD 
HETATM   13  C   UNL     1      -7.776   9.665  67.523  1.00  0.00    -0.095 C  
HETATM   14  C   UNL     1      -6.223   5.369  67.459  1.00  0.00    -0.034 C  
HETATM   15  O   UNL     1      -6.814   9.779  66.760  1.00  0.00    -0.081 OA 
HETATM   16  C   UNL     1      -8.124   7.420  65.156  1.00  0.00    -0.129 C  
HETATM   17  C   UNL     1      -8.687   8.236  67.549  1.00  0.00    -0.129 C  
HETATM   18  C   UNL     1     -10.334   8.381  67.434  1.00  0.00    -0.355 C  
HETATM   19  C   UNL     1      -8.105   7.061  66.655  1.00  0.00    -0.110 C  
HETATM   20  C   UNL     1      -6.606   6.800  67.092  1.00  0.00    -0.047 C  
HETATM   21  C   UNL     1     -10.982   7.019  67.731  1.00  0.00    -0.234 C  
HETATM   22  C   UNL     1     -10.481   5.929  66.794  1.00  0.00    -0.344 C  
HETATM   23  C   UNL     1      -8.977   5.784  66.781  1.00  0.00    -0.118 C  
ENDROOT
BRANCH   4  24
HETATM   24  C   UNL     1      -9.448  12.331  66.706  1.00  0.00    -0.222 C  
HETATM   25  O   UNL     1      -8.471  13.003  67.048  1.00  0.00    -0.193 OA 
BRANCH  24  26
HETATM   26  C   UNL     1     -10.334  12.975  65.606  1.00  0.00    -0.285 C  
BRANCH  26  27
HETATM   27  O   UNL     1     -10.165  14.418  65.599  1.00  0.00    -0.314 OA 
BRANCH  27  28
HETATM   28  C   UNL     1     -11.112  15.107  66.302  1.00  0.00    -0.309 C  
HETATM   29  C   UNL     1     -12.463  14.450  66.210  1.00  0.00    -0.239 C  
HETATM   30  O   UNL     1     -10.908  16.138  66.925  1.00  0.00    -0.282 OA 
ENDBRANCH  27  28
ENDBRANCH  26  27
ENDBRANCH  24  26
ENDBRANCH   4  24
TORSDOF 4
ENDMDL
MODEL      101
REMARK 921   NORMALIZED FREE ENERGY PREDICTED BY IDOCK:   -3.93 KCAL/MOL
REMARK 922        TOTAL FREE ENERGY PREDICTED BY IDOCK:   -4.62 KCAL/MOL
REMARK 923 INTER-LIGAND FREE ENERGY PREDICTED BY IDOCK:   -4.95 KCAL/MOL
REMARK 924 INTRA-LIGAND FREE ENERGY PREDICTED BY IDOCK:    0.32 KCAL/MOL
REMARK 927      BINDING AFFINITY PREDICTED BY RF-SCORE:    0.00 PKD
ROOT
HETATM    1  C   UNL     1      -7.252   5.331  69.342  1.00  0.00    -0.061 C  
HETATM    2  C   UNL     1      -6.160   5.837  68.601  1.00  0.00    -0.025 C  
HETATM    3  C   UNL     1      -6.449   6.605  69.849  1.00  0.00    -0.044 C  
HETATM    4  C   UNL     1      -7.773   5.790  71.210  1.00  0.00    -0.109 C  
HETATM    5  O   UNL     1     -12.030  11.570  67.355  1.00  0.00    -0.623 OA 
HETATM    6  O   UNL     1      -8.403   4.478  70.958  1.00  0.00    -0.089 OA 
HETATM    7  C   UNL     1      -6.424   5.654  71.061  1.00  0.00    -0.036 C  
HETATM    8  C   UNL     1      -5.418   4.606  71.485  1.00  0.00    -0.004 C  
HETATM    9  C   UNL     1      -6.582   7.448  71.749  1.00  0.00    -0.043 C  
HETATM   10  C   UNL     1     -11.052  10.877  67.605  1.00  0.00    -0.313 C  
HETATM   11  C   UNL     1     -10.905   9.533  67.022  1.00  0.00    -0.125 C  
HETATM   12  H   UNL     1      -9.012   4.104  71.583  1.00  0.00     0.000 HD 
HETATM   13  C   UNL     1      -8.070   8.173  71.203  1.00  0.00    -0.103 C  
HETATM   14  C   UNL     1      -9.897  11.321  68.442  1.00  0.00    -0.200 C  
HETATM   15  O   UNL     1      -8.715   8.843  72.012  1.00  0.00    -0.365 OA 
HETATM   16  C   UNL     1     -11.154   8.354  70.097  1.00  0.00    -0.183 C  
HETATM   17  C   UNL     1      -8.638   7.956  69.620  1.00  0.00    -0.133 C  
HETATM   18  C   UNL     1      -8.688   6.407  69.035  1.00  0.00    -0.123 C  
HETATM   19  C   UNL     1      -9.936   8.796  69.260  1.00  0.00    -0.194 C  
HETATM   20  C   UNL     1      -9.642  10.321  69.565  1.00  0.00    -0.225 C  
HETATM   21  C   UNL     1      -8.981   6.445  67.527  1.00  0.00    -0.116 C  
HETATM   22  C   UNL     1     -10.283   7.170  67.215  1.00  0.00    -0.315 C  
HETATM   23  C   UNL     1     -10.351   8.569  67.782  1.00  0.00    -0.298 C  
ENDROOT
BRANCH   4  24
HETATM   24  C   UNL     1      -7.719   5.430  72.911  1.00  0.00    -0.098 C  
HETATM   25  O   UNL     1      -7.093   6.063  73.766  1.00  0.00    -0.080 OA 
BRANCH  24  26
HETATM   26  C   UNL     1      -8.504   4.202  73.448  1.00  0.00    -0.089 C  
BRANCH  26  27
HETATM   27  O   UNL     1      -9.699   4.633  74.153  1.00  0.00    -0.124 OA 
BRANCH  27  28
HETATM   28  C   UNL     1     -10.872   4.366  73.506  1.00  0.00    -0.277 C  
HETATM   29  C   UNL     1     -11.346   5.546  72.700  1.00  0.00    -0.346 C  
HETATM   30  O   UNL     1     -11.480   3.309  73.571  1.00  0.00    -0.204 OA 
ENDBRANCH  27  28
ENDBRANCH  26  27
ENDBRANCH  24  26
ENDBRANCH   4  24
TORSDOF 4
ENDMDL
MODEL      102
REMARK 921   NORMALIZED FREE ENERGY PREDICTED BY IDOCK:   -3.91 KCAL/MOL
REMARK 922        TOTAL FREE ENERGY PREDICTED BY IDOCK:   -4.60 KCAL/MOL
REMARK 923 INTER-LIGAND FREE ENERGY PREDICTED BY IDOCK:   -5.77 KCAL/MOL
REMARK 924 INTRA-LIGAND FREE ENERGY PREDICTED BY IDOCK:    1.17 KCAL/MOL
REMARK 927      BINDING AFFINITY PREDICTED BY RF-SCORE:    0.00 PKD
ROOT
HETATM    1  C   UNL     1     -10.577   7.017  70.031  1.00  0.00    -0.251 C  
HETATM    2  C   UNL     1     -11.901   6.614  69.747  1.00  0.00    -0.159 C  
HETATM    3  C   UNL     1     -11.029   6.719  68.538  1.00  0.00    -0.258 C  
HETATM    4  C   UNL     1      -8.996   6.950  68.820  1.00  0.00    -0.130 C  
HETATM    5  O   UNL     1     -11.683  14.376  66.819  1.00  0.00    -0.371 OA 
HETATM    6  O   UNL     1      -8.423   6.994  70.181  1.00  0.00    -0.136 OA 
HETATM    7  C   UNL     1      -9.780   5.837  68.721  1.00  0.00    -0.168 C  
HETATM    8  C   UNL     1      -9.630   4.401  69.172  1.00  0.00    -0.252 C  
HETATM    9  C   UNL     1      -9.757   6.486  66.906  1.00  0.00    -0.199 C  
HETATM   10  C   UNL     1     -11.774  13.180  67.066  1.00  0.00    -0.377 C  
HETATM   11  C   UNL     1     -11.859  12.696  68.454  1.00  0.00    -0.347 C  
HETATM   12  H   UNL     1      -7.488   7.101  70.311  1.00  0.00     0.000 HD 
HETATM   13  C   UNL     1      -9.639   8.225  66.890  1.00  0.00    -0.207 C  
HETATM   14  C   UNL     1     -11.878  12.113  66.027  1.00  0.00    -0.328 C  
HETATM   15  O   UNL     1      -8.889   8.744  66.060  1.00  0.00    -0.153 OA 
HETATM   16  C   UNL     1      -8.934  11.248  67.952  1.00  0.00    -0.146 C  
HETATM   17  C   UNL     1     -10.502   9.186  67.987  1.00  0.00    -0.276 C  
HETATM   18  C   UNL     1     -10.416   8.776  69.591  1.00  0.00    -0.220 C  
HETATM   19  C   UNL     1     -10.378  10.750  67.741  1.00  0.00    -0.226 C  
HETATM   20  C   UNL     1     -10.803  11.053  66.247  1.00  0.00    -0.234 C  
HETATM   21  C   UNL     1     -11.452   9.594  70.378  1.00  0.00    -0.325 C  
HETATM   22  C   UNL     1     -11.250  11.093  70.205  1.00  0.00    -0.211 C  
HETATM   23  C   UNL     1     -11.237  11.542  68.762  1.00  0.00    -0.309 C  
ENDROOT
BRANCH   4  24
HETATM   24  C   UNL     1      -7.576   6.117  68.257  1.00  0.00    -0.098 C  
HETATM   25  O   UNL     1      -6.562   5.883  68.921  1.00  0.00    -0.050 OA 
BRANCH  24  26
HETATM   26  C   UNL     1      -7.528   5.615  66.789  1.00  0.00    -0.087 C  
BRANCH  26  27
HETATM   27  O   UNL     1      -6.639   4.472  66.672  1.00  0.00    -0.047 OA 
BRANCH  27  28
HETATM   28  C   UNL     1      -7.235   3.261  66.887  1.00  0.00    -0.059 C  
HETATM   29  C   UNL     1      -8.305   2.978  65.868  1.00  0.00    -0.098 C  
HETATM   30  O   UNL     1      -6.953   2.496  67.796  1.00  0.00    -0.046 OA 
ENDBRANCH  27  28
ENDBRANCH  26  27
ENDBRANCH  24  26
ENDBRANCH   4  24
TORSDOF 4
ENDMDL
MODEL      103
REMARK 921   NORMALIZED FREE ENERGY PREDICTED BY IDOCK:   -3.90 KCAL/MOL
REMARK 922        TOTAL FREE ENERGY PREDICTED BY IDOCK:   -4.59 KCAL/MOL
REMARK 923 INTER-LIGAND FREE ENERGY PREDICTED BY IDOCK:   -4.78 KCAL/MOL
REMARK 924 INTRA-LIGAND FREE ENERGY PREDICTED BY IDOCK:    0.19 KCAL/MOL
REMARK 927      BINDING AFFINITY PREDICTED BY RF-SCORE:    0.00 PKD
ROOT
HETATM    1  C   UNL     1      -7.886   8.076  70.808  1.00  0.00    -0.091 C  
HETATM    2  C   UNL     1      -8.079   8.686  72.068  1.00  0.00    -0.131 C  
HETATM    3  C   UNL     1      -9.208   8.904  71.113  1.00  0.00    -0.324 C  
HETATM    4  C   UNL     1      -9.237   7.792  69.371  1.00  0.00    -0.149 C  
HETATM    5  O   UNL     1      -6.647  15.173  67.095  1.00  0.00    -0.285 OA 
HETATM    6  O   UNL     1      -8.178   6.801  69.090  1.00  0.00    -0.118 OA 
HETATM    7  C   UNL     1      -9.737   7.544  70.617  1.00  0.00    -0.175 C  
HETATM    8  C   UNL     1     -10.114   6.287  71.369  1.00  0.00    -0.222 C  
HETATM    9  C   UNL     1     -10.938   8.899  69.955  1.00  0.00    -0.190 C  
HETATM   10  C   UNL     1      -7.029  14.312  67.876  1.00  0.00    -0.164 C  
HETATM   11  C   UNL     1      -6.091  13.321  68.430  1.00  0.00    -0.086 C  
HETATM   12  H   UNL     1      -8.192   6.291  68.290  1.00  0.00     0.000 HD 
HETATM   13  C   UNL     1     -10.092   9.982  68.883  1.00  0.00    -0.190 C  
HETATM   14  C   UNL     1      -8.424  14.208  68.398  1.00  0.00    -0.170 C  
HETATM   15  O   UNL     1     -10.669  10.341  67.854  1.00  0.00    -0.224 OA 
HETATM   16  C   UNL     1      -7.800  11.027  66.781  1.00  0.00    -0.149 C  
HETATM   17  C   UNL     1      -8.519  10.517  69.217  1.00  0.00    -0.138 C  
HETATM   18  C   UNL     1      -7.395   9.370  69.625  1.00  0.00    -0.077 C  
HETATM   19  C   UNL     1      -7.957  11.601  68.203  1.00  0.00    -0.141 C  
HETATM   20  C   UNL     1      -8.979  12.809  68.149  1.00  0.00    -0.199 C  
HETATM   21  C   UNL     1      -6.123  10.067  70.132  1.00  0.00    -0.070 C  
HETATM   22  C   UNL     1      -5.547  11.028  69.102  1.00  0.00    -0.040 C  
HETATM   23  C   UNL     1      -6.534  12.063  68.617  1.00  0.00    -0.063 C  
ENDROOT
BRANCH   4  24
HETATM   24  C   UNL     1     -10.401   6.759  68.594  1.00  0.00    -0.186 C  
HETATM   25  O   UNL     1     -11.192   6.001  69.164  1.00  0.00    -0.378 OA 
BRANCH  24  26
HETATM   26  C   UNL     1     -10.482   6.746  67.044  1.00  0.00    -0.299 C  
BRANCH  26  27
HETATM   27  O   UNL     1      -9.443   7.586  66.474  1.00  0.00    -0.181 OA 
BRANCH  27  28
HETATM   28  C   UNL     1      -8.503   6.915  65.744  1.00  0.00    -0.146 C  
HETATM   29  C   UNL     1      -8.135   7.659  64.489  1.00  0.00    -0.098 C  
HETATM   30  O   UNL     1      -8.018   5.837  66.052  1.00  0.00    -0.099 OA 
ENDBRANCH  27  28
ENDBRANCH  26  27
ENDBRANCH  24  26
ENDBRANCH   4  24
TORSDOF 4
ENDMDL
MODEL      104
REMARK 921   NORMALIZED FREE ENERGY PREDICTED BY IDOCK:   -3.85 KCAL/MOL
REMARK 922        TOTAL FREE ENERGY PREDICTED BY IDOCK:   -4.53 KCAL/MOL
REMARK 923 INTER-LIGAND FREE ENERGY PREDICTED BY IDOCK:   -4.75 KCAL/MOL
REMARK 924 INTRA-LIGAND FREE ENERGY PREDICTED BY IDOCK:    0.22 KCAL/MOL
REMARK 927      BINDING AFFINITY PREDICTED BY RF-SCORE:    0.00 PKD
ROOT
HETATM    1  C   UNL     1     -11.247   8.511  70.022  1.00  0.00    -0.086 C  
HETATM    2  C   UNL     1     -11.168   9.503  71.025  1.00  0.00    -0.432 C  
HETATM    3  C   UNL     1      -9.884   9.280  70.295  1.00  0.00    -0.265 C  
HETATM    4  C   UNL     1      -9.925   8.127  68.581  1.00  0.00    -0.190 C  
HETATM    5  O   UNL     1      -6.850   3.229  74.320  1.00  0.00    -0.041 OA 
HETATM    6  O   UNL     1     -11.194   7.554  68.087  1.00  0.00    -0.437 OA 
HETATM    7  C   UNL     1     -10.107   9.464  68.782  1.00  0.00    -0.208 C  
HETATM    8  C   UNL     1     -10.799  10.561  68.003  1.00  0.00    -0.312 C  
HETATM    9  C   UNL     1      -8.210   9.264  69.056  1.00  0.00    -0.111 C  
HETATM   10  C   UNL     1      -7.321   4.263  73.864  1.00  0.00    -0.068 C  
HETATM   11  C   UNL     1      -8.776   4.436  73.720  1.00  0.00    -0.105 C  
HETATM   12  H   UNL     1     -11.213   7.024  67.299  1.00  0.00     0.000 HD 
HETATM   13  C   UNL     1      -7.862   7.695  69.732  1.00  0.00    -0.110 C  
HETATM   14  C   UNL     1      -6.512   5.458  73.480  1.00  0.00    -0.067 C  
HETATM   15  O   UNL     1      -6.883   7.084  69.296  1.00  0.00    -0.051 OA 
HETATM   16  C   UNL     1      -8.275   4.522  70.457  1.00  0.00    -0.072 C  
HETATM   17  C   UNL     1      -8.840   7.005  70.933  1.00  0.00    -0.148 C  
HETATM   18  C   UNL     1     -10.476   6.994  70.669  1.00  0.00    -0.229 C  
HETATM   19  C   UNL     1      -8.298   5.635  71.524  1.00  0.00    -0.127 C  
HETATM   20  C   UNL     1      -6.821   5.867  72.043  1.00  0.00    -0.076 C  
HETATM   21  C   UNL     1     -11.192   6.570  71.961  1.00  0.00    -0.312 C  
HETATM   22  C   UNL     1     -10.727   5.207  72.453  1.00  0.00    -0.276 C  
HETATM   23  C   UNL     1      -9.232   5.108  72.646  1.00  0.00    -0.146 C  
ENDROOT
BRANCH   4  24
HETATM   24  C   UNL     1      -9.393   8.349  66.940  1.00  0.00    -0.174 C  
HETATM   25  O   UNL     1      -9.330   9.424  66.337  1.00  0.00    -0.162 OA 
BRANCH  24  26
HETATM   26  C   UNL     1      -8.959   7.108  66.113  1.00  0.00    -0.140 C  
BRANCH  26  27
HETATM   27  O   UNL     1      -9.152   5.892  66.884  1.00  0.00    -0.117 OA 
BRANCH  27  28
HETATM   28  C   UNL     1      -8.189   4.941  66.699  1.00  0.00    -0.107 C  
HETATM   29  C   UNL     1      -8.780   3.560  66.599  1.00  0.00    -0.126 C  
HETATM   30  O   UNL     1      -6.990   5.164  66.633  1.00  0.00    -0.061 OA 
ENDBRANCH  27  28
ENDBRANCH  26  27
ENDBRANCH  24  26
ENDBRANCH   4  24
TORSDOF 4
ENDMDL
MODEL      105
REMARK 921   NORMALIZED FREE ENERGY PREDICTED BY IDOCK:   -3.84 KCAL/MOL
REMARK 922        TOTAL FREE ENERGY PREDICTED BY IDOCK:   -4.51 KCAL/MOL
REMARK 923 INTER-LIGAND FREE ENERGY PREDICTED BY IDOCK:   -5.19 KCAL/MOL
REMARK 924 INTRA-LIGAND FREE ENERGY PREDICTED BY IDOCK:    0.67 KCAL/MOL
REMARK 927      BINDING AFFINITY PREDICTED BY RF-SCORE:    0.00 PKD
ROOT
HETATM    1  C   UNL     1      -6.398   9.908  69.421  1.00  0.00    -0.045 C  
HETATM    2  C   UNL     1      -5.594   8.827  68.993  1.00  0.00    -0.036 C  
HETATM    3  C   UNL     1      -6.960   8.839  68.388  1.00  0.00    -0.066 C  
HETATM    4  C   UNL     1      -8.120  10.532  68.634  1.00  0.00    -0.127 C  
HETATM    5  O   UNL     1     -11.143   5.137  73.938  1.00  0.00    -0.265 OA 
HETATM    6  O   UNL     1      -7.602  11.700  69.376  1.00  0.00    -0.344 OA 
HETATM    7  C   UNL     1      -7.203  10.187  67.683  1.00  0.00    -0.088 C  
HETATM    8  C   UNL     1      -6.351  10.971  66.710  1.00  0.00    -0.114 C  
HETATM    9  C   UNL     1      -8.693   9.042  67.252  1.00  0.00    -0.122 C  
HETATM   10  C   UNL     1     -10.387   5.550  73.069  1.00  0.00    -0.202 C  
HETATM   11  C   UNL     1      -9.212   6.368  73.413  1.00  0.00    -0.140 C  
HETATM   12  H   UNL     1      -8.135  12.477  69.490  1.00  0.00     0.000 HD 
HETATM   13  C   UNL     1      -9.562   8.613  68.701  1.00  0.00    -0.155 C  
HETATM   14  C   UNL     1     -10.517   5.228  71.617  1.00  0.00    -0.280 C  
HETATM   15  O   UNL     1     -10.794   8.609  68.654  1.00  0.00    -0.106 OA 
HETATM   16  C   UNL     1     -10.667   8.844  71.781  1.00  0.00    -0.432 C  
HETATM   17  C   UNL     1      -8.756   8.232  70.142  1.00  0.00    -0.133 C  
HETATM   18  C   UNL     1      -7.578   9.279  70.655  1.00  0.00    -0.161 C  
HETATM   19  C   UNL     1      -9.699   7.736  71.319  1.00  0.00    -0.179 C  
HETATM   20  C   UNL     1     -10.550   6.511  70.791  1.00  0.00    -0.278 C  
HETATM   21  C   UNL     1      -6.804   8.637  71.818  1.00  0.00    -0.087 C  
HETATM   22  C   UNL     1      -7.718   8.261  72.976  1.00  0.00    -0.180 C  
HETATM   23  C   UNL     1      -8.869   7.367  72.577  1.00  0.00    -0.159 C  
ENDROOT
BRANCH   4  24
HETATM   24  C   UNL     1      -8.975  11.600  67.561  1.00  0.00    -0.165 C  
HETATM   25  O   UNL     1      -8.957  11.555  66.328  1.00  0.00    -0.193 OA 
BRANCH  24  26
HETATM   26  C   UNL     1      -9.844  12.738  68.163  1.00  0.00    -0.226 C  
BRANCH  26  27
HETATM   27  O   UNL     1      -9.025  13.903  68.452  1.00  0.00    -0.186 OA 
BRANCH  27  28
HETATM   28  C   UNL     1      -9.719  15.073  68.572  1.00  0.00    -0.217 C  
HETATM   29  C   UNL     1      -8.845  16.192  69.070  1.00  0.00    -0.251 C  
HETATM   30  O   UNL     1     -10.907  15.209  68.322  1.00  0.00    -0.247 OA 
ENDBRANCH  27  28
ENDBRANCH  26  27
ENDBRANCH  24  26
ENDBRANCH   4  24
TORSDOF 4
ENDMDL
MODEL      106
REMARK 921   NORMALIZED FREE ENERGY PREDICTED BY IDOCK:   -3.83 KCAL/MOL
REMARK 922        TOTAL FREE ENERGY PREDICTED BY IDOCK:   -4.51 KCAL/MOL
REMARK 923 INTER-LIGAND FREE ENERGY PREDICTED BY IDOCK:   -5.91 KCAL/MOL
REMARK 924 INTRA-LIGAND FREE ENERGY PREDICTED BY IDOCK:    1.40 KCAL/MOL
REMARK 927      BINDING AFFINITY PREDICTED BY RF-SCORE:    0.00 PKD
ROOT
HETATM    1  C   UNL     1      -8.138   9.785  70.360  1.00  0.00    -0.134 C  
HETATM    2  C   UNL     1      -6.845   9.241  70.529  1.00  0.00    -0.087 C  
HETATM    3  C   UNL     1      -7.637   8.588  69.443  1.00  0.00    -0.090 C  
HETATM    4  C   UNL     1      -9.394   9.494  68.840  1.00  0.00    -0.149 C  
HETATM    5  O   UNL     1     -11.755   3.257  73.520  1.00  0.00    -0.113 OA 
HETATM    6  O   UNL     1      -9.842  10.758  69.459  1.00  0.00    -0.406 OA 
HETATM    7  C   UNL     1      -8.102   9.652  68.430  1.00  0.00    -0.104 C  
HETATM    8  C   UNL     1      -7.347  10.762  67.733  1.00  0.00    -0.093 C  
HETATM    9  C   UNL     1      -8.558   7.929  67.696  1.00  0.00    -0.127 C  
HETATM   10  C   UNL     1     -10.959   3.997  72.957  1.00  0.00    -0.111 C  
HETATM   11  C   UNL     1     -10.563   5.282  73.557  1.00  0.00    -0.313 C  
HETATM   12  H   UNL     1     -10.649  11.174  69.183  1.00  0.00     0.000 HD 
HETATM   13  C   UNL     1      -9.697   7.114  68.734  1.00  0.00    -0.145 C  
HETATM   14  C   UNL     1     -10.262   3.666  71.678  1.00  0.00    -0.034 C  
HETATM   15  O   UNL     1     -10.630   6.508  68.203  1.00  0.00    -0.198 OA 
HETATM   16  C   UNL     1     -12.046   6.744  70.994  1.00  0.00    -0.426 C  
HETATM   17  C   UNL     1      -9.554   7.163  70.423  1.00  0.00    -0.169 C  
HETATM   18  C   UNL     1      -9.333   8.647  71.126  1.00  0.00    -0.274 C  
HETATM   19  C   UNL     1     -10.598   6.257  71.203  1.00  0.00    -0.289 C  
HETATM   20  C   UNL     1     -10.480   4.776  70.655  1.00  0.00    -0.087 C  
HETATM   21  C   UNL     1      -8.975   8.455  72.609  1.00  0.00    -0.304 C  
HETATM   22  C   UNL     1     -10.041   7.668  73.358  1.00  0.00    -0.379 C  
HETATM   23  C   UNL     1     -10.360   6.329  72.735  1.00  0.00    -0.216 C  
ENDROOT
BRANCH   4  24
HETATM   24  C   UNL     1     -10.044  10.018  67.315  1.00  0.00    -0.209 C  
HETATM   25  O   UNL     1     -10.694  11.049  67.120  1.00  0.00    -0.235 OA 
BRANCH  24  26
HETATM   26  C   UNL     1      -9.823   9.135  66.057  1.00  0.00    -0.272 C  
BRANCH  26  27
HETATM   27  O   UNL     1     -10.100   9.894  64.849  1.00  0.00    -0.268 OA 
BRANCH  27  28
HETATM   28  C   UNL     1      -9.115   9.845  63.904  1.00  0.00    -0.259 C  
HETATM   29  C   UNL     1      -7.745   9.919  64.523  1.00  0.00    -0.142 C  
HETATM   30  O   UNL     1      -9.304   9.762  62.701  1.00  0.00    -0.277 OA 
ENDBRANCH  27  28
ENDBRANCH  26  27
ENDBRANCH  24  26
ENDBRANCH   4  24
TORSDOF 4
ENDMDL
MODEL      107
REMARK 921   NORMALIZED FREE ENERGY PREDICTED BY IDOCK:   -3.82 KCAL/MOL
REMARK 922        TOTAL FREE ENERGY PREDICTED BY IDOCK:   -4.50 KCAL/MOL
REMARK 923 INTER-LIGAND FREE ENERGY PREDICTED BY IDOCK:   -5.13 KCAL/MOL
REMARK 924 INTRA-LIGAND FREE ENERGY PREDICTED BY IDOCK:    0.63 KCAL/MOL
REMARK 927      BINDING AFFINITY PREDICTED BY RF-SCORE:    0.00 PKD
ROOT
HETATM    1  C   UNL     1      -7.938  11.440  66.933  1.00  0.00    -0.158 C  
HETATM    2  C   UNL     1      -7.316  10.492  66.089  1.00  0.00    -0.136 C  
HETATM    3  C   UNL     1      -8.796  10.319  66.204  1.00  0.00    -0.166 C  
HETATM    4  C   UNL     1      -9.886  11.824  67.107  1.00  0.00    -0.193 C  
HETATM    5  O   UNL     1      -9.339   5.967  72.744  1.00  0.00    -0.146 OA 
HETATM    6  O   UNL     1      -9.218  13.042  67.610  1.00  0.00    -0.183 OA 
HETATM    7  C   UNL     1      -9.504  11.629  65.812  1.00  0.00    -0.244 C  
HETATM    8  C   UNL     1      -9.321  12.543  64.620  1.00  0.00     0.503 C  
HETATM    9  C   UNL     1     -10.872  10.290  66.042  1.00  0.00     0.100 C  
HETATM   10  C   UNL     1      -9.146   6.499  71.659  1.00  0.00    -0.143 C  
HETATM   11  C   UNL     1      -8.056   7.471  71.473  1.00  0.00    -0.099 C  
HETATM   12  H   UNL     1      -9.719  13.733  68.026  1.00  0.00     0.000 HD 
HETATM   13  C   UNL     1     -10.883   9.717  67.688  1.00  0.00    -0.239 C  
HETATM   14  C   UNL     1      -9.917   6.185  70.419  1.00  0.00    -0.223 C  
HETATM   15  O   UNL     1     -11.977   9.538  68.228  1.00  0.00     0.922 OA 
HETATM   16  C   UNL     1     -10.395   9.739  70.932  1.00  0.00    -0.245 C  
HETATM   17  C   UNL     1      -9.446   9.433  68.541  1.00  0.00    -0.150 C  
HETATM   18  C   UNL     1      -8.299  10.629  68.522  1.00  0.00    -0.130 C  
HETATM   19  C   UNL     1      -9.644   8.788  69.978  1.00  0.00    -0.177 C  
HETATM   20  C   UNL     1     -10.493   7.462  69.816  1.00  0.00    -0.235 C  
HETATM   21  C   UNL     1      -6.993  10.086  69.124  1.00  0.00    -0.059 C  
HETATM   22  C   UNL     1      -7.189   9.565  70.541  1.00  0.00    -0.141 C  
HETATM   23  C   UNL     1      -8.276   8.522  70.660  1.00  0.00    -0.129 C  
ENDROOT
BRANCH   4  24
HETATM   24  C   UNL     1     -11.270  12.776  66.658  1.00  0.00    -0.301 C  
HETATM   25  O   UNL     1     -12.371  12.337  66.312  1.00  0.00    -0.556 OA 
BRANCH  24  26
HETATM   26  C   UNL     1     -11.155  14.324  66.665  1.00  0.00    -0.321 C  
BRANCH  26  27
HETATM   27  O   UNL     1     -11.425  14.859  65.341  1.00  0.00    -0.346 OA 
BRANCH  27  28
HETATM   28  C   UNL     1     -10.838  16.066  65.083  1.00  0.00    -0.395 C  
HETATM   29  C   UNL     1      -9.568  16.249  65.869  1.00  0.00    -0.336 C  
HETATM   30  O   UNL     1     -11.284  16.910  64.321  1.00  0.00    -1.204 OA 
ENDBRANCH  27  28
ENDBRANCH  26  27
ENDBRANCH  24  26
ENDBRANCH   4  24
TORSDOF 4
ENDMDL
MODEL      108
REMARK 921   NORMALIZED FREE ENERGY PREDICTED BY IDOCK:   -3.82 KCAL/MOL
REMARK 922        TOTAL FREE ENERGY PREDICTED BY IDOCK:   -4.49 KCAL/MOL
REMARK 923 INTER-LIGAND FREE ENERGY PREDICTED BY IDOCK:   -5.15 KCAL/MOL
REMARK 924 INTRA-LIGAND FREE ENERGY PREDICTED BY IDOCK:    0.66 KCAL/MOL
REMARK 927      BINDING AFFINITY PREDICTED BY RF-SCORE:    0.00 PKD
ROOT
HETATM    1  C   UNL     1      -8.138  11.131  68.386  1.00  0.00    -0.141 C  
HETATM    2  C   UNL     1      -7.480  10.444  67.341  1.00  0.00    -0.094 C  
HETATM    3  C   UNL     1      -8.850   9.925  67.636  1.00  0.00    -0.126 C  
HETATM    4  C   UNL     1     -10.066  11.037  68.882  1.00  0.00    -0.199 C  
HETATM    5  O   UNL     1      -7.367   4.908  73.522  1.00  0.00    -0.083 OA 
HETATM    6  O   UNL     1      -9.594  12.317  69.451  1.00  0.00    -0.013 OA 
HETATM    7  C   UNL     1      -9.873  11.072  67.532  1.00  0.00    -0.190 C  
HETATM    8  C   UNL     1     -10.088  12.122  66.464  1.00  0.00    -0.229 C  
HETATM    9  C   UNL     1     -10.871   9.438  67.763  1.00  0.00    -0.223 C  
HETATM   10  C   UNL     1      -7.474   5.580  72.504  1.00  0.00    -0.097 C  
HETATM   11  C   UNL     1      -6.660   6.789  72.305  1.00  0.00    -0.058 C  
HETATM   12  H   UNL     1     -10.153  12.828  70.024  1.00  0.00     0.000 HD 
HETATM   13  C   UNL     1     -10.486   8.710  69.299  1.00  0.00    -0.217 C  
HETATM   14  C   UNL     1      -8.358   5.228  71.353  1.00  0.00    -0.121 C  
HETATM   15  O   UNL     1     -11.412   8.229  69.957  1.00  0.00    -0.089 OA 
HETATM   16  C   UNL     1      -9.480   8.504  72.415  1.00  0.00    -0.350 C  
HETATM   17  C   UNL     1      -8.900   8.675  69.895  1.00  0.00    -0.144 C  
HETATM   18  C   UNL     1      -8.050  10.097  69.882  1.00  0.00    -0.139 C  
HETATM   19  C   UNL     1      -8.715   7.856  71.243  1.00  0.00    -0.149 C  
HETATM   20  C   UNL     1      -9.282   6.395  71.019  1.00  0.00    -0.157 C  
HETATM   21  C   UNL     1      -6.577   9.809  70.215  1.00  0.00    -0.102 C  
HETATM   22  C   UNL     1      -6.420   9.112  71.559  1.00  0.00    -0.045 C  
HETATM   23  C   UNL     1      -7.227   7.841  71.684  1.00  0.00    -0.065 C  
ENDROOT
BRANCH   4  24
HETATM   24  C   UNL     1     -11.674  11.689  68.767  1.00  0.00    -0.330 C  
HETATM   25  O   UNL     1     -12.719  11.033  68.713  1.00  0.00    -0.155 OA 
BRANCH  24  26
HETATM   26  C   UNL     1     -11.863  13.229  68.711  1.00  0.00    -0.334 C  
BRANCH  26  27
HETATM   27  O   UNL     1     -11.669  13.812  70.027  1.00  0.00    -0.281 OA 
BRANCH  27  28
HETATM   28  C   UNL     1     -11.666  15.178  70.052  1.00  0.00    -0.307 C  
HETATM   29  C   UNL     1     -11.760  15.761  68.668  1.00  0.00    -0.353 C  
HETATM   30  O   UNL     1     -11.584  15.858  71.063  1.00  0.00    -0.362 OA 
ENDBRANCH  27  28
ENDBRANCH  26  27
ENDBRANCH  24  26
ENDBRANCH   4  24
TORSDOF 4
ENDMDL
MODEL      109
REMARK 921   NORMALIZED FREE ENERGY PREDICTED BY IDOCK:   -3.80 KCAL/MOL
REMARK 922        TOTAL FREE ENERGY PREDICTED BY IDOCK:   -4.46 KCAL/MOL
REMARK 923 INTER-LIGAND FREE ENERGY PREDICTED BY IDOCK:   -4.78 KCAL/MOL
REMARK 924 INTRA-LIGAND FREE ENERGY PREDICTED BY IDOCK:    0.31 KCAL/MOL
REMARK 927      BINDING AFFINITY PREDICTED BY RF-SCORE:    0.00 PKD
ROOT
HETATM    1  C   UNL     1      -6.836   5.369  69.843  1.00  0.00    -0.059 C  
HETATM    2  C   UNL     1      -6.992   4.354  70.814  1.00  0.00    -0.037 C  
HETATM    3  C   UNL     1      -8.011   4.305  69.721  1.00  0.00    -0.056 C  
HETATM    4  C   UNL     1      -7.708   5.489  68.055  1.00  0.00    -0.092 C  
HETATM    5  O   UNL     1     -13.391   9.397  72.393  1.00  0.00    -0.452 OA 
HETATM    6  O   UNL     1      -6.510   6.347  67.946  1.00  0.00    -0.044 OA 
HETATM    7  C   UNL     1      -7.303   4.222  68.356  1.00  0.00    -0.060 C  
HETATM    8  C   UNL     1      -6.181   3.332  67.867  1.00  0.00    -0.032 C  
HETATM    9  C   UNL     1      -9.188   3.983  68.034  1.00  0.00    -0.200 C  
HETATM   10  C   UNL     1     -12.586   8.509  72.143  1.00  0.00    -0.377 C  
HETATM   11  C   UNL     1     -11.156   8.671  72.453  1.00  0.00    -0.328 C  
HETATM   12  H   UNL     1      -6.372   6.891  67.180  1.00  0.00     0.000 HD 
HETATM   13  C   UNL     1     -10.065   5.413  68.509  1.00  0.00    -0.177 C  
HETATM   14  C   UNL     1     -12.953   7.175  71.580  1.00  0.00    -0.431 C  
HETATM   15  O   UNL     1     -10.976   5.801  67.773  1.00  0.00    -0.236 OA 
HETATM   16  C   UNL     1     -10.609   8.574  69.198  1.00  0.00    -0.188 C  
HETATM   17  C   UNL     1      -9.678   6.267  69.921  1.00  0.00    -0.191 C  
HETATM   18  C   UNL     1      -8.085   6.653  70.165  1.00  0.00    -0.124 C  
HETATM   19  C   UNL     1     -10.664   7.462  70.265  1.00  0.00    -0.250 C  
HETATM   20  C   UNL     1     -12.139   6.890  70.321  1.00  0.00    -0.182 C  
HETATM   21  C   UNL     1      -7.908   7.188  71.595  1.00  0.00    -0.097 C  
HETATM   22  C   UNL     1      -8.792   8.396  71.868  1.00  0.00    -0.267 C  
HETATM   23  C   UNL     1     -10.258   8.152  71.595  1.00  0.00    -0.266 C  
ENDROOT
BRANCH   4  24
HETATM   24  C   UNL     1      -7.653   5.204  66.340  1.00  0.00    -0.088 C  
HETATM   25  O   UNL     1      -7.059   4.279  65.778  1.00  0.00    -0.064 OA 
BRANCH  24  26
HETATM   26  C   UNL     1      -8.393   6.182  65.388  1.00  0.00    -0.150 C  
BRANCH  26  27
HETATM   27  O   UNL     1      -8.075   7.558  65.728  1.00  0.00    -0.112 OA 
BRANCH  27  28
HETATM   28  C   UNL     1      -7.013   8.084  65.048  1.00  0.00    -0.062 C  
HETATM   29  C   UNL     1      -7.429   8.658  63.721  1.00  0.00    -0.116 C  
HETATM   30  O   UNL     1      -5.859   8.085  65.448  1.00  0.00    -0.037 OA 
ENDBRANCH  27  28
ENDBRANCH  26  27
ENDBRANCH  24  26
ENDBRANCH   4  24
TORSDOF 4
ENDMDL
MODEL      110
REMARK 921   NORMALIZED FREE ENERGY PREDICTED BY IDOCK:   -3.79 KCAL/MOL
REMARK 922        TOTAL FREE ENERGY PREDICTED BY IDOCK:   -4.46 KCAL/MOL
REMARK 923 INTER-LIGAND FREE ENERGY PREDICTED BY IDOCK:   -5.89 KCAL/MOL
REMARK 924 INTRA-LIGAND FREE ENERGY PREDICTED BY IDOCK:    1.44 KCAL/MOL
REMARK 927      BINDING AFFINITY PREDICTED BY RF-SCORE:    0.00 PKD
ROOT
HETATM    1  C   UNL     1      -6.833  10.294  69.238  1.00  0.00    -0.068 C  
HETATM    2  C   UNL     1      -5.805   9.370  68.940  1.00  0.00    -0.039 C  
HETATM    3  C   UNL     1      -7.054   9.159  68.148  1.00  0.00    -0.078 C  
HETATM    4  C   UNL     1      -8.507  10.627  68.210  1.00  0.00    -0.127 C  
HETATM    5  O   UNL     1     -11.290   4.727  73.091  1.00  0.00    -0.303 OA 
HETATM    6  O   UNL     1      -8.305  11.856  69.006  1.00  0.00    -0.364 OA 
HETATM    7  C   UNL     1      -7.421  10.456  67.402  1.00  0.00    -0.094 C  
HETATM    8  C   UNL     1      -6.585  11.386  66.551  1.00  0.00    -0.071 C  
HETATM    9  C   UNL     1      -8.619   9.082  66.776  1.00  0.00    -0.129 C  
HETATM   10  C   UNL     1     -10.500   5.275  72.333  1.00  0.00    -0.215 C  
HETATM   11  C   UNL     1      -9.541   6.275  72.831  1.00  0.00    -0.155 C  
HETATM   12  H   UNL     1      -8.972  12.531  69.034  1.00  0.00     0.000 HD 
HETATM   13  C   UNL     1      -9.598   8.491  68.092  1.00  0.00    -0.143 C  
HETATM   14  C   UNL     1     -10.367   4.955  70.881  1.00  0.00    -0.225 C  
HETATM   15  O   UNL     1     -10.793   8.280  67.872  1.00  0.00    -0.117 OA 
HETATM   16  C   UNL     1     -11.149   8.491  70.984  1.00  0.00    -0.306 C  
HETATM   17  C   UNL     1      -8.950   8.233  69.637  1.00  0.00    -0.149 C  
HETATM   18  C   UNL     1      -8.051   9.457  70.301  1.00  0.00    -0.180 C  
HETATM   19  C   UNL     1      -9.952   7.569  70.674  1.00  0.00    -0.183 C  
HETATM   20  C   UNL     1     -10.501   6.224  70.045  1.00  0.00    -0.274 C  
HETATM   21  C   UNL     1      -7.352   8.940  71.568  1.00  0.00    -0.081 C  
HETATM   22  C   UNL     1      -8.342   8.399  72.589  1.00  0.00    -0.206 C  
HETATM   23  C   UNL     1      -9.257   7.329  72.041  1.00  0.00    -0.149 C  
ENDROOT
BRANCH   4  24
HETATM   24  C   UNL     1      -9.371  11.551  67.016  1.00  0.00    -0.178 C  
HETATM   25  O   UNL     1      -8.962  12.571  66.454  1.00  0.00    -0.179 OA 
BRANCH  24  26
HETATM   26  C   UNL     1     -10.795  11.096  66.595  1.00  0.00    -0.253 C  
BRANCH  26  27
HETATM   27  O   UNL     1     -11.405  12.083  65.722  1.00  0.00    -0.330 OA 
BRANCH  27  28
HETATM   28  C   UNL     1     -11.320  11.796  64.389  1.00  0.00    -0.301 C  
HETATM   29  C   UNL     1     -12.259  12.645  63.574  1.00  0.00    -0.638 C  
HETATM   30  O   UNL     1     -10.586  10.950  63.902  1.00  0.00    -0.359 OA 
ENDBRANCH  27  28
ENDBRANCH  26  27
ENDBRANCH  24  26
ENDBRANCH   4  24
TORSDOF 4
ENDMDL
MODEL      111
REMARK 921   NORMALIZED FREE ENERGY PREDICTED BY IDOCK:   -3.77 KCAL/MOL
REMARK 922        TOTAL FREE ENERGY PREDICTED BY IDOCK:   -4.44 KCAL/MOL
REMARK 923 INTER-LIGAND FREE ENERGY PREDICTED BY IDOCK:   -4.73 KCAL/MOL
REMARK 924 INTRA-LIGAND FREE ENERGY PREDICTED BY IDOCK:    0.29 KCAL/MOL
REMARK 927      BINDING AFFINITY PREDICTED BY RF-SCORE:    0.00 PKD
ROOT
HETATM    1  C   UNL     1     -10.438   9.909  70.695  1.00  0.00    -0.301 C  
HETATM    2  C   UNL     1     -11.594  10.312  69.991  1.00  0.00    -0.349 C  
HETATM    3  C   UNL     1     -11.270   8.861  69.839  1.00  0.00    -0.076 C  
HETATM    4  C   UNL     1      -9.830   8.050  71.078  1.00  0.00    -0.174 C  
HETATM    5  O   UNL     1      -6.096   9.046  63.906  1.00  0.00    -0.072 OA 
HETATM    6  O   UNL     1      -9.153   8.882  72.094  1.00  0.00    -0.375 OA 
HETATM    7  C   UNL     1     -11.178   8.202  71.228  1.00  0.00    -0.297 C  
HETATM    8  C   UNL     1     -12.104   8.260  72.422  1.00  0.00    -0.430 C  
HETATM    9  C   UNL     1     -11.067   6.790  69.919  1.00  0.00    -0.374 C  
HETATM   10  C   UNL     1      -7.022   9.102  64.704  1.00  0.00    -0.090 C  
HETATM   11  C   UNL     1      -7.137  10.219  65.655  1.00  0.00    -0.137 C  
HETATM   12  H   UNL     1      -8.491   8.509  72.663  1.00  0.00     0.000 HD 
HETATM   13  C   UNL     1      -9.650   7.001  68.925  1.00  0.00    -0.140 C  
HETATM   14  C   UNL     1      -8.145   8.119  64.759  1.00  0.00    -0.152 C  
HETATM   15  O   UNL     1      -8.992   5.998  68.641  1.00  0.00    -0.118 OA 
HETATM   16  C   UNL     1      -6.650   8.005  68.057  1.00  0.00    -0.057 C  
HETATM   17  C   UNL     1      -9.167   8.530  68.377  1.00  0.00    -0.135 C  
HETATM   18  C   UNL     1      -9.076   9.747  69.497  1.00  0.00    -0.227 C  
HETATM   19  C   UNL     1      -7.935   8.517  67.376  1.00  0.00    -0.102 C  
HETATM   20  C   UNL     1      -8.285   7.554  66.169  1.00  0.00    -0.125 C  
HETATM   21  C   UNL     1      -8.875  11.088  68.772  1.00  0.00    -0.149 C  
HETATM   22  C   UNL     1      -7.631  11.083  67.895  1.00  0.00    -0.095 C  
HETATM   23  C   UNL     1      -7.598   9.953  66.893  1.00  0.00    -0.095 C  
ENDROOT
BRANCH   4  24
HETATM   24  C   UNL     1      -9.766   6.689  72.159  1.00  0.00    -0.153 C  
HETATM   25  O   UNL     1     -10.719   6.212  72.782  1.00  0.00    -0.216 OA 
BRANCH  24  26
HETATM   26  C   UNL     1      -8.405   5.983  72.404  1.00  0.00    -0.116 C  
BRANCH  26  27
HETATM   27  O   UNL     1      -7.369   6.577  71.577  1.00  0.00    -0.084 OA 
BRANCH  27  28
HETATM   28  C   UNL     1      -6.217   5.847  71.491  1.00  0.00    -0.040 C  
HETATM   29  C   UNL     1      -6.339   4.729  70.491  1.00  0.00    -0.026 C  
HETATM   30  O   UNL     1      -5.208   6.054  72.148  1.00  0.00    -0.020 OA 
ENDBRANCH  27  28
ENDBRANCH  26  27
ENDBRANCH  24  26
ENDBRANCH   4  24
TORSDOF 4
ENDMDL
MODEL      112
REMARK 921   NORMALIZED FREE ENERGY PREDICTED BY IDOCK:   -3.73 KCAL/MOL
REMARK 922        TOTAL FREE ENERGY PREDICTED BY IDOCK:   -4.38 KCAL/MOL
REMARK 923 INTER-LIGAND FREE ENERGY PREDICTED BY IDOCK:   -5.17 KCAL/MOL
REMARK 924 INTRA-LIGAND FREE ENERGY PREDICTED BY IDOCK:    0.79 KCAL/MOL
REMARK 927      BINDING AFFINITY PREDICTED BY RF-SCORE:    0.00 PKD
ROOT
HETATM    1  C   UNL     1      -5.959  12.098  69.080  1.00  0.00    -0.075 C  
HETATM    2  C   UNL     1      -5.166  11.462  68.098  1.00  0.00    -0.043 C  
HETATM    3  C   UNL     1      -6.454  12.008  67.573  1.00  0.00    -0.124 C  
HETATM    4  C   UNL     1      -7.550  13.264  68.795  1.00  0.00    -0.043 C  
HETATM    5  O   UNL     1     -11.406   6.096  69.169  1.00  0.00    -0.399 OA 
HETATM    6  O   UNL     1      -7.062  13.620  70.143  1.00  0.00    -0.228 OA 
HETATM    7  C   UNL     1      -6.551  13.511  67.898  1.00  0.00    -0.154 C  
HETATM    8  C   UNL     1      -5.559  14.637  67.712  1.00  0.00    -0.059 C  
HETATM    9  C   UNL     1      -8.038  13.080  66.749  1.00  0.00     0.172 C  
HETATM   10  C   UNL     1     -10.538   6.885  68.817  1.00  0.00    -0.220 C  
HETATM   11  C   UNL     1      -9.370   7.158  69.671  1.00  0.00    -0.149 C  
HETATM   12  H   UNL     1      -7.565  14.197  70.704  1.00  0.00     0.000 HD 
HETATM   13  C   UNL     1      -9.083  11.920  67.525  1.00  0.00    -0.178 C  
HETATM   14  C   UNL     1     -10.521   7.584  67.498  1.00  0.00    -0.341 C  
HETATM   15  O   UNL     1     -10.301  12.082  67.421  1.00  0.00    -0.204 OA 
HETATM   16  C   UNL     1     -10.511  10.244  69.957  1.00  0.00    -0.293 C  
HETATM   17  C   UNL     1      -8.462  10.619  68.417  1.00  0.00    -0.132 C  
HETATM   18  C   UNL     1      -7.298  10.958  69.548  1.00  0.00    -0.095 C  
HETATM   19  C   UNL     1      -9.553   9.592  68.940  1.00  0.00    -0.161 C  
HETATM   20  C   UNL     1     -10.399   9.091  67.699  1.00  0.00    -0.317 C  
HETATM   21  C   UNL     1      -6.691   9.641  70.058  1.00  0.00    -0.079 C  
HETATM   22  C   UNL     1      -7.746   8.714  70.645  1.00  0.00    -0.086 C  
HETATM   23  C   UNL     1      -8.887   8.415  69.701  1.00  0.00    -0.141 C  
ENDROOT
BRANCH   4  24
HETATM   24  C   UNL     1      -8.227  14.857  68.626  1.00  0.00    -0.157 C  
HETATM   25  O   UNL     1      -7.678  15.825  68.092  1.00  0.00    -0.124 OA 
BRANCH  24  26
HETATM   26  C   UNL     1      -9.645  15.138  69.193  1.00  0.00    -0.232 C  
BRANCH  26  27
HETATM   27  O   UNL     1     -10.571  15.442  68.116  1.00  0.00    -0.252 OA 
BRANCH  27  28
HETATM   28  C   UNL     1     -11.721  14.704  68.127  1.00  0.00    -0.330 C  
HETATM   29  C   UNL     1     -12.044  14.196  69.506  1.00  0.00    -0.388 C  
HETATM   30  O   UNL     1     -12.408  14.467  67.145  1.00  0.00    -0.335 OA 
ENDBRANCH  27  28
ENDBRANCH  26  27
ENDBRANCH  24  26
ENDBRANCH   4  24
TORSDOF 4
ENDMDL
MODEL      113
REMARK 921   NORMALIZED FREE ENERGY PREDICTED BY IDOCK:   -3.64 KCAL/MOL
REMARK 922        TOTAL FREE ENERGY PREDICTED BY IDOCK:   -4.28 KCAL/MOL
REMARK 923 INTER-LIGAND FREE ENERGY PREDICTED BY IDOCK:   -4.44 KCAL/MOL
REMARK 924 INTRA-LIGAND FREE ENERGY PREDICTED BY IDOCK:    0.17 KCAL/MOL
REMARK 927      BINDING AFFINITY PREDICTED BY RF-SCORE:    0.00 PKD
ROOT
HETATM    1  C   UNL     1      -8.328   7.536  69.645  1.00  0.00    -0.131 C  
HETATM    2  C   UNL     1      -9.242   7.829  70.682  1.00  0.00    -0.161 C  
HETATM    3  C   UNL     1      -9.863   7.788  69.323  1.00  0.00    -0.173 C  
HETATM    4  C   UNL     1      -8.742   7.032  67.762  1.00  0.00    -0.121 C  
HETATM    5  O   UNL     1      -8.505  15.116  66.779  1.00  0.00    -0.242 OA 
HETATM    6  O   UNL     1      -7.370   6.533  67.990  1.00  0.00    -0.085 OA 
HETATM    7  C   UNL     1      -9.572   6.428  68.661  1.00  0.00    -0.121 C  
HETATM    8  C   UNL     1      -9.710   5.015  69.183  1.00  0.00    -0.243 C  
HETATM    9  C   UNL     1     -10.813   7.364  67.519  1.00  0.00    -0.257 C  
HETATM   10  C   UNL     1      -8.811  14.062  67.321  1.00  0.00    -0.218 C  
HETATM   11  C   UNL     1      -7.884  13.387  68.245  1.00  0.00    -0.143 C  
HETATM   12  H   UNL     1      -6.854   6.186  67.272  1.00  0.00     0.000 HD 
HETATM   13  C   UNL     1     -10.089   8.832  66.920  1.00  0.00    -0.278 C  
HETATM   14  C   UNL     1     -10.138  13.393  67.173  1.00  0.00    -0.240 C  
HETATM   15  O   UNL     1     -10.279   9.127  65.737  1.00  0.00    -0.139 OA 
HETATM   16  C   UNL     1      -7.731  10.936  66.037  1.00  0.00    -0.107 C  
HETATM   17  C   UNL     1      -9.134   9.823  67.909  1.00  0.00    -0.126 C  
HETATM   18  C   UNL     1      -7.933   9.092  68.786  1.00  0.00    -0.101 C  
HETATM   19  C   UNL     1      -8.669  11.183  67.236  1.00  0.00    -0.139 C  
HETATM   20  C   UNL     1      -9.956  11.948  66.720  1.00  0.00    -0.215 C  
HETATM   21  C   UNL     1      -7.359  10.099  69.795  1.00  0.00    -0.159 C  
HETATM   22  C   UNL     1      -6.829  11.353  69.115  1.00  0.00    -0.111 C  
HETATM   23  C   UNL     1      -7.843  12.041  68.231  1.00  0.00    -0.145 C  
ENDROOT
BRANCH   4  24
HETATM   24  C   UNL     1      -8.984   5.796  66.562  1.00  0.00    -0.128 C  
HETATM   25  O   UNL     1     -10.075   5.398  66.142  1.00  0.00    -0.174 OA 
BRANCH  24  26
HETATM   26  C   UNL     1      -7.747   5.092  65.942  1.00  0.00    -0.091 C  
BRANCH  26  27
HETATM   27  O   UNL     1      -7.009   6.015  65.097  1.00  0.00    -0.056 OA 
BRANCH  27  28
HETATM   28  C   UNL     1      -7.686   6.440  63.989  1.00  0.00    -0.104 C  
HETATM   29  C   UNL     1      -7.641   7.938  63.848  1.00  0.00    -0.121 C  
HETATM   30  O   UNL     1      -8.272   5.709  63.205  1.00  0.00    -0.114 OA 
ENDBRANCH  27  28
ENDBRANCH  26  27
ENDBRANCH  24  26
ENDBRANCH   4  24
TORSDOF 4
ENDMDL
MODEL      114
REMARK 921   NORMALIZED FREE ENERGY PREDICTED BY IDOCK:   -3.61 KCAL/MOL
REMARK 922        TOTAL FREE ENERGY PREDICTED BY IDOCK:   -4.23 KCAL/MOL
REMARK 923 INTER-LIGAND FREE ENERGY PREDICTED BY IDOCK:   -6.09 KCAL/MOL
REMARK 924 INTRA-LIGAND FREE ENERGY PREDICTED BY IDOCK:    1.86 KCAL/MOL
REMARK 927      BINDING AFFINITY PREDICTED BY RF-SCORE:    0.00 PKD
ROOT
HETATM    1  C   UNL     1      -8.890   9.414  67.084  1.00  0.00    -0.138 C  
HETATM    2  C   UNL     1      -9.780   8.773  66.193  1.00  0.00    -0.320 C  
HETATM    3  C   UNL     1     -10.448   9.723  67.134  1.00  0.00    -0.316 C  
HETATM    4  C   UNL     1      -9.254  10.990  68.248  1.00  0.00    -0.165 C  
HETATM    5  O   UNL     1     -11.527   5.145  73.450  1.00  0.00    -0.299 OA 
HETATM    6  O   UNL     1      -7.784  10.963  68.104  1.00  0.00    -0.097 OA 
HETATM    7  C   UNL     1      -9.805  11.117  67.006  1.00  0.00    -0.212 C  
HETATM    8  C   UNL     1      -9.477  11.956  65.790  1.00  0.00    -0.210 C  
HETATM    9  C   UNL     1     -11.341  11.302  68.156  1.00  0.00    -0.372 C  
HETATM   10  C   UNL     1     -11.465   5.725  72.374  1.00  0.00    -0.288 C  
HETATM   11  C   UNL     1     -10.320   5.527  71.470  1.00  0.00    -0.282 C  
HETATM   12  H   UNL     1      -7.236  11.544  68.616  1.00  0.00     0.000 HD 
HETATM   13  C   UNL     1     -11.133  10.343  69.597  1.00  0.00    -0.276 C  
HETATM   14  C   UNL     1     -12.536   6.615  71.835  1.00  0.00    -0.303 C  
HETATM   15  O   UNL     1     -11.480  10.836  70.672  1.00  0.00    -0.325 OA 
HETATM   16  C   UNL     1      -9.581   8.705  71.978  1.00  0.00    -0.385 C  
HETATM   17  C   UNL     1     -10.458   8.789  69.542  1.00  0.00    -0.222 C  
HETATM   18  C   UNL     1      -9.038   8.604  68.708  1.00  0.00    -0.142 C  
HETATM   19  C   UNL     1     -10.469   8.011  70.925  1.00  0.00    -0.223 C  
HETATM   20  C   UNL     1     -11.957   7.977  71.465  1.00  0.00    -0.331 C  
HETATM   21  C   UNL     1      -8.730   7.106  68.560  1.00  0.00    -0.126 C  
HETATM   22  C   UNL     1      -8.647   6.402  69.907  1.00  0.00    -0.138 C  
HETATM   23  C   UNL     1      -9.877   6.586  70.766  1.00  0.00    -0.201 C  
ENDROOT
BRANCH   4  24
HETATM   24  C   UNL     1      -9.192  12.709  68.502  1.00  0.00    -0.067 C  
HETATM   25  O   UNL     1     -10.164  13.466  68.579  1.00  0.00    -0.237 OA 
BRANCH  24  26
HETATM   26  C   UNL     1      -7.809  13.402  68.639  1.00  0.00    -0.073 C  
BRANCH  26  27
HETATM   27  O   UNL     1      -6.957  13.060  67.512  1.00  0.00    -0.145 OA 
BRANCH  27  28
HETATM   28  C   UNL     1      -5.771  12.473  67.851  1.00  0.00    -0.093 C  
HETATM   29  C   UNL     1      -5.151  11.753  66.684  1.00  0.00    -0.041 C  
HETATM   30  O   UNL     1      -5.266  12.509  68.963  1.00  0.00    -0.065 OA 
ENDBRANCH  27  28
ENDBRANCH  26  27
ENDBRANCH  24  26
ENDBRANCH   4  24
TORSDOF 4
ENDMDL
MODEL      115
REMARK 921   NORMALIZED FREE ENERGY PREDICTED BY IDOCK:   -3.59 KCAL/MOL
REMARK 922        TOTAL FREE ENERGY PREDICTED BY IDOCK:   -4.21 KCAL/MOL
REMARK 923 INTER-LIGAND FREE ENERGY PREDICTED BY IDOCK:   -4.81 KCAL/MOL
REMARK 924 INTRA-LIGAND FREE ENERGY PREDICTED BY IDOCK:    0.61 KCAL/MOL
REMARK 927      BINDING AFFINITY PREDICTED BY RF-SCORE:    0.00 PKD
ROOT
HETATM    1  C   UNL     1      -7.190   4.768  71.921  1.00  0.00    -0.063 C  
HETATM    2  C   UNL     1      -7.718   3.986  72.973  1.00  0.00    -0.080 C  
HETATM    3  C   UNL     1      -8.409   3.781  71.663  1.00  0.00    -0.085 C  
HETATM    4  C   UNL     1      -7.537   4.576  69.967  1.00  0.00    -0.054 C  
HETATM    5  O   UNL     1     -13.657   9.651  71.747  1.00  0.00    -0.379 OA 
HETATM    6  O   UNL     1      -6.259   5.314  70.051  1.00  0.00    -0.020 OA 
HETATM    7  C   UNL     1      -7.379   3.373  70.592  1.00  0.00    -0.037 C  
HETATM    8  C   UNL     1      -6.282   2.332  70.609  1.00  0.00    -0.023 C  
HETATM    9  C   UNL     1      -9.127   3.198  69.798  1.00  0.00    -0.200 C  
HETATM   10  C   UNL     1     -12.927   8.680  71.898  1.00  0.00    -0.372 C  
HETATM   11  C   UNL     1     -11.622   8.809  72.566  1.00  0.00    -0.211 C  
HETATM   12  H   UNL     1      -5.859   5.679  69.272  1.00  0.00     0.000 HD 
HETATM   13  C   UNL     1      -9.921   4.748  69.741  1.00  0.00    -0.238 C  
HETATM   14  C   UNL     1     -13.288   7.286  71.502  1.00  0.00    -0.435 C  
HETATM   15  O   UNL     1     -10.551   5.036  68.721  1.00  0.00    -0.056 OA 
HETATM   16  C   UNL     1     -10.247   8.012  69.671  1.00  0.00    -0.208 C  
HETATM   17  C   UNL     1      -9.823   5.846  71.029  1.00  0.00    -0.225 C  
HETATM   18  C   UNL     1      -8.317   6.170  71.641  1.00  0.00    -0.126 C  
HETATM   19  C   UNL     1     -10.715   7.148  70.860  1.00  0.00    -0.251 C  
HETATM   20  C   UNL     1     -12.209   6.697  70.597  1.00  0.00    -0.262 C  
HETATM   21  C   UNL     1      -8.463   6.973  72.943  1.00  0.00    -0.130 C  
HETATM   22  C   UNL     1      -9.237   8.267  72.734  1.00  0.00    -0.336 C  
HETATM   23  C   UNL     1     -10.597   8.068  72.105  1.00  0.00    -0.335 C  
ENDROOT
BRANCH   4  24
HETATM   24  C   UNL     1      -7.063   3.943  68.418  1.00  0.00    -0.051 C  
HETATM   25  O   UNL     1      -6.578   2.827  68.210  1.00  0.00    -0.035 OA 
BRANCH  24  26
HETATM   26  C   UNL     1      -7.236   4.829  67.156  1.00  0.00    -0.077 C  
BRANCH  26  27
HETATM   27  O   UNL     1      -8.339   4.346  66.344  1.00  0.00    -0.106 OA 
BRANCH  27  28
HETATM   28  C   UNL     1      -8.755   5.211  65.371  1.00  0.00    -0.149 C  
HETATM   29  C   UNL     1      -8.737   6.638  65.849  1.00  0.00    -0.147 C  
HETATM   30  O   UNL     1      -9.111   4.883  64.250  1.00  0.00    -0.123 OA 
ENDBRANCH  27  28
ENDBRANCH  26  27
ENDBRANCH  24  26
ENDBRANCH   4  24
TORSDOF 4
ENDMDL
MODEL      116
REMARK 921   NORMALIZED FREE ENERGY PREDICTED BY IDOCK:   -3.58 KCAL/MOL
REMARK 922        TOTAL FREE ENERGY PREDICTED BY IDOCK:   -4.20 KCAL/MOL
REMARK 923 INTER-LIGAND FREE ENERGY PREDICTED BY IDOCK:   -5.43 KCAL/MOL
REMARK 924 INTRA-LIGAND FREE ENERGY PREDICTED BY IDOCK:    1.23 KCAL/MOL
REMARK 927      BINDING AFFINITY PREDICTED BY RF-SCORE:    0.00 PKD
ROOT
HETATM    1  C   UNL     1     -10.041   6.801  69.322  1.00  0.00    -0.179 C  
HETATM    2  C   UNL     1     -11.340   6.355  68.992  1.00  0.00    -0.332 C  
HETATM    3  C   UNL     1     -10.514   6.734  67.806  1.00  0.00    -0.274 C  
HETATM    4  C   UNL     1      -8.495   7.065  68.092  1.00  0.00    -0.129 C  
HETATM    5  O   UNL     1     -11.764  14.502  67.473  1.00  0.00    -0.360 OA 
HETATM    6  O   UNL     1      -7.887   6.915  69.431  1.00  0.00    -0.109 OA 
HETATM    7  C   UNL     1      -9.200   5.931  67.811  1.00  0.00    -0.108 C  
HETATM    8  C   UNL     1      -8.935   4.454  68.000  1.00  0.00    -0.142 C  
HETATM    9  C   UNL     1      -9.276   6.887  66.139  1.00  0.00    -0.118 C  
HETATM   10  C   UNL     1     -11.762  13.279  67.507  1.00  0.00    -0.366 C  
HETATM   11  C   UNL     1     -11.771  12.555  68.789  1.00  0.00    -0.371 C  
HETATM   12  H   UNL     1      -6.960   7.067  69.562  1.00  0.00     0.000 HD 
HETATM   13  C   UNL     1      -9.283   8.606  66.427  1.00  0.00    -0.193 C  
HETATM   14  C   UNL     1     -11.819  12.404  66.298  1.00  0.00    -0.431 C  
HETATM   15  O   UNL     1      -8.596   9.317  65.690  1.00  0.00    -0.137 OA 
HETATM   16  C   UNL     1      -8.766  11.442  67.993  1.00  0.00    -0.148 C  
HETATM   17  C   UNL     1     -10.181   9.293  67.690  1.00  0.00    -0.285 C  
HETATM   18  C   UNL     1     -10.020   8.617  69.195  1.00  0.00    -0.193 C  
HETATM   19  C   UNL     1     -10.176  10.880  67.721  1.00  0.00    -0.209 C  
HETATM   20  C   UNL     1     -10.665  11.407  66.311  1.00  0.00    -0.322 C  
HETATM   21  C   UNL     1     -11.088   9.205  70.130  1.00  0.00    -0.248 C  
HETATM   22  C   UNL     1     -10.999  10.722  70.220  1.00  0.00    -0.160 C  
HETATM   23  C   UNL     1     -11.060  11.415  68.879  1.00  0.00    -0.290 C  
ENDROOT
BRANCH   4  24
HETATM   24  C   UNL     1      -7.036   6.454  67.369  1.00  0.00    -0.077 C  
HETATM   25  O   UNL     1      -5.961   6.272  67.948  1.00  0.00    -0.018 OA 
BRANCH  24  26
HETATM   26  C   UNL     1      -7.034   6.100  65.857  1.00  0.00    -0.061 C  
BRANCH  26  27
HETATM   27  O   UNL     1      -5.834   6.614  65.218  1.00  0.00    -0.029 OA 
BRANCH  27  28
HETATM   28  C   UNL     1      -6.040   7.185  63.994  1.00  0.00    -0.040 C  
HETATM   29  C   UNL     1      -6.932   6.340  63.126  1.00  0.00    -0.046 C  
HETATM   30  O   UNL     1      -5.556   8.246  63.629  1.00  0.00    -0.060 OA 
ENDBRANCH  27  28
ENDBRANCH  26  27
ENDBRANCH  24  26
ENDBRANCH   4  24
TORSDOF 4
ENDMDL
MODEL      117
REMARK 921   NORMALIZED FREE ENERGY PREDICTED BY IDOCK:   -3.58 KCAL/MOL
REMARK 922        TOTAL FREE ENERGY PREDICTED BY IDOCK:   -4.20 KCAL/MOL
REMARK 923 INTER-LIGAND FREE ENERGY PREDICTED BY IDOCK:   -4.64 KCAL/MOL
REMARK 924 INTRA-LIGAND FREE ENERGY PREDICTED BY IDOCK:    0.45 KCAL/MOL
REMARK 927      BINDING AFFINITY PREDICTED BY RF-SCORE:    0.00 PKD
ROOT
HETATM    1  C   UNL     1     -10.451   8.118  67.197  1.00  0.00    -0.396 C  
HETATM    2  C   UNL     1     -10.683   9.369  67.813  1.00  0.00    -0.290 C  
HETATM    3  C   UNL     1      -9.238   9.000  67.722  1.00  0.00    -0.152 C  
HETATM    4  C   UNL     1      -8.718   7.385  66.543  1.00  0.00    -0.140 C  
HETATM    5  O   UNL     1      -8.355   4.595  74.189  1.00  0.00    -0.102 OA 
HETATM    6  O   UNL     1      -9.748   6.629  65.801  1.00  0.00    -0.372 OA 
HETATM    7  C   UNL     1      -8.868   8.710  66.255  1.00  0.00    -0.187 C  
HETATM    8  C   UNL     1      -9.142   9.487  64.986  1.00  0.00    -0.281 C  
HETATM    9  C   UNL     1      -7.229   8.694  67.268  1.00  0.00    -0.080 C  
HETATM   10  C   UNL     1      -8.548   5.419  73.305  1.00  0.00    -0.116 C  
HETATM   11  C   UNL     1      -9.829   5.469  72.580  1.00  0.00    -0.185 C  
HETATM   12  H   UNL     1      -9.509   5.886  65.260  1.00  0.00     0.000 HD 
HETATM   13  C   UNL     1      -7.268   7.420  68.457  1.00  0.00    -0.087 C  
HETATM   14  C   UNL     1      -7.573   6.482  72.918  1.00  0.00    -0.097 C  
HETATM   15  O   UNL     1      -6.243   6.755  68.623  1.00  0.00    -0.025 OA 
HETATM   16  C   UNL     1      -8.143   4.595  69.878  1.00  0.00    -0.068 C  
HETATM   17  C   UNL     1      -8.669   7.076  69.348  1.00  0.00    -0.133 C  
HETATM   18  C   UNL     1     -10.085   6.906  68.505  1.00  0.00    -0.165 C  
HETATM   19  C   UNL     1      -8.484   5.975  70.476  1.00  0.00    -0.132 C  
HETATM   20  C   UNL     1      -7.294   6.424  71.419  1.00  0.00    -0.084 C  
HETATM   21  C   UNL     1     -11.260   6.855  69.495  1.00  0.00    -0.246 C  
HETATM   22  C   UNL     1     -11.108   5.727  70.506  1.00  0.00    -0.280 C  
HETATM   23  C   UNL     1      -9.803   5.764  71.267  1.00  0.00    -0.223 C  
ENDROOT
BRANCH   4  24
HETATM   24  C   UNL     1      -7.599   7.129  65.236  1.00  0.00    -0.103 C  
HETATM   25  O   UNL     1      -6.482   7.644  65.127  1.00  0.00    -0.041 OA 
BRANCH  24  26
HETATM   26  C   UNL     1      -8.002   6.185  64.071  1.00  0.00    -0.110 C  
BRANCH  26  27
HETATM   27  O   UNL     1      -8.063   4.808  64.533  1.00  0.00    -0.098 OA 
BRANCH  27  28
HETATM   28  C   UNL     1      -9.209   4.145  64.198  1.00  0.00    -0.149 C  
HETATM   29  C   UNL     1      -9.248   3.801  62.733  1.00  0.00    -0.105 C  
HETATM   30  O   UNL     1     -10.108   3.867  64.977  1.00  0.00    -0.194 OA 
ENDBRANCH  27  28
ENDBRANCH  26  27
ENDBRANCH  24  26
ENDBRANCH   4  24
TORSDOF 4
ENDMDL
MODEL      118
REMARK 921   NORMALIZED FREE ENERGY PREDICTED BY IDOCK:   -3.56 KCAL/MOL
REMARK 922        TOTAL FREE ENERGY PREDICTED BY IDOCK:   -4.18 KCAL/MOL
REMARK 923 INTER-LIGAND FREE ENERGY PREDICTED BY IDOCK:   -4.85 KCAL/MOL
REMARK 924 INTRA-LIGAND FREE ENERGY PREDICTED BY IDOCK:    0.67 KCAL/MOL
REMARK 927      BINDING AFFINITY PREDICTED BY RF-SCORE:    0.00 PKD
ROOT
HETATM    1  C   UNL     1      -8.435   7.174  70.677  1.00  0.00    -0.138 C  
HETATM    2  C   UNL     1      -9.320   7.545  71.714  1.00  0.00    -0.168 C  
HETATM    3  C   UNL     1     -10.008   7.108  70.461  1.00  0.00    -0.191 C  
HETATM    4  C   UNL     1      -8.871   6.206  68.990  1.00  0.00    -0.123 C  
HETATM    5  O   UNL     1     -10.087  13.809  66.325  1.00  0.00    -0.284 OA 
HETATM    6  O   UNL     1      -7.423   5.988  69.183  1.00  0.00    -0.082 OA 
HETATM    7  C   UNL     1      -9.529   5.697  70.072  1.00  0.00    -0.199 C  
HETATM    8  C   UNL     1      -9.390   4.431  70.888  1.00  0.00    -0.218 C  
HETATM    9  C   UNL     1     -10.980   6.153  68.887  1.00  0.00    -0.424 C  
HETATM   10  C   UNL     1     -10.173  12.866  67.102  1.00  0.00    -0.239 C  
HETATM   11  C   UNL     1      -9.089  12.565  68.051  1.00  0.00    -0.200 C  
HETATM   12  H   UNL     1      -6.900   5.574  68.507  1.00  0.00     0.000 HD 
HETATM   13  C   UNL     1     -10.557   7.545  67.926  1.00  0.00    -0.185 C  
HETATM   14  C   UNL     1     -11.372  11.986  67.226  1.00  0.00    -0.394 C  
HETATM   15  O   UNL     1     -10.867   7.537  66.733  1.00  0.00    -0.292 OA 
HETATM   16  C   UNL     1      -8.654   9.739  66.399  1.00  0.00    -0.132 C  
HETATM   17  C   UNL     1      -9.727   8.866  68.590  1.00  0.00    -0.169 C  
HETATM   18  C   UNL     1      -8.366   8.542  69.479  1.00  0.00    -0.118 C  
HETATM   19  C   UNL     1      -9.545  10.098  67.606  1.00  0.00    -0.170 C  
HETATM   20  C   UNL     1     -10.973  10.522  67.070  1.00  0.00    -0.247 C  
HETATM   21  C   UNL     1      -7.914   9.824  70.195  1.00  0.00    -0.201 C  
HETATM   22  C   UNL     1      -7.649  10.962  69.220  1.00  0.00    -0.113 C  
HETATM   23  C   UNL     1      -8.819  11.272  68.315  1.00  0.00    -0.158 C  
ENDROOT
BRANCH   4  24
HETATM   24  C   UNL     1      -8.972   4.713  68.104  1.00  0.00    -0.114 C  
HETATM   25  O   UNL     1     -10.011   4.123  67.793  1.00  0.00    -0.104 OA 
BRANCH  24  26
HETATM   26  C   UNL     1      -7.661   4.014  67.653  1.00  0.00    -0.068 C  
BRANCH  26  27
HETATM   27  O   UNL     1      -6.920   3.532  68.805  1.00  0.00    -0.045 OA 
BRANCH  27  28
HETATM   28  C   UNL     1      -6.291   2.333  68.620  1.00  0.00    -0.029 C  
HETATM   29  C   UNL     1      -6.308   1.495  69.869  1.00  0.00    -0.025 C  
HETATM   30  O   UNL     1      -5.764   1.975  67.578  1.00  0.00    -0.018 OA 
ENDBRANCH  27  28
ENDBRANCH  26  27
ENDBRANCH  24  26
ENDBRANCH   4  24
TORSDOF 4
ENDMDL
MODEL      119
REMARK 921   NORMALIZED FREE ENERGY PREDICTED BY IDOCK:   -3.53 KCAL/MOL
REMARK 922        TOTAL FREE ENERGY PREDICTED BY IDOCK:   -4.13 KCAL/MOL
REMARK 923 INTER-LIGAND FREE ENERGY PREDICTED BY IDOCK:   -4.74 KCAL/MOL
REMARK 924 INTRA-LIGAND FREE ENERGY PREDICTED BY IDOCK:    0.61 KCAL/MOL
REMARK 927      BINDING AFFINITY PREDICTED BY RF-SCORE:    0.00 PKD
ROOT
HETATM    1  C   UNL     1     -11.606   8.518  70.256  1.00  0.00     0.004 C  
HETATM    2  C   UNL     1     -11.808   9.262  71.441  1.00  0.00    -0.428 C  
HETATM    3  C   UNL     1     -10.492   9.521  70.782  1.00  0.00    -0.384 C  
HETATM    4  C   UNL     1     -10.196   8.786  68.874  1.00  0.00    -0.207 C  
HETATM    5  O   UNL     1      -6.111   3.680  73.733  1.00  0.00    -0.013 OA 
HETATM    6  O   UNL     1     -11.265   8.039  68.178  1.00  0.00    -0.311 OA 
HETATM    7  C   UNL     1     -10.719   9.963  69.324  1.00  0.00    -0.247 C  
HETATM    8  C   UNL     1     -11.650  10.998  68.731  1.00  0.00    -0.386 C  
HETATM    9  C   UNL     1      -8.840  10.179  69.698  1.00  0.00    -0.184 C  
HETATM   10  C   UNL     1      -6.819   4.640  73.458  1.00  0.00    -0.069 C  
HETATM   11  C   UNL     1      -8.266   4.478  73.241  1.00  0.00    -0.099 C  
HETATM   12  H   UNL     1     -11.129   7.702  67.302  1.00  0.00     0.000 HD 
HETATM   13  C   UNL     1      -8.119   8.636  70.069  1.00  0.00    -0.112 C  
HETATM   14  C   UNL     1      -6.333   6.050  73.385  1.00  0.00    -0.064 C  
HETATM   15  O   UNL     1      -7.007   8.391  69.597  1.00  0.00    -0.046 OA 
HETATM   16  C   UNL     1      -7.726   5.379  70.109  1.00  0.00    -0.077 C  
HETATM   17  C   UNL     1      -8.917   7.488  71.029  1.00  0.00    -0.147 C  
HETATM   18  C   UNL     1     -10.489   7.134  70.643  1.00  0.00    -0.226 C  
HETATM   19  C   UNL     1      -8.058   6.199  71.373  1.00  0.00    -0.118 C  
HETATM   20  C   UNL     1      -6.701   6.668  72.040  1.00  0.00    -0.063 C  
HETATM   21  C   UNL     1     -11.104   6.281  71.765  1.00  0.00    -0.321 C  
HETATM   22  C   UNL     1     -10.318   5.001  72.008  1.00  0.00    -0.276 C  
HETATM   23  C   UNL     1      -8.852   5.232  72.291  1.00  0.00    -0.132 C  
ENDROOT
BRANCH   4  24
HETATM   24  C   UNL     1      -9.700   9.476  67.356  1.00  0.00    -0.157 C  
HETATM   25  O   UNL     1     -10.072  10.561  66.897  1.00  0.00    -0.200 OA 
BRANCH  24  26
HETATM   26  C   UNL     1      -8.711   8.688  66.456  1.00  0.00    -0.126 C  
BRANCH  26  27
HETATM   27  O   UNL     1      -7.907   9.603  65.664  1.00  0.00    -0.102 OA 
BRANCH  27  28
HETATM   28  C   UNL     1      -6.739   9.995  66.256  1.00  0.00    -0.094 C  
HETATM   29  C   UNL     1      -5.698   8.910  66.211  1.00  0.00    -0.049 C  
HETATM   30  O   UNL     1      -6.551  11.086  66.774  1.00  0.00    -0.103 OA 
ENDBRANCH  27  28
ENDBRANCH  26  27
ENDBRANCH  24  26
ENDBRANCH   4  24
TORSDOF 4
ENDMDL
MODEL      120
REMARK 921   NORMALIZED FREE ENERGY PREDICTED BY IDOCK:   -3.52 KCAL/MOL
REMARK 922        TOTAL FREE ENERGY PREDICTED BY IDOCK:   -4.12 KCAL/MOL
REMARK 923 INTER-LIGAND FREE ENERGY PREDICTED BY IDOCK:   -4.22 KCAL/MOL
REMARK 924 INTRA-LIGAND FREE ENERGY PREDICTED BY IDOCK:    0.10 KCAL/MOL
REMARK 927      BINDING AFFINITY PREDICTED BY RF-SCORE:    0.00 PKD
ROOT
HETATM    1  C   UNL     1      -7.132  10.232  69.902  1.00  0.00    -0.152 C  
HETATM    2  C   UNL     1      -5.979   9.513  70.290  1.00  0.00    -0.047 C  
HETATM    3  C   UNL     1      -5.855  10.178  68.958  1.00  0.00    -0.037 C  
HETATM    4  C   UNL     1      -7.305  11.546  68.414  1.00  0.00    -0.097 C  
HETATM    5  O   UNL     1      -9.122   4.797  64.228  1.00  0.00    -0.145 OA 
HETATM    6  O   UNL     1      -8.423  11.864  69.326  1.00  0.00    -0.273 OA 
HETATM    7  C   UNL     1      -6.135  11.686  69.104  1.00  0.00    -0.067 C  
HETATM    8  C   UNL     1      -5.610  12.707  70.088  1.00  0.00    -0.138 C  
HETATM    9  C   UNL     1      -5.516  11.394  67.301  1.00  0.00    -0.065 C  
HETATM   10  C   UNL     1      -8.491   5.493  65.012  1.00  0.00    -0.147 C  
HETATM   11  C   UNL     1      -8.933   5.657  66.407  1.00  0.00    -0.134 C  
HETATM   12  H   UNL     1      -9.089  12.492  69.076  1.00  0.00     0.000 HD 
HETATM   13  C   UNL     1      -6.620  10.349  66.447  1.00  0.00    -0.099 C  
HETATM   14  C   UNL     1      -7.204   6.176  64.683  1.00  0.00    -0.064 C  
HETATM   15  O   UNL     1      -6.890  10.630  65.277  1.00  0.00    -0.087 OA 
HETATM   16  C   UNL     1      -9.436   8.843  65.696  1.00  0.00    -0.230 C  
HETATM   17  C   UNL     1      -7.328   9.001  67.193  1.00  0.00    -0.087 C  
HETATM   18  C   UNL     1      -8.032   9.233  68.675  1.00  0.00    -0.100 C  
HETATM   19  C   UNL     1      -8.200   8.091  66.229  1.00  0.00    -0.116 C  
HETATM   20  C   UNL     1      -7.300   7.666  64.998  1.00  0.00    -0.073 C  
HETATM   21  C   UNL     1      -8.381   7.867  69.288  1.00  0.00    -0.136 C  
HETATM   22  C   UNL     1      -9.300   7.053  68.387  1.00  0.00    -0.130 C  
HETATM   23  C   UNL     1      -8.765   6.861  66.987  1.00  0.00    -0.119 C  
ENDROOT
BRANCH   4  24
HETATM   24  C   UNL     1      -7.291  13.197  67.866  1.00  0.00    -0.131 C  
HETATM   25  O   UNL     1      -6.391  13.737  67.215  1.00  0.00    -0.295 OA 
BRANCH  24  26
HETATM   26  C   UNL     1      -8.492  14.117  68.212  1.00  0.00    -0.169 C  
BRANCH  26  27
HETATM   27  O   UNL     1      -9.706  13.624  67.586  1.00  0.00    -0.218 OA 
BRANCH  27  28
HETATM   28  C   UNL     1      -9.772  13.820  66.235  1.00  0.00    -0.284 C  
HETATM   29  C   UNL     1      -9.973  12.527  65.492  1.00  0.00    -0.248 C  
HETATM   30  O   UNL     1      -9.671  14.904  65.681  1.00  0.00    -0.335 OA 
ENDBRANCH  27  28
ENDBRANCH  26  27
ENDBRANCH  24  26
ENDBRANCH   4  24
TORSDOF 4
ENDMDL
MODEL      121
REMARK 921   NORMALIZED FREE ENERGY PREDICTED BY IDOCK:   -3.48 KCAL/MOL
REMARK 922        TOTAL FREE ENERGY PREDICTED BY IDOCK:   -4.08 KCAL/MOL
REMARK 923 INTER-LIGAND FREE ENERGY PREDICTED BY IDOCK:   -5.10 KCAL/MOL
REMARK 924 INTRA-LIGAND FREE ENERGY PREDICTED BY IDOCK:    1.03 KCAL/MOL
REMARK 927      BINDING AFFINITY PREDICTED BY RF-SCORE:    0.00 PKD
ROOT
HETATM    1  C   UNL     1     -12.466  11.007  70.102  1.00  0.00    -0.344 C  
HETATM    2  C   UNL     1     -12.223  11.684  71.318  1.00  0.00    -0.149 C  
HETATM    3  C   UNL     1     -10.995  11.108  70.692  1.00  0.00     0.791 C  
HETATM    4  C   UNL     1     -11.128  10.403  68.754  1.00  0.00    -0.250 C  
HETATM    5  O   UNL     1     -11.189   3.723  73.417  1.00  0.00    -0.229 OA 
HETATM    6  O   UNL     1     -12.401  10.483  68.008  1.00  0.00    -0.200 OA 
HETATM    7  C   UNL     1     -10.846  11.642  69.255  1.00  0.00    -0.203 C  
HETATM    8  C   UNL     1     -10.932  13.046  68.698  1.00  0.00    -0.297 C  
HETATM    9  C   UNL     1      -9.240  10.657  69.665  1.00  0.00     0.114 C  
HETATM   10  C   UNL     1     -11.156   4.923  73.180  1.00  0.00    -0.322 C  
HETATM   11  C   UNL     1     -12.393   5.682  72.934  1.00  0.00     0.325 C  
HETATM   12  H   UNL     1     -12.462  10.159  67.118  1.00  0.00     0.000 HD 
HETATM   13  C   UNL     1      -9.621   8.984  69.971  1.00  0.00    -0.186 C  
HETATM   14  C   UNL     1      -9.910   5.747  73.182  1.00  0.00    -0.178 C  
HETATM   15  O   UNL     1      -8.868   8.127  69.503  1.00  0.00    -0.141 OA 
HETATM   16  C   UNL     1     -11.289   6.162  69.858  1.00  0.00    -0.454 C  
HETATM   17  C   UNL     1     -10.990   8.531  70.862  1.00  0.00    -0.292 C  
HETATM   18  C   UNL     1     -12.437   9.219  70.437  1.00  0.00     0.266 C  
HETATM   19  C   UNL     1     -11.106   6.976  71.155  1.00  0.00    -0.288 C  
HETATM   20  C   UNL     1      -9.772   6.502  71.864  1.00  0.00    -0.159 C  
HETATM   21  C   UNL     1     -13.489   8.884  71.507  1.00  0.00    -0.381 C  
HETATM   22  C   UNL     1     -13.653   7.383  71.698  1.00  0.00    -0.449 C  
HETATM   23  C   UNL     1     -12.361   6.665  72.013  1.00  0.00    -0.316 C  
ENDROOT
BRANCH   4  24
HETATM   24  C   UNL     1     -10.253  10.694  67.280  1.00  0.00    -0.208 C  
HETATM   25  O   UNL     1      -9.220  10.119  66.925  1.00  0.00    -0.144 OA 
BRANCH  24  26
HETATM   26  C   UNL     1     -10.774  11.774  66.293  1.00  0.00    -0.270 C  
BRANCH  26  27
HETATM   27  O   UNL     1     -10.327  11.483  64.941  1.00  0.00    -0.259 OA 
BRANCH  27  28
HETATM   28  C   UNL     1     -10.403  12.538  64.076  1.00  0.00    -0.404 C  
HETATM   29  C   UNL     1     -10.634  13.838  64.800  1.00  0.00    -0.444 C  
HETATM   30  O   UNL     1     -10.309  12.454  62.862  1.00  0.00    -0.035 OA 
ENDBRANCH  27  28
ENDBRANCH  26  27
ENDBRANCH  24  26
ENDBRANCH   4  24
TORSDOF 4
ENDMDL
MODEL      122
REMARK 921   NORMALIZED FREE ENERGY PREDICTED BY IDOCK:   -3.44 KCAL/MOL
REMARK 922        TOTAL FREE ENERGY PREDICTED BY IDOCK:   -4.02 KCAL/MOL
REMARK 923 INTER-LIGAND FREE ENERGY PREDICTED BY IDOCK:   -4.28 KCAL/MOL
REMARK 924 INTRA-LIGAND FREE ENERGY PREDICTED BY IDOCK:    0.26 KCAL/MOL
REMARK 927      BINDING AFFINITY PREDICTED BY RF-SCORE:    0.00 PKD
ROOT
HETATM    1  C   UNL     1     -10.533   6.817  68.350  1.00  0.00    -0.238 C  
HETATM    2  C   UNL     1     -10.637   6.609  66.956  1.00  0.00    -0.404 C  
HETATM    3  C   UNL     1      -9.260   6.397  67.496  1.00  0.00    -0.112 C  
HETATM    4  C   UNL     1      -9.020   6.316  69.547  1.00  0.00    -0.134 C  
HETATM    5  O   UNL     1      -6.428  13.745  67.433  1.00  0.00    -0.292 OA 
HETATM    6  O   UNL     1     -10.183   6.449  70.449  1.00  0.00    -0.185 OA 
HETATM    7  C   UNL     1      -9.301   5.350  68.625  1.00  0.00    -0.147 C  
HETATM    8  C   UNL     1      -9.949   3.985  68.695  1.00  0.00     0.092 C  
HETATM    9  C   UNL     1      -7.445   5.731  68.269  1.00  0.00    -0.081 C  
HETATM   10  C   UNL     1      -6.894  12.628  67.252  1.00  0.00    -0.098 C  
HETATM   11  C   UNL     1      -8.327  12.360  67.462  1.00  0.00    -0.173 C  
HETATM   12  H   UNL     1     -10.073   6.412  71.391  1.00  0.00     0.000 HD 
HETATM   13  C   UNL     1      -7.098   7.405  68.605  1.00  0.00    -0.084 C  
HETATM   14  C   UNL     1      -6.111  11.461  66.748  1.00  0.00    -0.145 C  
HETATM   15  O   UNL     1      -6.040   7.670  69.180  1.00  0.00    -0.033 OA 
HETATM   16  C   UNL     1      -7.423  10.382  69.947  1.00  0.00    -0.134 C  
HETATM   17  C   UNL     1      -8.180   8.640  68.184  1.00  0.00    -0.115 C  
HETATM   18  C   UNL     1      -9.767   8.445  68.621  1.00  0.00    -0.171 C  
HETATM   19  C   UNL     1      -7.643  10.111  68.445  1.00  0.00    -0.087 C  
HETATM   20  C   UNL     1      -6.258  10.275  67.696  1.00  0.00    -0.057 C  
HETATM   21  C   UNL     1     -10.616   9.528  67.937  1.00  0.00    -0.299 C  
HETATM   22  C   UNL     1     -10.142  10.932  68.283  1.00  0.00    -0.189 C  
HETATM   23  C   UNL     1      -8.680  11.171  67.986  1.00  0.00    -0.141 C  
ENDROOT
BRANCH   4  24
HETATM   24  C   UNL     1      -8.299   5.186  70.655  1.00  0.00    -0.111 C  
HETATM   25  O   UNL     1      -8.020   4.008  70.409  1.00  0.00    -0.051 OA 
BRANCH  24  26
HETATM   26  C   UNL     1      -7.968   5.650  72.099  1.00  0.00    -0.107 C  
BRANCH  26  27
HETATM   27  O   UNL     1      -7.616   7.060  72.110  1.00  0.00    -0.089 OA 
BRANCH  27  28
HETATM   28  C   UNL     1      -8.432   7.845  72.874  1.00  0.00    -0.168 C  
HETATM   29  C   UNL     1      -8.297   7.530  74.340  1.00  0.00    -0.255 C  
HETATM   30  O   UNL     1      -9.192   8.696  72.437  1.00  0.00    -0.275 OA 
ENDBRANCH  27  28
ENDBRANCH  26  27
ENDBRANCH  24  26
ENDBRANCH   4  24
TORSDOF 4
ENDMDL
MODEL      123
REMARK 921   NORMALIZED FREE ENERGY PREDICTED BY IDOCK:   -3.37 KCAL/MOL
REMARK 922        TOTAL FREE ENERGY PREDICTED BY IDOCK:   -3.94 KCAL/MOL
REMARK 923 INTER-LIGAND FREE ENERGY PREDICTED BY IDOCK:   -4.40 KCAL/MOL
REMARK 924 INTRA-LIGAND FREE ENERGY PREDICTED BY IDOCK:    0.45 KCAL/MOL
REMARK 927      BINDING AFFINITY PREDICTED BY RF-SCORE:    0.00 PKD
ROOT
HETATM    1  C   UNL     1      -6.318   7.926  67.617  1.00  0.00    -0.052 C  
HETATM    2  C   UNL     1      -6.111   8.168  68.994  1.00  0.00    -0.039 C  
HETATM    3  C   UNL     1      -7.430   7.536  68.684  1.00  0.00    -0.101 C  
HETATM    4  C   UNL     1      -7.734   6.802  66.776  1.00  0.00    -0.106 C  
HETATM    5  O   UNL     1     -11.805  13.857  66.973  1.00  0.00    -0.369 OA 
HETATM    6  O   UNL     1      -6.668   6.888  65.756  1.00  0.00    -0.049 OA 
HETATM    7  C   UNL     1      -7.208   6.230  67.898  1.00  0.00    -0.087 C  
HETATM    8  C   UNL     1      -6.279   5.063  68.148  1.00  0.00    -0.035 C  
HETATM    9  C   UNL     1      -9.085   6.324  68.327  1.00  0.00    -0.113 C  
HETATM   10  C   UNL     1     -11.097  12.959  67.411  1.00  0.00    -0.273 C  
HETATM   11  C   UNL     1      -9.651  12.930  67.135  1.00  0.00    -0.225 C  
HETATM   12  H   UNL     1      -6.808   6.551  64.880  1.00  0.00     0.000 HD 
HETATM   13  C   UNL     1      -9.806   7.720  67.571  1.00  0.00    -0.171 C  
HETATM   14  C   UNL     1     -11.582  11.865  68.303  1.00  0.00    -0.390 C  
HETATM   15  O   UNL     1     -10.920   7.587  67.060  1.00  0.00    -0.306 OA 
HETATM   16  C   UNL     1     -10.202  10.164  65.418  1.00  0.00    -0.281 C  
HETATM   17  C   UNL     1      -9.006   9.213  67.510  1.00  0.00    -0.131 C  
HETATM   18  C   UNL     1      -7.435   9.214  66.981  1.00  0.00    -0.091 C  
HETATM   19  C   UNL     1      -9.864  10.402  66.904  1.00  0.00    -0.236 C  
HETATM   20  C   UNL     1     -11.218  10.504  67.718  1.00  0.00    -0.344 C  
HETATM   21  C   UNL     1      -6.816  10.597  67.239  1.00  0.00    -0.079 C  
HETATM   22  C   UNL     1      -7.603  11.712  66.563  1.00  0.00     0.016 C  
HETATM   23  C   UNL     1      -9.068  11.733  66.934  1.00  0.00    -0.192 C  
ENDROOT
BRANCH   4  24
HETATM   24  C   UNL     1      -8.235   5.274  66.115  1.00  0.00    -0.110 C  
HETATM   25  O   UNL     1      -9.159   4.571  66.534  1.00  0.00    -0.112 OA 
BRANCH  24  26
HETATM   26  C   UNL     1      -7.473   4.694  64.893  1.00  0.00    -0.073 C  
BRANCH  26  27
HETATM   27  O   UNL     1      -8.224   4.927  63.670  1.00  0.00    -0.104 OA 
BRANCH  27  28
HETATM   28  C   UNL     1      -8.659   3.794  63.043  1.00  0.00    -0.092 C  
HETATM   29  C   UNL     1     -10.162   3.712  63.019  1.00  0.00    -0.183 C  
HETATM   30  O   UNL     1      -7.932   2.936  62.566  1.00  0.00    -0.068 OA 
ENDBRANCH  27  28
ENDBRANCH  26  27
ENDBRANCH  24  26
ENDBRANCH   4  24
TORSDOF 4
ENDMDL
MODEL      124
REMARK 921   NORMALIZED FREE ENERGY PREDICTED BY IDOCK:   -3.34 KCAL/MOL
REMARK 922        TOTAL FREE ENERGY PREDICTED BY IDOCK:   -3.90 KCAL/MOL
REMARK 923 INTER-LIGAND FREE ENERGY PREDICTED BY IDOCK:   -4.67 KCAL/MOL
REMARK 924 INTRA-LIGAND FREE ENERGY PREDICTED BY IDOCK:    0.77 KCAL/MOL
REMARK 927      BINDING AFFINITY PREDICTED BY RF-SCORE:    0.00 PKD
ROOT
HETATM    1  C   UNL     1      -7.662   7.620  71.105  1.00  0.00    -0.085 C  
HETATM    2  C   UNL     1      -6.900   8.504  71.902  1.00  0.00    -0.097 C  
HETATM    3  C   UNL     1      -8.375   8.726  71.995  1.00  0.00    -0.093 C  
HETATM    4  C   UNL     1      -9.628   7.302  71.176  1.00  0.00    -0.160 C  
HETATM    5  O   UNL     1      -9.625  13.424  65.800  1.00  0.00    -0.179 OA 
HETATM    6  O   UNL     1      -9.077   6.093  70.530  1.00  0.00    -0.151 OA 
HETATM    7  C   UNL     1      -9.071   7.418  72.416  1.00  0.00    -0.164 C  
HETATM    8  C   UNL     1      -8.765   6.439  73.528  1.00  0.00    -0.130 C  
HETATM    9  C   UNL     1     -10.409   8.807  72.435  1.00  0.00    -0.224 C  
HETATM   10  C   UNL     1      -9.309  12.832  66.823  1.00  0.00    -0.241 C  
HETATM   11  C   UNL     1      -8.240  11.820  66.815  1.00  0.00    -0.147 C  
HETATM   12  H   UNL     1      -9.653   5.439  70.154  1.00  0.00     0.000 HD 
HETATM   13  C   UNL     1     -10.617   9.464  70.834  1.00  0.00    -0.320 C  
HETATM   14  C   UNL     1      -9.897  13.104  68.169  1.00  0.00    -0.228 C  
HETATM   15  O   UNL     1     -11.766   9.703  70.455  1.00  0.00    -0.257 OA 
HETATM   16  C   UNL     1     -10.565   9.596  67.557  1.00  0.00    -0.339 C  
HETATM   17  C   UNL     1      -9.297   9.750  69.811  1.00  0.00    -0.249 C  
HETATM   18  C   UNL     1      -8.201   8.522  69.619  1.00  0.00    -0.115 C  
HETATM   19  C   UNL     1      -9.661  10.474  68.445  1.00  0.00    -0.164 C  
HETATM   20  C   UNL     1     -10.433  11.814  68.783  1.00  0.00    -0.221 C  
HETATM   21  C   UNL     1      -6.968   9.057  68.873  1.00  0.00    -0.065 C  
HETATM   22  C   UNL     1      -7.331   9.656  67.522  1.00  0.00    -0.090 C  
HETATM   23  C   UNL     1      -8.387  10.735  67.599  1.00  0.00    -0.119 C  
ENDROOT
BRANCH   4  24
HETATM   24  C   UNL     1     -10.974   6.368  71.761  1.00  0.00    -0.255 C  
HETATM   25  O   UNL     1     -11.087   5.893  72.895  1.00  0.00    -0.255 OA 
BRANCH  24  26
HETATM   26  C   UNL     1     -12.159   6.070  70.804  1.00  0.00     0.543 C  
BRANCH  26  27
HETATM   27  O   UNL     1     -13.145   7.135  70.870  1.00  0.00    -0.240 OA 
BRANCH  27  28
HETATM   28  C   UNL     1     -13.992   7.063  71.939  1.00  0.00    -0.157 C  
HETATM   29  C   UNL     1     -14.363   8.429  72.450  1.00  0.00    -0.379 C  
HETATM   30  O   UNL     1     -14.400   6.026  72.439  1.00  0.00    -0.093 OA 
ENDBRANCH  27  28
ENDBRANCH  26  27
ENDBRANCH  24  26
ENDBRANCH   4  24
TORSDOF 4
ENDMDL
MODEL      125
REMARK 921   NORMALIZED FREE ENERGY PREDICTED BY IDOCK:   -3.33 KCAL/MOL
REMARK 922        TOTAL FREE ENERGY PREDICTED BY IDOCK:   -3.89 KCAL/MOL
REMARK 923 INTER-LIGAND FREE ENERGY PREDICTED BY IDOCK:   -4.90 KCAL/MOL
REMARK 924 INTRA-LIGAND FREE ENERGY PREDICTED BY IDOCK:    1.01 KCAL/MOL
REMARK 927      BINDING AFFINITY PREDICTED BY RF-SCORE:    0.00 PKD
ROOT
HETATM    1  C   UNL     1      -9.520  11.033  67.202  1.00  0.00    -0.181 C  
HETATM    2  C   UNL     1      -9.399  10.981  65.795  1.00  0.00    -0.236 C  
HETATM    3  C   UNL     1      -8.243  11.639  66.476  1.00  0.00    -0.101 C  
HETATM    4  C   UNL     1      -8.104  11.479  68.531  1.00  0.00    -0.146 C  
HETATM    5  O   UNL     1     -10.878  19.024  67.208  1.00  0.00    -0.472 OA 
HETATM    6  O   UNL     1      -9.113  10.721  69.299  1.00  0.00    -0.336 OA 
HETATM    7  C   UNL     1      -7.645  10.681  67.523  1.00  0.00    -0.093 C  
HETATM    8  C   UNL     1      -7.250   9.224  67.431  1.00  0.00    -0.080 C  
HETATM    9  C   UNL     1      -6.470  12.205  67.409  1.00  0.00    -0.149 C  
HETATM   10  C   UNL     1     -10.495  17.901  66.904  1.00  0.00    -0.329 C  
HETATM   11  C   UNL     1     -11.416  16.753  66.929  1.00  0.00     0.780 C  
HETATM   12  H   UNL     1      -9.049  10.647  70.243  1.00  0.00     0.000 HD 
HETATM   13  C   UNL     1      -7.313  13.653  67.889  1.00  0.00    -0.148 C  
HETATM   14  C   UNL     1      -9.119  17.585  66.420  1.00  0.00    -0.264 C  
HETATM   15  O   UNL     1      -6.710  14.463  68.598  1.00  0.00    -0.081 OA 
HETATM   16  C   UNL     1      -9.559  15.530  69.371  1.00  0.00    -0.279 C  
HETATM   17  C   UNL     1      -8.917  13.945  67.425  1.00  0.00    -0.211 C  
HETATM   18  C   UNL     1     -10.012  12.724  67.663  1.00  0.00    -0.217 C  
HETATM   19  C   UNL     1      -9.479  15.370  67.839  1.00  0.00    -0.197 C  
HETATM   20  C   UNL     1      -8.502  16.476  67.267  1.00  0.00    -0.201 C  
HETATM   21  C   UNL     1     -11.329  13.082  66.955  1.00  0.00    -0.352 C  
HETATM   22  C   UNL     1     -11.900  14.406  67.442  1.00  0.00    -0.430 C  
HETATM   23  C   UNL     1     -10.933  15.562  67.332  1.00  0.00    -0.306 C  
ENDROOT
BRANCH   4  24
HETATM   24  C   UNL     1      -6.873  10.950  69.640  1.00  0.00    -0.137 C  
HETATM   25  O   UNL     1      -5.977  11.653  70.117  1.00  0.00    -0.136 OA 
BRANCH  24  26
HETATM   26  C   UNL     1      -6.851   9.465  70.092  1.00  0.00    -0.071 C  
BRANCH  26  27
HETATM   27  O   UNL     1      -7.931   9.203  71.027  1.00  0.00    -0.172 OA 
BRANCH  27  28
HETATM   28  C   UNL     1      -8.108   7.885  71.340  1.00  0.00    -0.102 C  
HETATM   29  C   UNL     1      -9.519   7.601  71.781  1.00  0.00    -0.178 C  
HETATM   30  O   UNL     1      -7.236   7.031  71.287  1.00  0.00    -0.073 OA 
ENDBRANCH  27  28
ENDBRANCH  26  27
ENDBRANCH  24  26
ENDBRANCH   4  24
TORSDOF 4
ENDMDL
MODEL      126
REMARK 921   NORMALIZED FREE ENERGY PREDICTED BY IDOCK:   -3.28 KCAL/MOL
REMARK 922        TOTAL FREE ENERGY PREDICTED BY IDOCK:   -3.83 KCAL/MOL
REMARK 923 INTER-LIGAND FREE ENERGY PREDICTED BY IDOCK:   -5.15 KCAL/MOL
REMARK 924 INTRA-LIGAND FREE ENERGY PREDICTED BY IDOCK:    1.32 KCAL/MOL
REMARK 927      BINDING AFFINITY PREDICTED BY RF-SCORE:    0.00 PKD
ROOT
HETATM    1  C   UNL     1      -8.428   9.386  66.298  1.00  0.00    -0.133 C  
HETATM    2  C   UNL     1      -9.332   9.943  65.365  1.00  0.00    -0.297 C  
HETATM    3  C   UNL     1      -9.982   9.069  66.389  1.00  0.00    -0.370 C  
HETATM    4  C   UNL     1      -8.857   8.473  68.016  1.00  0.00    -0.142 C  
HETATM    5  O   UNL     1      -9.095   1.952  63.137  1.00  0.00    -0.087 OA 
HETATM    6  O   UNL     1      -7.455   8.913  68.166  1.00  0.00    -0.089 OA 
HETATM    7  C   UNL     1      -9.632   9.576  67.801  1.00  0.00    -0.156 C  
HETATM    8  C   UNL     1      -9.678  10.963  68.402  1.00  0.00    -0.179 C  
HETATM    9  C   UNL     1     -10.949   8.183  68.006  1.00  0.00     0.122 C  
HETATM   10  C   UNL     1      -9.328   3.104  63.481  1.00  0.00    -0.096 C  
HETATM   11  C   UNL     1      -8.344   4.176  63.259  1.00  0.00    -0.095 C  
HETATM   12  H   UNL     1      -6.938   8.639  68.914  1.00  0.00     0.000 HD 
HETATM   13  C   UNL     1     -10.323   6.669  67.410  1.00  0.00    -0.220 C  
HETATM   14  C   UNL     1     -10.619   3.558  64.078  1.00  0.00    -0.245 C  
HETATM   15  O   UNL     1     -10.556   5.651  68.066  1.00  0.00    -0.221 OA 
HETATM   16  C   UNL     1      -8.107   4.410  66.545  1.00  0.00    -0.102 C  
HETATM   17  C   UNL     1      -9.401   6.585  65.990  1.00  0.00    -0.039 C  
HETATM   18  C   UNL     1      -8.140   7.649  65.836  1.00  0.00    -0.122 C  
HETATM   19  C   UNL     1      -9.029   5.113  65.528  1.00  0.00    -0.156 C  
HETATM   20  C   UNL     1     -10.367   4.278  65.399  1.00  0.00    -0.217 C  
HETATM   21  C   UNL     1      -7.601   7.588  64.398  1.00  0.00    -0.111 C  
HETATM   22  C   UNL     1      -7.157   6.184  64.012  1.00  0.00    -0.053 C  
HETATM   23  C   UNL     1      -8.228   5.135  64.198  1.00  0.00    -0.131 C  
ENDROOT
BRANCH   4  24
HETATM   24  C   UNL     1      -9.059   8.549  69.742  1.00  0.00    -0.153 C  
HETATM   25  O   UNL     1      -8.187   8.853  70.561  1.00  0.00    -0.112 OA 
BRANCH  24  26
HETATM   26  C   UNL     1     -10.442   8.201  70.357  1.00  0.00    -0.215 C  
BRANCH  26  27
HETATM   27  O   UNL     1     -10.874   9.251  71.262  1.00  0.00    -0.292 OA 
BRANCH  27  28
HETATM   28  C   UNL     1     -12.202   9.221  71.579  1.00  0.00    -0.362 C  
HETATM   29  C   UNL     1     -12.847  10.571  71.412  1.00  0.00    -0.551 C  
HETATM   30  O   UNL     1     -12.806   8.232  71.965  1.00  0.00    -0.327 OA 
ENDBRANCH  27  28
ENDBRANCH  26  27
ENDBRANCH  24  26
ENDBRANCH   4  24
TORSDOF 4
ENDMDL
MODEL      127
REMARK 921   NORMALIZED FREE ENERGY PREDICTED BY IDOCK:   -3.27 KCAL/MOL
REMARK 922        TOTAL FREE ENERGY PREDICTED BY IDOCK:   -3.82 KCAL/MOL
REMARK 923 INTER-LIGAND FREE ENERGY PREDICTED BY IDOCK:   -4.31 KCAL/MOL
REMARK 924 INTRA-LIGAND FREE ENERGY PREDICTED BY IDOCK:    0.49 KCAL/MOL
REMARK 927      BINDING AFFINITY PREDICTED BY RF-SCORE:    0.00 PKD
ROOT
HETATM    1  C   UNL     1      -9.242   7.360  72.395  1.00  0.00    -0.173 C  
HETATM    2  C   UNL     1     -10.342   8.186  72.717  1.00  0.00    -0.384 C  
HETATM    3  C   UNL     1     -10.665   7.105  71.738  1.00  0.00    -0.241 C  
HETATM    4  C   UNL     1      -9.268   5.612  71.438  1.00  0.00    -0.146 C  
HETATM    5  O   UNL     1      -8.541  10.486  64.950  1.00  0.00    -0.176 OA 
HETATM    6  O   UNL     1      -7.994   5.610  72.186  1.00  0.00    -0.105 OA 
HETATM    7  C   UNL     1     -10.291   5.735  72.334  1.00  0.00    -0.238 C  
HETATM    8  C   UNL     1     -10.585   5.122  73.685  1.00  0.00    -0.322 C  
HETATM    9  C   UNL     1     -11.229   5.400  70.684  1.00  0.00     0.198 C  
HETATM   10  C   UNL     1      -8.991  10.111  66.025  1.00  0.00    -0.151 C  
HETATM   11  C   UNL     1      -8.304  10.429  67.288  1.00  0.00    -0.122 C  
HETATM   12  H   UNL     1      -7.352   4.925  72.048  1.00  0.00     0.000 HD 
HETATM   13  C   UNL     1     -10.343   6.071  69.340  1.00  0.00    -0.236 C  
HETATM   14  C   UNL     1     -10.281   9.375  66.186  1.00  0.00    -0.264 C  
HETATM   15  O   UNL     1     -10.269   5.402  68.307  1.00  0.00    -0.171 OA 
HETATM   16  C   UNL     1      -7.778   7.186  67.625  1.00  0.00    -0.112 C  
HETATM   17  C   UNL     1      -9.583   7.582  69.442  1.00  0.00    -0.155 C  
HETATM   18  C   UNL     1      -8.619   7.863  70.761  1.00  0.00    -0.132 C  
HETATM   19  C   UNL     1      -8.938   8.093  68.084  1.00  0.00    -0.135 C  
HETATM   20  C   UNL     1     -10.059   8.083  66.967  1.00  0.00    -0.350 C  
HETATM   21  C   UNL     1      -8.236   9.351  70.798  1.00  0.00    -0.173 C  
HETATM   22  C   UNL     1      -7.529   9.793  69.524  1.00  0.00    -0.101 C  
HETATM   23  C   UNL     1      -8.310   9.501  68.263  1.00  0.00    -0.118 C  
ENDROOT
BRANCH   4  24
HETATM   24  C   UNL     1      -9.297   3.874  71.497  1.00  0.00    -0.136 C  
HETATM   25  O   UNL     1     -10.229   3.179  71.911  1.00  0.00    -0.127 OA 
BRANCH  24  26
HETATM   26  C   UNL     1      -8.056   3.081  71.005  1.00  0.00    -0.054 C  
BRANCH  26  27
HETATM   27  O   UNL     1      -8.246   2.642  69.633  1.00  0.00    -0.044 OA 
BRANCH  27  28
HETATM   28  C   UNL     1      -7.366   3.175  68.735  1.00  0.00    -0.049 C  
HETATM   29  C   UNL     1      -6.107   3.656  69.406  1.00  0.00    -0.027 C  
HETATM   30  O   UNL     1      -7.565   3.270  67.534  1.00  0.00    -0.065 OA 
ENDBRANCH  27  28
ENDBRANCH  26  27
ENDBRANCH  24  26
ENDBRANCH   4  24
TORSDOF 4
ENDMDL
MODEL      128
REMARK 921   NORMALIZED FREE ENERGY PREDICTED BY IDOCK:   -3.26 KCAL/MOL
REMARK 922        TOTAL FREE ENERGY PREDICTED BY IDOCK:   -3.80 KCAL/MOL
REMARK 923 INTER-LIGAND FREE ENERGY PREDICTED BY IDOCK:   -5.04 KCAL/MOL
REMARK 924 INTRA-LIGAND FREE ENERGY PREDICTED BY IDOCK:    1.24 KCAL/MOL
REMARK 927      BINDING AFFINITY PREDICTED BY RF-SCORE:    0.00 PKD
ROOT
HETATM    1  C   UNL     1      -9.585  18.666  67.000  1.00  0.00    -0.319 C  
HETATM    2  C   UNL     1     -10.765  19.079  67.659  1.00  0.00    -0.495 C  
HETATM    3  C   UNL     1     -10.046  17.968  68.352  1.00  0.00    -0.392 C  
HETATM    4  C   UNL     1      -8.138  17.495  67.713  1.00  0.00    -0.221 C  
HETATM    5  O   UNL     1     -12.898  11.682  64.562  1.00  0.00    -0.079 OA 
HETATM    6  O   UNL     1      -7.503  18.248  66.612  1.00  0.00    -0.207 OA 
HETATM    7  C   UNL     1      -8.592  18.390  68.638  1.00  0.00    -0.315 C  
HETATM    8  C   UNL     1      -8.022  19.650  69.252  1.00  0.00    -0.069 C  
HETATM    9  C   UNL     1      -8.880  16.702  69.524  1.00  0.00     0.301 C  
HETATM   10  C   UNL     1     -12.639  12.696  65.196  1.00  0.00    -0.386 C  
HETATM   11  C   UNL     1     -12.487  13.995  64.520  1.00  0.00    -0.342 C  
HETATM   12  H   UNL     1      -6.627  18.031  66.318  1.00  0.00     0.000 HD 
HETATM   13  C   UNL     1      -9.245  15.462  68.354  1.00  0.00    -0.192 C  
HETATM   14  C   UNL     1     -12.521  12.752  66.684  1.00  0.00     0.303 C  
HETATM   15  O   UNL     1      -8.728  14.353  68.509  1.00  0.00    -0.174 OA 
HETATM   16  C   UNL     1      -9.321  13.925  65.456  1.00  0.00     0.314 C  
HETATM   17  C   UNL     1     -10.257  15.761  67.027  1.00  0.00    -0.280 C  
HETATM   18  C   UNL     1      -9.946  17.113  66.121  1.00  0.00    -0.296 C  
HETATM   19  C   UNL     1     -10.584  14.484  66.142  1.00  0.00    -0.308 C  
HETATM   20  C   UNL     1     -11.183  13.364  67.086  1.00  0.00    -0.325 C  
HETATM   21  C   UNL     1     -11.107  17.342  65.140  1.00  0.00     0.256 C  
HETATM   22  C   UNL     1     -11.336  16.140  64.234  1.00  0.00    -0.098 C  
HETATM   23  C   UNL     1     -11.552  14.846  64.984  1.00  0.00    -0.357 C  
ENDROOT
BRANCH   4  24
HETATM   24  C   UNL     1      -6.589  17.333  68.487  1.00  0.00    -0.174 C  
HETATM   25  O   UNL     1      -6.222  17.929  69.504  1.00  0.00    -0.240 OA 
BRANCH  24  26
HETATM   26  C   UNL     1      -5.536  16.372  67.874  1.00  0.00    -0.119 C  
BRANCH  26  27
HETATM   27  O   UNL     1      -6.190  15.243  67.235  1.00  0.00    -0.321 OA 
BRANCH  27  28
HETATM   28  C   UNL     1      -5.905  14.028  67.792  1.00  0.00    -0.081 C  
HETATM   29  C   UNL     1      -5.647  14.138  69.270  1.00  0.00    -0.082 C  
HETATM   30  O   UNL     1      -5.851  12.974  67.177  1.00  0.00    -0.341 OA 
ENDBRANCH  27  28
ENDBRANCH  26  27
ENDBRANCH  24  26
ENDBRANCH   4  24
TORSDOF 4
ENDMDL
MODEL      129
REMARK 921   NORMALIZED FREE ENERGY PREDICTED BY IDOCK:   -3.24 KCAL/MOL
REMARK 922        TOTAL FREE ENERGY PREDICTED BY IDOCK:   -3.77 KCAL/MOL
REMARK 923 INTER-LIGAND FREE ENERGY PREDICTED BY IDOCK:   -4.39 KCAL/MOL
REMARK 924 INTRA-LIGAND FREE ENERGY PREDICTED BY IDOCK:    0.62 KCAL/MOL
REMARK 927      BINDING AFFINITY PREDICTED BY RF-SCORE:    0.00 PKD
ROOT
HETATM    1  C   UNL     1     -11.036  13.403  66.485  1.00  0.00    -0.299 C  
HETATM    2  C   UNL     1     -12.365  13.376  66.006  1.00  0.00    -0.471 C  
HETATM    3  C   UNL     1     -11.909  14.730  66.444  1.00  0.00    -0.231 C  
HETATM    4  C   UNL     1      -9.898  15.002  66.832  1.00  0.00    -0.238 C  
HETATM    5  O   UNL     1     -13.385  14.434  74.174  1.00  0.00     0.876 OA 
HETATM    6  O   UNL     1      -8.940  13.890  66.666  1.00  0.00    -0.369 OA 
HETATM    7  C   UNL     1     -10.627  15.116  65.684  1.00  0.00    -0.370 C  
HETATM    8  C   UNL     1     -10.285  15.060  64.211  1.00  0.00     1.264 C  
HETATM    9  C   UNL     1     -11.187  16.668  66.681  1.00  0.00     0.415 C  
HETATM   10  C   UNL     1     -13.345  14.445  72.950  1.00  0.00    -0.478 C  
HETATM   11  C   UNL     1     -12.981  13.236  72.192  1.00  0.00    -0.395 C  
HETATM   12  H   UNL     1      -8.016  14.015  66.844  1.00  0.00     0.000 HD 
HETATM   13  C   UNL     1     -11.154  16.330  68.390  1.00  0.00    -0.362 C  
HETATM   14  C   UNL     1     -13.715  15.620  72.107  1.00  0.00    -0.554 C  
HETATM   15  O   UNL     1     -10.716  17.203  69.142  1.00  0.00    -0.301 OA 
HETATM   16  C   UNL     1     -10.289  14.870  71.199  1.00  0.00     0.917 C  
HETATM   17  C   UNL     1     -11.682  14.844  69.014  1.00  0.00    -0.347 C  
HETATM   18  C   UNL     1     -11.093  13.468  68.303  1.00  0.00    -0.287 C  
HETATM   19  C   UNL     1     -11.706  14.761  70.599  1.00  0.00    -0.353 C  
HETATM   20  C   UNL     1     -12.579  15.962  71.147  1.00  0.00    -0.387 C  
HETATM   21  C   UNL     1     -11.874  12.254  68.831  1.00  0.00    -0.355 C  
HETATM   22  C   UNL     1     -11.799  12.139  70.347  1.00  0.00    -0.277 C  
HETATM   23  C   UNL     1     -12.246  13.386  71.074  1.00  0.00    -0.312 C  
ENDROOT
BRANCH   4  24
HETATM   24  C   UNL     1      -8.684  16.122  66.287  1.00  0.00    -0.337 C  
HETATM   25  O   UNL     1      -8.865  17.068  65.516  1.00  0.00    -0.319 OA 
BRANCH  24  26
HETATM   26  C   UNL     1      -7.222  15.948  66.780  1.00  0.00    -0.047 C  
BRANCH  26  27
HETATM   27  O   UNL     1      -7.198  15.646  68.201  1.00  0.00    -0.108 OA 
BRANCH  27  28
HETATM   28  C   UNL     1      -6.716  16.652  68.991  1.00  0.00    -0.202 C  
HETATM   29  C   UNL     1      -7.055  18.009  68.435  1.00  0.00    -0.247 C  
HETATM   30  O   UNL     1      -6.075  16.487  70.018  1.00  0.00    -0.215 OA 
ENDBRANCH  27  28
ENDBRANCH  26  27
ENDBRANCH  24  26
ENDBRANCH   4  24
TORSDOF 4
ENDMDL
MODEL      130
REMARK 921   NORMALIZED FREE ENERGY PREDICTED BY IDOCK:   -3.16 KCAL/MOL
REMARK 922        TOTAL FREE ENERGY PREDICTED BY IDOCK:   -3.68 KCAL/MOL
REMARK 923 INTER-LIGAND FREE ENERGY PREDICTED BY IDOCK:   -4.28 KCAL/MOL
REMARK 924 INTRA-LIGAND FREE ENERGY PREDICTED BY IDOCK:    0.59 KCAL/MOL
REMARK 927      BINDING AFFINITY PREDICTED BY RF-SCORE:    0.00 PKD
ROOT
HETATM    1  C   UNL     1      -8.037   9.626  66.227  1.00  0.00    -0.112 C  
HETATM    2  C   UNL     1      -8.726  10.175  65.122  1.00  0.00    -0.189 C  
HETATM    3  C   UNL     1      -9.620   9.535  66.133  1.00  0.00    -0.302 C  
HETATM    4  C   UNL     1      -8.807   9.006  67.958  1.00  0.00    -0.129 C  
HETATM    5  O   UNL     1      -9.414   2.006  63.833  1.00  0.00    -0.113 OA 
HETATM    6  O   UNL     1      -7.384   9.270  68.254  1.00  0.00    -0.077 OA 
HETATM    7  C   UNL     1      -9.375  10.166  67.517  1.00  0.00    -0.168 C  
HETATM    8  C   UNL     1      -9.287  11.613  67.951  1.00  0.00    -0.174 C  
HETATM    9  C   UNL     1     -10.901   9.000  67.686  1.00  0.00    -0.133 C  
HETATM   10  C   UNL     1      -9.513   3.213  64.013  1.00  0.00    -0.134 C  
HETATM   11  C   UNL     1      -8.360   4.106  63.816  1.00  0.00    -0.097 C  
HETATM   12  H   UNL     1      -7.010   9.027  69.092  1.00  0.00     0.000 HD 
HETATM   13  C   UNL     1     -10.440   7.353  67.352  1.00  0.00    -0.296 C  
HETATM   14  C   UNL     1     -10.785   3.909  64.370  1.00  0.00    -0.200 C  
HETATM   15  O   UNL     1     -10.902   6.467  68.075  1.00  0.00    -0.252 OA 
HETATM   16  C   UNL     1      -8.498   4.725  67.058  1.00  0.00    -0.105 C  
HETATM   17  C   UNL     1      -9.373   6.965  66.093  1.00  0.00    -0.089 C  
HETATM   18  C   UNL     1      -7.958   7.822  66.002  1.00  0.00    -0.108 C  
HETATM   19  C   UNL     1      -9.171   5.409  65.851  1.00  0.00    -0.165 C  
HETATM   20  C   UNL     1     -10.593   4.751  65.627  1.00  0.00    -0.220 C  
HETATM   21  C   UNL     1      -7.260   7.505  64.670  1.00  0.00    -0.068 C  
HETATM   22  C   UNL     1      -6.987   6.017  64.505  1.00  0.00    -0.051 C  
HETATM   23  C   UNL     1      -8.219   5.153  64.652  1.00  0.00    -0.132 C  
ENDROOT
BRANCH   4  24
HETATM   24  C   UNL     1      -9.206   9.329  69.619  1.00  0.00    -0.175 C  
HETATM   25  O   UNL     1     -10.040  10.147  70.018  1.00  0.00    -0.247 OA 
BRANCH  24  26
HETATM   26  C   UNL     1      -8.465   8.550  70.739  1.00  0.00    -0.149 C  
BRANCH  26  27
HETATM   27  O   UNL     1      -8.545   7.119  70.500  1.00  0.00    -0.140 OA 
BRANCH  27  28
HETATM   28  C   UNL     1      -7.791   6.356  71.346  1.00  0.00    -0.104 C  
HETATM   29  C   UNL     1      -6.600   5.760  70.647  1.00  0.00    -0.044 C  
HETATM   30  O   UNL     1      -8.045   6.162  72.525  1.00  0.00    -0.104 OA 
ENDBRANCH  27  28
ENDBRANCH  26  27
ENDBRANCH  24  26
ENDBRANCH   4  24
TORSDOF 4
ENDMDL
MODEL      131
REMARK 921   NORMALIZED FREE ENERGY PREDICTED BY IDOCK:   -3.04 KCAL/MOL
REMARK 922        TOTAL FREE ENERGY PREDICTED BY IDOCK:   -3.53 KCAL/MOL
REMARK 923 INTER-LIGAND FREE ENERGY PREDICTED BY IDOCK:   -5.02 KCAL/MOL
REMARK 924 INTRA-LIGAND FREE ENERGY PREDICTED BY IDOCK:    1.49 KCAL/MOL
REMARK 927      BINDING AFFINITY PREDICTED BY RF-SCORE:    0.00 PKD
ROOT
HETATM    1  C   UNL     1      -5.846  13.677  68.093  1.00  0.00    -0.121 C  
HETATM    2  C   UNL     1      -5.643  14.169  69.402  1.00  0.00    -0.084 C  
HETATM    3  C   UNL     1      -6.977  13.527  69.199  1.00  0.00    -0.055 C  
HETATM    4  C   UNL     1      -7.286  12.454  67.460  1.00  0.00    -0.146 C  
HETATM    5  O   UNL     1     -11.152  19.526  66.268  1.00  0.00    -0.265 OA 
HETATM    6  O   UNL     1      -6.211  12.317  66.456  1.00  0.00    -0.470 OA 
HETATM    7  C   UNL     1      -6.787  12.090  68.677  1.00  0.00    -0.091 C  
HETATM    8  C   UNL     1      -5.894  10.966  69.154  1.00  0.00    -0.041 C  
HETATM    9  C   UNL     1      -8.664  12.314  69.054  1.00  0.00     0.423 C  
HETATM   10  C   UNL     1     -10.474  18.708  66.877  1.00  0.00    -0.402 C  
HETATM   11  C   UNL     1      -9.028  18.589  66.631  1.00  0.00    -0.298 C  
HETATM   12  H   UNL     1      -6.353  11.824  65.658  1.00  0.00     0.000 HD 
HETATM   13  C   UNL     1      -9.338  13.561  68.039  1.00  0.00    -0.213 C  
HETATM   14  C   UNL     1     -10.998  17.816  67.953  1.00  0.00    -0.100 C  
HETATM   15  O   UNL     1     -10.451  13.363  67.547  1.00  0.00    -0.234 OA 
HETATM   16  C   UNL     1      -9.645  15.564  65.459  1.00  0.00    -0.257 C  
HETATM   17  C   UNL     1      -8.494  14.993  67.709  1.00  0.00    -0.161 C  
HETATM   18  C   UNL     1      -6.920  14.852  67.210  1.00  0.00    -0.052 C  
HETATM   19  C   UNL     1      -9.313  16.069  66.878  1.00  0.00    -0.246 C  
HETATM   20  C   UNL     1     -10.669  16.359  67.640  1.00  0.00    -0.312 C  
HETATM   21  C   UNL     1      -6.263  16.242  67.211  1.00  0.00    -0.205 C  
HETATM   22  C   UNL     1      -7.011  17.230  66.327  1.00  0.00    -0.299 C  
HETATM   23  C   UNL     1      -8.478  17.360  66.667  1.00  0.00    -0.291 C  
ENDROOT
BRANCH   4  24
HETATM   24  C   UNL     1      -7.827  10.842  67.092  1.00  0.00    -0.127 C  
HETATM   25  O   UNL     1      -7.256  10.039  66.349  1.00  0.00    -0.096 OA 
BRANCH  24  26
HETATM   26  C   UNL     1      -9.149  10.327  67.722  1.00  0.00    -0.134 C  
BRANCH  26  27
HETATM   27  O   UNL     1      -8.888   9.192  68.591  1.00  0.00    -0.131 OA 
BRANCH  27  28
HETATM   28  C   UNL     1      -9.770   9.050  69.624  1.00  0.00    -0.172 C  
HETATM   29  C   UNL     1      -9.075   8.667  70.903  1.00  0.00    -0.229 C  
HETATM   30  O   UNL     1     -10.979   9.199  69.536  1.00  0.00    -0.213 OA 
ENDBRANCH  27  28
ENDBRANCH  26  27
ENDBRANCH  24  26
ENDBRANCH   4  24
TORSDOF 4
ENDMDL
MODEL      132
REMARK 921   NORMALIZED FREE ENERGY PREDICTED BY IDOCK:   -3.00 KCAL/MOL
REMARK 922        TOTAL FREE ENERGY PREDICTED BY IDOCK:   -3.48 KCAL/MOL
REMARK 923 INTER-LIGAND FREE ENERGY PREDICTED BY IDOCK:   -3.77 KCAL/MOL
REMARK 924 INTRA-LIGAND FREE ENERGY PREDICTED BY IDOCK:    0.29 KCAL/MOL
REMARK 927      BINDING AFFINITY PREDICTED BY RF-SCORE:    0.00 PKD
ROOT
HETATM    1  C   UNL     1      -7.839   5.955  64.784  1.00  0.00    -0.113 C  
HETATM    2  C   UNL     1      -6.603   6.276  64.180  1.00  0.00    -0.034 C  
HETATM    3  C   UNL     1      -6.522   6.095  65.661  1.00  0.00    -0.043 C  
HETATM    4  C   UNL     1      -8.154   5.283  66.634  1.00  0.00    -0.105 C  
HETATM    5  O   UNL     1      -8.546  13.267  68.208  1.00  0.00    -0.173 OA 
HETATM    6  O   UNL     1      -9.359   4.880  65.879  1.00  0.00    -0.147 OA 
HETATM    7  C   UNL     1      -7.066   4.706  66.044  1.00  0.00    -0.075 C  
HETATM    8  C   UNL     1      -6.780   3.333  65.479  1.00  0.00    -0.044 C  
HETATM    9  C   UNL     1      -6.308   5.480  67.639  1.00  0.00    -0.042 C  
HETATM   10  C   UNL     1      -8.088  12.242  67.719  1.00  0.00    -0.155 C  
HETATM   11  C   UNL     1      -8.628  11.694  66.464  1.00  0.00    -0.164 C  
HETATM   12  H   UNL     1     -10.109   4.507  66.326  1.00  0.00     0.000 HD 
HETATM   13  C   UNL     1      -7.166   6.935  68.069  1.00  0.00    -0.091 C  
HETATM   14  C   UNL     1      -6.923  11.492  68.275  1.00  0.00    -0.073 C  
HETATM   15  O   UNL     1      -7.415   7.125  69.262  1.00  0.00    -0.089 OA 
HETATM   16  C   UNL     1      -9.634   9.091  68.230  1.00  0.00    -0.158 C  
HETATM   17  C   UNL     1      -7.670   8.051  66.897  1.00  0.00    -0.099 C  
HETATM   18  C   UNL     1      -8.485   7.458  65.582  1.00  0.00    -0.137 C  
HETATM   19  C   UNL     1      -8.318   9.378  67.480  1.00  0.00    -0.122 C  
HETATM   20  C   UNL     1      -7.291  10.028  68.494  1.00  0.00    -0.077 C  
HETATM   21  C   UNL     1      -8.626   8.571  64.531  1.00  0.00    -0.055 C  
HETATM   22  C   UNL     1      -9.339   9.796  65.086  1.00  0.00    -0.322 C  
HETATM   23  C   UNL     1      -8.703  10.355  66.337  1.00  0.00    -0.149 C  
ENDROOT
BRANCH   4  24
HETATM   24  C   UNL     1      -8.395   3.946  67.720  1.00  0.00    -0.093 C  
HETATM   25  O   UNL     1      -7.596   3.028  67.927  1.00  0.00    -0.057 OA 
BRANCH  24  26
HETATM   26  C   UNL     1      -9.726   3.848  68.513  1.00  0.00    -0.044 C  
BRANCH  26  27
HETATM   27  O   UNL     1     -10.292   5.171  68.719  1.00  0.00    -0.166 OA 
BRANCH  27  28
HETATM   28  C   UNL     1     -10.510   5.501  70.027  1.00  0.00    -0.303 C  
HETATM   29  C   UNL     1     -11.583   6.547  70.166  1.00  0.00    -0.466 C  
HETATM   30  O   UNL     1      -9.909   5.025  70.977  1.00  0.00    -0.175 OA 
ENDBRANCH  27  28
ENDBRANCH  26  27
ENDBRANCH  24  26
ENDBRANCH   4  24
TORSDOF 4
ENDMDL
MODEL      133
REMARK 921   NORMALIZED FREE ENERGY PREDICTED BY IDOCK:   -3.00 KCAL/MOL
REMARK 922        TOTAL FREE ENERGY PREDICTED BY IDOCK:   -3.48 KCAL/MOL
REMARK 923 INTER-LIGAND FREE ENERGY PREDICTED BY IDOCK:   -4.38 KCAL/MOL
REMARK 924 INTRA-LIGAND FREE ENERGY PREDICTED BY IDOCK:    0.89 KCAL/MOL
REMARK 927      BINDING AFFINITY PREDICTED BY RF-SCORE:    0.00 PKD
ROOT
HETATM    1  C   UNL     1      -8.592  11.007  65.861  1.00  0.00    -0.165 C  
HETATM    2  C   UNL     1      -9.031  10.182  64.801  1.00  0.00    -0.236 C  
HETATM    3  C   UNL     1      -9.787   9.981  66.074  1.00  0.00    -0.321 C  
HETATM    4  C   UNL     1      -9.505  11.347  67.599  1.00  0.00    -0.162 C  
HETATM    5  O   UNL     1      -5.168   4.816  69.816  1.00  0.00     0.000 OA 
HETATM    6  O   UNL     1      -8.592  12.496  67.424  1.00  0.00    -0.168 OA 
HETATM    7  C   UNL     1     -10.373  11.325  66.546  1.00  0.00    -0.284 C  
HETATM    8  C   UNL     1     -11.155  12.387  65.805  1.00  0.00    -0.351 C  
HETATM    9  C   UNL     1     -11.090   9.956  67.698  1.00  0.00    -0.170 C  
HETATM   10  C   UNL     1      -5.896   5.485  69.095  1.00  0.00    -0.023 C  
HETATM   11  C   UNL     1      -5.337   6.483  68.168  1.00  0.00    -0.008 C  
HETATM   12  H   UNL     1      -8.462  13.123  68.125  1.00  0.00     0.000 HD 
HETATM   13  C   UNL     1      -9.803   9.175  68.578  1.00  0.00    -0.164 C  
HETATM   14  C   UNL     1      -7.379   5.327  69.017  1.00  0.00    -0.066 C  
HETATM   15  O   UNL     1      -9.993   8.917  69.769  1.00  0.00    -0.182 OA 
HETATM   16  C   UNL     1      -6.865   8.781  69.982  1.00  0.00    -0.042 C  
HETATM   17  C   UNL     1      -8.324   8.795  67.842  1.00  0.00    -0.118 C  
HETATM   18  C   UNL     1      -7.573   9.994  66.978  1.00  0.00    -0.092 C  
HETATM   19  C   UNL     1      -7.322   7.968  68.754  1.00  0.00    -0.085 C  
HETATM   20  C   UNL     1      -8.068   6.667  69.260  1.00  0.00    -0.116 C  
HETATM   21  C   UNL     1      -6.400   9.389  66.191  1.00  0.00    -0.068 C  
HETATM   22  C   UNL     1      -5.401   8.688  67.099  1.00  0.00    -0.037 C  
HETATM   23  C   UNL     1      -6.020   7.628  67.981  1.00  0.00    -0.040 C  
ENDROOT
BRANCH   4  24
HETATM   24  C   UNL     1     -10.555  12.338  68.569  1.00  0.00    -0.234 C  
HETATM   25  O   UNL     1     -11.051  12.021  69.654  1.00  0.00    -0.146 OA 
BRANCH  24  26
HETATM   26  C   UNL     1     -10.941  13.753  68.060  1.00  0.00    -0.250 C  
BRANCH  26  27
HETATM   27  O   UNL     1     -10.025  14.749  68.589  1.00  0.00    -0.219 OA 
BRANCH  27  28
HETATM   28  C   UNL     1      -9.520  15.611  67.657  1.00  0.00    -0.211 C  
HETATM   29  C   UNL     1      -8.204  16.196  68.094  1.00  0.00    -0.157 C  
HETATM   30  O   UNL     1     -10.062  15.893  66.600  1.00  0.00    -0.261 OA 
ENDBRANCH  27  28
ENDBRANCH  26  27
ENDBRANCH  24  26
ENDBRANCH   4  24
TORSDOF 4
ENDMDL
MODEL      134
REMARK 921   NORMALIZED FREE ENERGY PREDICTED BY IDOCK:   -2.99 KCAL/MOL
REMARK 922        TOTAL FREE ENERGY PREDICTED BY IDOCK:   -3.47 KCAL/MOL
REMARK 923 INTER-LIGAND FREE ENERGY PREDICTED BY IDOCK:   -4.20 KCAL/MOL
REMARK 924 INTRA-LIGAND FREE ENERGY PREDICTED BY IDOCK:    0.73 KCAL/MOL
REMARK 927      BINDING AFFINITY PREDICTED BY RF-SCORE:    0.00 PKD
ROOT
HETATM    1  C   UNL     1      -8.289  10.192  64.829  1.00  0.00    -0.167 C  
HETATM    2  C   UNL     1      -8.976   9.746  63.678  1.00  0.00    -0.270 C  
HETATM    3  C   UNL     1      -9.852   9.910  64.877  1.00  0.00    -0.282 C  
HETATM    4  C   UNL     1      -9.075  10.885  66.525  1.00  0.00    -0.169 C  
HETATM    5  O   UNL     1      -8.860   2.978  68.479  1.00  0.00    -0.095 OA 
HETATM    6  O   UNL     1      -7.696  11.415  66.507  1.00  0.00    -0.212 OA 
HETATM    7  C   UNL     1      -9.726  11.347  65.418  1.00  0.00    -0.265 C  
HETATM    8  C   UNL     1      -9.790  12.685  64.717  1.00  0.00    -0.064 C  
HETATM    9  C   UNL     1     -11.146  10.490  66.402  1.00  0.00     0.099 C  
HETATM   10  C   UNL     1      -9.076   3.951  67.769  1.00  0.00    -0.150 C  
HETATM   11  C   UNL     1      -8.002   4.559  66.967  1.00  0.00    -0.102 C  
HETATM   12  H   UNL     1      -7.339  11.862  67.264  1.00  0.00     0.000 HD 
HETATM   13  C   UNL     1     -10.522   9.131  67.298  1.00  0.00    -0.265 C  
HETATM   14  C   UNL     1     -10.421   4.572  67.579  1.00  0.00     0.227 C  
HETATM   15  O   UNL     1     -10.933   8.962  68.449  1.00  0.00    -0.046 OA 
HETATM   16  C   UNL     1      -8.338   7.245  68.859  1.00  0.00    -0.126 C  
HETATM   17  C   UNL     1      -9.370   8.080  66.634  1.00  0.00    -0.249 C  
HETATM   18  C   UNL     1      -8.036   8.761  65.925  1.00  0.00    -0.110 C  
HETATM   19  C   UNL     1      -9.017   6.825  67.540  1.00  0.00    -0.115 C  
HETATM   20  C   UNL     1     -10.362   6.066  67.885  1.00  0.00    -0.255 C  
HETATM   21  C   UNL     1      -7.255   7.674  65.170  1.00  0.00    -0.069 C  
HETATM   22  C   UNL     1      -6.841   6.528  66.083  1.00  0.00    -0.057 C  
HETATM   23  C   UNL     1      -7.993   5.899  66.830  1.00  0.00    -0.102 C  
ENDROOT
BRANCH   4  24
HETATM   24  C   UNL     1      -9.575  12.234  67.501  1.00  0.00    -0.184 C  
HETATM   25  O   UNL     1     -10.662  12.351  68.073  1.00  0.00    -0.210 OA 
BRANCH  24  26
HETATM   26  C   UNL     1      -8.603  13.430  67.690  1.00  0.00    -0.193 C  
BRANCH  26  27
HETATM   27  O   UNL     1      -9.089  14.319  68.731  1.00  0.00    -0.179 OA 
BRANCH  27  28
HETATM   28  C   UNL     1      -8.926  15.650  68.468  1.00  0.00    -0.192 C  
HETATM   29  C   UNL     1      -7.487  16.072  68.597  1.00  0.00    -0.166 C  
HETATM   30  O   UNL     1      -9.827  16.420  68.174  1.00  0.00    -0.231 OA 
ENDBRANCH  27  28
ENDBRANCH  26  27
ENDBRANCH  24  26
ENDBRANCH   4  24
TORSDOF 4
ENDMDL
MODEL      135
REMARK 921   NORMALIZED FREE ENERGY PREDICTED BY IDOCK:   -2.75 KCAL/MOL
REMARK 922        TOTAL FREE ENERGY PREDICTED BY IDOCK:   -3.18 KCAL/MOL
REMARK 923 INTER-LIGAND FREE ENERGY PREDICTED BY IDOCK:   -4.39 KCAL/MOL
REMARK 924 INTRA-LIGAND FREE ENERGY PREDICTED BY IDOCK:    1.21 KCAL/MOL
REMARK 927      BINDING AFFINITY PREDICTED BY RF-SCORE:    0.00 PKD
ROOT
HETATM    1  C   UNL     1      -6.836   5.310  68.252  1.00  0.00    -0.056 C  
HETATM    2  C   UNL     1      -5.762   6.166  68.587  1.00  0.00    -0.012 C  
HETATM    3  C   UNL     1      -6.846   6.127  69.615  1.00  0.00    -0.065 C  
HETATM    4  C   UNL     1      -8.300   4.669  69.443  1.00  0.00    -0.075 C  
HETATM    5  O   UNL     1     -11.861  11.497  66.783  1.00  0.00    -0.511 OA 
HETATM    6  O   UNL     1      -8.257   3.686  68.341  1.00  0.00    -0.076 OA 
HETATM    7  C   UNL     1      -7.084   4.672  70.063  1.00  0.00    -0.049 C  
HETATM    8  C   UNL     1      -6.117   3.589  70.490  1.00  0.00    -0.019 C  
HETATM    9  C   UNL     1      -8.136   5.802  71.217  1.00  0.00    -0.114 C  
HETATM   10  C   UNL     1     -10.952  10.806  67.225  1.00  0.00    -0.297 C  
HETATM   11  C   UNL     1     -10.109   9.997  66.330  1.00  0.00    -0.310 C  
HETATM   12  H   UNL     1      -8.925   3.016  68.261  1.00  0.00     0.000 HD 
HETATM   13  C   UNL     1      -9.331   6.667  70.288  1.00  0.00    -0.159 C  
HETATM   14  C   UNL     1     -10.557  10.757  68.664  1.00  0.00    -0.226 C  
HETATM   15  O   UNL     1     -10.464   6.773  70.763  1.00  0.00    -0.209 OA 
HETATM   16  C   UNL     1     -11.379   7.334  67.813  1.00  0.00     0.325 C  
HETATM   17  C   UNL     1      -8.970   7.326  68.768  1.00  0.00    -0.129 C  
HETATM   18  C   UNL     1      -8.218   6.340  67.669  1.00  0.00    -0.117 C  
HETATM   19  C   UNL     1     -10.136   8.191  68.127  1.00  0.00    -0.237 C  
HETATM   20  C   UNL     1     -10.549   9.315  69.163  1.00  0.00    -0.228 C  
HETATM   21  C   UNL     1      -7.754   7.182  66.470  1.00  0.00    -0.100 C  
HETATM   22  C   UNL     1      -8.908   7.925  65.811  1.00  0.00    -0.155 C  
HETATM   23  C   UNL     1      -9.698   8.791  66.764  1.00  0.00    -0.286 C  
ENDROOT
BRANCH   4  24
HETATM   24  C   UNL     1      -8.943   3.446  70.499  1.00  0.00    -0.095 C  
HETATM   25  O   UNL     1      -9.342   2.329  70.157  1.00  0.00    -0.116 OA 
BRANCH  24  26
HETATM   26  C   UNL     1      -9.056   3.744  72.019  1.00  0.00    -0.116 C  
BRANCH  26  27
HETATM   27  O   UNL     1     -10.386   3.417  72.503  1.00  0.00    -0.165 OA 
BRANCH  27  28
HETATM   28  C   UNL     1     -10.961   4.377  73.286  1.00  0.00    -0.273 C  
HETATM   29  C   UNL     1     -10.172   4.616  74.545  1.00  0.00    -0.293 C  
HETATM   30  O   UNL     1     -11.994   4.971  73.019  1.00  0.00    -0.226 OA 
ENDBRANCH  27  28
ENDBRANCH  26  27
ENDBRANCH  24  26
ENDBRANCH   4  24
TORSDOF 4
ENDMDL
MODEL      136
REMARK 921   NORMALIZED FREE ENERGY PREDICTED BY IDOCK:   -2.75 KCAL/MOL
REMARK 922        TOTAL FREE ENERGY PREDICTED BY IDOCK:   -3.17 KCAL/MOL
REMARK 923 INTER-LIGAND FREE ENERGY PREDICTED BY IDOCK:   -3.80 KCAL/MOL
REMARK 924 INTRA-LIGAND FREE ENERGY PREDICTED BY IDOCK:    0.63 KCAL/MOL
REMARK 927      BINDING AFFINITY PREDICTED BY RF-SCORE:    0.00 PKD
ROOT
HETATM    1  C   UNL     1      -8.271   6.691  67.267  1.00  0.00    -0.121 C  
HETATM    2  C   UNL     1      -7.320   6.849  66.233  1.00  0.00    -0.076 C  
HETATM    3  C   UNL     1      -6.913   7.474  67.528  1.00  0.00    -0.080 C  
HETATM    4  C   UNL     1      -8.021   7.030  69.215  1.00  0.00    -0.119 C  
HETATM    5  O   UNL     1     -10.444  14.496  67.028  1.00  0.00    -0.265 OA 
HETATM    6  O   UNL     1      -9.173   6.108  69.140  1.00  0.00    -0.127 OA 
HETATM    7  C   UNL     1      -6.942   6.417  68.647  1.00  0.00    -0.080 C  
HETATM    8  C   UNL     1      -6.376   5.015  68.709  1.00  0.00    -0.035 C  
HETATM    9  C   UNL     1      -6.161   8.013  69.393  1.00  0.00    -0.034 C  
HETATM   10  C   UNL     1      -9.805  13.455  66.942  1.00  0.00    -0.256 C  
HETATM   11  C   UNL     1     -10.385  12.259  66.310  1.00  0.00    -0.257 C  
HETATM   12  H   UNL     1      -9.682   5.904  69.914  1.00  0.00     0.000 HD 
HETATM   13  C   UNL     1      -7.313   9.321  69.358  1.00  0.00    -0.077 C  
HETATM   14  C   UNL     1      -8.388  13.299  67.386  1.00  0.00    -0.193 C  
HETATM   15  O   UNL     1      -7.379  10.057  70.346  1.00  0.00    -0.190 OA 
HETATM   16  C   UNL     1     -10.230  10.819  69.278  1.00  0.00    -0.217 C  
HETATM   17  C   UNL     1      -8.333   9.573  68.029  1.00  0.00    -0.118 C  
HETATM   18  C   UNL     1      -9.169   8.263  67.451  1.00  0.00    -0.163 C  
HETATM   19  C   UNL     1      -9.222  10.885  68.114  1.00  0.00    -0.158 C  
HETATM   20  C   UNL     1      -8.261  12.122  68.348  1.00  0.00    -0.145 C  
HETATM   21  C   UNL     1      -9.825   8.634  66.112  1.00  0.00    -0.269 C  
HETATM   22  C   UNL     1     -10.751   9.836  66.240  1.00  0.00     0.044 C  
HETATM   23  C   UNL     1     -10.084  11.055  66.835  1.00  0.00    -0.248 C  
ENDROOT
BRANCH   4  24
HETATM   24  C   UNL     1      -7.650   6.428  70.803  1.00  0.00    -0.096 C  
HETATM   25  O   UNL     1      -6.693   6.772  71.503  1.00  0.00    -0.058 OA 
BRANCH  24  26
HETATM   26  C   UNL     1      -8.571   5.350  71.436  1.00  0.00    -0.130 C  
BRANCH  26  27
HETATM   27  O   UNL     1      -7.779   4.255  71.968  1.00  0.00    -0.075 OA 
BRANCH  27  28
HETATM   28  C   UNL     1      -8.491   3.322  72.667  1.00  0.00    -0.084 C  
HETATM   29  C   UNL     1      -7.630   2.593  73.664  1.00  0.00    -0.050 C  
HETATM   30  O   UNL     1      -9.679   3.086  72.507  1.00  0.00    -0.123 OA 
ENDBRANCH  27  28
ENDBRANCH  26  27
ENDBRANCH  24  26
ENDBRANCH   4  24
TORSDOF 4
ENDMDL
MODEL      137
REMARK 921   NORMALIZED FREE ENERGY PREDICTED BY IDOCK:   -2.62 KCAL/MOL
REMARK 922        TOTAL FREE ENERGY PREDICTED BY IDOCK:   -3.01 KCAL/MOL
REMARK 923 INTER-LIGAND FREE ENERGY PREDICTED BY IDOCK:   -4.22 KCAL/MOL
REMARK 924 INTRA-LIGAND FREE ENERGY PREDICTED BY IDOCK:    1.21 KCAL/MOL
REMARK 927      BINDING AFFINITY PREDICTED BY RF-SCORE:    0.00 PKD
ROOT
HETATM    1  C   UNL     1      -7.352  11.578  68.210  1.00  0.00    -0.091 C  
HETATM    2  C   UNL     1      -8.028  11.818  69.427  1.00  0.00     0.491 C  
HETATM    3  C   UNL     1      -8.702  10.813  68.551  1.00  0.00    -0.149 C  
HETATM    4  C   UNL     1      -7.666  10.097  66.913  1.00  0.00    -0.103 C  
HETATM    5  O   UNL     1     -12.963  15.475  63.847  1.00  0.00    -0.478 OA 
HETATM    6  O   UNL     1      -6.291  10.559  66.629  1.00  0.00    -0.071 OA 
HETATM    7  C   UNL     1      -7.718   9.678  68.211  1.00  0.00    -0.082 C  
HETATM    8  C   UNL     1      -6.800   8.858  69.089  1.00  0.00    -0.055 C  
HETATM    9  C   UNL     1      -9.447   9.152  67.539  1.00  0.00    -0.169 C  
HETATM   10  C   UNL     1     -12.399  14.832  64.724  1.00  0.00    -0.293 C  
HETATM   11  C   UNL     1     -11.111  15.276  65.280  1.00  0.00    -0.382 C  
HETATM   12  H   UNL     1      -5.815  10.230  65.877  1.00  0.00     0.000 HD 
HETATM   13  C   UNL     1      -9.986  10.274  66.319  1.00  0.00    -0.235 C  
HETATM   14  C   UNL     1     -12.963  13.605  65.362  1.00  0.00    -0.331 C  
HETATM   15  O   UNL     1     -10.531   9.814  65.313  1.00  0.00     0.033 OA 
HETATM   16  C   UNL     1      -9.792  12.550  63.963  1.00  0.00    -0.109 C  
HETATM   17  C   UNL     1      -9.755  11.946  66.482  1.00  0.00    -0.226 C  
HETATM   18  C   UNL     1      -8.236  12.469  66.891  1.00  0.00    -0.070 C  
HETATM   19  C   UNL     1     -10.426  12.823  65.342  1.00  0.00    -0.305 C  
HETATM   20  C   UNL     1     -11.964  12.456  65.272  1.00  0.00    -0.461 C  
HETATM   21  C   UNL     1      -8.293  13.965  67.236  1.00  0.00    -0.199 C  
HETATM   22  C   UNL     1      -8.847  14.797  66.089  1.00  0.00     0.077 C  
HETATM   23  C   UNL     1     -10.202  14.337  65.602  1.00  0.00    -0.366 C  
ENDROOT
BRANCH   4  24
HETATM   24  C   UNL     1      -7.251   8.517  66.318  1.00  0.00    -0.078 C  
HETATM   25  O   UNL     1      -6.214   8.217  65.719  1.00  0.00    -0.050 OA 
BRANCH  24  26
HETATM   26  C   UNL     1      -8.250   7.346  66.524  1.00  0.00    -0.120 C  
BRANCH  26  27
HETATM   27  O   UNL     1      -7.562   6.179  67.047  1.00  0.00    -0.092 OA 
BRANCH  27  28
HETATM   28  C   UNL     1      -8.170   5.591  68.121  1.00  0.00    -0.096 C  
HETATM   29  C   UNL     1      -9.658   5.477  67.926  1.00  0.00    -0.143 C  
HETATM   30  O   UNL     1      -7.593   5.211  69.128  1.00  0.00    -0.067 OA 
ENDBRANCH  27  28
ENDBRANCH  26  27
ENDBRANCH  24  26
ENDBRANCH   4  24
TORSDOF 4
ENDMDL
MODEL      138
REMARK 921   NORMALIZED FREE ENERGY PREDICTED BY IDOCK:   -2.55 KCAL/MOL
REMARK 922        TOTAL FREE ENERGY PREDICTED BY IDOCK:   -2.93 KCAL/MOL
REMARK 923 INTER-LIGAND FREE ENERGY PREDICTED BY IDOCK:   -4.12 KCAL/MOL
REMARK 924 INTRA-LIGAND FREE ENERGY PREDICTED BY IDOCK:    1.19 KCAL/MOL
REMARK 927      BINDING AFFINITY PREDICTED BY RF-SCORE:    0.00 PKD
ROOT
HETATM    1  C   UNL     1      -9.769  15.994  68.812  1.00  0.00    -0.226 C  
HETATM    2  C   UNL     1      -8.579  15.777  69.542  1.00  0.00    -0.144 C  
HETATM    3  C   UNL     1      -8.816  14.771  68.463  1.00  0.00    -0.176 C  
HETATM    4  C   UNL     1     -10.313  15.150  67.091  1.00  0.00    -0.263 C  
HETATM    5  O   UNL     1     -13.478   9.611  72.159  1.00  0.00    -0.424 OA 
HETATM    6  O   UNL     1     -11.114  16.390  67.170  1.00  0.00    -0.149 OA 
HETATM    7  C   UNL     1      -8.992  15.491  67.113  1.00  0.00    -0.232 C  
HETATM    8  C   UNL     1      -8.173  16.574  66.446  1.00  0.00    -0.364 C  
HETATM    9  C   UNL     1      -8.922  13.600  66.745  1.00  0.00    -0.196 C  
HETATM   10  C   UNL     1     -12.626  10.375  71.725  1.00  0.00    -0.367 C  
HETATM   11  C   UNL     1     -12.647  11.807  72.065  1.00  0.00     0.105 C  
HETATM   12  H   UNL     1     -11.802  16.564  66.539  1.00  0.00     0.000 HD 
HETATM   13  C   UNL     1     -10.259  12.787  67.514  1.00  0.00    -0.216 C  
HETATM   14  C   UNL     1     -11.464   9.952  70.888  1.00  0.00    -0.456 C  
HETATM   15  O   UNL     1     -10.841  11.906  66.878  1.00  0.00    -0.239 OA 
HETATM   16  C   UNL     1     -13.222  12.388  68.865  1.00  0.00     3.288 C  
HETATM   17  C   UNL     1     -10.770  13.198  69.077  1.00  0.00    -0.144 C  
HETATM   18  C   UNL     1     -11.015  14.805  69.401  1.00  0.00    -0.282 C  
HETATM   19  C   UNL     1     -11.912  12.267  69.669  1.00  0.00    -0.347 C  
HETATM   20  C   UNL     1     -11.415  10.766  69.599  1.00  0.00    -0.376 C  
HETATM   21  C   UNL     1     -11.222  14.990  70.912  1.00  0.00    -0.268 C  
HETATM   22  C   UNL     1     -12.386  14.163  71.437  1.00  0.00    -0.425 C  
HETATM   23  C   UNL     1     -12.279  12.690  71.116  1.00  0.00    -0.094 C  
ENDROOT
BRANCH   4  24
HETATM   24  C   UNL     1     -10.400  15.213  65.355  1.00  0.00    -0.388 C  
HETATM   25  O   UNL     1     -10.172  16.203  64.653  1.00  0.00    -0.294 OA 
BRANCH  24  26
HETATM   26  C   UNL     1     -10.808  13.935  64.573  1.00  0.00    -0.368 C  
BRANCH  26  27
HETATM   27  O   UNL     1     -12.250  13.764  64.597  1.00  0.00    -0.393 OA 
BRANCH  27  28
HETATM   28  C   UNL     1     -12.695  12.590  64.058  1.00  0.00    -0.318 C  
HETATM   29  C   UNL     1     -11.644  11.934  63.205  1.00  0.00    -0.380 C  
HETATM   30  O   UNL     1     -13.811  12.123  64.227  1.00  0.00     0.018 OA 
ENDBRANCH  27  28
ENDBRANCH  26  27
ENDBRANCH  24  26
ENDBRANCH   4  24
TORSDOF 4
ENDMDL
MODEL      139
REMARK 921   NORMALIZED FREE ENERGY PREDICTED BY IDOCK:   -2.49 KCAL/MOL
REMARK 922        TOTAL FREE ENERGY PREDICTED BY IDOCK:   -2.85 KCAL/MOL
REMARK 923 INTER-LIGAND FREE ENERGY PREDICTED BY IDOCK:   -3.29 KCAL/MOL
REMARK 924 INTRA-LIGAND FREE ENERGY PREDICTED BY IDOCK:    0.44 KCAL/MOL
REMARK 927      BINDING AFFINITY PREDICTED BY RF-SCORE:    0.00 PKD
ROOT
HETATM    1  C   UNL     1      -7.659   9.506  64.176  1.00  0.00    -0.123 C  
HETATM    2  C   UNL     1      -8.589   8.924  63.285  1.00  0.00    -0.110 C  
HETATM    3  C   UNL     1      -9.133   9.157  64.657  1.00  0.00    -0.110 C  
HETATM    4  C   UNL     1      -8.023  10.313  65.961  1.00  0.00    -0.138 C  
HETATM    5  O   UNL     1      -6.764   2.637  68.385  1.00  0.00    -0.038 OA 
HETATM    6  O   UNL     1      -6.736  10.903  65.539  1.00  0.00    -0.342 OA 
HETATM    7  C   UNL     1      -8.970  10.642  65.035  1.00  0.00    -0.218 C  
HETATM    8  C   UNL     1      -9.305  11.906  64.275  1.00  0.00     0.184 C  
HETATM    9  C   UNL     1     -10.022   9.813  66.422  1.00  0.00    -0.314 C  
HETATM   10  C   UNL     1      -7.224   3.530  67.685  1.00  0.00    -0.058 C  
HETATM   11  C   UNL     1      -6.439   4.112  66.584  1.00  0.00    -0.041 C  
HETATM   12  H   UNL     1      -6.226  11.434  66.138  1.00  0.00     0.000 HD 
HETATM   13  C   UNL     1      -9.095   8.573  67.221  1.00  0.00    -0.133 C  
HETATM   14  C   UNL     1      -8.611   4.068  67.811  1.00  0.00    -0.108 C  
HETATM   15  O   UNL     1      -9.181   8.491  68.449  1.00  0.00    -0.136 OA 
HETATM   16  C   UNL     1      -6.456   6.941  68.287  1.00  0.00    -0.050 C  
HETATM   17  C   UNL     1      -8.086   7.520  66.358  1.00  0.00    -0.114 C  
HETATM   18  C   UNL     1      -7.032   8.194  65.271  1.00  0.00    -0.063 C  
HETATM   19  C   UNL     1      -7.424   6.371  67.230  1.00  0.00    -0.088 C  
HETATM   20  C   UNL     1      -8.578   5.585  67.976  1.00  0.00    -0.100 C  
HETATM   21  C   UNL     1      -6.401   7.080  64.421  1.00  0.00    -0.036 C  
HETATM   22  C   UNL     1      -5.686   6.043  65.276  1.00  0.00    -0.024 C  
HETATM   23  C   UNL     1      -6.559   5.432  66.348  1.00  0.00    -0.056 C  
ENDROOT
BRANCH   4  24
HETATM   24  C   UNL     1      -8.344  11.722  66.930  1.00  0.00    -0.170 C  
HETATM   25  O   UNL     1      -9.459  12.177  67.200  1.00  0.00    -0.183 OA 
BRANCH  24  26
HETATM   26  C   UNL     1      -7.150  12.520  67.520  1.00  0.00    -0.151 C  
BRANCH  26  27
HETATM   27  O   UNL     1      -6.288  11.644  68.295  1.00  0.00    -0.049 OA 
BRANCH  27  28
HETATM   28  C   UNL     1      -6.422  11.765  69.649  1.00  0.00    -0.113 C  
HETATM   29  C   UNL     1      -5.898  13.085  70.147  1.00  0.00    -0.153 C  
HETATM   30  O   UNL     1      -6.895  10.911  70.383  1.00  0.00    -0.257 OA 
ENDBRANCH  27  28
ENDBRANCH  26  27
ENDBRANCH  24  26
ENDBRANCH   4  24
TORSDOF 4
ENDMDL
MODEL      140
REMARK 921   NORMALIZED FREE ENERGY PREDICTED BY IDOCK:   -2.39 KCAL/MOL
REMARK 922        TOTAL FREE ENERGY PREDICTED BY IDOCK:   -2.73 KCAL/MOL
REMARK 923 INTER-LIGAND FREE ENERGY PREDICTED BY IDOCK:   -3.94 KCAL/MOL
REMARK 924 INTRA-LIGAND FREE ENERGY PREDICTED BY IDOCK:    1.21 KCAL/MOL
REMARK 927      BINDING AFFINITY PREDICTED BY RF-SCORE:    0.00 PKD
ROOT
HETATM    1  C   UNL     1      -9.105  11.202  65.656  1.00  0.00    -0.221 C  
HETATM    2  C   UNL     1     -10.518  11.185  65.671  1.00  0.00    -0.308 C  
HETATM    3  C   UNL     1      -9.904  11.478  67.002  1.00  0.00    -0.212 C  
HETATM    4  C   UNL     1      -7.879  11.885  67.072  1.00  0.00    -0.152 C  
HETATM    5  O   UNL     1      -8.562   4.209  69.719  1.00  0.00    -0.063 OA 
HETATM    6  O   UNL     1      -7.069  11.899  65.837  1.00  0.00     0.061 OA 
HETATM    7  C   UNL     1      -8.963  12.692  66.883  1.00  0.00    -0.213 C  
HETATM    8  C   UNL     1      -9.165  14.052  66.252  1.00  0.00    -0.130 C  
HETATM    9  C   UNL     1      -9.097  12.256  68.756  1.00  0.00     0.129 C  
HETATM   10  C   UNL     1      -8.956   5.285  69.286  1.00  0.00    -0.103 C  
HETATM   11  C   UNL     1      -8.913   5.585  67.846  1.00  0.00    -0.108 C  
HETATM   12  H   UNL     1      -6.139  12.085  65.869  1.00  0.00     0.000 HD 
HETATM   13  C   UNL     1      -8.471  10.656  69.049  1.00  0.00    -0.145 C  
HETATM   14  C   UNL     1      -9.571   6.355  70.126  1.00  0.00    -0.173 C  
HETATM   15  O   UNL     1      -7.774  10.484  70.052  1.00  0.00    -0.098 OA 
HETATM   16  C   UNL     1      -6.706   7.932  68.569  1.00  0.00    -0.062 C  
HETATM   17  C   UNL     1      -8.781   9.371  67.987  1.00  0.00    -0.124 C  
HETATM   18  C   UNL     1      -8.515   9.636  66.373  1.00  0.00    -0.128 C  
HETATM   19  C   UNL     1      -8.245   7.960  68.479  1.00  0.00    -0.127 C  
HETATM   20  C   UNL     1      -8.839   7.677  69.919  1.00  0.00    -0.143 C  
HETATM   21  C   UNL     1      -9.088   8.460  65.567  1.00  0.00    -0.108 C  
HETATM   22  C   UNL     1      -8.486   7.128  65.990  1.00  0.00    -0.148 C  
HETATM   23  C   UNL     1      -8.616   6.843  67.468  1.00  0.00    -0.121 C  
ENDROOT
BRANCH   4  24
HETATM   24  C   UNL     1      -6.908  13.176  67.716  1.00  0.00    -0.149 C  
HETATM   25  O   UNL     1      -5.935  13.697  67.162  1.00  0.00    -0.247 OA 
BRANCH  24  26
HETATM   26  C   UNL     1      -7.250  13.751  69.117  1.00  0.00    -0.016 C  
BRANCH  26  27
HETATM   27  O   UNL     1      -6.755  15.111  69.241  1.00  0.00    -0.123 OA 
BRANCH  27  28
HETATM   28  C   UNL     1      -7.706  16.081  69.093  1.00  0.00    -0.231 C  
HETATM   29  C   UNL     1      -7.122  17.357  68.551  1.00  0.00    -0.219 C  
HETATM   30  O   UNL     1      -8.887  15.949  69.374  1.00  0.00    -0.251 OA 
ENDBRANCH  27  28
ENDBRANCH  26  27
ENDBRANCH  24  26
ENDBRANCH   4  24
TORSDOF 4
ENDMDL
MODEL      141
REMARK 921   NORMALIZED FREE ENERGY PREDICTED BY IDOCK:   -2.18 KCAL/MOL
REMARK 922        TOTAL FREE ENERGY PREDICTED BY IDOCK:   -2.47 KCAL/MOL
REMARK 923 INTER-LIGAND FREE ENERGY PREDICTED BY IDOCK:   -3.03 KCAL/MOL
REMARK 924 INTRA-LIGAND FREE ENERGY PREDICTED BY IDOCK:    0.56 KCAL/MOL
REMARK 927      BINDING AFFINITY PREDICTED BY RF-SCORE:    0.00 PKD
ROOT
HETATM    1  C   UNL     1     -10.283   6.194  68.135  1.00  0.00    -0.208 C  
HETATM    2  C   UNL     1     -10.708   6.118  66.789  1.00  0.00    -0.371 C  
HETATM    3  C   UNL     1      -9.250   5.850  66.977  1.00  0.00    -0.120 C  
HETATM    4  C   UNL     1      -8.550   5.576  68.902  1.00  0.00    -0.100 C  
HETATM    5  O   UNL     1      -6.314  13.157  66.923  1.00  0.00    -0.017 OA 
HETATM    6  O   UNL     1      -9.472   5.631  70.055  1.00  0.00    -0.150 OA 
HETATM    7  C   UNL     1      -9.060   4.702  67.986  1.00  0.00    -0.144 C  
HETATM    8  C   UNL     1      -9.710   3.340  68.081  1.00  0.00    -0.023 C  
HETATM    9  C   UNL     1      -7.325   5.105  67.248  1.00  0.00    -0.082 C  
HETATM   10  C   UNL     1      -6.838  12.063  66.755  1.00  0.00     0.050 C  
HETATM   11  C   UNL     1      -8.191  11.785  67.264  1.00  0.00    -0.163 C  
HETATM   12  H   UNL     1      -9.151   5.505  70.939  1.00  0.00     0.000 HD 
HETATM   13  C   UNL     1      -6.866   6.739  67.645  1.00  0.00    -0.080 C  
HETATM   14  C   UNL     1      -6.222  10.945  65.982  1.00  0.00    -0.115 C  
HETATM   15  O   UNL     1      -5.698   6.944  67.982  1.00  0.00    -0.018 OA 
HETATM   16  C   UNL     1      -6.797   9.579  69.287  1.00  0.00    -0.049 C  
HETATM   17  C   UNL     1      -7.983   8.013  67.596  1.00  0.00    -0.123 C  
HETATM   18  C   UNL     1      -9.432   7.787  68.367  1.00  0.00    -0.148 C  
HETATM   19  C   UNL     1      -7.361   9.450  67.857  1.00  0.00    -0.083 C  
HETATM   20  C   UNL     1      -6.180   9.676  66.828  1.00  0.00    -0.065 C  
HETATM   21  C   UNL     1     -10.386   8.933  67.996  1.00  0.00    -0.271 C  
HETATM   22  C   UNL     1      -9.808  10.296  68.348  1.00  0.00    -0.168 C  
HETATM   23  C   UNL     1      -8.447  10.554  67.746  1.00  0.00    -0.114 C  
ENDROOT
BRANCH   4  24
HETATM   24  C   UNL     1      -7.625   4.344  69.708  1.00  0.00    -0.054 C  
HETATM   25  O   UNL     1      -6.991   3.438  69.159  1.00  0.00    -0.044 OA 
BRANCH  24  26
HETATM   26  C   UNL     1      -7.572   4.333  71.260  1.00  0.00    -0.060 C  
BRANCH  26  27
HETATM   27  O   UNL     1      -7.957   3.029  71.772  1.00  0.00    -0.056 OA 
BRANCH  27  28
HETATM   28  C   UNL     1      -9.057   3.037  72.583  1.00  0.00    -0.087 C  
HETATM   29  C   UNL     1     -10.285   2.550  71.862  1.00  0.00    -0.072 C  
HETATM   30  O   UNL     1      -9.062   3.402  73.748  1.00  0.00    -0.089 OA 
ENDBRANCH  27  28
ENDBRANCH  26  27
ENDBRANCH  24  26
ENDBRANCH   4  24
TORSDOF 4
ENDMDL
MODEL      142
REMARK 921   NORMALIZED FREE ENERGY PREDICTED BY IDOCK:   -1.33 KCAL/MOL
REMARK 922        TOTAL FREE ENERGY PREDICTED BY IDOCK:   -1.43 KCAL/MOL
REMARK 923 INTER-LIGAND FREE ENERGY PREDICTED BY IDOCK:   -3.02 KCAL/MOL
REMARK 924 INTRA-LIGAND FREE ENERGY PREDICTED BY IDOCK:    1.59 KCAL/MOL
REMARK 927      BINDING AFFINITY PREDICTED BY RF-SCORE:    0.00 PKD
ROOT
HETATM    1  C   UNL     1     -10.140   6.261  68.067  1.00  0.00    -0.174 C  
HETATM    2  C   UNL     1     -10.895   6.573  66.914  1.00  0.00    -0.427 C  
HETATM    3  C   UNL     1      -9.434   6.399  66.650  1.00  0.00    -0.191 C  
HETATM    4  C   UNL     1      -8.261   5.601  68.152  1.00  0.00    -0.096 C  
HETATM    5  O   UNL     1      -6.696  13.594  68.305  1.00  0.00    -0.085 OA 
HETATM    6  O   UNL     1      -8.858   5.201  69.443  1.00  0.00    -0.097 OA 
HETATM    7  C   UNL     1      -8.978   5.015  67.149  1.00  0.00    -0.112 C  
HETATM    8  C   UNL     1      -9.567   3.637  66.942  1.00  0.00    -0.180 C  
HETATM    9  C   UNL     1      -7.495   5.793  66.194  1.00  0.00    -0.082 C  
HETATM   10  C   UNL     1      -7.233  12.565  67.917  1.00  0.00    -0.115 C  
HETATM   11  C   UNL     1      -8.407  12.013  68.612  1.00  0.00    -0.036 C  
HETATM   12  H   UNL     1      -8.319   4.834  70.133  1.00  0.00     0.000 HD 
HETATM   13  C   UNL     1      -6.969   7.254  66.984  1.00  0.00    -0.081 C  
HETATM   14  C   UNL     1      -6.822  11.811  66.695  1.00  0.00     0.020 C  
HETATM   15  O   UNL     1      -5.756   7.452  67.082  1.00  0.00    -0.028 OA 
HETATM   16  C   UNL     1      -6.515   9.425  69.403  1.00  0.00    -0.044 C  
HETATM   17  C   UNL     1      -8.076   8.367  67.625  1.00  0.00    -0.118 C  
HETATM   18  C   UNL     1      -9.276   7.772  68.600  1.00  0.00    -0.138 C  
HETATM   19  C   UNL     1      -7.425   9.701  68.189  1.00  0.00    -0.082 C  
HETATM   20  C   UNL     1      -6.550  10.351  67.041  1.00  0.00    -0.075 C  
HETATM   21  C   UNL     1     -10.307   8.881  68.866  1.00  0.00    -0.229 C  
HETATM   22  C   UNL     1      -9.675  10.112  69.499  1.00  0.00    -0.251 C  
HETATM   23  C   UNL     1      -8.516  10.675  68.708  1.00  0.00    -0.149 C  
ENDROOT
BRANCH   4  24
HETATM   24  C   UNL     1      -7.146   4.270  68.262  1.00  0.00    -0.059 C  
HETATM   25  O   UNL     1      -6.168   4.206  69.012  1.00  0.00    -0.029 OA 
BRANCH  24  26
HETATM   26  C   UNL     1      -7.353   3.034  67.346  1.00  0.00    -0.058 C  
BRANCH  26  27
HETATM   27  O   UNL     1      -6.108   2.679  66.685  1.00  0.00    -0.023 OA 
BRANCH  27  28
HETATM   28  C   UNL     1      -6.186   2.604  65.324  1.00  0.00    -0.023 C  
HETATM   29  C   UNL     1      -7.137   1.526  64.877  1.00  0.00    -0.047 C  
HETATM   30  O   UNL     1      -5.558   3.308  64.548  1.00  0.00    -0.009 OA 
ENDBRANCH  27  28
ENDBRANCH  26  27
ENDBRANCH  24  26
ENDBRANCH   4  24
TORSDOF 4
ENDMDL
MODEL      143
REMARK 921   NORMALIZED FREE ENERGY PREDICTED BY IDOCK:   -0.84 KCAL/MOL
REMARK 922        TOTAL FREE ENERGY PREDICTED BY IDOCK:   -0.81 KCAL/MOL
REMARK 923 INTER-LIGAND FREE ENERGY PREDICTED BY IDOCK:   -1.96 KCAL/MOL
REMARK 924 INTRA-LIGAND FREE ENERGY PREDICTED BY IDOCK:    1.15 KCAL/MOL
REMARK 927      BINDING AFFINITY PREDICTED BY RF-SCORE:    0.00 PKD
ROOT
HETATM    1  C   UNL     1      -8.584  16.479  67.702  1.00  0.00    -0.189 C  
HETATM    2  C   UNL     1      -9.625  16.771  68.612  1.00  0.00    -0.255 C  
HETATM    3  C   UNL     1      -9.134  15.361  68.688  1.00  0.00    -0.195 C  
HETATM    4  C   UNL     1      -7.395  14.881  67.681  1.00  0.00    -0.187 C  
HETATM    5  O   UNL     1     -13.389  11.936  63.016  1.00  0.00    -0.400 OA 
HETATM    6  O   UNL     1      -6.653  15.909  66.922  1.00  0.00    -0.282 OA 
HETATM    7  C   UNL     1      -7.615  15.354  68.942  1.00  0.00    -0.164 C  
HETATM    8  C   UNL     1      -6.769  16.104  69.948  1.00  0.00    -0.004 C  
HETATM    9  C   UNL     1      -8.223  13.530  69.077  1.00  0.00     0.282 C  
HETATM   10  C   UNL     1     -12.899  12.515  63.976  1.00  0.00    -0.222 C  
HETATM   11  C   UNL     1     -12.498  13.928  63.886  1.00  0.00    -0.221 C  
HETATM   12  H   UNL     1      -5.854  15.688  66.460  1.00  0.00     0.000 HD 
HETATM   13  C   UNL     1      -8.885  13.001  67.553  1.00  0.00    -0.195 C  
HETATM   14  C   UNL     1     -12.719  11.902  65.326  1.00  0.00     1.136 C  
HETATM   15  O   UNL     1      -8.610  11.862  67.170  1.00  0.00    -0.158 OA 
HETATM   16  C   UNL     1      -9.388  12.902  64.312  1.00  0.00     0.987 C  
HETATM   17  C   UNL     1      -9.856  14.016  66.605  1.00  0.00    -0.288 C  
HETATM   18  C   UNL     1      -9.298  15.548  66.310  1.00  0.00    -0.355 C  
HETATM   19  C   UNL     1     -10.479  13.326  65.318  1.00  0.00    -0.324 C  
HETATM   20  C   UNL     1     -11.268  12.034  65.779  1.00  0.00    -0.383 C  
HETATM   21  C   UNL     1     -10.417  16.379  65.663  1.00  0.00    -0.364 C  
HETATM   22  C   UNL     1     -10.929  15.746  64.376  1.00  0.00    -0.043 C  
HETATM   23  C   UNL     1     -11.388  14.316  64.542  1.00  0.00    -0.341 C  
ENDROOT
BRANCH   4  24
HETATM   24  C   UNL     1      -5.889  14.129  68.122  1.00  0.00    -0.129 C  
HETATM   25  O   UNL     1      -5.329  14.218  69.219  1.00  0.00    -0.082 OA 
BRANCH  24  26
HETATM   26  C   UNL     1      -5.138  13.270  67.070  1.00  0.00     0.714 C  
BRANCH  26  27
HETATM   27  O   UNL     1      -5.843  12.020  66.840  1.00  0.00    -0.173 OA 
BRANCH  27  28
HETATM   28  C   UNL     1      -5.412  10.972  67.604  1.00  0.00    -0.040 C  
HETATM   29  C   UNL     1      -5.336   9.697  66.809  1.00  0.00    -0.045 C  
HETATM   30  O   UNL     1      -5.130  11.042  68.790  1.00  0.00    -0.041 OA 
ENDBRANCH  27  28
ENDBRANCH  26  27
ENDBRANCH  24  26
ENDBRANCH   4  24
TORSDOF 4
ENDMDL
MODEL      144
REMARK 921   NORMALIZED FREE ENERGY PREDICTED BY IDOCK:    0.62 KCAL/MOL
REMARK 922        TOTAL FREE ENERGY PREDICTED BY IDOCK:    0.98 KCAL/MOL
REMARK 923 INTER-LIGAND FREE ENERGY PREDICTED BY IDOCK:   -2.08 KCAL/MOL
REMARK 924 INTRA-LIGAND FREE ENERGY PREDICTED BY IDOCK:    3.06 KCAL/MOL
REMARK 927      BINDING AFFINITY PREDICTED BY RF-SCORE:    0.00 PKD
ROOT
HETATM    1  C   UNL     1      -8.628  12.939  65.425  1.00  0.00     1.793 C  
HETATM    2  C   UNL     1      -9.832  12.771  64.704  1.00  0.00    -0.052 C  
HETATM    3  C   UNL     1      -9.997  12.669  66.186  1.00  0.00    -0.269 C  
HETATM    4  C   UNL     1      -8.412  13.237  67.384  1.00  0.00    -0.206 C  
HETATM    5  O   UNL     1      -8.237   5.092  67.415  1.00  0.00    -0.106 OA 
HETATM    6  O   UNL     1      -7.159  13.745  66.787  1.00  0.00    -0.217 OA 
HETATM    7  C   UNL     1      -9.454  13.944  66.858  1.00  0.00    -0.263 C  
HETATM    8  C   UNL     1      -9.685  15.407  66.552  1.00  0.00    -0.292 C  
HETATM    9  C   UNL     1     -10.317  12.901  68.230  1.00  0.00    -0.248 C  
HETATM   10  C   UNL     1      -8.649   6.203  67.107  1.00  0.00    -0.103 C  
HETATM   11  C   UNL     1      -8.028   6.966  66.013  1.00  0.00    -0.109 C  
HETATM   12  H   UNL     1      -6.431  14.006  67.338  1.00  0.00     0.000 HD 
HETATM   13  C   UNL     1      -9.508  11.368  68.419  1.00  0.00    -0.194 C  
HETATM   14  C   UNL     1      -9.834   6.864  67.732  1.00  0.00    -0.161 C  
HETATM   15  O   UNL     1      -9.333  10.947  69.565  1.00  0.00    -0.004 OA 
HETATM   16  C   UNL     1      -7.087   9.157  68.297  1.00  0.00    -0.077 C  
HETATM   17  C   UNL     1      -8.953  10.484  67.084  1.00  0.00    -0.147 C  
HETATM   18  C   UNL     1      -8.054  11.295  65.953  1.00  0.00     0.050 C  
HETATM   19  C   UNL     1      -8.362   9.053  67.436  1.00  0.00    -0.112 C  
HETATM   20  C   UNL     1      -9.456   8.248  68.249  1.00  0.00    -0.146 C  
HETATM   21  C   UNL     1      -7.868  10.399  64.718  1.00  0.00    -0.086 C  
HETATM   22  C   UNL     1      -7.208   9.073  65.066  1.00  0.00    -0.092 C  
HETATM   23  C   UNL     1      -7.925   8.302  66.150  1.00  0.00    -0.100 C  
ENDROOT
BRANCH   4  24
HETATM   24  C   UNL     1      -8.214  14.336  68.718  1.00  0.00    -0.102 C  
HETATM   25  O   UNL     1      -7.168  14.907  69.037  1.00  0.00    -0.118 OA 
BRANCH  24  26
HETATM   26  C   UNL     1      -9.434  14.648  69.626  1.00  0.00     0.294 C  
BRANCH  26  27
HETATM   27  O   UNL     1     -10.212  15.743  69.071  1.00  0.00    -0.202 OA 
BRANCH  27  28
HETATM   28  C   UNL     1     -11.487  15.838  69.552  1.00  0.00    -0.353 C  
HETATM   29  C   UNL     1     -11.507  16.188  71.016  1.00  0.00    -0.424 C  
HETATM   30  O   UNL     1     -12.499  15.654  68.893  1.00  0.00    -0.034 OA 
ENDBRANCH  27  28
ENDBRANCH  26  27
ENDBRANCH  24  26
ENDBRANCH   4  24
TORSDOF 4
ENDMDL
MODEL      145
REMARK 921   NORMALIZED FREE ENERGY PREDICTED BY IDOCK:    1.77 KCAL/MOL
REMARK 922        TOTAL FREE ENERGY PREDICTED BY IDOCK:    2.40 KCAL/MOL
REMARK 923 INTER-LIGAND FREE ENERGY PREDICTED BY IDOCK:    0.44 KCAL/MOL
REMARK 924 INTRA-LIGAND FREE ENERGY PREDICTED BY IDOCK:    1.96 KCAL/MOL
REMARK 927      BINDING AFFINITY PREDICTED BY RF-SCORE:    0.00 PKD
ROOT
HETATM    1  C   UNL     1     -10.988  12.255  68.040  1.00  0.00    -0.265 C  
HETATM    2  C   UNL     1     -11.473  13.024  69.122  1.00  0.00    -0.353 C  
HETATM    3  C   UNL     1      -9.999  12.786  69.165  1.00  0.00     0.385 C  
HETATM    4  C   UNL     1      -9.092  11.991  67.487  1.00  0.00    -0.177 C  
HETATM    5  O   UNL     1      -9.668   5.759  72.703  1.00  0.00    -0.154 OA 
HETATM    6  O   UNL     1      -9.882  11.682  66.277  1.00  0.00    -0.207 OA 
HETATM    7  C   UNL     1      -9.356  13.278  67.854  1.00  0.00    -0.214 C  
HETATM    8  C   UNL     1      -9.508  14.579  67.096  1.00  0.00    -0.236 C  
HETATM    9  C   UNL     1      -7.920  12.797  69.047  1.00  0.00     0.308 C  
HETATM   10  C   UNL     1      -9.812   6.910  72.313  1.00  0.00    -0.150 C  
HETATM   11  C   UNL     1     -10.949   7.284  71.457  1.00  0.00    -0.259 C  
HETATM   12  H   UNL     1      -9.465  11.316  65.506  1.00  0.00     0.000 HD 
HETATM   13  C   UNL     1      -7.998  11.099  69.430  1.00  0.00     0.114 C  
HETATM   14  C   UNL     1      -8.925   8.047  72.701  1.00  0.00    -0.280 C  
HETATM   15  O   UNL     1      -6.941  10.466  69.461  1.00  0.00    -0.073 OA 
HETATM   16  C   UNL     1      -8.741   7.921  69.085  1.00  0.00    -0.138 C  
HETATM   17  C   UNL     1      -9.475  10.321  69.730  1.00  0.00    -0.128 C  
HETATM   18  C   UNL     1     -10.698  10.561  68.638  1.00  0.00    -0.247 C  
HETATM   19  C   UNL     1      -9.346   8.808  70.193  1.00  0.00    -0.181 C  
HETATM   20  C   UNL     1      -8.395   8.754  71.457  1.00  0.00    -0.212 C  
HETATM   21  C   UNL     1     -12.006   9.993  69.212  1.00  0.00     0.210 C  
HETATM   22  C   UNL     1     -11.886   8.514  69.555  1.00  0.00     1.007 C  
HETATM   23  C   UNL     1     -10.741   8.197  70.489  1.00  0.00    -0.233 C  
ENDROOT
BRANCH   4  24
HETATM   24  C   UNL     1      -7.748  12.450  66.484  1.00  0.00     0.409 C  
HETATM   25  O   UNL     1      -7.133  13.520  66.541  1.00  0.00     0.889 OA 
BRANCH  24  26
HETATM   26  C   UNL     1      -7.246  11.464  65.395  1.00  0.00     0.850 C  
BRANCH  26  27
HETATM   27  O   UNL     1      -5.846  11.140  65.610  1.00  0.00    -0.091 OA 
BRANCH  27  28
HETATM   28  C   UNL     1      -5.575  10.547  66.811  1.00  0.00    -0.051 C  
HETATM   29  C   UNL     1      -5.785   9.058  66.758  1.00  0.00    -0.047 C  
HETATM   30  O   UNL     1      -5.217  11.139  67.817  1.00  0.00    -0.039 OA 
ENDBRANCH  27  28
ENDBRANCH  26  27
ENDBRANCH  24  26
ENDBRANCH   4  24
TORSDOF 4
ENDMDL
MODEL      146
REMARK 921   NORMALIZED FREE ENERGY PREDICTED BY IDOCK:    1.85 KCAL/MOL
REMARK 922        TOTAL FREE ENERGY PREDICTED BY IDOCK:    2.50 KCAL/MOL
REMARK 923 INTER-LIGAND FREE ENERGY PREDICTED BY IDOCK:    0.36 KCAL/MOL
REMARK 924 INTRA-LIGAND FREE ENERGY PREDICTED BY IDOCK:    2.14 KCAL/MOL
REMARK 927      BINDING AFFINITY PREDICTED BY RF-SCORE:    0.00 PKD
ROOT
HETATM    1  C   UNL     1     -11.852  11.384  69.016  1.00  0.00    -0.415 C  
HETATM    2  C   UNL     1     -12.036  11.232  70.408  1.00  0.00    -0.474 C  
HETATM    3  C   UNL     1     -10.656  11.657  70.025  1.00  0.00     0.789 C  
HETATM    4  C   UNL     1     -10.328  12.260  68.076  1.00  0.00    -0.214 C  
HETATM    5  O   UNL     1      -7.279   4.715  68.469  1.00  0.00    -0.056 OA 
HETATM    6  O   UNL     1     -11.434  12.283  67.097  1.00  0.00    -0.311 OA 
HETATM    7  C   UNL     1     -10.724  12.947  69.187  1.00  0.00    -0.060 C  
HETATM    8  C   UNL     1     -11.470  14.244  69.412  1.00  0.00    -0.337 C  
HETATM    9  C   UNL     1      -8.863  12.606  69.557  1.00  0.00     1.625 C  
HETATM   10  C   UNL     1      -7.837   5.721  68.887  1.00  0.00    -0.097 C  
HETATM   11  C   UNL     1      -9.274   5.942  68.659  1.00  0.00    -0.120 C  
HETATM   12  H   UNL     1     -11.284  12.560  66.202  1.00  0.00     0.000 HD 
HETATM   13  C   UNL     1      -8.374  11.092  68.843  1.00  0.00    -0.099 C  
HETATM   14  C   UNL     1      -7.168   6.772  69.711  1.00  0.00    -0.077 C  
HETATM   15  O   UNL     1      -7.274  11.045  68.290  1.00  0.00    -0.079 OA 
HETATM   16  C   UNL     1      -8.410   8.529  66.796  1.00  0.00    -0.109 C  
HETATM   17  C   UNL     1      -9.378   9.727  68.880  1.00  0.00    -0.158 C  
HETATM   18  C   UNL     1     -10.952   9.925  68.404  1.00  0.00    -0.235 C  
HETATM   19  C   UNL     1      -8.718   8.403  68.302  1.00  0.00    -0.143 C  
HETATM   20  C   UNL     1      -7.361   8.145  69.075  1.00  0.00    -0.083 C  
HETATM   21  C   UNL     1     -11.748   8.656  68.747  1.00  0.00     1.492 C  
HETATM   22  C   UNL     1     -11.153   7.414  68.099  1.00  0.00     0.105 C  
HETATM   23  C   UNL     1      -9.692   7.200  68.421  1.00  0.00    -0.143 C  
ENDROOT
BRANCH   4  24
HETATM   24  C   UNL     1      -9.644  13.673  67.327  1.00  0.00    -0.238 C  
HETATM   25  O   UNL     1      -8.444  13.875  67.123  1.00  0.00    -0.203 OA 
BRANCH  24  26
HETATM   26  C   UNL     1     -10.589  14.815  66.867  1.00  0.00    -0.294 C  
BRANCH  26  27
HETATM   27  O   UNL     1     -11.568  14.313  65.918  1.00  0.00    -0.342 OA 
BRANCH  27  28
HETATM   28  C   UNL     1     -11.184  14.388  64.609  1.00  0.00    -0.360 C  
HETATM   29  C   UNL     1      -9.703  14.624  64.474  1.00  0.00     1.299 C  
HETATM   30  O   UNL     1     -11.937  14.289  63.653  1.00  0.00    -0.305 OA 
ENDBRANCH  27  28
ENDBRANCH  26  27
ENDBRANCH  24  26
ENDBRANCH   4  24
TORSDOF 4
ENDMDL
MODEL      147
REMARK 921   NORMALIZED FREE ENERGY PREDICTED BY IDOCK:    3.47 KCAL/MOL
REMARK 922        TOTAL FREE ENERGY PREDICTED BY IDOCK:    4.50 KCAL/MOL
REMARK 923 INTER-LIGAND FREE ENERGY PREDICTED BY IDOCK:    2.10 KCAL/MOL
REMARK 924 INTRA-LIGAND FREE ENERGY PREDICTED BY IDOCK:    2.40 KCAL/MOL
REMARK 927      BINDING AFFINITY PREDICTED BY RF-SCORE:    0.00 PKD
ROOT
HETATM    1  C   UNL     1      -8.651  13.123  67.648  1.00  0.00    -0.193 C  
HETATM    2  C   UNL     1      -8.548  13.081  66.240  1.00  0.00     0.409 C  
HETATM    3  C   UNL     1      -7.532  13.960  66.893  1.00  0.00     0.552 C  
HETATM    4  C   UNL     1      -7.326  13.851  68.946  1.00  0.00    -0.088 C  
HETATM    5  O   UNL     1     -11.555  20.690  67.633  1.00  0.00     1.823 OA 
HETATM    6  O   UNL     1      -8.153  12.917  69.739  1.00  0.00     0.708 OA 
HETATM    7  C   UNL     1      -6.738  13.149  67.934  1.00  0.00    -0.138 C  
HETATM    8  C   UNL     1      -6.066  11.797  67.843  1.00  0.00    -0.050 C  
HETATM    9  C   UNL     1      -5.888  14.873  67.787  1.00  0.00    -0.112 C  
HETATM   10  C   UNL     1     -10.964  19.662  67.328  1.00  0.00    -0.290 C  
HETATM   11  C   UNL     1     -11.640  18.355  67.378  1.00  0.00     1.299 C  
HETATM   12  H   UNL     1      -8.058  12.867  70.682  1.00  0.00     0.000 HD 
HETATM   13  C   UNL     1      -6.991  16.132  68.275  1.00  0.00    -0.124 C  
HETATM   14  C   UNL     1      -9.561  19.617  66.819  1.00  0.00    -0.474 C  
HETATM   15  O   UNL     1      -6.546  17.051  68.967  1.00  0.00    -0.191 OA 
HETATM   16  C   UNL     1      -9.535  17.545  69.790  1.00  0.00     0.892 C  
HETATM   17  C   UNL     1      -8.629  16.098  67.842  1.00  0.00    -0.169 C  
HETATM   18  C   UNL     1      -9.458  14.688  68.109  1.00  0.00    -0.212 C  
HETATM   19  C   UNL     1      -9.453  17.389  68.258  1.00  0.00    -0.290 C  
HETATM   20  C   UNL     1      -8.723  18.660  67.660  1.00  0.00    -0.288 C  
HETATM   21  C   UNL     1     -10.832  14.773  67.425  1.00  0.00    -0.300 C  
HETATM   22  C   UNL     1     -11.643  15.964  67.915  1.00  0.00    -0.109 C  
HETATM   23  C   UNL     1     -10.925  17.286  67.779  1.00  0.00    -0.163 C  
ENDROOT
BRANCH   4  24
HETATM   24  C   UNL     1      -5.995  13.586  70.034  1.00  0.00    -0.143 C  
HETATM   25  O   UNL     1      -5.213  14.448  70.446  1.00  0.00    -0.095 OA 
BRANCH  24  26
HETATM   26  C   UNL     1      -5.718  12.148  70.552  1.00  0.00    -0.160 C  
BRANCH  26  27
HETATM   27  O   UNL     1      -6.933  11.354  70.517  1.00  0.00     0.194 OA 
BRANCH  27  28
HETATM   28  C   UNL     1      -6.757  10.028  70.797  1.00  0.00    -0.008 C  
HETATM   29  C   UNL     1      -7.772   9.169  70.093  1.00  0.00    -0.105 C  
HETATM   30  O   UNL     1      -5.895   9.580  71.537  1.00  0.00    -0.073 OA 
ENDBRANCH  27  28
ENDBRANCH  26  27
ENDBRANCH  24  26
ENDBRANCH   4  24
TORSDOF 4
ENDMDL
MODEL      148
REMARK 921   NORMALIZED FREE ENERGY PREDICTED BY IDOCK:    3.58 KCAL/MOL
REMARK 922        TOTAL FREE ENERGY PREDICTED BY IDOCK:    4.64 KCAL/MOL
REMARK 923 INTER-LIGAND FREE ENERGY PREDICTED BY IDOCK:    4.12 KCAL/MOL
REMARK 924 INTRA-LIGAND FREE ENERGY PREDICTED BY IDOCK:    0.52 KCAL/MOL
REMARK 927      BINDING AFFINITY PREDICTED BY RF-SCORE:    0.00 PKD
ROOT
HETATM    1  C   UNL     1     -11.322  12.184  65.633  1.00  0.00    -0.395 C  
HETATM    2  C   UNL     1     -12.487  11.415  65.415  1.00  0.00     2.052 C  
HETATM    3  C   UNL     1     -12.748  12.880  65.557  1.00  0.00    -0.212 C  
HETATM    4  C   UNL     1     -11.130  14.165  65.526  1.00  0.00    -0.310 C  
HETATM    5  O   UNL     1     -13.211  13.614  73.384  1.00  0.00    -0.247 OA 
HETATM    6  O   UNL     1      -9.758  13.646  65.353  1.00  0.00    -0.518 OA 
HETATM    7  C   UNL     1     -11.909  13.658  64.526  1.00  0.00    -0.445 C  
HETATM    8  C   UNL     1     -11.712  13.452  63.041  1.00  0.00     0.457 C  
HETATM    9  C   UNL     1     -13.094  14.924  65.369  1.00  0.00     0.589 C  
HETATM   10  C   UNL     1     -13.285  13.374  72.186  1.00  0.00    -0.462 C  
HETATM   11  C   UNL     1     -12.423  12.357  71.561  1.00  0.00    -0.123 C  
HETATM   12  H   UNL     1      -9.014  14.236  65.339  1.00  0.00     0.000 HD 
HETATM   13  C   UNL     1     -12.750  15.028  67.075  1.00  0.00     1.358 C  
HETATM   14  C   UNL     1     -14.271  14.007  71.260  1.00  0.00     0.030 C  
HETATM   15  O   UNL     1     -12.755  16.145  67.597  1.00  0.00     1.783 OA 
HETATM   16  C   UNL     1     -11.030  14.822  69.862  1.00  0.00    -0.229 C  
HETATM   17  C   UNL     1     -12.394  13.650  67.997  1.00  0.00     0.021 C  
HETATM   18  C   UNL     1     -11.251  12.610  67.401  1.00  0.00    -0.337 C  
HETATM   19  C   UNL     1     -12.239  13.916  69.554  1.00  0.00    -0.356 C  
HETATM   20  C   UNL     1     -13.552  14.634  70.070  1.00  0.00     1.051 C  
HETATM   21  C   UNL     1     -11.258  11.319  68.236  1.00  0.00    -0.331 C  
HETATM   22  C   UNL     1     -11.007  11.591  69.713  1.00  0.00    -0.055 C  
HETATM   23  C   UNL     1     -11.963  12.593  70.318  1.00  0.00    -0.363 C  
ENDROOT
BRANCH   4  24
HETATM   24  C   UNL     1     -10.704  15.580  64.609  1.00  0.00    -0.165 C  
HETATM   25  O   UNL     1     -11.479  16.270  63.941  1.00  0.00    -0.940 OA 
BRANCH  24  26
HETATM   26  C   UNL     1      -9.224  16.049  64.590  1.00  0.00     3.506 C  
BRANCH  26  27
HETATM   27  O   UNL     1      -8.643  15.950  65.918  1.00  0.00    -0.237 OA 
BRANCH  27  28
HETATM   28  C   UNL     1      -8.289  17.146  66.477  1.00  0.00    -0.274 C  
HETATM   29  C   UNL     1      -8.345  17.097  67.980  1.00  0.00    -0.218 C  
HETATM   30  O   UNL     1      -7.975  18.145  65.848  1.00  0.00    -0.513 OA 
ENDBRANCH  27  28
ENDBRANCH  26  27
ENDBRANCH  24  26
ENDBRANCH   4  24
TORSDOF 4
ENDMDL
MODEL      149
REMARK 921   NORMALIZED FREE ENERGY PREDICTED BY IDOCK:    4.22 KCAL/MOL
REMARK 922        TOTAL FREE ENERGY PREDICTED BY IDOCK:    5.43 KCAL/MOL
REMARK 923 INTER-LIGAND FREE ENERGY PREDICTED BY IDOCK:    3.73 KCAL/MOL
REMARK 924 INTRA-LIGAND FREE ENERGY PREDICTED BY IDOCK:    1.70 KCAL/MOL
REMARK 927      BINDING AFFINITY PREDICTED BY RF-SCORE:    0.00 PKD
ROOT
HETATM    1  C   UNL     1     -10.323  13.447  69.387  1.00  0.00     0.349 C  
HETATM    2  C   UNL     1     -10.214  13.827  70.743  1.00  0.00     3.376 C  
HETATM    3  C   UNL     1      -8.971  14.065  69.949  1.00  0.00     1.558 C  
HETATM    4  C   UNL     1      -9.082  13.894  67.892  1.00  0.00    -0.194 C  
HETATM    5  O   UNL     1      -5.497   7.010  70.370  1.00  0.00    -0.022 OA 
HETATM    6  O   UNL     1     -10.361  13.561  67.231  1.00  0.00    -0.240 OA 
HETATM    7  C   UNL     1      -9.295  14.950  68.730  1.00  0.00    -0.203 C  
HETATM    8  C   UNL     1     -10.070  16.244  68.616  1.00  0.00    -0.233 C  
HETATM    9  C   UNL     1      -7.379  14.753  68.797  1.00  0.00    -0.129 C  
HETATM   10  C   UNL     1      -6.028   8.105  70.498  1.00  0.00    -0.032 C  
HETATM   11  C   UNL     1      -7.494   8.240  70.514  1.00  0.00    -0.067 C  
HETATM   12  H   UNL     1     -10.412  13.482  66.286  1.00  0.00     0.000 HD 
HETATM   13  C   UNL     1      -6.938  13.077  68.602  1.00  0.00    -0.102 C  
HETATM   14  C   UNL     1      -5.284   9.381  70.717  1.00  0.00    -0.030 C  
HETATM   15  O   UNL     1      -5.970  12.816  67.885  1.00  0.00    -0.089 OA 
HETATM   16  C   UNL     1      -7.203   9.936  67.695  1.00  0.00    -0.089 C  
HETATM   17  C   UNL     1      -7.816  11.834  69.348  1.00  0.00     0.416 C  
HETATM   18  C   UNL     1      -9.464  11.856  69.177  1.00  0.00     0.378 C  
HETATM   19  C   UNL     1      -7.195  10.384  69.170  1.00  0.00    -0.089 C  
HETATM   20  C   UNL     1      -5.696  10.420  69.678  1.00  0.00    -0.040 C  
HETATM   21  C   UNL     1     -10.084  10.814  70.122  1.00  0.00     0.496 C  
HETATM   22  C   UNL     1      -9.545   9.414  69.864  1.00  0.00    -0.234 C  
HETATM   23  C   UNL     1      -8.038   9.322  69.925  1.00  0.00    -0.125 C  
ENDROOT
BRANCH   4  24
HETATM   24  C   UNL     1      -8.663  14.918  66.551  1.00  0.00    -0.169 C  
HETATM   25  O   UNL     1      -9.350  15.111  65.544  1.00  0.00    -0.204 OA 
BRANCH  24  26
HETATM   26  C   UNL     1      -7.304  15.670  66.572  1.00  0.00     0.491 C  
BRANCH  26  27
HETATM   27  O   UNL     1      -7.483  17.051  66.159  1.00  0.00    -0.293 OA 
BRANCH  27  28
HETATM   28  C   UNL     1      -7.728  17.925  67.180  1.00  0.00    -0.210 C  
HETATM   29  C   UNL     1      -8.702  18.998  66.776  1.00  0.00    -0.318 C  
HETATM   30  O   UNL     1      -7.218  17.865  68.289  1.00  0.00    -0.219 OA 
ENDBRANCH  27  28
ENDBRANCH  26  27
ENDBRANCH  24  26
ENDBRANCH   4  24
TORSDOF 4
ENDMDL
MODEL      150
REMARK 921   NORMALIZED FREE ENERGY PREDICTED BY IDOCK:    4.42 KCAL/MOL
REMARK 922        TOTAL FREE ENERGY PREDICTED BY IDOCK:    5.67 KCAL/MOL
REMARK 923 INTER-LIGAND FREE ENERGY PREDICTED BY IDOCK:    4.95 KCAL/MOL
REMARK 924 INTRA-LIGAND FREE ENERGY PREDICTED BY IDOCK:    0.72 KCAL/MOL
REMARK 927      BINDING AFFINITY PREDICTED BY RF-SCORE:    0.00 PKD
ROOT
HETATM    1  C   UNL     1      -7.547   5.410  63.596  1.00  0.00    -0.073 C  
HETATM    2  C   UNL     1      -6.530   5.795  62.694  1.00  0.00    -0.031 C  
HETATM    3  C   UNL     1      -6.227   6.123  64.119  1.00  0.00    -0.029 C  
HETATM    4  C   UNL     1      -7.440   5.316  65.584  1.00  0.00    -0.081 C  
HETATM    5  O   UNL     1      -9.854  13.068  64.909  1.00  0.00    -0.159 OA 
HETATM    6  O   UNL     1      -8.565   4.428  65.227  1.00  0.00    -0.118 OA 
HETATM    7  C   UNL     1      -6.313   4.846  64.976  1.00  0.00    -0.035 C  
HETATM    8  C   UNL     1      -5.724   3.468  64.772  1.00  0.00    -0.014 C  
HETATM    9  C   UNL     1      -5.617   6.243  66.107  1.00  0.00    -0.014 C  
HETATM   10  C   UNL     1      -9.190  12.075  64.645  1.00  0.00     0.394 C  
HETATM   11  C   UNL     1      -9.700  11.043  63.727  1.00  0.00    -0.351 C  
HETATM   12  H   UNL     1      -9.123   4.057  65.899  1.00  0.00     0.000 HD 
HETATM   13  C   UNL     1      -6.790   7.522  66.275  1.00  0.00    -0.061 C  
HETATM   14  C   UNL     1      -7.804  11.831  65.145  1.00  0.00     1.547 C  
HETATM   15  O   UNL     1      -6.939   8.024  67.391  1.00  0.00    -0.072 OA 
HETATM   16  C   UNL     1      -9.724   8.989  66.312  1.00  0.00    -0.345 C  
HETATM   17  C   UNL     1      -7.720   8.055  64.962  1.00  0.00    -0.112 C  
HETATM   18  C   UNL     1      -8.487   6.901  64.053  1.00  0.00     0.308 C  
HETATM   19  C   UNL     1      -8.638   9.314  65.266  1.00  0.00    -0.188 C  
HETATM   20  C   UNL     1      -7.721  10.472  65.834  1.00  0.00    -0.148 C  
HETATM   21  C   UNL     1      -9.056   7.553  62.783  1.00  0.00     1.252 C  
HETATM   22  C   UNL     1     -10.011   8.693  63.104  1.00  0.00     4.068 C  
HETATM   23  C   UNL     1      -9.413   9.756  63.996  1.00  0.00    -0.131 C  
ENDROOT
BRANCH   4  24
HETATM   24  C   UNL     1      -7.169   4.382  67.026  1.00  0.00    -0.069 C  
HETATM   25  O   UNL     1      -6.088   3.908  67.389  1.00  0.00    -0.027 OA 
BRANCH  24  26
HETATM   26  C   UNL     1      -8.367   4.080  67.966  1.00  0.00    -0.093 C  
BRANCH  26  27
HETATM   27  O   UNL     1      -8.813   5.296  68.625  1.00  0.00    -0.097 OA 
BRANCH  27  28
HETATM   28  C   UNL     1      -9.011   5.176  69.972  1.00  0.00    -0.122 C  
HETATM   29  C   UNL     1      -9.473   6.470  70.585  1.00  0.00    -0.173 C  
HETATM   30  O   UNL     1      -8.829   4.155  70.616  1.00  0.00    -0.074 OA 
ENDBRANCH  27  28
ENDBRANCH  26  27
ENDBRANCH  24  26
ENDBRANCH   4  24
TORSDOF 4
ENDMDL
MODEL      151
REMARK 921   NORMALIZED FREE ENERGY PREDICTED BY IDOCK:    4.42 KCAL/MOL
REMARK 922        TOTAL FREE ENERGY PREDICTED BY IDOCK:    5.67 KCAL/MOL
REMARK 923 INTER-LIGAND FREE ENERGY PREDICTED BY IDOCK:   -0.21 KCAL/MOL
REMARK 924 INTRA-LIGAND FREE ENERGY PREDICTED BY IDOCK:    5.88 KCAL/MOL
REMARK 927      BINDING AFFINITY PREDICTED BY RF-SCORE:    0.00 PKD
ROOT
HETATM    1  C   UNL     1      -8.978  11.088  67.848  1.00  0.00    -0.144 C  
HETATM    2  C   UNL     1      -8.773  10.796  69.215  1.00  0.00    -0.044 C  
HETATM    3  C   UNL     1      -9.857  11.793  68.967  1.00  0.00     0.079 C  
HETATM    4  C   UNL     1     -10.512  12.057  67.025  1.00  0.00    -0.221 C  
HETATM    5  O   UNL     1      -5.730  18.484  68.508  1.00  0.00    -0.184 OA 
HETATM    6  O   UNL     1      -9.931  11.268  65.919  1.00  0.00    -0.216 OA 
HETATM    7  C   UNL     1     -10.903  11.195  68.008  1.00  0.00    -0.274 C  
HETATM    8  C   UNL     1     -11.612   9.858  68.014  1.00  0.00     0.507 C  
HETATM    9  C   UNL     1     -11.604  12.877  68.635  1.00  0.00    -0.353 C  
HETATM   10  C   UNL     1      -6.295  17.427  68.756  1.00  0.00    -0.188 C  
HETATM   11  C   UNL     1      -5.719  16.141  68.332  1.00  0.00    -0.108 C  
HETATM   12  H   UNL     1     -10.232  11.390  65.027  1.00  0.00     0.000 HD 
HETATM   13  C   UNL     1     -10.567  14.186  68.135  1.00  0.00    -0.246 C  
HETATM   14  C   UNL     1      -7.554  17.313  69.552  1.00  0.00     0.330 C  
HETATM   15  O   UNL     1     -11.101  15.221  67.729  1.00  0.00    -0.300 OA 
HETATM   16  C   UNL     1      -8.342  15.809  66.353  1.00  0.00    -0.267 C  
HETATM   17  C   UNL     1      -8.878  14.049  68.177  1.00  0.00    -0.182 C  
HETATM   18  C   UNL     1      -8.206  12.698  67.493  1.00  0.00    -0.178 C  
HETATM   19  C   UNL     1      -8.096  15.381  67.814  1.00  0.00    -0.152 C  
HETATM   20  C   UNL     1      -8.607  16.535  68.769  1.00  0.00    -0.262 C  
HETATM   21  C   UNL     1      -6.714  12.637  67.855  1.00  0.00    -0.109 C  
HETATM   22  C   UNL     1      -5.965  13.884  67.407  1.00  0.00     0.218 C  
HETATM   23  C   UNL     1      -6.562  15.172  67.926  1.00  0.00    -0.174 C  
ENDROOT
BRANCH   4  24
HETATM   24  C   UNL     1     -12.061  12.012  66.235  1.00  0.00     0.191 C  
HETATM   25  O   UNL     1     -13.083  12.595  66.610  1.00  0.00     1.184 OA 
BRANCH  24  26
HETATM   26  C   UNL     1     -12.226  11.164  64.945  1.00  0.00     1.603 C  
BRANCH  26  27
HETATM   27  O   UNL     1     -10.979  10.496  64.614  1.00  0.00     0.122 OA 
BRANCH  27  28
HETATM   28  C   UNL     1     -10.042  11.296  64.024  1.00  0.00    -0.329 C  
HETATM   29  C   UNL     1      -8.660  10.709  64.130  1.00  0.00    -0.100 C  
HETATM   30  O   UNL     1     -10.277  12.366  63.484  1.00  0.00    -0.414 OA 
ENDBRANCH  27  28
ENDBRANCH  26  27
ENDBRANCH  24  26
ENDBRANCH   4  24
TORSDOF 4
ENDMDL
MODEL      152
REMARK 921   NORMALIZED FREE ENERGY PREDICTED BY IDOCK:    7.28 KCAL/MOL
REMARK 922        TOTAL FREE ENERGY PREDICTED BY IDOCK:    9.20 KCAL/MOL
REMARK 923 INTER-LIGAND FREE ENERGY PREDICTED BY IDOCK:    8.34 KCAL/MOL
REMARK 924 INTRA-LIGAND FREE ENERGY PREDICTED BY IDOCK:    0.85 KCAL/MOL
REMARK 927      BINDING AFFINITY PREDICTED BY RF-SCORE:    0.00 PKD
ROOT
HETATM    1  C   UNL     1      -6.838  12.781  69.938  1.00  0.00     0.375 C  
HETATM    2  C   UNL     1      -5.544  12.241  69.765  1.00  0.00    -0.101 C  
HETATM    3  C   UNL     1      -5.834  13.408  68.878  1.00  0.00    -0.076 C  
HETATM    4  C   UNL     1      -7.535  14.519  69.257  1.00  0.00    -0.102 C  
HETATM    5  O   UNL     1      -9.449   9.893  62.829  1.00  0.00    -0.273 OA 
HETATM    6  O   UNL     1      -8.427  14.173  70.383  1.00  0.00     1.145 OA 
HETATM    7  C   UNL     1      -6.260  14.616  69.734  1.00  0.00    -0.140 C  
HETATM    8  C   UNL     1      -5.644  15.226  70.973  1.00  0.00    -0.002 C  
HETATM    9  C   UNL     1      -6.069  15.242  67.921  1.00  0.00    -0.169 C  
HETATM   10  C   UNL     1      -8.738  10.323  63.729  1.00  0.00    -0.205 C  
HETATM   11  C   UNL     1      -8.843   9.792  65.097  1.00  0.00    -0.213 C  
HETATM   12  H   UNL     1      -9.209  14.683  70.557  1.00  0.00     0.000 HD 
HETATM   13  C   UNL     1      -7.206  14.430  66.880  1.00  0.00     0.750 C  
HETATM   14  C   UNL     1      -7.669  11.348  63.539  1.00  0.00     1.232 C  
HETATM   15  O   UNL     1      -7.787  15.102  66.025  1.00  0.00     0.891 OA 
HETATM   16  C   UNL     1      -9.906  12.786  65.999  1.00  0.00    -0.258 C  
HETATM   17  C   UNL     1      -7.533  12.774  67.039  1.00  0.00     0.061 C  
HETATM   18  C   UNL     1      -7.877  12.208  68.558  1.00  0.00    -0.122 C  
HETATM   19  C   UNL     1      -8.491  12.176  65.924  1.00  0.00     0.468 C  
HETATM   20  C   UNL     1      -7.873  12.511  64.505  1.00  0.00     5.136 C  
HETATM   21  C   UNL     1      -7.889  10.671  68.533  1.00  0.00    -0.115 C  
HETATM   22  C   UNL     1      -8.889  10.122  67.526  1.00  0.00    -0.126 C  
HETATM   23  C   UNL     1      -8.693  10.651  66.124  1.00  0.00    -0.178 C  
ENDROOT
BRANCH   4  24
HETATM   24  C   UNL     1      -7.866  16.206  69.521  1.00  0.00    -0.002 C  
HETATM   25  O   UNL     1      -7.159  16.991  70.160  1.00  0.00     0.622 OA 
BRANCH  24  26
HETATM   26  C   UNL     1      -9.162  16.823  68.930  1.00  0.00    -0.234 C  
BRANCH  26  27
HETATM   27  O   UNL     1      -9.552  18.002  69.684  1.00  0.00     0.306 OA 
BRANCH  27  28
HETATM   28  C   UNL     1      -9.937  19.067  68.918  1.00  0.00    -0.398 C  
HETATM   29  C   UNL     1     -10.501  20.182  69.757  1.00  0.00     0.383 C  
HETATM   30  O   UNL     1      -9.854  19.118  67.701  1.00  0.00    -0.311 OA 
ENDBRANCH  27  28
ENDBRANCH  26  27
ENDBRANCH  24  26
ENDBRANCH   4  24
TORSDOF 4
ENDMDL
MODEL      153
REMARK 921   NORMALIZED FREE ENERGY PREDICTED BY IDOCK:    8.24 KCAL/MOL
REMARK 922        TOTAL FREE ENERGY PREDICTED BY IDOCK:   10.39 KCAL/MOL
REMARK 923 INTER-LIGAND FREE ENERGY PREDICTED BY IDOCK:    8.20 KCAL/MOL
REMARK 924 INTRA-LIGAND FREE ENERGY PREDICTED BY IDOCK:    2.19 KCAL/MOL
REMARK 927      BINDING AFFINITY PREDICTED BY RF-SCORE:    0.00 PKD
ROOT
HETATM    1  C   UNL     1      -9.278  12.296  66.114  1.00  0.00    -0.132 C  
HETATM    2  C   UNL     1      -8.792  11.071  66.623  1.00  0.00    -0.168 C  
HETATM    3  C   UNL     1      -9.789  11.740  67.512  1.00  0.00    -0.195 C  
HETATM    4  C   UNL     1     -10.848  13.344  66.754  1.00  0.00    -0.282 C  
HETATM    5  O   UNL     1      -5.179  16.670  71.570  1.00  0.00    -0.202 OA 
HETATM    6  O   UNL     1     -10.631  13.803  65.366  1.00  0.00    -0.295 OA 
HETATM    7  C   UNL     1     -11.089  12.001  66.729  1.00  0.00    -0.353 C  
HETATM    8  C   UNL     1     -11.918  11.098  65.843  1.00  0.00     1.383 C  
HETATM    9  C   UNL     1     -11.436  12.447  68.572  1.00  0.00    -0.350 C  
HETATM   10  C   UNL     1      -5.783  15.763  71.010  1.00  0.00     0.201 C  
HETATM   11  C   UNL     1      -5.466  15.384  69.624  1.00  0.00    -0.104 C  
HETATM   12  H   UNL     1     -11.118  14.541  65.018  1.00  0.00     0.000 HD 
HETATM   13  C   UNL     1     -10.409  13.761  69.078  1.00  0.00    -0.066 C  
HETATM   14  C   UNL     1      -6.824  14.916  71.664  1.00  0.00     1.577 C  
HETATM   15  O   UNL     1     -10.906  14.644  69.781  1.00  0.00    -0.230 OA 
HETATM   16  C   UNL     1      -8.499  16.417  68.824  1.00  0.00    -0.249 C  
HETATM   17  C   UNL     1      -8.782  13.850  68.610  1.00  0.00    -0.075 C  
HETATM   18  C   UNL     1      -8.440  13.647  67.001  1.00  0.00    -0.141 C  
HETATM   19  C   UNL     1      -7.966  15.040  69.270  1.00  0.00    -0.190 C  
HETATM   20  C   UNL     1      -8.110  14.930  70.843  1.00  0.00     2.240 C  
HETATM   21  C   UNL     1      -6.920  13.508  66.821  1.00  0.00     1.273 C  
HETATM   22  C   UNL     1      -6.166  14.709  67.374  1.00  0.00     0.152 C  
HETATM   23  C   UNL     1      -6.481  15.012  68.820  1.00  0.00    -0.082 C  
ENDROOT
BRANCH   4  24
HETATM   24  C   UNL     1     -12.534  13.748  66.618  1.00  0.00    -0.260 C  
HETATM   25  O   UNL     1     -13.440  12.975  66.294  1.00  0.00     1.081 OA 
BRANCH  24  26
HETATM   26  C   UNL     1     -12.987  15.204  66.909  1.00  0.00     2.314 C  
BRANCH  26  27
HETATM   27  O   UNL     1     -11.975  16.149  66.468  1.00  0.00     0.943 OA 
BRANCH  27  28
HETATM   28  C   UNL     1     -11.704  16.111  65.130  1.00  0.00     0.434 C  
HETATM   29  C   UNL     1     -10.232  16.258  64.854  1.00  0.00     0.338 C  
HETATM   30  O   UNL     1     -12.542  15.985  64.250  1.00  0.00    -0.360 OA 
ENDBRANCH  27  28
ENDBRANCH  26  27
ENDBRANCH  24  26
ENDBRANCH   4  24
TORSDOF 4
ENDMDL
MODEL      154
REMARK 921   NORMALIZED FREE ENERGY PREDICTED BY IDOCK:    8.24 KCAL/MOL
REMARK 922        TOTAL FREE ENERGY PREDICTED BY IDOCK:   10.39 KCAL/MOL
REMARK 923 INTER-LIGAND FREE ENERGY PREDICTED BY IDOCK:    9.90 KCAL/MOL
REMARK 924 INTRA-LIGAND FREE ENERGY PREDICTED BY IDOCK:    0.49 KCAL/MOL
REMARK 927      BINDING AFFINITY PREDICTED BY RF-SCORE:    0.00 PKD
ROOT
HETATM    1  C   UNL     1      -8.278  13.939  67.549  1.00  0.00    -0.196 C  
HETATM    2  C   UNL     1      -7.190  13.989  66.648  1.00  0.00     1.581 C  
HETATM    3  C   UNL     1      -7.117  15.007  67.739  1.00  0.00    -0.189 C  
HETATM    4  C   UNL     1      -8.434  14.835  69.322  1.00  0.00    -0.043 C  
HETATM    5  O   UNL     1     -11.477  20.826  64.715  1.00  0.00     0.715 OA 
HETATM    6  O   UNL     1      -9.408  13.725  69.376  1.00  0.00    -0.151 OA 
HETATM    7  C   UNL     1      -7.194  14.307  69.109  1.00  0.00    -0.104 C  
HETATM    8  C   UNL     1      -6.452  13.109  69.659  1.00  0.00    -0.047 C  
HETATM    9  C   UNL     1      -6.798  16.164  69.441  1.00  0.00    -0.214 C  
HETATM   10  C   UNL     1     -10.690  19.942  65.027  1.00  0.00     0.662 C  
HETATM   11  C   UNL     1     -10.968  18.532  64.710  1.00  0.00     2.252 C  
HETATM   12  H   UNL     1     -10.014  13.646  70.103  1.00  0.00     0.000 HD 
HETATM   13  C   UNL     1      -8.101  17.170  68.869  1.00  0.00    -0.203 C  
HETATM   14  C   UNL     1      -9.368  20.185  65.678  1.00  0.00     0.087 C  
HETATM   15  O   UNL     1      -8.449  18.119  69.574  1.00  0.00     0.367 OA 
HETATM   16  C   UNL     1     -11.142  18.007  67.966  1.00  0.00     0.147 C  
HETATM   17  C   UNL     1      -8.892  16.853  67.403  1.00  0.00    -0.212 C  
HETATM   18  C   UNL     1      -9.412  15.302  67.138  1.00  0.00    -0.223 C  
HETATM   19  C   UNL     1      -9.961  17.946  66.976  1.00  0.00    -0.324 C  
HETATM   20  C   UNL     1      -9.247  19.359  66.955  1.00  0.00    -0.378 C  
HETATM   21  C   UNL     1      -9.865  15.164  65.675  1.00  0.00    -0.378 C  
HETATM   22  C   UNL     1     -10.961  16.158  65.318  1.00  0.00    -0.280 C  
HETATM   23  C   UNL     1     -10.596  17.596  65.604  1.00  0.00    -0.137 C  
ENDROOT
BRANCH   4  24
HETATM   24  C   UNL     1      -8.271  14.768  71.053  1.00  0.00     2.870 C  
HETATM   25  O   UNL     1      -7.239  14.498  71.673  1.00  0.00     1.524 OA 
BRANCH  24  26
HETATM   26  C   UNL     1      -9.513  15.053  71.939  1.00  0.00     4.421 C  
BRANCH  26  27
HETATM   27  O   UNL     1     -10.643  15.452  71.117  1.00  0.00    -0.136 OA 
BRANCH  27  28
HETATM   28  C   UNL     1     -11.739  15.872  71.817  1.00  0.00    -0.491 C  
HETATM   29  C   UNL     1     -13.020  15.533  71.104  1.00  0.00    -0.560 C  
HETATM   30  O   UNL     1     -11.701  16.462  72.886  1.00  0.00    -0.460 OA 
ENDBRANCH  27  28
ENDBRANCH  26  27
ENDBRANCH  24  26
ENDBRANCH   4  24
TORSDOF 4
ENDMDL
MODEL      155
REMARK 921   NORMALIZED FREE ENERGY PREDICTED BY IDOCK:    8.68 KCAL/MOL
REMARK 922        TOTAL FREE ENERGY PREDICTED BY IDOCK:   10.93 KCAL/MOL
REMARK 923 INTER-LIGAND FREE ENERGY PREDICTED BY IDOCK:    2.95 KCAL/MOL
REMARK 924 INTRA-LIGAND FREE ENERGY PREDICTED BY IDOCK:    7.99 KCAL/MOL
REMARK 927      BINDING AFFINITY PREDICTED BY RF-SCORE:    0.00 PKD
ROOT
HETATM    1  C   UNL     1      -8.753  13.138  67.680  1.00  0.00    -0.192 C  
HETATM    2  C   UNL     1      -7.488  13.282  68.295  1.00  0.00    -0.126 C  
HETATM    3  C   UNL     1      -8.633  13.673  69.172  1.00  0.00     0.466 C  
HETATM    4  C   UNL     1     -10.544  13.190  68.552  1.00  0.00    -0.259 C  
HETATM    5  O   UNL     1      -9.782  21.147  66.973  1.00  0.00    -0.196 OA 
HETATM    6  O   UNL     1     -10.766  12.466  67.284  1.00  0.00    -0.224 OA 
HETATM    7  C   UNL     1      -9.624  12.499  69.286  1.00  0.00     0.767 C  
HETATM    8  C   UNL     1      -9.402  11.033  69.584  1.00  0.00     0.484 C  
HETATM    9  C   UNL     1     -10.203  13.856  70.527  1.00  0.00     2.276 C  
HETATM   10  C   UNL     1      -9.424  20.042  67.360  1.00  0.00    -0.382 C  
HETATM   11  C   UNL     1      -8.919  19.034  66.414  1.00  0.00    -0.331 C  
HETATM   12  H   UNL     1     -11.644  12.244  66.999  1.00  0.00     0.000 HD 
HETATM   13  C   UNL     1     -10.627  15.314  69.671  1.00  0.00    -0.276 C  
HETATM   14  C   UNL     1      -9.389  19.623  68.793  1.00  0.00    -0.368 C  
HETATM   15  O   UNL     1     -11.637  15.922  70.034  1.00  0.00    -0.323 OA 
HETATM   16  C   UNL     1     -11.575  17.227  67.179  1.00  0.00     1.176 C  
HETATM   17  C   UNL     1      -9.706  15.879  68.365  1.00  0.00    -0.214 C  
HETATM   18  C   UNL     1      -9.324  14.791  67.175  1.00  0.00    -0.233 C  
HETATM   19  C   UNL     1     -10.161  17.288  67.793  1.00  0.00    -0.332 C  
HETATM   20  C   UNL     1     -10.174  18.329  68.985  1.00  0.00    -0.217 C  
HETATM   21  C   UNL     1      -8.289  15.420  66.229  1.00  0.00     0.073 C  
HETATM   22  C   UNL     1      -8.789  16.720  65.615  1.00  0.00     0.360 C  
HETATM   23  C   UNL     1      -9.233  17.743  66.635  1.00  0.00    -0.280 C  
ENDROOT
BRANCH   4  24
HETATM   24  C   UNL     1     -11.888  12.345  69.263  1.00  0.00    -0.304 C  
HETATM   25  O   UNL     1     -12.787  11.765  68.647  1.00  0.00     0.532 OA 
BRANCH  24  26
HETATM   26  C   UNL     1     -12.018  12.299  70.809  1.00  0.00    -0.002 C  
BRANCH  26  27
HETATM   27  O   UNL     1     -11.349  13.441  71.409  1.00  0.00     1.410 OA 
BRANCH  27  28
HETATM   28  C   UNL     1     -12.057  14.062  72.398  1.00  0.00     0.389 C  
HETATM   29  C   UNL     1     -13.526  13.746  72.316  1.00  0.00    -0.638 C  
HETATM   30  O   UNL     1     -11.575  14.798  73.246  1.00  0.00    -0.091 OA 
ENDBRANCH  27  28
ENDBRANCH  26  27
ENDBRANCH  24  26
ENDBRANCH   4  24
TORSDOF 4
ENDMDL
MODEL      156
REMARK 921   NORMALIZED FREE ENERGY PREDICTED BY IDOCK:    9.84 KCAL/MOL
REMARK 922        TOTAL FREE ENERGY PREDICTED BY IDOCK:   12.36 KCAL/MOL
REMARK 923 INTER-LIGAND FREE ENERGY PREDICTED BY IDOCK:   11.96 KCAL/MOL
REMARK 924 INTRA-LIGAND FREE ENERGY PREDICTED BY IDOCK:    0.40 KCAL/MOL
REMARK 927      BINDING AFFINITY PREDICTED BY RF-SCORE:    0.00 PKD
ROOT
HETATM    1  C   UNL     1      -7.062  11.790  71.584  1.00  0.00     6.204 C  
HETATM    2  C   UNL     1      -5.947  11.063  72.059  1.00  0.00     1.317 C  
HETATM    3  C   UNL     1      -5.675  11.838  70.811  1.00  0.00    -0.074 C  
HETATM    4  C   UNL     1      -7.084  13.219  70.195  1.00  0.00     0.955 C  
HETATM    5  O   UNL     1      -8.160   6.805  65.289  1.00  0.00    -0.121 OA 
HETATM    6  O   UNL     1      -8.317  13.440  70.979  1.00  0.00     4.967 OA 
HETATM    7  C   UNL     1      -6.015  13.323  71.038  1.00  0.00     0.083 C  
HETATM    8  C   UNL     1      -5.649  14.270  72.160  1.00  0.00    -0.133 C  
HETATM    9  C   UNL     1      -5.165  13.192  69.313  1.00  0.00    -0.074 C  
HETATM   10  C   UNL     1      -7.653   7.445  66.200  1.00  0.00    -0.088 C  
HETATM   11  C   UNL     1      -8.273   7.486  67.535  1.00  0.00    -0.113 C  
HETATM   12  H   UNL     1      -8.964  14.074  70.696  1.00  0.00     0.000 HD 
HETATM   13  C   UNL     1      -6.122  12.201  68.244  1.00  0.00    -0.052 C  
HETATM   14  C   UNL     1      -6.356   8.177  66.094  1.00  0.00    -0.046 C  
HETATM   15  O   UNL     1      -6.249  12.572  67.075  1.00  0.00    -0.227 OA 
HETATM   16  C   UNL     1      -8.775  10.709  67.021  1.00  0.00    -0.128 C  
HETATM   17  C   UNL     1      -6.878  10.783  68.784  1.00  0.00    -0.067 C  
HETATM   18  C   UNL     1      -7.771  10.879  70.177  1.00  0.00     0.783 C  
HETATM   19  C   UNL     1      -7.594   9.939  67.646  1.00  0.00    -0.091 C  
HETATM   20  C   UNL     1      -6.534   9.634  66.511  1.00  0.00    -0.070 C  
HETATM   21  C   UNL     1      -8.154   9.461  70.629  1.00  0.00    -0.197 C  
HETATM   22  C   UNL     1      -8.928   8.707  69.557  1.00  0.00    -0.145 C  
HETATM   23  C   UNL     1      -8.215   8.640  68.226  1.00  0.00    -0.122 C  
ENDROOT
BRANCH   4  24
HETATM   24  C   UNL     1      -7.049  14.909  69.786  1.00  0.00    -0.156 C  
HETATM   25  O   UNL     1      -6.114  15.504  69.242  1.00  0.00    -0.107 OA 
BRANCH  24  26
HETATM   26  C   UNL     1      -8.278  15.794  70.127  1.00  0.00     0.836 C  
BRANCH  26  27
HETATM   27  O   UNL     1      -9.296  15.665  69.098  1.00  0.00    -0.216 OA 
BRANCH  27  28
HETATM   28  C   UNL     1     -10.425  16.403  69.317  1.00  0.00    -0.303 C  
HETATM   29  C   UNL     1     -11.492  15.598  70.010  1.00  0.00    -0.352 C  
HETATM   30  O   UNL     1     -10.573  17.569  68.988  1.00  0.00    -0.306 OA 
ENDBRANCH  27  28
ENDBRANCH  26  27
ENDBRANCH  24  26
ENDBRANCH   4  24
TORSDOF 4
ENDMDL
MODEL      157
REMARK 921   NORMALIZED FREE ENERGY PREDICTED BY IDOCK:   11.74 KCAL/MOL
REMARK 922        TOTAL FREE ENERGY PREDICTED BY IDOCK:   14.71 KCAL/MOL
REMARK 923 INTER-LIGAND FREE ENERGY PREDICTED BY IDOCK:    8.85 KCAL/MOL
REMARK 924 INTRA-LIGAND FREE ENERGY PREDICTED BY IDOCK:    5.86 KCAL/MOL
REMARK 927      BINDING AFFINITY PREDICTED BY RF-SCORE:    0.00 PKD
ROOT
HETATM    1  C   UNL     1     -11.112  13.497  68.293  1.00  0.00    -0.287 C  
HETATM    2  C   UNL     1     -10.400  13.951  69.425  1.00  0.00     0.163 C  
HETATM    3  C   UNL     1      -9.799  12.746  68.778  1.00  0.00     0.020 C  
HETATM    4  C   UNL     1     -10.513  12.177  66.925  1.00  0.00    -0.225 C  
HETATM    5  O   UNL     1     -13.923   6.956  72.168  1.00  0.00    -0.143 OA 
HETATM    6  O   UNL     1     -11.577  12.953  66.255  1.00  0.00    -0.333 OA 
HETATM    7  C   UNL     1      -9.520  13.039  67.292  1.00  0.00    -0.224 C  
HETATM    8  C   UNL     1      -8.840  14.209  66.617  1.00  0.00    -0.141 C  
HETATM    9  C   UNL     1      -8.741  11.321  67.689  1.00  0.00    -0.131 C  
HETATM   10  C   UNL     1     -13.230   7.904  71.821  1.00  0.00    -0.329 C  
HETATM   11  C   UNL     1     -13.823   9.231  71.585  1.00  0.00    -0.366 C  
HETATM   12  H   UNL     1     -11.905  12.692  65.404  1.00  0.00     0.000 HD 
HETATM   13  C   UNL     1      -9.980  10.194  68.169  1.00  0.00    -0.147 C  
HETATM   14  C   UNL     1     -11.745   7.851  71.671  1.00  0.00    -0.320 C  
HETATM   15  O   UNL     1      -9.910   9.042  67.734  1.00  0.00    -0.154 OA 
HETATM   16  C   UNL     1     -12.969   8.864  68.416  1.00  0.00     9.212 C  
HETATM   17  C   UNL     1     -11.260  10.654  69.180  1.00  0.00    -0.324 C  
HETATM   18  C   UNL     1     -12.083  12.038  68.786  1.00  0.00    -0.166 C  
HETATM   19  C   UNL     1     -12.219   9.468  69.620  1.00  0.00     0.708 C  
HETATM   20  C   UNL     1     -11.335   8.334  70.283  1.00  0.00    -0.129 C  
HETATM   21  C   UNL     1     -13.018  12.417  69.945  1.00  0.00     0.859 C  
HETATM   22  C   UNL     1     -13.995  11.299  70.281  1.00  0.00     3.191 C  
HETATM   23  C   UNL     1     -13.327   9.977  70.579  1.00  0.00     0.034 C  
ENDROOT
BRANCH   4  24
HETATM   24  C   UNL     1      -9.788  11.850  65.378  1.00  0.00    -0.233 C  
HETATM   25  O   UNL     1      -9.000  10.933  65.126  1.00  0.00    -0.197 OA 
BRANCH  24  26
HETATM   26  C   UNL     1     -10.123  12.774  64.176  1.00  0.00    -0.234 C  
BRANCH  26  27
HETATM   27  O   UNL     1     -11.086  12.135  63.297  1.00  0.00    -0.410 OA 
BRANCH  27  28
HETATM   28  C   UNL     1     -12.338  11.994  63.827  1.00  0.00    -0.496 C  
HETATM   29  C   UNL     1     -12.526  12.854  65.048  1.00  0.00    -0.553 C  
HETATM   30  O   UNL     1     -13.206  11.258  63.384  1.00  0.00     0.204 OA 
ENDBRANCH  27  28
ENDBRANCH  26  27
ENDBRANCH  24  26
ENDBRANCH   4  24
TORSDOF 4
ENDMDL
MODEL      158
REMARK 921   NORMALIZED FREE ENERGY PREDICTED BY IDOCK:   15.83 KCAL/MOL
REMARK 922        TOTAL FREE ENERGY PREDICTED BY IDOCK:   19.75 KCAL/MOL
REMARK 923 INTER-LIGAND FREE ENERGY PREDICTED BY IDOCK:   17.47 KCAL/MOL
REMARK 924 INTRA-LIGAND FREE ENERGY PREDICTED BY IDOCK:    2.28 KCAL/MOL
REMARK 927      BINDING AFFINITY PREDICTED BY RF-SCORE:    0.00 PKD
ROOT
HETATM    1  C   UNL     1     -12.338  15.630  66.940  1.00  0.00     1.369 C  
HETATM    2  C   UNL     1     -11.776  14.460  66.382  1.00  0.00    -0.397 C  
HETATM    3  C   UNL     1     -11.266  14.781  67.750  1.00  0.00    -0.323 C  
HETATM    4  C   UNL     1     -12.241  16.245  68.833  1.00  0.00     0.500 C  
HETATM    5  O   UNL     1      -5.463  19.838  66.089  1.00  0.00    -0.160 OA 
HETATM    6  O   UNL     1     -13.417  16.942  68.272  1.00  0.00     3.253 OA 
HETATM    7  C   UNL     1     -12.449  14.901  68.729  1.00  0.00     0.137 C  
HETATM    8  C   UNL     1     -13.639  13.998  68.971  1.00  0.00     4.370 C  
HETATM    9  C   UNL     1     -10.833  14.986  69.776  1.00  0.00    -0.277 C  
HETATM   10  C   UNL     1      -6.268  18.927  66.236  1.00  0.00    -0.184 C  
HETATM   11  C   UNL     1      -7.466  18.831  65.387  1.00  0.00     0.322 C  
HETATM   12  H   UNL     1     -13.865  17.615  68.770  1.00  0.00     0.000 HD 
HETATM   13  C   UNL     1      -9.894  16.382  69.321  1.00  0.00    -0.240 C  
HETATM   14  C   UNL     1      -6.102  17.805  67.207  1.00  0.00    -0.165 C  
HETATM   15  O   UNL     1      -9.360  17.035  70.221  1.00  0.00     1.501 OA 
HETATM   16  C   UNL     1      -9.241  19.365  68.120  1.00  0.00    -0.395 C  
HETATM   17  C   UNL     1      -9.728  16.855  67.701  1.00  0.00    -0.249 C  
HETATM   18  C   UNL     1     -11.111  16.967  66.796  1.00  0.00     0.311 C  
HETATM   19  C   UNL     1      -8.731  18.067  67.462  1.00  0.00    -0.248 C  
HETATM   20  C   UNL     1      -7.332  17.694  68.102  1.00  0.00    -0.228 C  
HETATM   21  C   UNL     1     -10.734  17.154  65.318  1.00  0.00    -0.067 C  
HETATM   22  C   UNL     1      -9.859  18.381  65.101  1.00  0.00     1.830 C  
HETATM   23  C   UNL     1      -8.609  18.395  65.950  1.00  0.00     0.160 C  
ENDROOT
BRANCH   4  24
HETATM   24  C   UNL     1     -12.954  16.331  70.417  1.00  0.00     1.657 C  
HETATM   25  O   UNL     1     -14.049  16.829  70.693  1.00  0.00     4.712 OA 
BRANCH  24  26
HETATM   26  C   UNL     1     -12.174  15.751  71.628  1.00  0.00    -0.456 C  
BRANCH  26  27
HETATM   27  O   UNL     1     -12.562  14.371  71.868  1.00  0.00    -0.333 OA 
BRANCH  27  28
HETATM   28  C   UNL     1     -12.721  14.043  73.184  1.00  0.00     0.023 C  
HETATM   29  C   UNL     1     -12.180  15.113  74.095  1.00  0.00    -0.686 C  
HETATM   30  O   UNL     1     -13.226  13.008  73.590  1.00  0.00     1.737 OA 
ENDBRANCH  27  28
ENDBRANCH  26  27
ENDBRANCH  24  26
ENDBRANCH   4  24
TORSDOF 4
ENDMDL
MODEL      159
REMARK 921   NORMALIZED FREE ENERGY PREDICTED BY IDOCK:   20.55 KCAL/MOL
REMARK 922        TOTAL FREE ENERGY PREDICTED BY IDOCK:   25.57 KCAL/MOL
REMARK 923 INTER-LIGAND FREE ENERGY PREDICTED BY IDOCK:   20.14 KCAL/MOL
REMARK 924 INTRA-LIGAND FREE ENERGY PREDICTED BY IDOCK:    5.43 KCAL/MOL
REMARK 927      BINDING AFFINITY PREDICTED BY RF-SCORE:    0.00 PKD
ROOT
HETATM    1  C   UNL     1     -12.060  14.747  65.896  1.00  0.00    -0.106 C  
HETATM    2  C   UNL     1     -13.426  14.549  66.196  1.00  0.00     2.006 C  
HETATM    3  C   UNL     1     -12.662  15.234  67.283  1.00  0.00     1.728 C  
HETATM    4  C   UNL     1     -10.755  15.906  66.858  1.00  0.00    -0.289 C  
HETATM    5  O   UNL     1      -9.651   9.081  71.168  1.00  0.00    -0.243 OA 
HETATM    6  O   UNL     1     -10.174  15.726  65.512  1.00  0.00    -0.344 OA 
HETATM    7  C   UNL     1     -11.979  16.495  66.722  1.00  0.00     1.760 C  
HETATM    8  C   UNL     1     -12.515  17.623  65.868  1.00  0.00     6.864 C  
HETATM    9  C   UNL     1     -11.725  16.513  68.632  1.00  0.00     0.106 C  
HETATM   10  C   UNL     1     -10.292   9.958  70.603  1.00  0.00    -0.187 C  
HETATM   11  C   UNL     1     -10.539   9.903  69.153  1.00  0.00    -0.240 C  
HETATM   12  H   UNL     1      -9.298  16.035  65.316  1.00  0.00     0.000 HD 
HETATM   13  C   UNL     1     -10.792  15.128  69.129  1.00  0.00    -0.251 C  
HETATM   14  C   UNL     1     -10.937  11.111  71.301  1.00  0.00     2.370 C  
HETATM   15  O   UNL     1      -9.921  15.297  69.986  1.00  0.00    -0.234 OA 
HETATM   16  C   UNL     1      -8.684  12.623  68.900  1.00  0.00     0.323 C  
HETATM   17  C   UNL     1     -11.044  13.595  68.451  1.00  0.00    -0.289 C  
HETATM   18  C   UNL     1     -11.098  13.492  66.798  1.00  0.00    -0.311 C  
HETATM   19  C   UNL     1     -10.199  12.428  69.117  1.00  0.00     0.205 C  
HETATM   20  C   UNL     1     -10.490  12.427  70.673  1.00  0.00     3.873 C  
HETATM   21  C   UNL     1     -11.583  12.091  66.394  1.00  0.00    -0.381 C  
HETATM   22  C   UNL     1     -10.696  10.992  66.963  1.00  0.00    -0.319 C  
HETATM   23  C   UNL     1     -10.531  11.059  68.464  1.00  0.00    -0.210 C  
ENDROOT
BRANCH   4  24
HETATM   24  C   UNL     1      -9.931  17.431  67.003  1.00  0.00    -0.295 C  
HETATM   25  O   UNL     1      -9.202  17.945  66.149  1.00  0.00    -0.466 OA 
BRANCH  24  26
HETATM   26  C   UNL     1     -10.086  18.251  68.312  1.00  0.00    -0.386 C  
BRANCH  26  27
HETATM   27  O   UNL     1      -9.611  17.484  69.450  1.00  0.00    -0.016 OA 
BRANCH  27  28
HETATM   28  C   UNL     1      -8.300  17.693  69.773  1.00  0.00     1.313 C  
HETATM   29  C   UNL     1      -7.442  17.851  68.547  1.00  0.00    -0.270 C  
HETATM   30  O   UNL     1      -7.859  17.737  70.911  1.00  0.00     4.432 OA 
ENDBRANCH  27  28
ENDBRANCH  26  27
ENDBRANCH  24  26
ENDBRANCH   4  24
TORSDOF 4
ENDMDL
MODEL      160
REMARK 921   NORMALIZED FREE ENERGY PREDICTED BY IDOCK:   21.43 KCAL/MOL
REMARK 922        TOTAL FREE ENERGY PREDICTED BY IDOCK:   26.67 KCAL/MOL
REMARK 923 INTER-LIGAND FREE ENERGY PREDICTED BY IDOCK:   24.01 KCAL/MOL
REMARK 924 INTRA-LIGAND FREE ENERGY PREDICTED BY IDOCK:    2.66 KCAL/MOL
REMARK 927      BINDING AFFINITY PREDICTED BY RF-SCORE:    0.00 PKD
ROOT
HETATM    1  C   UNL     1      -8.252  15.915  66.905  1.00  0.00    -0.283 C  
HETATM    2  C   UNL     1      -7.051  15.623  67.588  1.00  0.00    -0.192 C  
HETATM    3  C   UNL     1      -8.003  14.473  67.524  1.00  0.00    -0.208 C  
HETATM    4  C   UNL     1      -9.635  14.630  66.266  1.00  0.00    -0.308 C  
HETATM    5  O   UNL     1     -12.619  15.939  73.734  1.00  0.00    -0.498 OA 
HETATM    6  O   UNL     1      -9.841  15.841  65.445  1.00  0.00    -0.355 OA 
HETATM    7  C   UNL     1      -8.364  14.180  66.055  1.00  0.00     1.422 C  
HETATM    8  C   UNL     1      -7.494  14.021  64.828  1.00  0.00    13.415 C  
HETATM    9  C   UNL     1      -9.128  12.768  67.121  1.00  0.00    -0.219 C  
HETATM   10  C   UNL     1     -11.756  15.708  72.896  1.00  0.00    -0.404 C  
HETATM   11  C   UNL     1     -11.129  16.799  72.133  1.00  0.00     1.110 C  
HETATM   12  H   UNL     1     -10.591  15.913  64.867  1.00  0.00     0.000 HD 
HETATM   13  C   UNL     1     -10.308  13.418  68.227  1.00  0.00    -0.249 C  
HETATM   14  C   UNL     1     -11.204  14.350  72.609  1.00  0.00     1.569 C  
HETATM   15  O   UNL     1     -11.356  12.789  68.387  1.00  0.00    -0.253 OA 
HETATM   16  C   UNL     1     -12.533  15.501  69.441  1.00  0.00    -0.030 C  
HETATM   17  C   UNL     1     -10.049  14.879  69.047  1.00  0.00    -0.237 C  
HETATM   18  C   UNL     1      -9.556  16.180  68.147  1.00  0.00    -0.217 C  
HETATM   19  C   UNL     1     -11.167  15.250  70.111  1.00  0.00    -0.313 C  
HETATM   20  C   UNL     1     -11.315  14.038  71.119  1.00  0.00     0.715 C  
HETATM   21  C   UNL     1      -9.136  17.318  69.092  1.00  0.00     0.008 C  
HETATM   22  C   UNL     1     -10.259  17.723  70.036  1.00  0.00     0.839 C  
HETATM   23  C   UNL     1     -10.820  16.574  70.842  1.00  0.00     0.345 C  
ENDROOT
BRANCH   4  24
HETATM   24  C   UNL     1     -10.295  13.657  64.985  1.00  0.00    -0.374 C  
HETATM   25  O   UNL     1      -9.804  13.506  63.862  1.00  0.00     0.226 OA 
BRANCH  24  26
HETATM   26  C   UNL     1     -11.629  12.899  65.224  1.00  0.00    -0.340 C  
BRANCH  26  27
HETATM   27  O   UNL     1     -11.412  11.751  66.087  1.00  0.00    -0.339 OA 
BRANCH  27  28
HETATM   28  C   UNL     1     -11.799  10.554  65.554  1.00  0.00     2.731 C  
HETATM   29  C   UNL     1     -10.754   9.490  65.755  1.00  0.00     0.778 C  
HETATM   30  O   UNL     1     -12.854  10.357  64.971  1.00  0.00     5.666 OA 
ENDBRANCH  27  28
ENDBRANCH  26  27
ENDBRANCH  24  26
ENDBRANCH   4  24
TORSDOF 4
ENDMDL
MODEL      161
REMARK 921   NORMALIZED FREE ENERGY PREDICTED BY IDOCK:   22.81 KCAL/MOL
REMARK 922        TOTAL FREE ENERGY PREDICTED BY IDOCK:   28.36 KCAL/MOL
REMARK 923 INTER-LIGAND FREE ENERGY PREDICTED BY IDOCK:   26.65 KCAL/MOL
REMARK 924 INTRA-LIGAND FREE ENERGY PREDICTED BY IDOCK:    1.71 KCAL/MOL
REMARK 927      BINDING AFFINITY PREDICTED BY RF-SCORE:    0.00 PKD
ROOT
HETATM    1  C   UNL     1     -10.425  17.090  69.896  1.00  0.00     0.098 C  
HETATM    2  C   UNL     1     -11.788  16.890  70.213  1.00  0.00     1.433 C  
HETATM    3  C   UNL     1     -11.001  15.624  70.105  1.00  0.00    -0.350 C  
HETATM    4  C   UNL     1      -8.942  15.762  70.000  1.00  0.00     0.455 C  
HETATM    5  O   UNL     1     -11.330  14.252  62.358  1.00  0.00     3.270 OA 
HETATM    6  O   UNL     1      -8.271  17.078  70.045  1.00  0.00     1.179 OA 
HETATM    7  C   UNL     1      -9.795  15.679  71.062  1.00  0.00     1.485 C  
HETATM    8  C   UNL     1      -9.698  16.063  72.522  1.00  0.00     7.193 C  
HETATM    9  C   UNL     1      -9.866  13.894  70.339  1.00  0.00     2.597 C  
HETATM   10  C   UNL     1     -11.472  14.459  63.556  1.00  0.00     1.043 C  
HETATM   11  C   UNL     1     -11.484  15.830  64.093  1.00  0.00    -0.079 C  
HETATM   12  H   UNL     1      -7.325  17.141  69.996  1.00  0.00     0.000 HD 
HETATM   13  C   UNL     1      -9.648  13.935  68.610  1.00  0.00    -0.142 C  
HETATM   14  C   UNL     1     -11.713  13.391  64.571  1.00  0.00    -0.422 C  
HETATM   15  O   UNL     1      -8.931  13.072  68.099  1.00  0.00    -0.191 OA 
HETATM   16  C   UNL     1      -8.692  15.056  65.678  1.00  0.00     1.134 C  
HETATM   17  C   UNL     1     -10.372  15.130  67.650  1.00  0.00    -0.248 C  
HETATM   18  C   UNL     1     -10.195  16.706  68.132  1.00  0.00    -0.280 C  
HETATM   19  C   UNL     1     -10.174  14.935  66.087  1.00  0.00    -0.314 C  
HETATM   20  C   UNL     1     -10.688  13.489  65.697  1.00  0.00    -0.284 C  
HETATM   21  C   UNL     1     -11.121  17.598  67.291  1.00  0.00     0.139 C  
HETATM   22  C   UNL     1     -10.845  17.468  65.800  1.00  0.00     0.012 C  
HETATM   23  C   UNL     1     -10.910  16.046  65.292  1.00  0.00    -0.376 C  
ENDROOT
BRANCH   4  24
HETATM   24  C   UNL     1      -7.618  15.063  70.885  1.00  0.00     1.667 C  
HETATM   25  O   UNL     1      -6.693  15.685  71.416  1.00  0.00     1.420 OA 
BRANCH  24  26
HETATM   26  C   UNL     1      -7.543  13.520  71.037  1.00  0.00     4.476 C  
BRANCH  26  27
HETATM   27  O   UNL     1      -6.513  12.975  70.170  1.00  0.00    -0.014 OA 
BRANCH  27  28
HETATM   28  C   UNL     1      -6.778  11.725  69.685  1.00  0.00    -0.034 C  
HETATM   29  C   UNL     1      -7.909  11.067  70.427  1.00  0.00     1.822 C  
HETATM   30  O   UNL     1      -6.173  11.188  68.770  1.00  0.00    -0.043 OA 
ENDBRANCH  27  28
ENDBRANCH  26  27
ENDBRANCH  24  26
ENDBRANCH   4  24
TORSDOF 4
ENDMDL
MODEL      162
REMARK 921   NORMALIZED FREE ENERGY PREDICTED BY IDOCK:   23.55 KCAL/MOL
REMARK 922        TOTAL FREE ENERGY PREDICTED BY IDOCK:   29.28 KCAL/MOL
REMARK 923 INTER-LIGAND FREE ENERGY PREDICTED BY IDOCK:   27.71 KCAL/MOL
REMARK 924 INTRA-LIGAND FREE ENERGY PREDICTED BY IDOCK:    1.57 KCAL/MOL
REMARK 927      BINDING AFFINITY PREDICTED BY RF-SCORE:    0.00 PKD
ROOT
HETATM    1  C   UNL     1      -8.254  16.072  66.986  1.00  0.00    -0.255 C  
HETATM    2  C   UNL     1      -6.956  16.174  67.536  1.00  0.00    -0.196 C  
HETATM    3  C   UNL     1      -7.842  15.208  68.255  1.00  0.00    -0.124 C  
HETATM    4  C   UNL     1      -9.635  14.688  67.369  1.00  0.00    -0.215 C  
HETATM    5  O   UNL     1     -11.653  19.999  73.209  1.00  0.00     7.956 OA 
HETATM    6  O   UNL     1     -10.019  15.246  66.056  1.00  0.00    -0.275 OA 
HETATM    7  C   UNL     1      -8.381  14.161  67.262  1.00  0.00    -0.212 C  
HETATM    8  C   UNL     1      -7.677  13.323  66.217  1.00  0.00     1.757 C  
HETATM    9  C   UNL     1      -8.913  13.598  69.027  1.00  0.00     0.323 C  
HETATM   10  C   UNL     1     -10.900  19.319  72.524  1.00  0.00     4.332 C  
HETATM   11  C   UNL     1     -10.444  19.786  71.205  1.00  0.00     2.543 C  
HETATM   12  H   UNL     1     -10.843  15.007  65.650  1.00  0.00     0.000 HD 
HETATM   13  C   UNL     1      -9.968  14.785  69.746  1.00  0.00     0.130 C  
HETATM   14  C   UNL     1     -10.316  18.015  72.958  1.00  0.00     5.325 C  
HETATM   15  O   UNL     1     -10.947  14.379  70.375  1.00  0.00    -0.017 OA 
HETATM   16  C   UNL     1     -12.123  17.253  69.913  1.00  0.00     3.740 C  
HETATM   17  C   UNL     1      -9.684  16.448  69.575  1.00  0.00    -0.080 C  
HETATM   18  C   UNL     1      -9.391  17.018  68.047  1.00  0.00    -0.245 C  
HETATM   19  C   UNL     1     -10.667  17.377  70.405  1.00  0.00     0.996 C  
HETATM   20  C   UNL     1     -10.609  16.933  71.923  1.00  0.00     2.879 C  
HETATM   21  C   UNL     1      -8.912  18.475  68.135  1.00  0.00    -0.326 C  
HETATM   22  C   UNL     1      -9.919  19.367  68.848  1.00  0.00    -0.519 C  
HETATM   23  C   UNL     1     -10.300  18.874  70.224  1.00  0.00     1.441 C  
ENDROOT
BRANCH   4  24
HETATM   24  C   UNL     1     -10.406  13.186  66.949  1.00  0.00    -0.247 C  
HETATM   25  O   UNL     1     -11.374  12.682  67.527  1.00  0.00    -0.271 OA 
BRANCH  24  26
HETATM   26  C   UNL     1      -9.855  12.363  65.754  1.00  0.00    -0.240 C  
BRANCH  26  27
HETATM   27  O   UNL     1     -10.079  13.071  64.505  1.00  0.00    -0.317 OA 
BRANCH  27  28
HETATM   28  C   UNL     1     -10.817  12.383  63.583  1.00  0.00    -0.462 C  
HETATM   29  C   UNL     1     -11.871  13.252  62.952  1.00  0.00     0.602 C  
HETATM   30  O   UNL     1     -10.662  11.205  63.303  1.00  0.00    -0.319 OA 
ENDBRANCH  27  28
ENDBRANCH  26  27
ENDBRANCH  24  26
ENDBRANCH   4  24
TORSDOF 4
ENDMDL
MODEL      163
REMARK 921   NORMALIZED FREE ENERGY PREDICTED BY IDOCK:   28.79 KCAL/MOL
REMARK 922        TOTAL FREE ENERGY PREDICTED BY IDOCK:   35.74 KCAL/MOL
REMARK 923 INTER-LIGAND FREE ENERGY PREDICTED BY IDOCK:   35.06 KCAL/MOL
REMARK 924 INTRA-LIGAND FREE ENERGY PREDICTED BY IDOCK:    0.68 KCAL/MOL
REMARK 927      BINDING AFFINITY PREDICTED BY RF-SCORE:    0.00 PKD
ROOT
HETATM    1  C   UNL     1      -7.707  15.669  72.263  1.00  0.00     7.589 C  
HETATM    2  C   UNL     1      -7.099  14.566  72.905  1.00  0.00     3.771 C  
HETATM    3  C   UNL     1      -7.115  14.463  71.414  1.00  0.00     1.954 C  
HETATM    4  C   UNL     1      -7.644  16.139  70.328  1.00  0.00     1.325 C  
HETATM    5  O   UNL     1     -14.247  11.369  70.157  1.00  0.00     3.591 OA 
HETATM    6  O   UNL     1      -7.981  17.406  71.010  1.00  0.00     5.231 OA 
HETATM    7  C   UNL     1      -6.440  15.704  70.801  1.00  0.00     0.589 C  
HETATM    8  C   UNL     1      -5.127  16.384  71.119  1.00  0.00    -0.130 C  
HETATM    9  C   UNL     1      -6.784  14.472  69.359  1.00  0.00    -0.142 C  
HETATM   10  C   UNL     1     -13.105  11.692  70.459  1.00  0.00     0.345 C  
HETATM   11  C   UNL     1     -12.846  12.580  71.604  1.00  0.00    -0.368 C  
HETATM   12  H   UNL     1      -8.224  18.176  70.511  1.00  0.00     0.000 HD 
HETATM   13  C   UNL     1      -8.498  14.203  69.192  1.00  0.00     0.204 C  
HETATM   14  C   UNL     1     -11.879  11.186  69.774  1.00  0.00    -0.422 C  
HETATM   15  O   UNL     1      -8.965  14.158  68.051  1.00  0.00    -0.168 OA 
HETATM   16  C   UNL     1     -11.718  14.788  69.423  1.00  0.00    -0.358 C  
HETATM   17  C   UNL     1      -9.507  14.030  70.542  1.00  0.00     3.146 C  
HETATM   18  C   UNL     1      -9.377  15.166  71.742  1.00  0.00     4.192 C  
HETATM   19  C   UNL     1     -11.013  13.659  70.202  1.00  0.00     0.462 C  
HETATM   20  C   UNL     1     -11.014  12.353  69.308  1.00  0.00    -0.145 C  
HETATM   21  C   UNL     1     -10.174  14.699  72.969  1.00  0.00     4.928 C  
HETATM   22  C   UNL     1     -11.639  14.445  72.639  1.00  0.00     0.688 C  
HETATM   23  C   UNL     1     -11.846  13.476  71.499  1.00  0.00     0.714 C  
ENDROOT
BRANCH   4  24
HETATM   24  C   UNL     1      -6.917  17.040  69.029  1.00  0.00    -0.229 C  
HETATM   25  O   UNL     1      -5.816  16.815  68.519  1.00  0.00    -0.126 OA 
BRANCH  24  26
HETATM   26  C   UNL     1      -7.681  18.252  68.432  1.00  0.00    -0.299 C  
BRANCH  26  27
HETATM   27  O   UNL     1      -8.171  17.938  67.101  1.00  0.00    -0.209 OA 
BRANCH  27  28
HETATM   28  C   UNL     1      -9.529  17.998  66.964  1.00  0.00    -0.273 C  
HETATM   29  C   UNL     1      -9.966  19.267  66.282  1.00  0.00    -0.484 C  
HETATM   30  O   UNL     1     -10.309  17.142  67.352  1.00  0.00    -0.316 OA 
ENDBRANCH  27  28
ENDBRANCH  26  27
ENDBRANCH  24  26
ENDBRANCH   4  24
TORSDOF 4
ENDMDL
MODEL      164
REMARK 921   NORMALIZED FREE ENERGY PREDICTED BY IDOCK:   41.01 KCAL/MOL
REMARK 922        TOTAL FREE ENERGY PREDICTED BY IDOCK:   50.82 KCAL/MOL
REMARK 923 INTER-LIGAND FREE ENERGY PREDICTED BY IDOCK:   49.34 KCAL/MOL
REMARK 924 INTRA-LIGAND FREE ENERGY PREDICTED BY IDOCK:    1.48 KCAL/MOL
REMARK 927      BINDING AFFINITY PREDICTED BY RF-SCORE:    0.00 PKD
ROOT
HETATM    1  C   UNL     1     -12.123   5.171  72.355  1.00  0.00     0.399 C  
HETATM    2  C   UNL     1     -13.417   5.573  71.954  1.00  0.00     2.071 C  
HETATM    3  C   UNL     1     -12.456   5.418  70.821  1.00  0.00     3.735 C  
HETATM    4  C   UNL     1     -10.642   4.503  71.200  1.00  0.00     0.219 C  
HETATM    5  O   UNL     1      -8.926  12.458  70.810  1.00  0.00     6.554 OA 
HETATM    6  O   UNL     1     -10.317   4.004  72.552  1.00  0.00    -0.173 OA 
HETATM    7  C   UNL     1     -11.858   3.998  70.838  1.00  0.00     6.762 C  
HETATM    8  C   UNL     1     -12.515   2.642  70.966  1.00  0.00    12.050 C  
HETATM    9  C   UNL     1     -11.265   4.845  69.212  1.00  0.00     2.245 C  
HETATM   10  C   UNL     1      -9.639  11.462  70.785  1.00  0.00     5.157 C  
HETATM   11  C   UNL     1     -10.144  10.860  72.030  1.00  0.00     8.465 C  
HETATM   12  H   UNL     1      -9.484   3.584  72.727  1.00  0.00     0.000 HD 
HETATM   13  C   UNL     1     -10.286   6.240  69.581  1.00  0.00    -0.215 C  
HETATM   14  C   UNL     1     -10.124  10.806  69.535  1.00  0.00    -0.117 C  
HETATM   15  O   UNL     1      -9.272   6.428  68.905  1.00  0.00    -0.129 OA 
HETATM   16  C   UNL     1      -8.308   8.215  71.299  1.00  0.00    -0.140 C  
HETATM   17  C   UNL     1     -10.689   7.302  70.840  1.00  0.00    -0.251 C  
HETATM   18  C   UNL     1     -11.041   6.635  72.315  1.00  0.00    -0.292 C  
HETATM   19  C   UNL     1      -9.762   8.586  70.946  1.00  0.00    -0.231 C  
HETATM   20  C   UNL     1      -9.769   9.322  69.545  1.00  0.00    -0.179 C  
HETATM   21  C   UNL     1     -11.620   7.721  73.236  1.00  0.00     0.281 C  
HETATM   22  C   UNL     1     -10.670   8.898  73.401  1.00  0.00     2.580 C  
HETATM   23  C   UNL     1     -10.236   9.518  72.093  1.00  0.00     1.030 C  
ENDROOT
BRANCH   4  24
HETATM   24  C   UNL     1      -9.773   3.166  70.505  1.00  0.00    -0.047 C  
HETATM   25  O   UNL     1      -9.667   2.038  70.995  1.00  0.00    -0.140 OA 
BRANCH  24  26
HETATM   26  C   UNL     1      -9.039   3.365  69.152  1.00  0.00    -0.142 C  
BRANCH  26  27
HETATM   27  O   UNL     1      -7.603   3.444  69.361  1.00  0.00    -0.051 OA 
BRANCH  27  28
HETATM   28  C   UNL     1      -6.941   2.255  69.237  1.00  0.00    -0.033 C  
HETATM   29  C   UNL     1      -7.042   1.704  67.841  1.00  0.00    -0.039 C  
HETATM   30  O   UNL     1      -6.347   1.690  70.142  1.00  0.00    -0.023 OA 
ENDBRANCH  27  28
ENDBRANCH  26  27
ENDBRANCH  24  26
ENDBRANCH   4  24
TORSDOF 4
ENDMDL
MODEL      165
REMARK 921   NORMALIZED FREE ENERGY PREDICTED BY IDOCK:   47.05 KCAL/MOL
REMARK 922        TOTAL FREE ENERGY PREDICTED BY IDOCK:   58.27 KCAL/MOL
REMARK 923 INTER-LIGAND FREE ENERGY PREDICTED BY IDOCK:   -1.85 KCAL/MOL
REMARK 924 INTRA-LIGAND FREE ENERGY PREDICTED BY IDOCK:   60.12 KCAL/MOL
REMARK 927      BINDING AFFINITY PREDICTED BY RF-SCORE:    0.00 PKD
ROOT
HETATM    1  C   UNL     1     -12.224  10.325  70.822  1.00  0.00    -0.447 C  
HETATM    2  C   UNL     1     -13.525   9.825  70.587  1.00  0.00     0.041 C  
HETATM    3  C   UNL     1     -12.490   9.271  69.663  1.00  0.00     1.401 C  
HETATM    4  C   UNL     1     -10.502   9.629  70.100  1.00  0.00    -0.273 C  
HETATM    5  O   UNL     1     -12.284  14.817  64.076  1.00  0.00    -0.577 OA 
HETATM    6  O   UNL     1     -10.120  10.398  71.302  1.00  0.00     0.462 OA 
HETATM    7  C   UNL     1     -11.352   8.631  70.481  1.00  0.00    -0.241 C  
HETATM    8  C   UNL     1     -11.382   7.660  71.640  1.00  0.00    -0.286 C  
HETATM    9  C   UNL     1     -11.028   8.209  68.628  1.00  0.00     0.161 C  
HETATM   10  C   UNL     1     -12.504  13.938  64.899  1.00  0.00    -0.391 C  
HETATM   11  C   UNL     1     -12.817  14.271  66.298  1.00  0.00     0.120 C  
HETATM   12  H   UNL     1      -9.207  10.563  71.502  1.00  0.00     0.000 HD 
HETATM   13  C   UNL     1     -10.770   9.670  67.713  1.00  0.00    -0.257 C  
HETATM   14  C   UNL     1     -12.550  12.480  64.581  1.00  0.00    -0.507 C  
HETATM   15  O   UNL     1      -9.873   9.669  66.866  1.00  0.00    -0.178 OA 
HETATM   16  C   UNL     1      -9.977  12.796  67.111  1.00  0.00    -0.218 C  
HETATM   17  C   UNL     1     -11.695  11.064  67.982  1.00  0.00    -0.257 C  
HETATM   18  C   UNL     1     -11.864  11.576  69.550  1.00  0.00    -0.419 C  
HETATM   19  C   UNL     1     -11.413  12.254  66.970  1.00  0.00    -0.419 C  
HETATM   20  C   UNL     1     -11.603  11.709  65.496  1.00  0.00    -0.085 C  
HETATM   21  C   UNL     1     -12.929  12.682  69.608  1.00  0.00     1.126 C  
HETATM   22  C   UNL     1     -12.585  13.857  68.703  1.00  0.00     0.500 C  
HETATM   23  C   UNL     1     -12.338  13.465  67.265  1.00  0.00    -0.157 C  
ENDROOT
BRANCH   4  24
HETATM   24  C   UNL     1      -9.090   8.633  70.296  1.00  0.00    -0.162 C  
HETATM   25  O   UNL     1      -8.440   8.496  71.336  1.00  0.00    -0.141 OA 
BRANCH  24  26
HETATM   26  C   UNL     1      -8.555   7.833  69.078  1.00  0.00    -0.135 C  
BRANCH  26  27
HETATM   27  O   UNL     1      -9.444   7.988  67.939  1.00  0.00    -0.143 OA 
BRANCH  27  28
HETATM   28  C   UNL     1     -10.011   9.225  67.823  1.00  0.00    -0.190 C  
HETATM   29  C   UNL     1      -8.972  10.308  67.708  1.00  0.00    -0.135 C  
HETATM   30  O   UNL     1     -11.213   9.445  67.822  1.00  0.00    -0.040 OA 
ENDBRANCH  27  28
ENDBRANCH  26  27
ENDBRANCH  24  26
ENDBRANCH   4  24
TORSDOF 4
ENDMDL
MODEL      166
REMARK 921   NORMALIZED FREE ENERGY PREDICTED BY IDOCK:   58.34 KCAL/MOL
REMARK 922        TOTAL FREE ENERGY PREDICTED BY IDOCK:   72.20 KCAL/MOL
REMARK 923 INTER-LIGAND FREE ENERGY PREDICTED BY IDOCK:   66.20 KCAL/MOL
REMARK 924 INTRA-LIGAND FREE ENERGY PREDICTED BY IDOCK:    6.00 KCAL/MOL
REMARK 927      BINDING AFFINITY PREDICTED BY RF-SCORE:    0.00 PKD
ROOT
HETATM    1  C   UNL     1     -13.018   8.626  71.584  1.00  0.00    -0.377 C  
HETATM    2  C   UNL     1     -14.392   8.892  71.391  1.00  0.00    -0.204 C  
HETATM    3  C   UNL     1     -13.505   9.528  70.370  1.00  0.00     0.511 C  
HETATM    4  C   UNL     1     -11.523   8.950  70.306  1.00  0.00    -0.105 C  
HETATM    5  O   UNL     1     -11.468  16.194  74.035  1.00  0.00     0.419 OA 
HETATM    6  O   UNL     1     -11.005   7.925  71.236  1.00  0.00    -0.233 OA 
HETATM    7  C   UNL     1     -12.636   8.451  69.695  1.00  0.00     2.442 C  
HETATM    8  C   UNL     1     -12.996   7.109  69.098  1.00  0.00     5.165 C  
HETATM    9  C   UNL     1     -12.346  10.100  68.738  1.00  0.00     1.236 C  
HETATM   10  C   UNL     1     -11.967  15.220  73.486  1.00  0.00    -0.421 C  
HETATM   11  C   UNL     1     -12.248  13.987  74.239  1.00  0.00     2.503 C  
HETATM   12  H   UNL     1     -10.094   7.660  71.207  1.00  0.00     0.000 HD 
HETATM   13  C   UNL     1     -11.642  11.294  69.796  1.00  0.00    -0.333 C  
HETATM   14  C   UNL     1     -12.401  15.190  72.058  1.00  0.00    -0.429 C  
HETATM   15  O   UNL     1     -10.739  12.002  69.345  1.00  0.00    -0.089 OA 
HETATM   16  C   UNL     1      -9.978  12.512  72.347  1.00  0.00    18.025 C  
HETATM   17  C   UNL     1     -12.155  11.474  71.401  1.00  0.00     0.118 C  
HETATM   18  C   UNL     1     -12.257  10.103  72.327  1.00  0.00     0.419 C  
HETATM   19  C   UNL     1     -11.499  12.695  72.174  1.00  0.00     4.759 C  
HETATM   20  C   UNL     1     -11.756  14.012  71.334  1.00  0.00     0.253 C  
HETATM   21  C   UNL     1     -12.972  10.436  73.645  1.00  0.00     7.287 C  
HETATM   22  C   UNL     1     -12.267  11.542  74.417  1.00  0.00    19.042 C  
HETATM   23  C   UNL     1     -12.064  12.807  73.615  1.00  0.00     7.368 C  
ENDROOT
BRANCH   4  24
HETATM   24  C   UNL     1     -10.457   8.355  69.067  1.00  0.00    -0.201 C  
HETATM   25  O   UNL     1      -9.934   9.031  68.176  1.00  0.00    -0.161 OA 
BRANCH  24  26
HETATM   26  C   UNL     1     -10.112   6.842  69.031  1.00  0.00    -0.170 C  
BRANCH  26  27
HETATM   27  O   UNL     1     -10.291   6.250  70.346  1.00  0.00    -0.192 OA 
BRANCH  27  28
HETATM   28  C   UNL     1      -9.386   6.657  71.284  1.00  0.00    -0.158 C  
HETATM   29  C   UNL     1      -9.005   5.538  72.216  1.00  0.00    -0.143 C  
HETATM   30  O   UNL     1      -8.939   7.790  71.377  1.00  0.00    -0.130 OA 
ENDBRANCH  27  28
ENDBRANCH  26  27
ENDBRANCH  24  26
ENDBRANCH   4  24
TORSDOF 4
ENDMDL
MODEL      167
REMARK 921   NORMALIZED FREE ENERGY PREDICTED BY IDOCK:   70.99 KCAL/MOL
REMARK 922        TOTAL FREE ENERGY PREDICTED BY IDOCK:   87.81 KCAL/MOL
REMARK 923 INTER-LIGAND FREE ENERGY PREDICTED BY IDOCK:   64.83 KCAL/MOL
REMARK 924 INTRA-LIGAND FREE ENERGY PREDICTED BY IDOCK:   22.98 KCAL/MOL
REMARK 927      BINDING AFFINITY PREDICTED BY RF-SCORE:    0.00 PKD
ROOT
HETATM    1  C   UNL     1     -13.018   8.626  71.584  1.00  0.00    -0.377 C  
HETATM    2  C   UNL     1     -14.393   8.884  71.390  1.00  0.00    -0.204 C  
HETATM    3  C   UNL     1     -13.511   9.516  70.364  1.00  0.00     0.511 C  
HETATM    4  C   UNL     1     -11.525   8.947  70.303  1.00  0.00    -0.105 C  
HETATM    5  O   UNL     1     -11.501  16.221  73.972  1.00  0.00     0.436 OA 
HETATM    6  O   UNL     1     -11.002   7.932  71.240  1.00  0.00    -0.233 OA 
HETATM    7  C   UNL     1     -12.637   8.438  69.696  1.00  0.00     2.442 C  
HETATM    8  C   UNL     1     -12.991   7.089  69.110  1.00  0.00     5.179 C  
HETATM    9  C   UNL     1     -12.355  10.080  68.726  1.00  0.00     1.486 C  
HETATM   10  C   UNL     1     -11.996  15.240  73.432  1.00  0.00    -0.427 C  
HETATM   11  C   UNL     1     -12.271  14.012  74.195  1.00  0.00     2.143 C  
HETATM   12  H   UNL     1     -10.090   7.671  71.212  1.00  0.00     0.000 HD 
HETATM   13  C   UNL     1     -11.656  11.286  69.773  1.00  0.00    -0.333 C  
HETATM   14  C   UNL     1     -12.431  15.196  72.004  1.00  0.00    -0.414 C  
HETATM   15  O   UNL     1     -10.756  11.994  69.316  1.00  0.00    -0.146 OA 
HETATM   16  C   UNL     1      -9.996  12.533  72.313  1.00  0.00    17.272 C  
HETATM   17  C   UNL     1     -12.169  11.476  71.377  1.00  0.00    -0.086 C  
HETATM   18  C   UNL     1     -12.263  10.112  72.314  1.00  0.00     0.419 C  
HETATM   19  C   UNL     1     -11.518  12.707  72.140  1.00  0.00     4.759 C  
HETATM   20  C   UNL     1     -11.782  14.015  71.289  1.00  0.00     0.138 C  
HETATM   21  C   UNL     1     -12.979  10.452  73.631  1.00  0.00     7.287 C  
HETATM   22  C   UNL     1     -12.278  11.569  74.392  1.00  0.00    19.042 C  
HETATM   23  C   UNL     1     -12.082  12.828  73.581  1.00  0.00     7.368 C  
ENDROOT
BRANCH   4  24
HETATM   24  C   UNL     1     -10.458   8.347  69.067  1.00  0.00    -0.201 C  
HETATM   25  O   UNL     1     -10.663   7.366  68.347  1.00  0.00    -0.180 OA 
BRANCH  24  26
HETATM   26  C   UNL     1      -9.107   9.072  68.819  1.00  0.00    -0.137 C  
BRANCH  26  27
HETATM   27  O   UNL     1      -9.180  10.449  69.276  1.00  0.00    -0.194 OA 
BRANCH  27  28
HETATM   28  C   UNL     1      -9.998  11.254  68.535  1.00  0.00    -0.202 C  
HETATM   29  C   UNL     1      -9.443  12.647  68.406  1.00  0.00    -0.163 C  
HETATM   30  O   UNL     1     -11.059  10.906  68.041  1.00  0.00    -0.247 OA 
ENDBRANCH  27  28
ENDBRANCH  26  27
ENDBRANCH  24  26
ENDBRANCH   4  24
TORSDOF 4
ENDMDL
