MODEL        1
REMARK 921   NORMALIZED FREE ENERGY PREDICTED BY IDOCK:   -5.00 KCAL/MOL
REMARK 922        TOTAL FREE ENERGY PREDICTED BY IDOCK:   -5.42 KCAL/MOL
REMARK 923 INTER-LIGAND FREE ENERGY PREDICTED BY IDOCK:   -5.29 KCAL/MOL
REMARK 924 INTRA-LIGAND FREE ENERGY PREDICTED BY IDOCK:   -0.13 KCAL/MOL
REMARK 927      BINDING AFFINITY PREDICTED BY RF-SCORE:    0.00 PKD
ROOT
HETATM    1  C   UNL     1     -10.789  14.226  66.706  1.00  0.00    -0.298 C  
HETATM    2  N   UNL     1     -11.208  14.634  65.359  1.00  0.00    -0.334 NA 
HETATM    3  H1  UNL     1      -9.768  17.527  65.196  1.00  0.00     0.000 HD 
HETATM    4  C   UNL     1     -10.931  15.895  64.895  1.00  0.00    -0.411 C  
HETATM    5  N   UNL     1     -11.416  16.460  63.847  1.00  0.00    -1.618 NA 
HETATM    6  H2  UNL     1     -12.079  15.909  63.300  1.00  0.00     0.000 HD 
HETATM    7  N   UNL     1      -9.975  16.589  65.541  1.00  0.00    -0.567 NA 
HETATM    8  H2  UNL     1      -9.478  16.194  66.340  1.00  0.00     0.000 HD 
HETATM    9  H1  UNL     1     -11.210  17.397  63.502  1.00  0.00     0.000 HD 
ENDROOT
BRANCH   2  10
HETATM   10  C   UNL     1     -12.366  13.861  64.838  1.00  0.00    -0.420 C  
HETATM   11  C   UNL     1     -11.978  12.756  63.860  1.00  0.00    -0.480 C  
HETATM   12  O   UNL     1     -12.798  11.998  63.355  1.00  0.00    -0.760 OA 
HETATM   13  O   UNL     1     -10.660  12.675  63.576  1.00  0.00    -0.403 OA 
ENDBRANCH   2  10
TORSDOF 1
ENDMDL
MODEL        2
REMARK 921   NORMALIZED FREE ENERGY PREDICTED BY IDOCK:   -4.71 KCAL/MOL
REMARK 922        TOTAL FREE ENERGY PREDICTED BY IDOCK:   -5.11 KCAL/MOL
REMARK 923 INTER-LIGAND FREE ENERGY PREDICTED BY IDOCK:   -5.00 KCAL/MOL
REMARK 924 INTRA-LIGAND FREE ENERGY PREDICTED BY IDOCK:   -0.12 KCAL/MOL
REMARK 927      BINDING AFFINITY PREDICTED BY RF-SCORE:    0.00 PKD
ROOT
HETATM    1  C   UNL     1     -11.017  15.672  66.729  1.00  0.00    -0.230 C  
HETATM    2  N   UNL     1     -11.501  14.691  65.750  1.00  0.00    -0.344 NA 
HETATM    3  H1  UNL     1     -11.578  16.554  63.107  1.00  0.00     0.000 HD 
HETATM    4  C   UNL     1     -11.822  15.079  64.474  1.00  0.00    -0.371 C  
HETATM    5  N   UNL     1     -12.454  14.393  63.591  1.00  0.00    -1.086 NA 
HETATM    6  H2  UNL     1     -12.750  13.457  63.869  1.00  0.00     0.000 HD 
HETATM    7  N   UNL     1     -11.340  16.265  64.056  1.00  0.00    -1.475 NA 
HETATM    8  H2  UNL     1     -10.762  16.849  64.661  1.00  0.00     0.000 HD 
HETATM    9  H1  UNL     1     -12.692  14.682  62.641  1.00  0.00     0.000 HD 
ENDROOT
BRANCH   2  10
HETATM   10  C   UNL     1     -12.131  13.495  66.371  1.00  0.00    -0.417 C  
HETATM   11  C   UNL     1     -11.199  12.291  66.470  1.00  0.00    -0.324 C  
HETATM   12  O   UNL     1     -11.537  11.230  66.981  1.00  0.00    -0.496 OA 
HETATM   13  O   UNL     1      -9.968  12.470  65.941  1.00  0.00    -0.253 OA 
ENDBRANCH   2  10
TORSDOF 1
ENDMDL
MODEL        3
REMARK 921   NORMALIZED FREE ENERGY PREDICTED BY IDOCK:   -4.58 KCAL/MOL
REMARK 922        TOTAL FREE ENERGY PREDICTED BY IDOCK:   -4.97 KCAL/MOL
REMARK 923 INTER-LIGAND FREE ENERGY PREDICTED BY IDOCK:   -4.92 KCAL/MOL
REMARK 924 INTRA-LIGAND FREE ENERGY PREDICTED BY IDOCK:   -0.04 KCAL/MOL
REMARK 927      BINDING AFFINITY PREDICTED BY RF-SCORE:    0.00 PKD
ROOT
HETATM    1  C   UNL     1     -13.013  13.855  65.220  1.00  0.00    -0.297 C  
HETATM    2  N   UNL     1     -11.665  13.918  64.641  1.00  0.00    -0.378 NA 
HETATM    3  H1  UNL     1     -11.779  11.318  62.719  1.00  0.00     0.000 HD 
HETATM    4  C   UNL     1     -11.203  12.905  63.838  1.00  0.00    -0.423 C  
HETATM    5  N   UNL     1      -9.994  12.716  63.447  1.00  0.00    -0.645 NA 
HETATM    6  H2  UNL     1      -9.302  13.393  63.768  1.00  0.00     0.000 HD 
HETATM    7  N   UNL     1     -12.123  12.071  63.316  1.00  0.00    -0.761 NA 
HETATM    8  H2  UNL     1     -13.118  12.187  63.507  1.00  0.00     0.000 HD 
HETATM    9  H1  UNL     1      -9.651  11.963  62.850  1.00  0.00     0.000 HD 
ENDROOT
BRANCH   2  10
HETATM   10  C   UNL     1     -10.727  14.776  65.412  1.00  0.00    -0.371 C  
HETATM   11  C   UNL     1     -10.738  16.239  64.983  1.00  0.00    -0.298 C  
HETATM   12  O   UNL     1     -10.052  17.096  65.529  1.00  0.00    -0.576 OA 
HETATM   13  O   UNL     1     -11.553  16.529  63.945  1.00  0.00    -1.175 OA 
ENDBRANCH   2  10
TORSDOF 1
ENDMDL
MODEL        4
REMARK 921   NORMALIZED FREE ENERGY PREDICTED BY IDOCK:   -4.40 KCAL/MOL
REMARK 922        TOTAL FREE ENERGY PREDICTED BY IDOCK:   -4.78 KCAL/MOL
REMARK 923 INTER-LIGAND FREE ENERGY PREDICTED BY IDOCK:   -4.66 KCAL/MOL
REMARK 924 INTRA-LIGAND FREE ENERGY PREDICTED BY IDOCK:   -0.12 KCAL/MOL
REMARK 927      BINDING AFFINITY PREDICTED BY RF-SCORE:    0.00 PKD
ROOT
HETATM    1  C   UNL     1     -10.194  11.693  64.941  1.00  0.00    -0.270 C  
HETATM    2  N   UNL     1     -11.027  12.865  64.645  1.00  0.00    -0.314 NA 
HETATM    3  H1  UNL     1     -12.909  11.621  62.325  1.00  0.00     0.000 HD 
HETATM    4  C   UNL     1     -11.913  12.844  63.596  1.00  0.00    -0.541 C  
HETATM    5  N   UNL     1     -12.536  13.846  63.088  1.00  0.00    -1.079 NA 
HETATM    6  H2  UNL     1     -12.352  14.757  63.510  1.00  0.00     0.000 HD 
HETATM    7  N   UNL     1     -12.250  11.637  63.104  1.00  0.00    -0.966 NA 
HETATM    8  H2  UNL     1     -11.865  10.776  63.494  1.00  0.00     0.000 HD 
HETATM    9  H1  UNL     1     -13.194  13.831  62.308  1.00  0.00     0.000 HD 
ENDROOT
BRANCH   2  10
HETATM   10  C   UNL     1     -10.449  14.144  65.137  1.00  0.00    -0.402 C  
HETATM   11  C   UNL     1     -11.147  14.697  66.375  1.00  0.00    -0.334 C  
HETATM   12  O   UNL     1     -10.786  15.725  66.937  1.00  0.00    -0.315 OA 
HETATM   13  O   UNL     1     -12.205  13.979  66.810  1.00  0.00    -0.439 OA 
ENDBRANCH   2  10
TORSDOF 1
ENDMDL
MODEL        5
REMARK 921   NORMALIZED FREE ENERGY PREDICTED BY IDOCK:   -4.35 KCAL/MOL
REMARK 922        TOTAL FREE ENERGY PREDICTED BY IDOCK:   -4.73 KCAL/MOL
REMARK 923 INTER-LIGAND FREE ENERGY PREDICTED BY IDOCK:   -4.71 KCAL/MOL
REMARK 924 INTRA-LIGAND FREE ENERGY PREDICTED BY IDOCK:   -0.02 KCAL/MOL
REMARK 927      BINDING AFFINITY PREDICTED BY RF-SCORE:    0.00 PKD
ROOT
HETATM    1  C   UNL     1     -10.922  13.275  65.752  1.00  0.00    -0.270 C  
HETATM    2  N   UNL     1     -11.088  14.714  65.511  1.00  0.00    -0.331 NA 
HETATM    3  H1  UNL     1     -12.761  14.612  62.744  1.00  0.00     0.000 HD 
HETATM    4  C   UNL     1     -11.643  15.166  64.341  1.00  0.00    -0.271 C  
HETATM    5  N   UNL     1     -11.651  16.373  63.901  1.00  0.00    -1.602 NA 
HETATM    6  H2  UNL     1     -11.193  17.073  64.486  1.00  0.00     0.000 HD 
HETATM    7  N   UNL     1     -12.347  14.277  63.614  1.00  0.00    -1.109 NA 
HETATM    8  H2  UNL     1     -12.463  13.311  63.921  1.00  0.00     0.000 HD 
HETATM    9  H1  UNL     1     -12.064  16.709  63.030  1.00  0.00     0.000 HD 
ENDROOT
BRANCH   2  10
HETATM   10  C   UNL     1     -10.142  15.559  66.288  1.00  0.00    -0.295 C  
HETATM   11  C   UNL     1     -10.644  15.919  67.683  1.00  0.00    -0.307 C  
HETATM   12  O   UNL     1      -9.985  16.582  68.476  1.00  0.00    -0.232 OA 
HETATM   13  O   UNL     1     -11.880  15.465  67.986  1.00  0.00    -0.294 OA 
ENDBRANCH   2  10
TORSDOF 1
ENDMDL
MODEL        6
REMARK 921   NORMALIZED FREE ENERGY PREDICTED BY IDOCK:   -4.27 KCAL/MOL
REMARK 922        TOTAL FREE ENERGY PREDICTED BY IDOCK:   -4.65 KCAL/MOL
REMARK 923 INTER-LIGAND FREE ENERGY PREDICTED BY IDOCK:   -4.53 KCAL/MOL
REMARK 924 INTRA-LIGAND FREE ENERGY PREDICTED BY IDOCK:   -0.12 KCAL/MOL
REMARK 927      BINDING AFFINITY PREDICTED BY RF-SCORE:    0.00 PKD
ROOT
HETATM    1  C   UNL     1     -11.852  13.646  64.269  1.00  0.00    -0.425 C  
HETATM    2  N   UNL     1     -11.168  14.528  65.224  1.00  0.00    -0.336 NA 
HETATM    3  H1  UNL     1     -11.408  17.336  63.635  1.00  0.00     0.000 HD 
HETATM    4  C   UNL     1     -10.907  15.835  64.901  1.00  0.00    -0.413 C  
HETATM    5  N   UNL     1     -10.137  16.650  65.530  1.00  0.00    -0.590 NA 
HETATM    6  H2  UNL     1      -9.670  16.284  66.360  1.00  0.00     0.000 HD 
HETATM    7  N   UNL     1     -11.602  16.364  63.876  1.00  0.00    -1.602 NA 
HETATM    8  H2  UNL     1     -12.293  15.816  63.363  1.00  0.00     0.000 HD 
HETATM    9  H1  UNL     1      -9.943  17.623  65.289  1.00  0.00     0.000 HD 
ENDROOT
BRANCH   2  10
HETATM   10  C   UNL     1     -10.329  13.797  66.211  1.00  0.00    -0.294 C  
HETATM   11  C   UNL     1     -11.005  13.596  67.563  1.00  0.00    -0.268 C  
HETATM   12  O   UNL     1     -10.476  12.988  68.486  1.00  0.00    -0.249 OA 
HETATM   13  O   UNL     1     -12.234  14.146  67.681  1.00  0.00    -0.351 OA 
ENDBRANCH   2  10
TORSDOF 1
ENDMDL
MODEL        7
REMARK 921   NORMALIZED FREE ENERGY PREDICTED BY IDOCK:   -4.27 KCAL/MOL
REMARK 922        TOTAL FREE ENERGY PREDICTED BY IDOCK:   -4.64 KCAL/MOL
REMARK 923 INTER-LIGAND FREE ENERGY PREDICTED BY IDOCK:   -4.59 KCAL/MOL
REMARK 924 INTRA-LIGAND FREE ENERGY PREDICTED BY IDOCK:   -0.06 KCAL/MOL
REMARK 927      BINDING AFFINITY PREDICTED BY RF-SCORE:    0.00 PKD
ROOT
HETATM    1  C   UNL     1     -11.994  12.138  64.381  1.00  0.00    -0.361 C  
HETATM    2  N   UNL     1     -11.946  13.310  65.264  1.00  0.00    -0.364 NA 
HETATM    3  H1  UNL     1     -11.969  11.825  68.139  1.00  0.00     0.000 HD 
HETATM    4  C   UNL     1     -12.073  13.165  66.623  1.00  0.00    -0.346 C  
HETATM    5  N   UNL     1     -12.269  14.096  67.487  1.00  0.00    -0.578 NA 
HETATM    6  H2  UNL     1     -12.337  15.047  67.123  1.00  0.00     0.000 HD 
HETATM    7  N   UNL     1     -11.874  11.933  67.128  1.00  0.00    -0.620 NA 
HETATM    8  H2  UNL     1     -11.638  11.142  66.528  1.00  0.00     0.000 HD 
HETATM    9  H1  UNL     1     -12.364  13.988  68.497  1.00  0.00     0.000 HD 
ENDROOT
BRANCH   2  10
HETATM   10  C   UNL     1     -12.325  14.579  64.588  1.00  0.00    -0.403 C  
HETATM   11  C   UNL     1     -11.231  15.641  64.616  1.00  0.00    -0.369 C  
HETATM   12  O   UNL     1     -11.355  16.737  64.080  1.00  0.00    -1.194 OA 
HETATM   13  O   UNL     1     -10.109  15.295  65.284  1.00  0.00    -0.350 OA 
ENDBRANCH   2  10
TORSDOF 1
ENDMDL
MODEL        8
REMARK 921   NORMALIZED FREE ENERGY PREDICTED BY IDOCK:   -4.25 KCAL/MOL
REMARK 922        TOTAL FREE ENERGY PREDICTED BY IDOCK:   -4.62 KCAL/MOL
REMARK 923 INTER-LIGAND FREE ENERGY PREDICTED BY IDOCK:   -4.50 KCAL/MOL
REMARK 924 INTRA-LIGAND FREE ENERGY PREDICTED BY IDOCK:   -0.12 KCAL/MOL
REMARK 927      BINDING AFFINITY PREDICTED BY RF-SCORE:    0.00 PKD
ROOT
HETATM    1  C   UNL     1      -9.717  11.781  66.142  1.00  0.00    -0.229 C  
HETATM    2  N   UNL     1     -10.298  11.793  64.794  1.00  0.00    -0.274 NA 
HETATM    3  H1  UNL     1      -9.448   8.830  63.811  1.00  0.00     0.000 HD 
HETATM    4  C   UNL     1     -10.066  10.756  63.926  1.00  0.00    -0.333 C  
HETATM    5  N   UNL     1     -10.317  10.729  62.666  1.00  0.00    -0.759 NA 
HETATM    6  H2  UNL     1     -10.735  11.570  62.268  1.00  0.00     0.000 HD 
HETATM    7  N   UNL     1      -9.620   9.601  64.456  1.00  0.00    -0.431 NA 
HETATM    8  H2  UNL     1      -9.463   9.501  65.459  1.00  0.00     0.000 HD 
HETATM    9  H1  UNL     1     -10.144   9.958  62.020  1.00  0.00     0.000 HD 
ENDROOT
BRANCH   2  10
HETATM   10  C   UNL     1     -10.610  13.158  64.295  1.00  0.00    -0.412 C  
HETATM   11  C   UNL     1     -12.100  13.486  64.293  1.00  0.00    -0.431 C  
HETATM   12  O   UNL     1     -12.540  14.575  63.944  1.00  0.00    -0.827 OA 
HETATM   13  O   UNL     1     -12.911  12.482  64.694  1.00  0.00    -0.803 OA 
ENDBRANCH   2  10
TORSDOF 1
ENDMDL
MODEL        9
REMARK 921   NORMALIZED FREE ENERGY PREDICTED BY IDOCK:   -4.19 KCAL/MOL
REMARK 922        TOTAL FREE ENERGY PREDICTED BY IDOCK:   -4.56 KCAL/MOL
REMARK 923 INTER-LIGAND FREE ENERGY PREDICTED BY IDOCK:   -4.81 KCAL/MOL
REMARK 924 INTRA-LIGAND FREE ENERGY PREDICTED BY IDOCK:    0.25 KCAL/MOL
REMARK 927      BINDING AFFINITY PREDICTED BY RF-SCORE:    0.00 PKD
ROOT
HETATM    1  C   UNL     1     -10.422  14.409  64.975  1.00  0.00    -0.430 C  
HETATM    2  N   UNL     1     -10.694  13.103  64.362  1.00  0.00    -0.389 NA 
HETATM    3  H1  UNL     1     -13.235  13.887  62.519  1.00  0.00     0.000 HD 
HETATM    4  C   UNL     1     -11.805  12.918  63.578  1.00  0.00    -0.536 C  
HETATM    5  N   UNL     1     -12.284  11.800  63.164  1.00  0.00    -0.956 NA 
HETATM    6  H2  UNL     1     -11.784  10.958  63.449  1.00  0.00     0.000 HD 
HETATM    7  N   UNL     1     -12.409  14.024  63.101  1.00  0.00    -1.094 NA 
HETATM    8  H2  UNL     1     -12.056  14.957  63.313  1.00  0.00     0.000 HD 
HETATM    9  H1  UNL     1     -13.111  11.663  62.581  1.00  0.00     0.000 HD 
ENDROOT
BRANCH   2  10
HETATM   10  C   UNL     1     -10.067  11.966  65.086  1.00  0.00    -0.261 C  
HETATM   11  C   UNL     1     -10.904  11.440  66.248  1.00  0.00    -0.263 C  
HETATM   12  O   UNL     1     -10.559  10.487  66.937  1.00  0.00    -0.248 OA 
HETATM   13  O   UNL     1     -12.056  12.108  66.476  1.00  0.00    -0.627 OA 
ENDBRANCH   2  10
TORSDOF 1
ENDMDL
MODEL       10
REMARK 921   NORMALIZED FREE ENERGY PREDICTED BY IDOCK:   -4.17 KCAL/MOL
REMARK 922        TOTAL FREE ENERGY PREDICTED BY IDOCK:   -4.54 KCAL/MOL
REMARK 923 INTER-LIGAND FREE ENERGY PREDICTED BY IDOCK:   -4.42 KCAL/MOL
REMARK 924 INTRA-LIGAND FREE ENERGY PREDICTED BY IDOCK:   -0.12 KCAL/MOL
REMARK 927      BINDING AFFINITY PREDICTED BY RF-SCORE:    0.00 PKD
ROOT
HETATM    1  C   UNL     1     -11.776  13.042  66.648  1.00  0.00    -0.381 C  
HETATM    2  N   UNL     1     -11.109  13.407  65.391  1.00  0.00    -0.285 NA 
HETATM    3  H1  UNL     1     -10.497  10.452  64.225  1.00  0.00     0.000 HD 
HETATM    4  C   UNL     1     -10.538  12.443  64.600  1.00  0.00    -0.308 C  
HETATM    5  N   UNL     1      -9.744  12.625  63.606  1.00  0.00    -0.640 NA 
HETATM    6  H2  UNL     1      -9.514  13.593  63.381  1.00  0.00     0.000 HD 
HETATM    7  N   UNL     1     -10.922  11.169  64.813  1.00  0.00    -0.212 NA 
HETATM    8  H2  UNL     1     -11.606  10.932  65.531  1.00  0.00     0.000 HD 
HETATM    9  H1  UNL     1      -9.320  11.908  63.017  1.00  0.00     0.000 HD 
ENDROOT
BRANCH   2  10
HETATM   10  C   UNL     1     -10.621  14.811  65.364  1.00  0.00    -0.378 C  
HETATM   11  C   UNL     1     -11.472  15.741  64.505  1.00  0.00    -0.289 C  
HETATM   12  O   UNL     1     -11.238  16.939  64.391  1.00  0.00    -1.159 OA 
HETATM   13  O   UNL     1     -12.503  15.149  63.863  1.00  0.00    -0.768 OA 
ENDBRANCH   2  10
TORSDOF 1
ENDMDL
MODEL       11
REMARK 921   NORMALIZED FREE ENERGY PREDICTED BY IDOCK:   -4.17 KCAL/MOL
REMARK 922        TOTAL FREE ENERGY PREDICTED BY IDOCK:   -4.54 KCAL/MOL
REMARK 923 INTER-LIGAND FREE ENERGY PREDICTED BY IDOCK:   -4.53 KCAL/MOL
REMARK 924 INTRA-LIGAND FREE ENERGY PREDICTED BY IDOCK:   -0.01 KCAL/MOL
REMARK 927      BINDING AFFINITY PREDICTED BY RF-SCORE:    0.00 PKD
ROOT
HETATM    1  C   UNL     1      -9.776  14.224  66.329  1.00  0.00    -0.302 C  
HETATM    2  N   UNL     1     -10.478  15.407  65.815  1.00  0.00    -0.330 NA 
HETATM    3  H1  UNL     1     -11.967  14.090  63.263  1.00  0.00     0.000 HD 
HETATM    4  C   UNL     1     -11.156  15.353  64.624  1.00  0.00    -0.347 C  
HETATM    5  N   UNL     1     -11.621  16.344  63.951  1.00  0.00    -1.602 NA 
HETATM    6  H2  UNL     1     -11.469  17.272  64.346  1.00  0.00     0.000 HD 
HETATM    7  N   UNL     1     -11.462  14.131  64.148  1.00  0.00    -0.624 NA 
HETATM    8  H2  UNL     1     -11.201  13.283  64.652  1.00  0.00     0.000 HD 
HETATM    9  H1  UNL     1     -12.126  16.304  63.065  1.00  0.00     0.000 HD 
ENDROOT
BRANCH   2  10
HETATM   10  C   UNL     1      -9.932  16.690  66.331  1.00  0.00    -0.302 C  
HETATM   11  C   UNL     1     -10.527  17.119  67.668  1.00  0.00    -0.355 C  
HETATM   12  O   UNL     1     -10.174  18.133  68.259  1.00  0.00    -0.357 OA 
HETATM   13  O   UNL     1     -11.487  16.303  68.159  1.00  0.00    -0.309 OA 
ENDBRANCH   2  10
TORSDOF 1
ENDMDL
MODEL       12
REMARK 921   NORMALIZED FREE ENERGY PREDICTED BY IDOCK:   -4.16 KCAL/MOL
REMARK 922        TOTAL FREE ENERGY PREDICTED BY IDOCK:   -4.53 KCAL/MOL
REMARK 923 INTER-LIGAND FREE ENERGY PREDICTED BY IDOCK:   -4.46 KCAL/MOL
REMARK 924 INTRA-LIGAND FREE ENERGY PREDICTED BY IDOCK:   -0.06 KCAL/MOL
REMARK 927      BINDING AFFINITY PREDICTED BY RF-SCORE:    0.00 PKD
ROOT
HETATM    1  C   UNL     1     -10.342  14.097  64.916  1.00  0.00    -0.408 C  
HETATM    2  N   UNL     1     -10.845  12.866  64.293  1.00  0.00    -0.373 NA 
HETATM    3  H1  UNL     1     -13.287  14.093  62.562  1.00  0.00     0.000 HD 
HETATM    4  C   UNL     1     -11.998  12.882  63.550  1.00  0.00    -0.556 C  
HETATM    5  N   UNL     1     -12.668  11.866  63.137  1.00  0.00    -0.915 NA 
HETATM    6  H2  UNL     1     -12.302  10.948  63.389  1.00  0.00     0.000 HD 
HETATM    7  N   UNL     1     -12.430  14.081  63.115  1.00  0.00    -1.070 NA 
HETATM    8  H2  UNL     1     -11.922  14.939  63.328  1.00  0.00     0.000 HD 
HETATM    9  H1  UNL     1     -13.526  11.878  62.584  1.00  0.00     0.000 HD 
ENDROOT
BRANCH   2  10
HETATM   10  C   UNL     1     -10.387  11.627  64.974  1.00  0.00    -0.281 C  
HETATM   11  C   UNL     1      -9.559  10.705  64.084  1.00  0.00    -0.300 C  
HETATM   12  O   UNL     1      -9.072   9.655  64.485  1.00  0.00    -0.233 OA 
HETATM   13  O   UNL     1      -9.407  11.123  62.807  1.00  0.00    -0.327 OA 
ENDBRANCH   2  10
TORSDOF 1
ENDMDL
MODEL       13
REMARK 921   NORMALIZED FREE ENERGY PREDICTED BY IDOCK:   -4.02 KCAL/MOL
REMARK 922        TOTAL FREE ENERGY PREDICTED BY IDOCK:   -4.38 KCAL/MOL
REMARK 923 INTER-LIGAND FREE ENERGY PREDICTED BY IDOCK:   -4.46 KCAL/MOL
REMARK 924 INTRA-LIGAND FREE ENERGY PREDICTED BY IDOCK:    0.08 KCAL/MOL
REMARK 927      BINDING AFFINITY PREDICTED BY RF-SCORE:    0.00 PKD
ROOT
HETATM    1  C   UNL     1     -10.611  14.046  67.111  1.00  0.00    -0.274 C  
HETATM    2  N   UNL     1     -11.477  12.860  67.146  1.00  0.00    -0.316 NA 
HETATM    3  H1  UNL     1     -11.639  12.402  70.344  1.00  0.00     0.000 HD 
HETATM    4  C   UNL     1     -11.720  12.210  68.329  1.00  0.00    -0.342 C  
HETATM    5  N   UNL     1     -12.264  11.055  68.482  1.00  0.00    -0.781 NA 
HETATM    6  H2  UNL     1     -12.545  10.570  67.629  1.00  0.00     0.000 HD 
HETATM    7  N   UNL     1     -11.458  12.885  69.464  1.00  0.00    -0.424 NA 
HETATM    8  H2  UNL     1     -11.095  13.838  69.445  1.00  0.00     0.000 HD 
HETATM    9  H1  UNL     1     -12.445  10.572  69.362  1.00  0.00     0.000 HD 
ENDROOT
BRANCH   2  10
HETATM   10  C   UNL     1     -11.555  12.144  65.845  1.00  0.00    -0.364 C  
HETATM   11  C   UNL     1     -12.510  12.789  64.845  1.00  0.00    -0.497 C  
HETATM   12  O   UNL     1     -12.677  12.354  63.711  1.00  0.00    -0.693 OA 
HETATM   13  O   UNL     1     -13.173  13.875  65.300  1.00  0.00    -0.774 OA 
ENDBRANCH   2  10
TORSDOF 1
ENDMDL
MODEL       14
REMARK 921   NORMALIZED FREE ENERGY PREDICTED BY IDOCK:   -3.97 KCAL/MOL
REMARK 922        TOTAL FREE ENERGY PREDICTED BY IDOCK:   -4.33 KCAL/MOL
REMARK 923 INTER-LIGAND FREE ENERGY PREDICTED BY IDOCK:   -4.26 KCAL/MOL
REMARK 924 INTRA-LIGAND FREE ENERGY PREDICTED BY IDOCK:   -0.07 KCAL/MOL
REMARK 927      BINDING AFFINITY PREDICTED BY RF-SCORE:    0.00 PKD
ROOT
HETATM    1  C   UNL     1      -9.680  13.269  66.213  1.00  0.00    -0.268 C  
HETATM    2  N   UNL     1     -10.740  14.196  66.629  1.00  0.00    -0.287 NA 
HETATM    3  H1  UNL     1     -10.814  13.550  69.798  1.00  0.00     0.000 HD 
HETATM    4  C   UNL     1     -11.220  14.175  67.914  1.00  0.00    -0.279 C  
HETATM    5  N   UNL     1     -12.275  14.759  68.357  1.00  0.00    -0.605 NA 
HETATM    6  H2  UNL     1     -12.816  15.296  67.679  1.00  0.00     0.000 HD 
HETATM    7  N   UNL     1     -10.457  13.565  68.842  1.00  0.00    -0.385 NA 
HETATM    8  H2  UNL     1      -9.564  13.138  68.600  1.00  0.00     0.000 HD 
HETATM    9  H1  UNL     1     -12.632  14.743  69.314  1.00  0.00     0.000 HD 
ENDROOT
BRANCH   2  10
HETATM   10  C   UNL     1     -11.584  14.676  65.502  1.00  0.00    -0.335 C  
HETATM   11  C   UNL     1     -11.084  15.971  64.869  1.00  0.00    -0.370 C  
HETATM   12  O   UNL     1     -11.635  16.496  63.909  1.00  0.00    -1.175 OA 
HETATM   13  O   UNL     1      -9.989  16.511  65.449  1.00  0.00    -0.552 OA 
ENDBRANCH   2  10
TORSDOF 1
ENDMDL
MODEL       15
REMARK 921   NORMALIZED FREE ENERGY PREDICTED BY IDOCK:   -3.95 KCAL/MOL
REMARK 922        TOTAL FREE ENERGY PREDICTED BY IDOCK:   -4.30 KCAL/MOL
REMARK 923 INTER-LIGAND FREE ENERGY PREDICTED BY IDOCK:   -4.20 KCAL/MOL
REMARK 924 INTRA-LIGAND FREE ENERGY PREDICTED BY IDOCK:   -0.11 KCAL/MOL
REMARK 927      BINDING AFFINITY PREDICTED BY RF-SCORE:    0.00 PKD
ROOT
HETATM    1  C   UNL     1     -10.516  11.004  64.740  1.00  0.00    -0.316 C  
HETATM    2  N   UNL     1     -11.180  12.309  64.641  1.00  0.00    -0.305 NA 
HETATM    3  H1  UNL     1     -12.867  11.854  61.918  1.00  0.00     0.000 HD 
HETATM    4  C   UNL     1     -11.922  12.632  63.533  1.00  0.00    -0.548 C  
HETATM    5  N   UNL     1     -12.370  13.792  63.210  1.00  0.00    -1.124 NA 
HETATM    6  H2  UNL     1     -12.149  14.557  63.848  1.00  0.00     0.000 HD 
HETATM    7  N   UNL     1     -12.315  11.614  62.742  1.00  0.00    -0.607 NA 
HETATM    8  H2  UNL     1     -12.073  10.648  62.958  1.00  0.00     0.000 HD 
HETATM    9  H1  UNL     1     -12.921  14.032  62.386  1.00  0.00     0.000 HD 
ENDROOT
BRANCH   2  10
HETATM   10  C   UNL     1     -10.543  13.364  65.473  1.00  0.00    -0.290 C  
HETATM   11  C   UNL     1     -11.202  13.556  66.835  1.00  0.00    -0.311 C  
HETATM   12  O   UNL     1     -10.791  14.359  67.664  1.00  0.00    -0.265 OA 
HETATM   13  O   UNL     1     -12.286  12.782  67.064  1.00  0.00    -0.431 OA 
ENDBRANCH   2  10
TORSDOF 1
ENDMDL
MODEL       16
REMARK 921   NORMALIZED FREE ENERGY PREDICTED BY IDOCK:   -3.94 KCAL/MOL
REMARK 922        TOTAL FREE ENERGY PREDICTED BY IDOCK:   -4.29 KCAL/MOL
REMARK 923 INTER-LIGAND FREE ENERGY PREDICTED BY IDOCK:   -4.17 KCAL/MOL
REMARK 924 INTRA-LIGAND FREE ENERGY PREDICTED BY IDOCK:   -0.12 KCAL/MOL
REMARK 927      BINDING AFFINITY PREDICTED BY RF-SCORE:    0.00 PKD
ROOT
HETATM    1  C   UNL     1     -10.974  15.528  64.898  1.00  0.00    -0.436 C  
HETATM    2  N   UNL     1     -11.545  14.228  65.270  1.00  0.00    -0.336 NA 
HETATM    3  H1  UNL     1     -12.938  13.424  62.463  1.00  0.00     0.000 HD 
HETATM    4  C   UNL     1     -12.366  13.553  64.403  1.00  0.00    -0.337 C  
HETATM    5  N   UNL     1     -13.102  12.533  64.666  1.00  0.00    -0.837 NA 
HETATM    6  H2  UNL     1     -13.073  12.188  65.626  1.00  0.00     0.000 HD 
HETATM    7  N   UNL     1     -12.328  13.926  63.109  1.00  0.00    -1.106 NA 
HETATM    8  H2  UNL     1     -11.716  14.676  62.789  1.00  0.00     0.000 HD 
HETATM    9  H1  UNL     1     -13.713  12.031  64.021  1.00  0.00     0.000 HD 
ENDROOT
BRANCH   2  10
HETATM   10  C   UNL     1     -11.645  14.023  66.740  1.00  0.00    -0.386 C  
HETATM   11  C   UNL     1     -10.518  13.175  67.320  1.00  0.00    -0.243 C  
HETATM   12  O   UNL     1     -10.421  12.928  68.517  1.00  0.00    -0.247 OA 
HETATM   13  O   UNL     1      -9.631  12.700  66.418  1.00  0.00    -0.243 OA 
ENDBRANCH   2  10
TORSDOF 1
ENDMDL
MODEL       17
REMARK 921   NORMALIZED FREE ENERGY PREDICTED BY IDOCK:   -3.78 KCAL/MOL
REMARK 922        TOTAL FREE ENERGY PREDICTED BY IDOCK:   -4.13 KCAL/MOL
REMARK 923 INTER-LIGAND FREE ENERGY PREDICTED BY IDOCK:   -4.03 KCAL/MOL
REMARK 924 INTRA-LIGAND FREE ENERGY PREDICTED BY IDOCK:   -0.10 KCAL/MOL
REMARK 927      BINDING AFFINITY PREDICTED BY RF-SCORE:    0.00 PKD
ROOT
HETATM    1  C   UNL     1     -10.180  14.484  65.110  1.00  0.00    -0.389 C  
HETATM    2  N   UNL     1     -11.377  13.687  65.410  1.00  0.00    -0.298 NA 
HETATM    3  H1  UNL     1     -11.754  12.183  62.571  1.00  0.00     0.000 HD 
HETATM    4  C   UNL     1     -12.000  12.966  64.424  1.00  0.00    -0.395 C  
HETATM    5  N   UNL     1     -13.157  12.411  64.482  1.00  0.00    -0.815 NA 
HETATM    6  H2  UNL     1     -13.669  12.519  65.358  1.00  0.00     0.000 HD 
HETATM    7  N   UNL     1     -11.291  12.720  63.305  1.00  0.00    -0.761 NA 
HETATM    8  H2  UNL     1     -10.334  13.054  63.196  1.00  0.00     0.000 HD 
HETATM    9  H1  UNL     1     -13.620  11.874  63.748  1.00  0.00     0.000 HD 
ENDROOT
BRANCH   2  10
HETATM   10  C   UNL     1     -12.127  14.171  66.599  1.00  0.00    -0.451 C  
HETATM   11  C   UNL     1     -11.759  13.451  67.893  1.00  0.00    -0.361 C  
HETATM   12  O   UNL     1     -12.254  13.738  68.977  1.00  0.00    -0.343 OA 
HETATM   13  O   UNL     1     -10.851  12.458  67.761  1.00  0.00    -0.213 OA 
ENDBRANCH   2  10
TORSDOF 1
ENDMDL
MODEL       18
REMARK 921   NORMALIZED FREE ENERGY PREDICTED BY IDOCK:   -3.75 KCAL/MOL
REMARK 922        TOTAL FREE ENERGY PREDICTED BY IDOCK:   -4.09 KCAL/MOL
REMARK 923 INTER-LIGAND FREE ENERGY PREDICTED BY IDOCK:   -3.99 KCAL/MOL
REMARK 924 INTRA-LIGAND FREE ENERGY PREDICTED BY IDOCK:   -0.11 KCAL/MOL
REMARK 927      BINDING AFFINITY PREDICTED BY RF-SCORE:    0.00 PKD
ROOT
HETATM    1  C   UNL     1     -12.744   7.041  71.684  1.00  0.00    -0.377 C  
HETATM    2  N   UNL     1     -12.449   8.479  71.734  1.00  0.00    -0.324 NA 
HETATM    3  H1  UNL     1     -15.000   9.496  73.445  1.00  0.00     0.000 HD 
HETATM    4  C   UNL     1     -13.358   9.359  72.266  1.00  0.00    -0.461 C  
HETATM    5  N   UNL     1     -13.338  10.641  72.180  1.00  0.00    -0.580 NA 
HETATM    6  H2  UNL     1     -12.561  11.049  71.659  1.00  0.00     0.000 HD 
HETATM    7  N   UNL     1     -14.324   8.842  73.049  1.00  0.00    -1.154 NA 
HETATM    8  H2  UNL     1     -14.378   7.841  73.239  1.00  0.00     0.000 HD 
HETATM    9  H1  UNL     1     -14.014  11.295  72.575  1.00  0.00     0.000 HD 
ENDROOT
BRANCH   2  10
HETATM   10  C   UNL     1     -11.461   8.918  70.713  1.00  0.00    -0.275 C  
HETATM   11  C   UNL     1     -10.029   8.989  71.235  1.00  0.00    -0.311 C  
HETATM   12  O   UNL     1      -9.079   9.301  70.526  1.00  0.00    -0.221 OA 
HETATM   13  O   UNL     1      -9.878   8.693  72.545  1.00  0.00    -0.285 OA 
ENDBRANCH   2  10
TORSDOF 1
ENDMDL
MODEL       19
REMARK 921   NORMALIZED FREE ENERGY PREDICTED BY IDOCK:   -3.75 KCAL/MOL
REMARK 922        TOTAL FREE ENERGY PREDICTED BY IDOCK:   -4.09 KCAL/MOL
REMARK 923 INTER-LIGAND FREE ENERGY PREDICTED BY IDOCK:   -4.04 KCAL/MOL
REMARK 924 INTRA-LIGAND FREE ENERGY PREDICTED BY IDOCK:   -0.05 KCAL/MOL
REMARK 927      BINDING AFFINITY PREDICTED BY RF-SCORE:    0.00 PKD
ROOT
HETATM    1  C   UNL     1     -10.344  11.108  64.039  1.00  0.00    -0.376 C  
HETATM    2  N   UNL     1     -11.134  11.989  64.908  1.00  0.00    -0.309 NA 
HETATM    3  H1  UNL     1     -13.747  12.391  63.042  1.00  0.00     0.000 HD 
HETATM    4  C   UNL     1     -12.306  12.544  64.458  1.00  0.00    -0.467 C  
HETATM    5  N   UNL     1     -12.979  13.489  65.011  1.00  0.00    -0.735 NA 
HETATM    6  H2  UNL     1     -12.600  13.868  65.880  1.00  0.00     0.000 HD 
HETATM    7  N   UNL     1     -12.875  11.979  63.376  1.00  0.00    -0.784 NA 
HETATM    8  H2  UNL     1     -12.455  11.174  62.913  1.00  0.00     0.000 HD 
HETATM    9  H1  UNL     1     -13.850  13.901  64.677  1.00  0.00     0.000 HD 
ENDROOT
BRANCH   2  10
HETATM   10  C   UNL     1     -10.332  12.646  65.974  1.00  0.00    -0.270 C  
HETATM   11  C   UNL     1     -10.822  12.344  67.386  1.00  0.00    -0.238 C  
HETATM   12  O   UNL     1     -10.264  12.774  68.389  1.00  0.00    -0.234 OA 
HETATM   13  O   UNL     1     -11.929  11.572  67.460  1.00  0.00    -0.629 OA 
ENDBRANCH   2  10
TORSDOF 1
ENDMDL
MODEL       20
REMARK 921   NORMALIZED FREE ENERGY PREDICTED BY IDOCK:   -3.73 KCAL/MOL
REMARK 922        TOTAL FREE ENERGY PREDICTED BY IDOCK:   -4.08 KCAL/MOL
REMARK 923 INTER-LIGAND FREE ENERGY PREDICTED BY IDOCK:   -4.02 KCAL/MOL
REMARK 924 INTRA-LIGAND FREE ENERGY PREDICTED BY IDOCK:   -0.06 KCAL/MOL
REMARK 927      BINDING AFFINITY PREDICTED BY RF-SCORE:    0.00 PKD
ROOT
HETATM    1  C   UNL     1      -7.611  18.497  65.969  1.00  0.00    -0.197 C  
HETATM    2  N   UNL     1      -9.042  18.342  66.262  1.00  0.00    -0.459 NA 
HETATM    3  H1  UNL     1      -9.769  21.394  67.050  1.00  0.00     0.000 HD 
HETATM    4  C   UNL     1      -9.765  19.386  66.781  1.00  0.00    -0.350 C  
HETATM    5  N   UNL     1     -10.946  19.337  67.285  1.00  0.00    -0.445 NA 
HETATM    6  H2  UNL     1     -11.395  18.421  67.300  1.00  0.00     0.000 HD 
HETATM    7  N   UNL     1      -9.231  20.618  66.664  1.00  0.00    -0.612 NA 
HETATM    8  H2  UNL     1      -8.331  20.767  66.210  1.00  0.00     0.000 HD 
HETATM    9  H1  UNL     1     -11.483  20.114  67.671  1.00  0.00     0.000 HD 
ENDROOT
BRANCH   2  10
HETATM   10  C   UNL     1      -9.449  16.932  66.501  1.00  0.00    -0.276 C  
HETATM   11  C   UNL     1     -10.511  16.425  65.530  1.00  0.00    -0.330 C  
HETATM   12  O   UNL     1     -10.943  15.279  65.557  1.00  0.00    -0.336 OA 
HETATM   13  O   UNL     1     -10.956  17.336  64.636  1.00  0.00    -1.013 OA 
ENDBRANCH   2  10
TORSDOF 1
ENDMDL
MODEL       21
REMARK 921   NORMALIZED FREE ENERGY PREDICTED BY IDOCK:   -3.71 KCAL/MOL
REMARK 922        TOTAL FREE ENERGY PREDICTED BY IDOCK:   -4.05 KCAL/MOL
REMARK 923 INTER-LIGAND FREE ENERGY PREDICTED BY IDOCK:   -4.05 KCAL/MOL
REMARK 924 INTRA-LIGAND FREE ENERGY PREDICTED BY IDOCK:   -0.00 KCAL/MOL
REMARK 927      BINDING AFFINITY PREDICTED BY RF-SCORE:    0.00 PKD
ROOT
HETATM    1  C   UNL     1      -9.759  15.583  65.834  1.00  0.00    -0.357 C  
HETATM    2  N   UNL     1     -10.991  14.911  66.265  1.00  0.00    -0.335 NA 
HETATM    3  H1  UNL     1     -11.246  16.113  69.258  1.00  0.00     0.000 HD 
HETATM    4  C   UNL     1     -11.429  15.022  67.561  1.00  0.00    -0.328 C  
HETATM    5  N   UNL     1     -12.348  14.328  68.131  1.00  0.00    -0.565 NA 
HETATM    6  H2  UNL     1     -12.801  13.616  67.557  1.00  0.00     0.000 HD 
HETATM    7  N   UNL     1     -10.920  16.030  68.295  1.00  0.00    -0.321 NA 
HETATM    8  H2  UNL     1     -10.240  16.682  67.905  1.00  0.00     0.000 HD 
HETATM    9  H1  UNL     1     -12.674  14.411  69.095  1.00  0.00     0.000 HD 
ENDROOT
BRANCH   2  10
HETATM   10  C   UNL     1     -11.347  13.731  65.433  1.00  0.00    -0.308 C  
HETATM   11  C   UNL     1     -12.146  14.080  64.182  1.00  0.00    -0.422 C  
HETATM   12  O   UNL     1     -12.499  13.240  63.363  1.00  0.00    -0.741 OA 
HETATM   13  O   UNL     1     -12.453  15.389  64.040  1.00  0.00    -0.676 OA 
ENDBRANCH   2  10
TORSDOF 1
ENDMDL
MODEL       22
REMARK 921   NORMALIZED FREE ENERGY PREDICTED BY IDOCK:   -3.68 KCAL/MOL
REMARK 922        TOTAL FREE ENERGY PREDICTED BY IDOCK:   -4.02 KCAL/MOL
REMARK 923 INTER-LIGAND FREE ENERGY PREDICTED BY IDOCK:   -3.95 KCAL/MOL
REMARK 924 INTRA-LIGAND FREE ENERGY PREDICTED BY IDOCK:   -0.07 KCAL/MOL
REMARK 927      BINDING AFFINITY PREDICTED BY RF-SCORE:    0.00 PKD
ROOT
HETATM    1  C   UNL     1     -10.876   9.566  71.104  1.00  0.00    -0.355 C  
HETATM    2  N   UNL     1     -11.893   8.835  71.870  1.00  0.00    -0.341 NA 
HETATM    3  H1  UNL     1     -14.265  11.035  71.859  1.00  0.00     0.000 HD 
HETATM    4  C   UNL     1     -13.062   9.450  72.241  1.00  0.00    -0.428 C  
HETATM    5  N   UNL     1     -13.932   9.020  73.083  1.00  0.00    -1.215 NA 
HETATM    6  H2  UNL     1     -13.731   8.122  73.525  1.00  0.00     0.000 HD 
HETATM    7  N   UNL     1     -13.396  10.578  71.583  1.00  0.00    -0.359 NA 
HETATM    8  H2  UNL     1     -12.805  10.957  70.843  1.00  0.00     0.000 HD 
HETATM    9  H1  UNL     1     -14.801   9.477  73.358  1.00  0.00     0.000 HD 
ENDROOT
BRANCH   2  10
HETATM   10  C   UNL     1     -11.343   7.696  72.652  1.00  0.00    -0.370 C  
HETATM   11  C   UNL     1     -11.346   6.372  71.895  1.00  0.00    -0.293 C  
HETATM   12  O   UNL     1     -10.902   5.333  72.371  1.00  0.00    -0.223 OA 
HETATM   13  O   UNL     1     -11.887   6.417  70.657  1.00  0.00    -0.367 OA 
ENDBRANCH   2  10
TORSDOF 1
ENDMDL
MODEL       23
REMARK 921   NORMALIZED FREE ENERGY PREDICTED BY IDOCK:   -3.67 KCAL/MOL
REMARK 922        TOTAL FREE ENERGY PREDICTED BY IDOCK:   -4.01 KCAL/MOL
REMARK 923 INTER-LIGAND FREE ENERGY PREDICTED BY IDOCK:   -4.33 KCAL/MOL
REMARK 924 INTRA-LIGAND FREE ENERGY PREDICTED BY IDOCK:    0.32 KCAL/MOL
REMARK 927      BINDING AFFINITY PREDICTED BY RF-SCORE:    0.00 PKD
ROOT
HETATM    1  C   UNL     1     -10.302  17.480  66.030  1.00  0.00    -0.306 C  
HETATM    2  N   UNL     1     -10.076  16.103  65.574  1.00  0.00    -0.503 NA 
HETATM    3  H1  UNL     1     -12.332  15.919  63.262  1.00  0.00     0.000 HD 
HETATM    4  C   UNL     1     -10.920  15.523  64.660  1.00  0.00    -0.322 C  
HETATM    5  N   UNL     1     -10.980  14.280  64.339  1.00  0.00    -0.610 NA 
HETATM    6  H2  UNL     1     -10.329  13.656  64.817  1.00  0.00     0.000 HD 
HETATM    7  N   UNL     1     -11.705  16.350  63.942  1.00  0.00    -1.527 NA 
HETATM    8  H2  UNL     1     -11.673  17.361  64.072  1.00  0.00     0.000 HD 
HETATM    9  H1  UNL     1     -11.607  13.850  63.659  1.00  0.00     0.000 HD 
ENDROOT
BRANCH   2  10
HETATM   10  C   UNL     1      -9.308  15.276  66.542  1.00  0.00    -0.281 C  
HETATM   11  C   UNL     1     -10.134  14.794  67.730  1.00  0.00    -0.224 C  
HETATM   12  O   UNL     1      -9.675  14.076  68.611  1.00  0.00    -0.223 OA 
HETATM   13  O   UNL     1     -11.415  15.224  67.754  1.00  0.00    -0.335 OA 
ENDBRANCH   2  10
TORSDOF 1
ENDMDL
MODEL       24
REMARK 921   NORMALIZED FREE ENERGY PREDICTED BY IDOCK:   -3.66 KCAL/MOL
REMARK 922        TOTAL FREE ENERGY PREDICTED BY IDOCK:   -4.00 KCAL/MOL
REMARK 923 INTER-LIGAND FREE ENERGY PREDICTED BY IDOCK:   -4.43 KCAL/MOL
REMARK 924 INTRA-LIGAND FREE ENERGY PREDICTED BY IDOCK:    0.43 KCAL/MOL
REMARK 927      BINDING AFFINITY PREDICTED BY RF-SCORE:    0.00 PKD
ROOT
HETATM    1  C   UNL     1     -11.144  13.621  66.796  1.00  0.00    -0.307 C  
HETATM    2  N   UNL     1     -11.388  14.297  65.515  1.00  0.00    -0.318 NA 
HETATM    3  H1  UNL     1     -13.738  12.408  64.343  1.00  0.00     0.000 HD 
HETATM    4  C   UNL     1     -12.242  13.752  64.590  1.00  0.00    -0.406 C  
HETATM    5  N   UNL     1     -12.383  14.104  63.363  1.00  0.00    -1.144 NA 
HETATM    6  H2  UNL     1     -11.795  14.874  63.041  1.00  0.00     0.000 HD 
HETATM    7  N   UNL     1     -13.102  12.813  65.030  1.00  0.00    -0.770 NA 
HETATM    8  H2  UNL     1     -13.118  12.521  66.007  1.00  0.00     0.000 HD 
HETATM    9  H1  UNL     1     -13.019  13.699  62.675  1.00  0.00     0.000 HD 
ENDROOT
BRANCH   2  10
HETATM   10  C   UNL     1     -10.281  15.200  65.101  1.00  0.00    -0.351 C  
HETATM   11  C   UNL     1     -10.035  16.355  66.065  1.00  0.00    -0.345 C  
HETATM   12  O   UNL     1      -9.143  17.180  65.901  1.00  0.00    -0.513 OA 
HETATM   13  O   UNL     1     -10.881  16.417  67.118  1.00  0.00    -0.279 OA 
ENDBRANCH   2  10
TORSDOF 1
ENDMDL
MODEL       25
REMARK 921   NORMALIZED FREE ENERGY PREDICTED BY IDOCK:   -3.65 KCAL/MOL
REMARK 922        TOTAL FREE ENERGY PREDICTED BY IDOCK:   -3.99 KCAL/MOL
REMARK 923 INTER-LIGAND FREE ENERGY PREDICTED BY IDOCK:   -3.88 KCAL/MOL
REMARK 924 INTRA-LIGAND FREE ENERGY PREDICTED BY IDOCK:   -0.12 KCAL/MOL
REMARK 927      BINDING AFFINITY PREDICTED BY RF-SCORE:    0.00 PKD
ROOT
HETATM    1  C   UNL     1     -11.749  14.810  67.763  1.00  0.00    -0.343 C  
HETATM    2  N   UNL     1     -11.037  13.970  66.792  1.00  0.00    -0.301 NA 
HETATM    3  H1  UNL     1      -9.057  12.381  68.797  1.00  0.00     0.000 HD 
HETATM    4  C   UNL     1      -9.974  13.197  67.185  1.00  0.00    -0.236 C  
HETATM    5  N   UNL     1      -9.131  12.593  66.426  1.00  0.00    -0.398 NA 
HETATM    6  H2  UNL     1      -9.268  12.700  65.421  1.00  0.00     0.000 HD 
HETATM    7  N   UNL     1      -9.848  12.955  68.505  1.00  0.00    -0.357 NA 
HETATM    8  H2  UNL     1     -10.514  13.329  69.180  1.00  0.00     0.000 HD 
HETATM    9  H1  UNL     1      -8.340  12.019  66.719  1.00  0.00     0.000 HD 
ENDROOT
BRANCH   2  10
HETATM   10  C   UNL     1     -11.162  14.448  65.389  1.00  0.00    -0.335 C  
HETATM   11  C   UNL     1     -12.242  13.728  64.588  1.00  0.00    -0.406 C  
HETATM   12  O   UNL     1     -12.507  14.012  63.426  1.00  0.00    -0.826 OA 
HETATM   13  O   UNL     1     -12.887  12.741  65.248  1.00  0.00    -0.674 OA 
ENDBRANCH   2  10
TORSDOF 1
ENDMDL
MODEL       26
REMARK 921   NORMALIZED FREE ENERGY PREDICTED BY IDOCK:   -3.64 KCAL/MOL
REMARK 922        TOTAL FREE ENERGY PREDICTED BY IDOCK:   -3.98 KCAL/MOL
REMARK 923 INTER-LIGAND FREE ENERGY PREDICTED BY IDOCK:   -3.85 KCAL/MOL
REMARK 924 INTRA-LIGAND FREE ENERGY PREDICTED BY IDOCK:   -0.13 KCAL/MOL
REMARK 927      BINDING AFFINITY PREDICTED BY RF-SCORE:    0.00 PKD
ROOT
HETATM    1  C   UNL     1     -12.631  11.972  63.386  1.00  0.00    -0.469 C  
HETATM    2  N   UNL     1     -11.436  12.157  64.220  1.00  0.00    -0.346 NA 
HETATM    3  H1  UNL     1      -9.319  10.384  62.534  1.00  0.00     0.000 HD 
HETATM    4  C   UNL     1     -10.286  11.457  63.955  1.00  0.00    -0.379 C  
HETATM    5  N   UNL     1      -9.253  11.348  64.711  1.00  0.00    -0.398 NA 
HETATM    6  H2  UNL     1      -9.293  11.835  65.607  1.00  0.00     0.000 HD 
HETATM    7  N   UNL     1     -10.174  10.904  62.732  1.00  0.00    -0.763 NA 
HETATM    8  H2  UNL     1     -10.911  11.001  62.033  1.00  0.00     0.000 HD 
HETATM    9  H1  UNL     1      -8.398  10.828  64.514  1.00  0.00     0.000 HD 
ENDROOT
BRANCH   2  10
HETATM   10  C   UNL     1     -11.740  12.645  65.591  1.00  0.00    -0.412 C  
HETATM   11  C   UNL     1     -11.438  14.126  65.797  1.00  0.00    -0.327 C  
HETATM   12  O   UNL     1     -11.655  14.707  66.854  1.00  0.00    -0.361 OA 
HETATM   13  O   UNL     1     -10.899  14.758  64.731  1.00  0.00    -0.399 OA 
ENDBRANCH   2  10
TORSDOF 1
ENDMDL
MODEL       27
REMARK 921   NORMALIZED FREE ENERGY PREDICTED BY IDOCK:   -3.64 KCAL/MOL
REMARK 922        TOTAL FREE ENERGY PREDICTED BY IDOCK:   -3.97 KCAL/MOL
REMARK 923 INTER-LIGAND FREE ENERGY PREDICTED BY IDOCK:   -3.89 KCAL/MOL
REMARK 924 INTRA-LIGAND FREE ENERGY PREDICTED BY IDOCK:   -0.08 KCAL/MOL
REMARK 927      BINDING AFFINITY PREDICTED BY RF-SCORE:    0.00 PKD
ROOT
HETATM    1  C   UNL     1     -10.271  12.306  66.381  1.00  0.00    -0.225 C  
HETATM    2  N   UNL     1     -10.734  13.268  65.373  1.00  0.00    -0.290 NA 
HETATM    3  H1  UNL     1      -8.721  15.722  66.000  1.00  0.00     0.000 HD 
HETATM    4  C   UNL     1     -10.239  14.548  65.351  1.00  0.00    -0.389 C  
HETATM    5  N   UNL     1     -10.699  15.546  64.685  1.00  0.00    -0.673 NA 
HETATM    6  H2  UNL     1     -11.522  15.367  64.109  1.00  0.00     0.000 HD 
HETATM    7  N   UNL     1      -9.089  14.771  66.016  1.00  0.00    -0.502 NA 
HETATM    8  H2  UNL     1      -8.607  14.022  66.513  1.00  0.00     0.000 HD 
HETATM    9  H1  UNL     1     -10.330  16.498  64.669  1.00  0.00     0.000 HD 
ENDROOT
BRANCH   2  10
HETATM   10  C   UNL     1     -12.083  12.957  64.831  1.00  0.00    -0.432 C  
HETATM   11  C   UNL     1     -12.056  12.114  63.561  1.00  0.00    -0.550 C  
HETATM   12  O   UNL     1     -13.074  11.735  62.993  1.00  0.00    -0.508 OA 
HETATM   13  O   UNL     1     -10.824  11.817  63.092  1.00  0.00    -0.323 OA 
ENDBRANCH   2  10
TORSDOF 1
ENDMDL
MODEL       28
REMARK 921   NORMALIZED FREE ENERGY PREDICTED BY IDOCK:   -3.63 KCAL/MOL
REMARK 922        TOTAL FREE ENERGY PREDICTED BY IDOCK:   -3.97 KCAL/MOL
REMARK 923 INTER-LIGAND FREE ENERGY PREDICTED BY IDOCK:   -3.94 KCAL/MOL
REMARK 924 INTRA-LIGAND FREE ENERGY PREDICTED BY IDOCK:   -0.03 KCAL/MOL
REMARK 927      BINDING AFFINITY PREDICTED BY RF-SCORE:    0.00 PKD
ROOT
HETATM    1  C   UNL     1     -13.800  13.541  72.450  1.00  0.00    -0.586 C  
HETATM    2  N   UNL     1     -12.997  14.746  72.201  1.00  0.00    -0.319 NA 
HETATM    3  H1  UNL     1     -12.196  15.501  75.244  1.00  0.00     0.000 HD 
HETATM    4  C   UNL     1     -12.542  15.508  73.247  1.00  0.00    -0.499 C  
HETATM    5  N   UNL     1     -12.028  16.684  73.183  1.00  0.00    -0.423 NA 
HETATM    6  H2  UNL     1     -11.950  17.096  72.253  1.00  0.00     0.000 HD 
HETATM    7  N   UNL     1     -12.535  14.934  74.466  1.00  0.00    -0.666 NA 
HETATM    8  H2  UNL     1     -12.853  13.975  74.605  1.00  0.00     0.000 HD 
HETATM    9  H1  UNL     1     -11.690  17.251  73.961  1.00  0.00     0.000 HD 
ENDROOT
BRANCH   2  10
HETATM   10  C   UNL     1     -13.220  15.340  70.857  1.00  0.00    -0.450 C  
HETATM   11  C   UNL     1     -11.948  15.480  70.028  1.00  0.00    -0.364 C  
HETATM   12  O   UNL     1     -11.945  15.921  68.884  1.00  0.00    -0.370 OA 
HETATM   13  O   UNL     1     -10.811  15.093  70.647  1.00  0.00    -0.263 OA 
ENDBRANCH   2  10
TORSDOF 1
ENDMDL
MODEL       29
REMARK 921   NORMALIZED FREE ENERGY PREDICTED BY IDOCK:   -3.63 KCAL/MOL
REMARK 922        TOTAL FREE ENERGY PREDICTED BY IDOCK:   -3.96 KCAL/MOL
REMARK 923 INTER-LIGAND FREE ENERGY PREDICTED BY IDOCK:   -3.93 KCAL/MOL
REMARK 924 INTRA-LIGAND FREE ENERGY PREDICTED BY IDOCK:   -0.04 KCAL/MOL
REMARK 927      BINDING AFFINITY PREDICTED BY RF-SCORE:    0.00 PKD
ROOT
HETATM    1  C   UNL     1      -9.340  12.865  66.907  1.00  0.00    -0.240 C  
HETATM    2  N   UNL     1     -10.679  12.325  67.176  1.00  0.00    -0.228 NA 
HETATM    3  H1  UNL     1     -10.044  10.598  69.837  1.00  0.00     0.000 HD 
HETATM    4  C   UNL     1     -10.871  11.398  68.169  1.00  0.00    -0.213 C  
HETATM    5  N   UNL     1     -11.920  10.685  68.373  1.00  0.00    -0.811 NA 
HETATM    6  H2  UNL     1     -12.696  10.824  67.724  1.00  0.00     0.000 HD 
HETATM    7  N   UNL     1      -9.901  11.287  69.098  1.00  0.00    -0.416 NA 
HETATM    8  H2  UNL     1      -9.062  11.866  69.064  1.00  0.00     0.000 HD 
HETATM    9  H1  UNL     1     -12.063   9.996  69.112  1.00  0.00     0.000 HD 
ENDROOT
BRANCH   2  10
HETATM   10  C   UNL     1     -11.594  12.398  66.006  1.00  0.00    -0.401 C  
HETATM   11  C   UNL     1     -12.367  13.709  65.910  1.00  0.00    -0.471 C  
HETATM   12  O   UNL     1     -13.143  13.958  64.995  1.00  0.00    -0.749 OA 
HETATM   13  O   UNL     1     -12.146  14.583  66.918  1.00  0.00    -0.399 OA 
ENDBRANCH   2  10
TORSDOF 1
ENDMDL
MODEL       30
REMARK 921   NORMALIZED FREE ENERGY PREDICTED BY IDOCK:   -3.62 KCAL/MOL
REMARK 922        TOTAL FREE ENERGY PREDICTED BY IDOCK:   -3.95 KCAL/MOL
REMARK 923 INTER-LIGAND FREE ENERGY PREDICTED BY IDOCK:   -3.83 KCAL/MOL
REMARK 924 INTRA-LIGAND FREE ENERGY PREDICTED BY IDOCK:   -0.13 KCAL/MOL
REMARK 927      BINDING AFFINITY PREDICTED BY RF-SCORE:    0.00 PKD
ROOT
HETATM    1  C   UNL     1     -10.667  13.304  64.579  1.00  0.00    -0.411 C  
HETATM    2  N   UNL     1     -10.930  14.168  65.736  1.00  0.00    -0.296 NA 
HETATM    3  H1  UNL     1     -12.647  12.124  67.563  1.00  0.00     0.000 HD 
HETATM    4  C   UNL     1     -11.765  13.753  66.742  1.00  0.00    -0.391 C  
HETATM    5  N   UNL     1     -12.256  14.470  67.689  1.00  0.00    -0.614 NA 
HETATM    6  H2  UNL     1     -11.995  15.456  67.693  1.00  0.00     0.000 HD 
HETATM    7  N   UNL     1     -12.026  12.433  66.815  1.00  0.00    -0.588 NA 
HETATM    8  H2  UNL     1     -11.621  11.773  66.152  1.00  0.00     0.000 HD 
HETATM    9  H1  UNL     1     -12.877  14.160  68.437  1.00  0.00     0.000 HD 
ENDROOT
BRANCH   2  10
HETATM   10  C   UNL     1     -10.726  15.614  65.455  1.00  0.00    -0.408 C  
HETATM   11  C   UNL     1      -9.402  16.162  65.977  1.00  0.00    -0.333 C  
HETATM   12  O   UNL     1      -9.051  17.324  65.809  1.00  0.00    -0.523 OA 
HETATM   13  O   UNL     1      -8.639  15.275  66.653  1.00  0.00    -0.262 OA 
ENDBRANCH   2  10
TORSDOF 1
ENDMDL
MODEL       31
REMARK 921   NORMALIZED FREE ENERGY PREDICTED BY IDOCK:   -3.57 KCAL/MOL
REMARK 922        TOTAL FREE ENERGY PREDICTED BY IDOCK:   -3.90 KCAL/MOL
REMARK 923 INTER-LIGAND FREE ENERGY PREDICTED BY IDOCK:   -3.84 KCAL/MOL
REMARK 924 INTRA-LIGAND FREE ENERGY PREDICTED BY IDOCK:   -0.06 KCAL/MOL
REMARK 927      BINDING AFFINITY PREDICTED BY RF-SCORE:    0.00 PKD
ROOT
HETATM    1  C   UNL     1     -12.012  15.123  69.544  1.00  0.00    -0.321 C  
HETATM    2  N   UNL     1     -12.553  14.506  70.762  1.00  0.00    -0.331 NA 
HETATM    3  H1  UNL     1     -11.686  11.432  70.244  1.00  0.00     0.000 HD 
HETATM    4  C   UNL     1     -12.535  13.143  70.920  1.00  0.00    -0.323 C  
HETATM    5  N   UNL     1     -13.158  12.458  71.811  1.00  0.00    -0.399 NA 
HETATM    6  H2  UNL     1     -13.728  12.985  72.473  1.00  0.00     0.000 HD 
HETATM    7  N   UNL     1     -11.699  12.446  70.126  1.00  0.00    -0.534 NA 
HETATM    8  H2  UNL     1     -11.106  12.910  69.439  1.00  0.00     0.000 HD 
HETATM    9  H1  UNL     1     -13.144  11.444  71.928  1.00  0.00     0.000 HD 
ENDROOT
BRANCH   2  10
HETATM   10  C   UNL     1     -13.567  15.346  71.452  1.00  0.00    -0.518 C  
HETATM   11  C   UNL     1     -13.179  15.733  72.875  1.00  0.00    -0.545 C  
HETATM   12  O   UNL     1     -13.878  16.448  73.584  1.00  0.00    -0.438 OA 
HETATM   13  O   UNL     1     -12.007  15.222  73.312  1.00  0.00    -0.430 OA 
ENDBRANCH   2  10
TORSDOF 1
ENDMDL
MODEL       32
REMARK 921   NORMALIZED FREE ENERGY PREDICTED BY IDOCK:   -3.55 KCAL/MOL
REMARK 922        TOTAL FREE ENERGY PREDICTED BY IDOCK:   -3.88 KCAL/MOL
REMARK 923 INTER-LIGAND FREE ENERGY PREDICTED BY IDOCK:   -3.80 KCAL/MOL
REMARK 924 INTRA-LIGAND FREE ENERGY PREDICTED BY IDOCK:   -0.08 KCAL/MOL
REMARK 927      BINDING AFFINITY PREDICTED BY RF-SCORE:    0.00 PKD
ROOT
HETATM    1  C   UNL     1     -10.092  18.035  68.680  1.00  0.00    -0.394 C  
HETATM    2  N   UNL     1      -9.529  18.600  67.448  1.00  0.00    -0.294 NA 
HETATM    3  H1  UNL     1      -7.051  20.264  68.697  1.00  0.00     0.000 HD 
HETATM    4  C   UNL     1      -8.506  19.513  67.503  1.00  0.00    -0.302 C  
HETATM    5  N   UNL     1      -8.068  20.247  66.543  1.00  0.00    -0.484 NA 
HETATM    6  H2  UNL     1      -8.532  20.138  65.641  1.00  0.00     0.000 HD 
HETATM    7  N   UNL     1      -7.812  19.586  68.656  1.00  0.00    -0.354 NA 
HETATM    8  H2  UNL     1      -8.036  18.988  69.451  1.00  0.00     0.000 HD 
HETATM    9  H1  UNL     1      -7.308  20.926  66.585  1.00  0.00     0.000 HD 
ENDROOT
BRANCH   2  10
HETATM   10  C   UNL     1     -10.470  18.570  66.297  1.00  0.00    -0.406 C  
HETATM   11  C   UNL     1     -10.330  17.329  65.421  1.00  0.00     0.024 C  
HETATM   12  O   UNL     1     -11.044  17.120  64.447  1.00  0.00    -1.100 OA 
HETATM   13  O   UNL     1      -9.351  16.473  65.787  1.00  0.00    -0.487 OA 
ENDBRANCH   2  10
TORSDOF 1
ENDMDL
MODEL       33
REMARK 921   NORMALIZED FREE ENERGY PREDICTED BY IDOCK:   -3.50 KCAL/MOL
REMARK 922        TOTAL FREE ENERGY PREDICTED BY IDOCK:   -3.83 KCAL/MOL
REMARK 923 INTER-LIGAND FREE ENERGY PREDICTED BY IDOCK:   -3.75 KCAL/MOL
REMARK 924 INTRA-LIGAND FREE ENERGY PREDICTED BY IDOCK:   -0.07 KCAL/MOL
REMARK 927      BINDING AFFINITY PREDICTED BY RF-SCORE:    0.00 PKD
ROOT
HETATM    1  C   UNL     1     -11.635   7.049  70.431  1.00  0.00    -0.295 C  
HETATM    2  N   UNL     1     -12.061   7.511  71.758  1.00  0.00    -0.296 NA 
HETATM    3  H1  UNL     1     -15.108   8.364  71.084  1.00  0.00     0.000 HD 
HETATM    4  C   UNL     1     -13.285   8.107  71.930  1.00  0.00    -0.325 C  
HETATM    5  N   UNL     1     -13.697   8.749  72.964  1.00  0.00    -0.999 NA 
HETATM    6  H2  UNL     1     -13.042   8.823  73.743  1.00  0.00     0.000 HD 
HETATM    7  N   UNL     1     -14.198   7.921  70.957  1.00  0.00    -0.658 NA 
HETATM    8  H2  UNL     1     -13.989   7.362  70.130  1.00  0.00     0.000 HD 
HETATM    9  H1  UNL     1     -14.607   9.192  73.091  1.00  0.00     0.000 HD 
ENDROOT
BRANCH   2  10
HETATM   10  C   UNL     1     -10.928   7.805  72.676  1.00  0.00    -0.364 C  
HETATM   11  C   UNL     1     -10.514   6.618  73.540  1.00  0.00    -0.313 C  
HETATM   12  O   UNL     1      -9.579   6.667  74.331  1.00  0.00    -0.232 OA 
HETATM   13  O   UNL     1     -11.259   5.502  73.381  1.00  0.00    -0.271 OA 
ENDBRANCH   2  10
TORSDOF 1
ENDMDL
MODEL       34
REMARK 921   NORMALIZED FREE ENERGY PREDICTED BY IDOCK:   -3.46 KCAL/MOL
REMARK 922        TOTAL FREE ENERGY PREDICTED BY IDOCK:   -3.79 KCAL/MOL
REMARK 923 INTER-LIGAND FREE ENERGY PREDICTED BY IDOCK:   -3.68 KCAL/MOL
REMARK 924 INTRA-LIGAND FREE ENERGY PREDICTED BY IDOCK:   -0.12 KCAL/MOL
REMARK 927      BINDING AFFINITY PREDICTED BY RF-SCORE:    0.00 PKD
ROOT
HETATM    1  C   UNL     1     -11.262   7.605  72.953  1.00  0.00    -0.372 C  
HETATM    2  N   UNL     1     -12.167   7.748  71.805  1.00  0.00    -0.296 NA 
HETATM    3  H1  UNL     1     -14.620   9.295  73.239  1.00  0.00     0.000 HD 
HETATM    4  C   UNL     1     -13.434   8.246  71.974  1.00  0.00    -0.311 C  
HETATM    5  N   UNL     1     -14.396   8.224  71.123  1.00  0.00    -0.667 NA 
HETATM    6  H2  UNL     1     -14.196   7.787  70.223  1.00  0.00     0.000 HD 
HETATM    7  N   UNL     1     -13.678   8.924  73.113  1.00  0.00    -1.100 NA 
HETATM    8  H2  UNL     1     -12.954   9.061  73.817  1.00  0.00     0.000 HD 
HETATM    9  H1  UNL     1     -15.338   8.595  71.249  1.00  0.00     0.000 HD 
ENDROOT
BRANCH   2  10
HETATM   10  C   UNL     1     -11.846   6.832  70.679  1.00  0.00    -0.387 C  
HETATM   11  C   UNL     1     -11.017   7.482  69.575  1.00  0.00    -0.113 C  
HETATM   12  O   UNL     1     -10.633   6.870  68.585  1.00  0.00    -0.205 OA 
HETATM   13  O   UNL     1     -10.741   8.792  69.758  1.00  0.00    -0.228 OA 
ENDBRANCH   2  10
TORSDOF 1
ENDMDL
MODEL       35
REMARK 921   NORMALIZED FREE ENERGY PREDICTED BY IDOCK:   -3.46 KCAL/MOL
REMARK 922        TOTAL FREE ENERGY PREDICTED BY IDOCK:   -3.79 KCAL/MOL
REMARK 923 INTER-LIGAND FREE ENERGY PREDICTED BY IDOCK:   -3.68 KCAL/MOL
REMARK 924 INTRA-LIGAND FREE ENERGY PREDICTED BY IDOCK:   -0.11 KCAL/MOL
REMARK 927      BINDING AFFINITY PREDICTED BY RF-SCORE:    0.00 PKD
ROOT
HETATM    1  C   UNL     1     -10.936  15.447  64.840  1.00  0.00    -0.437 C  
HETATM    2  N   UNL     1     -10.769  14.046  65.246  1.00  0.00    -0.336 NA 
HETATM    3  H1  UNL     1      -9.317  14.478  68.105  1.00  0.00     0.000 HD 
HETATM    4  C   UNL     1     -10.057  13.727  66.374  1.00  0.00    -0.295 C  
HETATM    5  N   UNL     1      -9.646  12.562  66.728  1.00  0.00    -0.225 NA 
HETATM    6  H2  UNL     1      -9.874  11.790  66.101  1.00  0.00     0.000 HD 
HETATM    7  N   UNL     1      -9.847  14.715  67.265  1.00  0.00    -0.229 NA 
HETATM    8  H2  UNL     1     -10.202  15.658  67.108  1.00  0.00     0.000 HD 
HETATM    9  H1  UNL     1      -9.116  12.325  67.568  1.00  0.00     0.000 HD 
ENDROOT
BRANCH   2  10
HETATM   10  C   UNL     1     -10.896  13.083  64.120  1.00  0.00    -0.405 C  
HETATM   11  C   UNL     1     -12.284  12.461  63.996  1.00  0.00    -0.490 C  
HETATM   12  O   UNL     1     -12.580  11.670  63.108  1.00  0.00    -0.453 OA 
HETATM   13  O   UNL     1     -13.169  12.835  64.946  1.00  0.00    -0.808 OA 
ENDBRANCH   2  10
TORSDOF 1
ENDMDL
MODEL       36
REMARK 921   NORMALIZED FREE ENERGY PREDICTED BY IDOCK:   -3.43 KCAL/MOL
REMARK 922        TOTAL FREE ENERGY PREDICTED BY IDOCK:   -3.75 KCAL/MOL
REMARK 923 INTER-LIGAND FREE ENERGY PREDICTED BY IDOCK:   -3.65 KCAL/MOL
REMARK 924 INTRA-LIGAND FREE ENERGY PREDICTED BY IDOCK:   -0.10 KCAL/MOL
REMARK 927      BINDING AFFINITY PREDICTED BY RF-SCORE:    0.00 PKD
ROOT
HETATM    1  C   UNL     1     -12.746  13.670  65.400  1.00  0.00    -0.453 C  
HETATM    2  N   UNL     1     -11.523  13.403  66.168  1.00  0.00    -0.318 NA 
HETATM    3  H1  UNL     1      -9.349  13.484  63.773  1.00  0.00     0.000 HD 
HETATM    4  C   UNL     1     -10.325  13.209  65.527  1.00  0.00    -0.290 C  
HETATM    5  N   UNL     1      -9.237  12.757  66.038  1.00  0.00    -0.454 NA 
HETATM    6  H2  UNL     1      -9.266  12.516  67.029  1.00  0.00     0.000 HD 
HETATM    7  N   UNL     1     -10.240  13.628  64.249  1.00  0.00    -0.753 NA 
HETATM    8  H2  UNL     1     -11.030  14.070  63.780  1.00  0.00     0.000 HD 
HETATM    9  H1  UNL     1      -8.346  12.613  65.561  1.00  0.00     0.000 HD 
ENDROOT
BRANCH   2  10
HETATM   10  C   UNL     1     -11.781  12.814  67.508  1.00  0.00    -0.364 C  
HETATM   11  C   UNL     1     -11.820  13.842  68.634  1.00  0.00    -0.374 C  
HETATM   12  O   UNL     1     -12.052  13.542  69.800  1.00  0.00    -0.318 OA 
HETATM   13  O   UNL     1     -11.570  15.116  68.260  1.00  0.00    -0.325 OA 
ENDBRANCH   2  10
TORSDOF 1
ENDMDL
MODEL       37
REMARK 921   NORMALIZED FREE ENERGY PREDICTED BY IDOCK:   -3.33 KCAL/MOL
REMARK 922        TOTAL FREE ENERGY PREDICTED BY IDOCK:   -3.65 KCAL/MOL
REMARK 923 INTER-LIGAND FREE ENERGY PREDICTED BY IDOCK:   -3.60 KCAL/MOL
REMARK 924 INTRA-LIGAND FREE ENERGY PREDICTED BY IDOCK:   -0.05 KCAL/MOL
REMARK 927      BINDING AFFINITY PREDICTED BY RF-SCORE:    0.00 PKD
ROOT
HETATM    1  C   UNL     1     -10.264   7.858  72.941  1.00  0.00    -0.330 C  
HETATM    2  N   UNL     1     -11.359   8.164  72.013  1.00  0.00    -0.293 NA 
HETATM    3  H1  UNL     1     -13.033   5.403  72.221  1.00  0.00     0.000 HD 
HETATM    4  C   UNL     1     -12.274   7.200  71.672  1.00  0.00    -0.350 C  
HETATM    5  N   UNL     1     -13.139   7.252  70.722  1.00  0.00    -0.576 NA 
HETATM    6  H2  UNL     1     -13.145   8.103  70.161  1.00  0.00     0.000 HD 
HETATM    7  N   UNL     1     -12.353   6.120  72.474  1.00  0.00    -0.542 NA 
HETATM    8  H2  UNL     1     -11.759   6.024  73.298  1.00  0.00     0.000 HD 
HETATM    9  H1  UNL     1     -13.819   6.534  70.469  1.00  0.00     0.000 HD 
ENDROOT
BRANCH   2  10
HETATM   10  C   UNL     1     -11.063   9.299  71.099  1.00  0.00    -0.341 C  
HETATM   11  C   UNL     1     -12.055  10.452  71.209  1.00  0.00    -0.362 C  
HETATM   12  O   UNL     1     -11.951  11.484  70.556  1.00  0.00    -0.359 OA 
HETATM   13  O   UNL     1     -13.073  10.255  72.076  1.00  0.00    -0.447 OA 
ENDBRANCH   2  10
TORSDOF 1
ENDMDL
MODEL       38
REMARK 921   NORMALIZED FREE ENERGY PREDICTED BY IDOCK:   -3.29 KCAL/MOL
REMARK 922        TOTAL FREE ENERGY PREDICTED BY IDOCK:   -3.60 KCAL/MOL
REMARK 923 INTER-LIGAND FREE ENERGY PREDICTED BY IDOCK:   -3.62 KCAL/MOL
REMARK 924 INTRA-LIGAND FREE ENERGY PREDICTED BY IDOCK:    0.02 KCAL/MOL
REMARK 927      BINDING AFFINITY PREDICTED BY RF-SCORE:    0.00 PKD
ROOT
HETATM    1  C   UNL     1     -12.231  14.117  65.518  1.00  0.00    -0.432 C  
HETATM    2  N   UNL     1     -10.943  13.615  65.023  1.00  0.00    -0.328 NA 
HETATM    3  H1  UNL     1     -11.876  12.474  62.143  1.00  0.00     0.000 HD 
HETATM    4  C   UNL     1     -10.875  12.904  63.852  1.00  0.00    -0.367 C  
HETATM    5  N   UNL     1      -9.877  12.225  63.413  1.00  0.00    -0.629 NA 
HETATM    6  H2  UNL     1      -9.043  12.213  64.001  1.00  0.00     0.000 HD 
HETATM    7  N   UNL     1     -11.926  13.002  63.014  1.00  0.00    -0.802 NA 
HETATM    8  H2  UNL     1     -12.735  13.580  63.241  1.00  0.00     0.000 HD 
HETATM    9  H1  UNL     1      -9.827  11.696  62.542  1.00  0.00     0.000 HD 
ENDROOT
BRANCH   2  10
HETATM   10  C   UNL     1      -9.927  13.430  66.093  1.00  0.00    -0.294 C  
HETATM   11  C   UNL     1      -9.169  14.706  66.448  1.00  0.00    -0.249 C  
HETATM   12  O   UNL     1      -8.318  14.749  67.329  1.00  0.00    -0.185 OA 
HETATM   13  O   UNL     1      -9.495  15.792  65.713  1.00  0.00    -0.335 OA 
ENDBRANCH   2  10
TORSDOF 1
ENDMDL
MODEL       39
REMARK 921   NORMALIZED FREE ENERGY PREDICTED BY IDOCK:   -3.27 KCAL/MOL
REMARK 922        TOTAL FREE ENERGY PREDICTED BY IDOCK:   -3.59 KCAL/MOL
REMARK 923 INTER-LIGAND FREE ENERGY PREDICTED BY IDOCK:   -3.85 KCAL/MOL
REMARK 924 INTRA-LIGAND FREE ENERGY PREDICTED BY IDOCK:    0.27 KCAL/MOL
REMARK 927      BINDING AFFINITY PREDICTED BY RF-SCORE:    0.00 PKD
ROOT
HETATM    1  C   UNL     1     -12.406  13.166  70.664  1.00  0.00    -0.326 C  
HETATM    2  N   UNL     1     -12.499  14.624  70.519  1.00  0.00    -0.329 NA 
HETATM    3  H1  UNL     1      -9.632  15.216  69.142  1.00  0.00     0.000 HD 
HETATM    4  C   UNL     1     -11.420  15.352  70.086  1.00  0.00    -0.317 C  
HETATM    5  N   UNL     1     -11.281  16.629  70.119  1.00  0.00    -0.435 NA 
HETATM    6  H2  UNL     1     -12.059  17.160  70.511  1.00  0.00     0.000 HD 
HETATM    7  N   UNL     1     -10.435  14.675  69.464  1.00  0.00    -0.398 NA 
HETATM    8  H2  UNL     1     -10.489  13.667  69.321  1.00  0.00     0.000 HD 
HETATM    9  H1  UNL     1     -10.478  17.170  69.797  1.00  0.00     0.000 HD 
ENDROOT
BRANCH   2  10
HETATM   10  C   UNL     1     -13.547  15.240  71.375  1.00  0.00    -0.514 C  
HETATM   11  C   UNL     1     -13.045  15.665  72.751  1.00  0.00    -0.495 C  
HETATM   12  O   UNL     1     -13.761  16.218  73.578  1.00  0.00    -0.595 OA 
HETATM   13  O   UNL     1     -11.749  15.378  73.005  1.00  0.00    -0.446 OA 
ENDBRANCH   2  10
TORSDOF 1
ENDMDL
MODEL       40
REMARK 921   NORMALIZED FREE ENERGY PREDICTED BY IDOCK:   -3.27 KCAL/MOL
REMARK 922        TOTAL FREE ENERGY PREDICTED BY IDOCK:   -3.58 KCAL/MOL
REMARK 923 INTER-LIGAND FREE ENERGY PREDICTED BY IDOCK:   -3.46 KCAL/MOL
REMARK 924 INTRA-LIGAND FREE ENERGY PREDICTED BY IDOCK:   -0.12 KCAL/MOL
REMARK 927      BINDING AFFINITY PREDICTED BY RF-SCORE:    0.00 PKD
ROOT
HETATM    1  C   UNL     1      -9.252  14.467  67.234  1.00  0.00    -0.207 C  
HETATM    2  N   UNL     1     -10.591  14.372  67.829  1.00  0.00    -0.245 NA 
HETATM    3  H1  UNL     1     -11.353  17.514  67.958  1.00  0.00     0.000 HD 
HETATM    4  C   UNL     1     -11.270  15.504  68.203  1.00  0.00    -0.343 C  
HETATM    5  N   UNL     1     -12.332  15.570  68.923  1.00  0.00    -0.590 NA 
HETATM    6  H2  UNL     1     -12.711  14.682  69.254  1.00  0.00     0.000 HD 
HETATM    7  N   UNL     1     -10.848  16.672  67.681  1.00  0.00    -0.300 NA 
HETATM    8  H2  UNL     1     -10.058  16.712  67.036  1.00  0.00     0.000 HD 
HETATM    9  H1  UNL     1     -12.837  16.412  69.201  1.00  0.00     0.000 HD 
ENDROOT
BRANCH   2  10
HETATM   10  C   UNL     1     -10.856  13.065  68.487  1.00  0.00    -0.258 C  
HETATM   11  C   UNL     1     -11.678  12.103  67.635  1.00  0.00    -0.316 C  
HETATM   12  O   UNL     1     -11.966  10.970  68.003  1.00  0.00    -0.623 OA 
HETATM   13  O   UNL     1     -12.081  12.592  66.441  1.00  0.00    -0.576 OA 
ENDBRANCH   2  10
TORSDOF 1
ENDMDL
MODEL       41
REMARK 921   NORMALIZED FREE ENERGY PREDICTED BY IDOCK:   -3.25 KCAL/MOL
REMARK 922        TOTAL FREE ENERGY PREDICTED BY IDOCK:   -3.57 KCAL/MOL
REMARK 923 INTER-LIGAND FREE ENERGY PREDICTED BY IDOCK:   -3.52 KCAL/MOL
REMARK 924 INTRA-LIGAND FREE ENERGY PREDICTED BY IDOCK:   -0.05 KCAL/MOL
REMARK 927      BINDING AFFINITY PREDICTED BY RF-SCORE:    0.00 PKD
ROOT
HETATM    1  C   UNL     1     -12.037  12.266  70.274  1.00  0.00    -0.295 C  
HETATM    2  N   UNL     1     -12.282  13.714  70.235  1.00  0.00    -0.349 NA 
HETATM    3  H1  UNL     1     -12.170  14.197  67.038  1.00  0.00     0.000 HD 
HETATM    4  C   UNL     1     -12.190  14.405  69.053  1.00  0.00    -0.198 C  
HETATM    5  N   UNL     1     -12.159  15.680  68.901  1.00  0.00    -0.584 NA 
HETATM    6  H2  UNL     1     -12.208  16.240  69.753  1.00  0.00     0.000 HD 
HETATM    7  N   UNL     1     -12.238  13.683  67.917  1.00  0.00    -0.382 NA 
HETATM    8  H2  UNL     1     -12.339  12.668  67.934  1.00  0.00     0.000 HD 
HETATM    9  H1  UNL     1     -12.091  16.194  68.022  1.00  0.00     0.000 HD 
ENDROOT
BRANCH   2  10
HETATM   10  C   UNL     1     -12.054  14.389  71.540  1.00  0.00    -0.300 C  
HETATM   11  C   UNL     1     -13.289  14.433  72.434  1.00  0.00    -0.455 C  
HETATM   12  O   UNL     1     -13.279  14.922  73.557  1.00  0.00    -0.532 OA 
HETATM   13  O   UNL     1     -14.409  13.900  71.896  1.00  0.00    -0.428 OA 
ENDBRANCH   2  10
TORSDOF 1
ENDMDL
MODEL       42
REMARK 921   NORMALIZED FREE ENERGY PREDICTED BY IDOCK:   -3.25 KCAL/MOL
REMARK 922        TOTAL FREE ENERGY PREDICTED BY IDOCK:   -3.56 KCAL/MOL
REMARK 923 INTER-LIGAND FREE ENERGY PREDICTED BY IDOCK:   -3.45 KCAL/MOL
REMARK 924 INTRA-LIGAND FREE ENERGY PREDICTED BY IDOCK:   -0.12 KCAL/MOL
REMARK 927      BINDING AFFINITY PREDICTED BY RF-SCORE:    0.00 PKD
ROOT
HETATM    1  C   UNL     1      -8.568  16.230  68.741  1.00  0.00    -0.240 C  
HETATM    2  N   UNL     1     -10.000  16.545  68.659  1.00  0.00    -0.237 NA 
HETATM    3  H1  UNL     1     -11.126  14.551  70.945  1.00  0.00     0.000 HD 
HETATM    4  C   UNL     1     -10.916  15.821  69.380  1.00  0.00    -0.296 C  
HETATM    5  N   UNL     1     -12.194  15.833  69.245  1.00  0.00    -0.528 NA 
HETATM    6  H2  UNL     1     -12.568  16.450  68.524  1.00  0.00     0.000 HD 
HETATM    7  N   UNL     1     -10.445  15.090  70.409  1.00  0.00    -0.510 NA 
HETATM    8  H2  UNL     1      -9.452  15.076  70.642  1.00  0.00     0.000 HD 
HETATM    9  H1  UNL     1     -12.874  15.294  69.781  1.00  0.00     0.000 HD 
ENDROOT
BRANCH   2  10
HETATM   10  C   UNL     1     -10.385  17.234  67.399  1.00  0.00    -0.338 C  
HETATM   11  C   UNL     1     -10.497  18.749  67.535  1.00  0.00    -0.435 C  
HETATM   12  O   UNL     1     -10.774  19.482  66.592  1.00  0.00    -0.457 OA 
HETATM   13  O   UNL     1     -10.280  19.233  68.778  1.00  0.00    -0.406 OA 
ENDBRANCH   2  10
TORSDOF 1
ENDMDL
MODEL       43
REMARK 921   NORMALIZED FREE ENERGY PREDICTED BY IDOCK:   -3.24 KCAL/MOL
REMARK 922        TOTAL FREE ENERGY PREDICTED BY IDOCK:   -3.56 KCAL/MOL
REMARK 923 INTER-LIGAND FREE ENERGY PREDICTED BY IDOCK:   -3.44 KCAL/MOL
REMARK 924 INTRA-LIGAND FREE ENERGY PREDICTED BY IDOCK:   -0.12 KCAL/MOL
REMARK 927      BINDING AFFINITY PREDICTED BY RF-SCORE:    0.00 PKD
ROOT
HETATM    1  C   UNL     1      -9.278  15.285  67.214  1.00  0.00    -0.199 C  
HETATM    2  N   UNL     1     -10.666  15.011  67.607  1.00  0.00    -0.268 NA 
HETATM    3  H1  UNL     1     -11.150  17.479  69.642  1.00  0.00     0.000 HD 
HETATM    4  C   UNL     1     -11.270  15.750  68.592  1.00  0.00    -0.351 C  
HETATM    5  N   UNL     1     -12.379  15.491  69.187  1.00  0.00    -0.609 NA 
HETATM    6  H2  UNL     1     -12.864  14.642  68.893  1.00  0.00     0.000 HD 
HETATM    7  N   UNL     1     -10.701  16.929  68.910  1.00  0.00    -0.335 NA 
HETATM    8  H2  UNL     1      -9.858  17.258  68.438  1.00  0.00     0.000 HD 
HETATM    9  H1  UNL     1     -12.829  16.040  69.919  1.00  0.00     0.000 HD 
ENDROOT
BRANCH   2  10
HETATM   10  C   UNL     1     -11.102  13.621  67.312  1.00  0.00    -0.293 C  
HETATM   11  C   UNL     1     -11.911  13.490  66.026  1.00  0.00    -0.409 C  
HETATM   12  O   UNL     1     -12.327  12.415  65.609  1.00  0.00    -0.639 OA 
HETATM   13  O   UNL     1     -12.151  14.650  65.376  1.00  0.00    -0.333 OA 
ENDBRANCH   2  10
TORSDOF 1
ENDMDL
MODEL       44
REMARK 921   NORMALIZED FREE ENERGY PREDICTED BY IDOCK:   -3.24 KCAL/MOL
REMARK 922        TOTAL FREE ENERGY PREDICTED BY IDOCK:   -3.55 KCAL/MOL
REMARK 923 INTER-LIGAND FREE ENERGY PREDICTED BY IDOCK:   -3.44 KCAL/MOL
REMARK 924 INTRA-LIGAND FREE ENERGY PREDICTED BY IDOCK:   -0.11 KCAL/MOL
REMARK 927      BINDING AFFINITY PREDICTED BY RF-SCORE:    0.00 PKD
ROOT
HETATM    1  C   UNL     1     -10.016   9.084  71.553  1.00  0.00    -0.321 C  
HETATM    2  N   UNL     1     -11.400   9.279  71.103  1.00  0.00    -0.311 NA 
HETATM    3  H1  UNL     1     -12.956   7.610  73.397  1.00  0.00     0.000 HD 
HETATM    4  C   UNL     1     -12.433   8.618  71.719  1.00  0.00    -0.346 C  
HETATM    5  N   UNL     1     -13.645   8.517  71.305  1.00  0.00    -0.558 NA 
HETATM    6  H2  UNL     1     -13.863   8.978  70.421  1.00  0.00     0.000 HD 
HETATM    7  N   UNL     1     -12.188   8.101  72.939  1.00  0.00    -0.636 NA 
HETATM    8  H2  UNL     1     -11.276   8.197  73.384  1.00  0.00     0.000 HD 
HETATM    9  H1  UNL     1     -14.413   8.025  71.763  1.00  0.00     0.000 HD 
ENDROOT
BRANCH   2  10
HETATM   10  C   UNL     1     -11.507   9.721  69.687  1.00  0.00    -0.056 C  
HETATM   11  C   UNL     1     -11.939  11.176  69.529  1.00  0.00    -0.355 C  
HETATM   12  O   UNL     1     -12.049  11.721  68.437  1.00  0.00    -0.490 OA 
HETATM   13  O   UNL     1     -12.205  11.827  70.683  1.00  0.00    -0.371 OA 
ENDBRANCH   2  10
TORSDOF 1
ENDMDL
MODEL       45
REMARK 921   NORMALIZED FREE ENERGY PREDICTED BY IDOCK:   -3.23 KCAL/MOL
REMARK 922        TOTAL FREE ENERGY PREDICTED BY IDOCK:   -3.55 KCAL/MOL
REMARK 923 INTER-LIGAND FREE ENERGY PREDICTED BY IDOCK:   -3.47 KCAL/MOL
REMARK 924 INTRA-LIGAND FREE ENERGY PREDICTED BY IDOCK:   -0.08 KCAL/MOL
REMARK 927      BINDING AFFINITY PREDICTED BY RF-SCORE:    0.00 PKD
ROOT
HETATM    1  C   UNL     1     -11.517  16.307  64.573  1.00  0.00    -0.169 C  
HETATM    2  N   UNL     1     -10.450  15.906  65.499  1.00  0.00    -0.383 NA 
HETATM    3  H1  UNL     1      -9.865  12.922  64.393  1.00  0.00     0.000 HD 
HETATM    4  C   UNL     1      -9.967  14.622  65.491  1.00  0.00    -0.352 C  
HETATM    5  N   UNL     1      -9.208  14.074  66.372  1.00  0.00    -0.458 NA 
HETATM    6  H2  UNL     1      -8.936  14.657  67.163  1.00  0.00     0.000 HD 
HETATM    7  N   UNL     1     -10.225  13.877  64.399  1.00  0.00    -0.732 NA 
HETATM    8  H2  UNL     1     -10.756  14.251  63.613  1.00  0.00     0.000 HD 
HETATM    9  H1  UNL     1      -8.849  13.119  66.366  1.00  0.00     0.000 HD 
ENDROOT
BRANCH   2  10
HETATM   10  C   UNL     1     -10.383  16.745  66.725  1.00  0.00    -0.293 C  
HETATM   11  C   UNL     1      -9.138  17.624  66.800  1.00  0.00    -0.260 C  
HETATM   12  O   UNL     1      -8.930  18.403  67.723  1.00  0.00    -0.274 OA 
HETATM   13  O   UNL     1      -8.267  17.477  65.777  1.00  0.00    -0.545 OA 
ENDBRANCH   2  10
TORSDOF 1
ENDMDL
MODEL       46
REMARK 921   NORMALIZED FREE ENERGY PREDICTED BY IDOCK:   -3.22 KCAL/MOL
REMARK 922        TOTAL FREE ENERGY PREDICTED BY IDOCK:   -3.53 KCAL/MOL
REMARK 923 INTER-LIGAND FREE ENERGY PREDICTED BY IDOCK:   -3.48 KCAL/MOL
REMARK 924 INTRA-LIGAND FREE ENERGY PREDICTED BY IDOCK:   -0.05 KCAL/MOL
REMARK 927      BINDING AFFINITY PREDICTED BY RF-SCORE:    0.00 PKD
ROOT
HETATM    1  C   UNL     1     -14.400   8.315  71.828  1.00  0.00    -0.483 C  
HETATM    2  N   UNL     1     -13.024   8.827  71.842  1.00  0.00    -0.352 NA 
HETATM    3  H1  UNL     1     -11.452   6.135  72.709  1.00  0.00     0.000 HD 
HETATM    4  C   UNL     1     -11.993   8.044  72.296  1.00  0.00    -0.358 C  
HETATM    5  N   UNL     1     -10.795   8.420  72.571  1.00  0.00    -0.342 NA 
HETATM    6  H2  UNL     1     -10.589   9.410  72.436  1.00  0.00     0.000 HD 
HETATM    7  N   UNL     1     -12.219   6.718  72.371  1.00  0.00    -0.513 NA 
HETATM    8  H2  UNL     1     -13.116   6.314  72.101  1.00  0.00     0.000 HD 
HETATM    9  H1  UNL     1     -10.029   7.837  72.909  1.00  0.00     0.000 HD 
ENDROOT
BRANCH   2  10
HETATM   10  C   UNL     1     -12.943  10.311  71.897  1.00  0.00    -0.449 C  
HETATM   11  C   UNL     1     -12.179  10.928  70.731  1.00  0.00    -0.383 C  
HETATM   12  O   UNL     1     -12.039  12.139  70.595  1.00  0.00    -0.365 OA 
HETATM   13  O   UNL     1     -11.652  10.045  69.854  1.00  0.00    -0.235 OA 
ENDBRANCH   2  10
TORSDOF 1
ENDMDL
MODEL       47
REMARK 921   NORMALIZED FREE ENERGY PREDICTED BY IDOCK:   -3.21 KCAL/MOL
REMARK 922        TOTAL FREE ENERGY PREDICTED BY IDOCK:   -3.52 KCAL/MOL
REMARK 923 INTER-LIGAND FREE ENERGY PREDICTED BY IDOCK:   -3.40 KCAL/MOL
REMARK 924 INTRA-LIGAND FREE ENERGY PREDICTED BY IDOCK:   -0.13 KCAL/MOL
REMARK 927      BINDING AFFINITY PREDICTED BY RF-SCORE:    0.00 PKD
ROOT
HETATM    1  C   UNL     1     -11.456  15.396  67.978  1.00  0.00    -0.326 C  
HETATM    2  N   UNL     1     -10.643  15.264  66.763  1.00  0.00    -0.299 NA 
HETATM    3  H1  UNL     1     -11.978  12.600  65.503  1.00  0.00     0.000 HD 
HETATM    4  C   UNL     1     -10.769  14.162  65.955  1.00  0.00    -0.299 C  
HETATM    5  N   UNL     1      -9.988  13.807  64.999  1.00  0.00    -0.600 NA 
HETATM    6  H2  UNL     1      -9.185  14.411  64.822  1.00  0.00     0.000 HD 
HETATM    7  N   UNL     1     -11.883  13.419  66.103  1.00  0.00    -0.365 NA 
HETATM    8  H2  UNL     1     -12.601  13.665  66.786  1.00  0.00     0.000 HD 
HETATM    9  H1  UNL     1     -10.082  12.988  64.399  1.00  0.00     0.000 HD 
ENDROOT
BRANCH   2  10
HETATM   10  C   UNL     1      -9.375  16.040  66.810  1.00  0.00    -0.238 C  
HETATM   11  C   UNL     1      -9.400  17.310  65.964  1.00  0.00    -0.097 C  
HETATM   12  O   UNL     1      -8.456  18.089  65.908  1.00  0.00    -0.509 OA 
HETATM   13  O   UNL     1     -10.539  17.515  65.267  1.00  0.00    -0.664 OA 
ENDBRANCH   2  10
TORSDOF 1
ENDMDL
MODEL       48
REMARK 921   NORMALIZED FREE ENERGY PREDICTED BY IDOCK:   -3.20 KCAL/MOL
REMARK 922        TOTAL FREE ENERGY PREDICTED BY IDOCK:   -3.51 KCAL/MOL
REMARK 923 INTER-LIGAND FREE ENERGY PREDICTED BY IDOCK:   -3.40 KCAL/MOL
REMARK 924 INTRA-LIGAND FREE ENERGY PREDICTED BY IDOCK:   -0.11 KCAL/MOL
REMARK 927      BINDING AFFINITY PREDICTED BY RF-SCORE:    0.00 PKD
ROOT
HETATM    1  C   UNL     1     -12.313  14.007  66.079  1.00  0.00    -0.473 C  
HETATM    2  N   UNL     1     -11.582  13.518  67.255  1.00  0.00    -0.341 NA 
HETATM    3  H1  UNL     1     -12.079  15.999  69.272  1.00  0.00     0.000 HD 
HETATM    4  C   UNL     1     -11.404  14.326  68.350  1.00  0.00    -0.283 C  
HETATM    5  N   UNL     1     -10.614  14.122  69.343  1.00  0.00    -0.431 NA 
HETATM    6  H2  UNL     1     -10.058  13.267  69.314  1.00  0.00     0.000 HD 
HETATM    7  N   UNL     1     -12.211  15.399  68.458  1.00  0.00    -0.536 NA 
HETATM    8  H2  UNL     1     -12.923  15.602  67.756  1.00  0.00     0.000 HD 
HETATM    9  H1  UNL     1     -10.482  14.723  70.158  1.00  0.00     0.000 HD 
ENDROOT
BRANCH   2  10
HETATM   10  C   UNL     1     -10.627  12.421  66.947  1.00  0.00    -0.229 C  
HETATM   11  C   UNL     1     -11.081  11.053  67.446  1.00  0.00    -0.305 C  
HETATM   12  O   UNL     1     -10.437  10.028  67.254  1.00  0.00    -0.225 OA 
HETATM   13  O   UNL     1     -12.247  11.047  68.129  1.00  0.00    -0.578 OA 
ENDBRANCH   2  10
TORSDOF 1
ENDMDL
MODEL       49
REMARK 921   NORMALIZED FREE ENERGY PREDICTED BY IDOCK:   -3.20 KCAL/MOL
REMARK 922        TOTAL FREE ENERGY PREDICTED BY IDOCK:   -3.51 KCAL/MOL
REMARK 923 INTER-LIGAND FREE ENERGY PREDICTED BY IDOCK:   -3.84 KCAL/MOL
REMARK 924 INTRA-LIGAND FREE ENERGY PREDICTED BY IDOCK:    0.33 KCAL/MOL
REMARK 927      BINDING AFFINITY PREDICTED BY RF-SCORE:    0.00 PKD
ROOT
HETATM    1  C   UNL     1     -11.929   6.741  70.484  1.00  0.00    -0.328 C  
HETATM    2  N   UNL     1     -12.235   7.323  71.796  1.00  0.00    -0.319 NA 
HETATM    3  H1  UNL     1     -15.014   8.822  71.091  1.00  0.00     0.000 HD 
HETATM    4  C   UNL     1     -13.292   8.184  71.948  1.00  0.00    -0.324 C  
HETATM    5  N   UNL     1     -13.545   8.931  72.963  1.00  0.00    -0.981 NA 
HETATM    6  H2  UNL     1     -12.888   8.877  73.741  1.00  0.00     0.000 HD 
HETATM    7  N   UNL     1     -14.227   8.182  70.979  1.00  0.00    -0.650 NA 
HETATM    8  H2  UNL     1     -14.153   7.567  70.168  1.00  0.00     0.000 HD 
HETATM    9  H1  UNL     1     -14.332   9.571  73.076  1.00  0.00     0.000 HD 
ENDROOT
BRANCH   2  10
HETATM   10  C   UNL     1     -11.061   7.380  72.708  1.00  0.00    -0.346 C  
HETATM   11  C   UNL     1     -10.053   8.465  72.346  1.00  0.00    -0.316 C  
HETATM   12  O   UNL     1      -9.041   8.678  73.004  1.00  0.00    -0.293 OA 
HETATM   13  O   UNL     1     -10.346   9.177  71.235  1.00  0.00    -0.283 OA 
ENDBRANCH   2  10
TORSDOF 1
ENDMDL
MODEL       50
REMARK 921   NORMALIZED FREE ENERGY PREDICTED BY IDOCK:   -3.17 KCAL/MOL
REMARK 922        TOTAL FREE ENERGY PREDICTED BY IDOCK:   -3.48 KCAL/MOL
REMARK 923 INTER-LIGAND FREE ENERGY PREDICTED BY IDOCK:   -3.38 KCAL/MOL
REMARK 924 INTRA-LIGAND FREE ENERGY PREDICTED BY IDOCK:   -0.11 KCAL/MOL
REMARK 927      BINDING AFFINITY PREDICTED BY RF-SCORE:    0.00 PKD
ROOT
HETATM    1  C   UNL     1     -11.615  15.768  68.628  1.00  0.00    -0.386 C  
HETATM    2  N   UNL     1     -11.317  15.310  67.266  1.00  0.00    -0.310 NA 
HETATM    3  H1  UNL     1      -9.818  17.940  66.123  1.00  0.00     0.000 HD 
HETATM    4  C   UNL     1     -10.784  16.171  66.341  1.00  0.00    -0.211 C  
HETATM    5  N   UNL     1     -10.677  15.981  65.074  1.00  0.00    -0.593 NA 
HETATM    6  H2  UNL     1     -11.028  15.092  64.718  1.00  0.00     0.000 HD 
HETATM    7  N   UNL     1     -10.215  17.299  66.810  1.00  0.00    -0.311 NA 
HETATM    8  H2  UNL     1     -10.182  17.502  67.809  1.00  0.00     0.000 HD 
HETATM    9  H1  UNL     1     -10.281  16.622  64.387  1.00  0.00     0.000 HD 
ENDROOT
BRANCH   2  10
HETATM   10  C   UNL     1     -12.127  14.136  66.844  1.00  0.00    -0.432 C  
HETATM   11  C   UNL     1     -11.420  12.799  67.043  1.00  0.00    -0.341 C  
HETATM   12  O   UNL     1     -11.947  11.723  66.780  1.00  0.00    -0.584 OA 
HETATM   13  O   UNL     1     -10.159  12.879  67.521  1.00  0.00    -0.210 OA 
ENDBRANCH   2  10
TORSDOF 1
ENDMDL
MODEL       51
REMARK 921   NORMALIZED FREE ENERGY PREDICTED BY IDOCK:   -3.16 KCAL/MOL
REMARK 922        TOTAL FREE ENERGY PREDICTED BY IDOCK:   -3.47 KCAL/MOL
REMARK 923 INTER-LIGAND FREE ENERGY PREDICTED BY IDOCK:   -3.41 KCAL/MOL
REMARK 924 INTRA-LIGAND FREE ENERGY PREDICTED BY IDOCK:   -0.05 KCAL/MOL
REMARK 927      BINDING AFFINITY PREDICTED BY RF-SCORE:    0.00 PKD
ROOT
HETATM    1  C   UNL     1     -12.061  13.769  66.363  1.00  0.00    -0.444 C  
HETATM    2  N   UNL     1     -10.793  14.499  66.485  1.00  0.00    -0.308 NA 
HETATM    3  H1  UNL     1      -8.742  12.191  65.519  1.00  0.00     0.000 HD 
HETATM    4  C   UNL     1      -9.596  13.855  66.299  1.00  0.00    -0.256 C  
HETATM    5  N   UNL     1      -8.424  14.298  66.584  1.00  0.00    -0.423 NA 
HETATM    6  H2  UNL     1      -8.379  15.232  66.993  1.00  0.00     0.000 HD 
HETATM    7  N   UNL     1      -9.632  12.671  65.657  1.00  0.00    -0.448 NA 
HETATM    8  H2  UNL     1     -10.509  12.272  65.324  1.00  0.00     0.000 HD 
HETATM    9  H1  UNL     1      -7.534  13.819  66.445  1.00  0.00     0.000 HD 
ENDROOT
BRANCH   2  10
HETATM   10  C   UNL     1     -10.888  15.713  67.339  1.00  0.00    -0.315 C  
HETATM   11  C   UNL     1     -10.513  17.003  66.617  1.00  0.00    -0.253 C  
HETATM   12  O   UNL     1     -10.563  18.104  67.155  1.00  0.00    -0.383 OA 
HETATM   13  O   UNL     1     -10.108  16.850  65.337  1.00  0.00    -0.586 OA 
ENDBRANCH   2  10
TORSDOF 1
ENDMDL
MODEL       52
REMARK 921   NORMALIZED FREE ENERGY PREDICTED BY IDOCK:   -3.15 KCAL/MOL
REMARK 922        TOTAL FREE ENERGY PREDICTED BY IDOCK:   -3.46 KCAL/MOL
REMARK 923 INTER-LIGAND FREE ENERGY PREDICTED BY IDOCK:   -3.70 KCAL/MOL
REMARK 924 INTRA-LIGAND FREE ENERGY PREDICTED BY IDOCK:    0.25 KCAL/MOL
REMARK 927      BINDING AFFINITY PREDICTED BY RF-SCORE:    0.00 PKD
ROOT
HETATM    1  C   UNL     1     -10.461  16.820  68.177  1.00  0.00    -0.332 C  
HETATM    2  N   UNL     1      -9.584  16.647  67.012  1.00  0.00    -0.238 NA 
HETATM    3  H1  UNL     1      -7.299  18.824  67.727  1.00  0.00     0.000 HD 
HETATM    4  C   UNL     1      -8.516  17.485  66.814  1.00  0.00    -0.250 C  
HETATM    5  N   UNL     1      -7.805  17.597  65.749  1.00  0.00    -0.542 NA 
HETATM    6  H2  UNL     1      -8.063  16.996  64.966  1.00  0.00     0.000 HD 
HETATM    7  N   UNL     1      -8.093  18.201  67.874  1.00  0.00    -0.242 NA 
HETATM    8  H2  UNL     1      -8.547  18.123  68.784  1.00  0.00     0.000 HD 
HETATM    9  H1  UNL     1      -7.010  18.220  65.602  1.00  0.00     0.000 HD 
ENDROOT
BRANCH   2  10
HETATM   10  C   UNL     1     -10.242  15.958  65.871  1.00  0.00    -0.352 C  
HETATM   11  C   UNL     1     -11.010  16.896  64.946  1.00  0.00    -0.001 C  
HETATM   12  O   UNL     1     -11.588  16.509  63.937  1.00  0.00    -1.175 OA 
HETATM   13  O   UNL     1     -11.020  18.195  65.322  1.00  0.00    -0.571 OA 
ENDBRANCH   2  10
TORSDOF 1
ENDMDL
MODEL       53
REMARK 921   NORMALIZED FREE ENERGY PREDICTED BY IDOCK:   -3.14 KCAL/MOL
REMARK 922        TOTAL FREE ENERGY PREDICTED BY IDOCK:   -3.45 KCAL/MOL
REMARK 923 INTER-LIGAND FREE ENERGY PREDICTED BY IDOCK:   -3.77 KCAL/MOL
REMARK 924 INTRA-LIGAND FREE ENERGY PREDICTED BY IDOCK:    0.31 KCAL/MOL
REMARK 927      BINDING AFFINITY PREDICTED BY RF-SCORE:    0.00 PKD
ROOT
HETATM    1  C   UNL     1     -14.369  15.319  72.155  1.00  0.00    -0.555 C  
HETATM    2  N   UNL     1     -13.580  14.491  71.235  1.00  0.00    -0.372 NA 
HETATM    3  H1  UNL     1     -13.438  11.754  72.956  1.00  0.00     0.000 HD 
HETATM    4  C   UNL     1     -13.146  13.246  71.616  1.00  0.00    -0.363 C  
HETATM    5  N   UNL     1     -12.279  12.510  71.017  1.00  0.00    -0.394 NA 
HETATM    6  H2  UNL     1     -11.868  12.894  70.166  1.00  0.00     0.000 HD 
HETATM    7  N   UNL     1     -13.761  12.680  72.672  1.00  0.00    -0.670 NA 
HETATM    8  H2  UNL     1     -14.515  13.156  73.167  1.00  0.00     0.000 HD 
HETATM    9  H1  UNL     1     -11.956  11.585  71.301  1.00  0.00     0.000 HD 
ENDROOT
BRANCH   2  10
HETATM   10  C   UNL     1     -12.849  15.277  70.206  1.00  0.00    -0.260 C  
HETATM   11  C   UNL     1     -11.559  15.909  70.717  1.00  0.00    -0.410 C  
HETATM   12  O   UNL     1     -10.812  16.566  70.000  1.00  0.00    -0.344 OA 
HETATM   13  O   UNL     1     -11.296  15.704  72.026  1.00  0.00    -0.398 OA 
ENDBRANCH   2  10
TORSDOF 1
ENDMDL
MODEL       54
REMARK 921   NORMALIZED FREE ENERGY PREDICTED BY IDOCK:   -3.11 KCAL/MOL
REMARK 922        TOTAL FREE ENERGY PREDICTED BY IDOCK:   -3.42 KCAL/MOL
REMARK 923 INTER-LIGAND FREE ENERGY PREDICTED BY IDOCK:   -3.29 KCAL/MOL
REMARK 924 INTRA-LIGAND FREE ENERGY PREDICTED BY IDOCK:   -0.13 KCAL/MOL
REMARK 927      BINDING AFFINITY PREDICTED BY RF-SCORE:    0.00 PKD
ROOT
HETATM    1  C   UNL     1     -11.151  13.433  69.069  1.00  0.00    -0.249 C  
HETATM    2  N   UNL     1     -11.202  14.894  69.207  1.00  0.00    -0.269 NA 
HETATM    3  H1  UNL     1     -11.146  15.734  66.083  1.00  0.00     0.000 HD 
HETATM    4  C   UNL     1     -11.063  15.702  68.107  1.00  0.00    -0.330 C  
HETATM    5  N   UNL     1     -10.867  16.973  68.098  1.00  0.00    -0.372 NA 
HETATM    6  H2  UNL     1     -10.809  17.429  69.008  1.00  0.00     0.000 HD 
HETATM    7  N   UNL     1     -11.250  15.133  66.901  1.00  0.00    -0.321 NA 
HETATM    8  H2  UNL     1     -11.484  14.145  66.809  1.00  0.00     0.000 HD 
HETATM    9  H1  UNL     1     -10.764  17.574  67.280  1.00  0.00     0.000 HD 
ENDROOT
BRANCH   2  10
HETATM   10  C   UNL     1     -10.837  15.375  70.565  1.00  0.00    -0.300 C  
HETATM   11  C   UNL     1     -12.036  15.778  71.418  1.00  0.00    -0.441 C  
HETATM   12  O   UNL     1     -11.927  16.168  72.574  1.00  0.00    -0.494 OA 
HETATM   13  O   UNL     1     -13.236  15.685  70.804  1.00  0.00    -0.517 OA 
ENDBRANCH   2  10
TORSDOF 1
ENDMDL
MODEL       55
REMARK 921   NORMALIZED FREE ENERGY PREDICTED BY IDOCK:   -3.10 KCAL/MOL
REMARK 922        TOTAL FREE ENERGY PREDICTED BY IDOCK:   -3.41 KCAL/MOL
REMARK 923 INTER-LIGAND FREE ENERGY PREDICTED BY IDOCK:   -3.29 KCAL/MOL
REMARK 924 INTRA-LIGAND FREE ENERGY PREDICTED BY IDOCK:   -0.12 KCAL/MOL
REMARK 927      BINDING AFFINITY PREDICTED BY RF-SCORE:    0.00 PKD
ROOT
HETATM    1  C   UNL     1     -11.927  13.134  66.432  1.00  0.00    -0.402 C  
HETATM    2  N   UNL     1     -11.550  13.194  67.850  1.00  0.00    -0.314 NA 
HETATM    3  H1  UNL     1     -12.142  10.128  68.699  1.00  0.00     0.000 HD 
HETATM    4  C   UNL     1     -11.768  12.120  68.675  1.00  0.00    -0.330 C  
HETATM    5  N   UNL     1     -11.697  12.100  69.959  1.00  0.00    -0.490 NA 
HETATM    6  H2  UNL     1     -11.453  12.981  70.413  1.00  0.00     0.000 HD 
HETATM    7  N   UNL     1     -11.980  10.927  68.086  1.00  0.00    -0.796 NA 
HETATM    8  H2  UNL     1     -11.979  10.828  67.071  1.00  0.00     0.000 HD 
HETATM    9  H1  UNL     1     -11.859  11.301  70.572  1.00  0.00     0.000 HD 
ENDROOT
BRANCH   2  10
HETATM   10  C   UNL     1     -11.492  14.578  68.390  1.00  0.00    -0.302 C  
HETATM   11  C   UNL     1     -10.073  15.090  68.616  1.00  0.00    -0.233 C  
HETATM   12  O   UNL     1      -9.831  16.219  69.026  1.00  0.00    -0.234 OA 
HETATM   13  O   UNL     1      -9.090  14.204  68.341  1.00  0.00    -0.186 OA 
ENDBRANCH   2  10
TORSDOF 1
ENDMDL
MODEL       56
REMARK 921   NORMALIZED FREE ENERGY PREDICTED BY IDOCK:   -3.10 KCAL/MOL
REMARK 922        TOTAL FREE ENERGY PREDICTED BY IDOCK:   -3.40 KCAL/MOL
REMARK 923 INTER-LIGAND FREE ENERGY PREDICTED BY IDOCK:   -3.67 KCAL/MOL
REMARK 924 INTRA-LIGAND FREE ENERGY PREDICTED BY IDOCK:    0.27 KCAL/MOL
REMARK 927      BINDING AFFINITY PREDICTED BY RF-SCORE:    0.00 PKD
ROOT
HETATM    1  C   UNL     1     -10.264  15.699  69.965  1.00  0.00    -0.267 C  
HETATM    2  N   UNL     1     -11.694  15.560  69.664  1.00  0.00    -0.334 NA 
HETATM    3  H1  UNL     1     -12.934  16.334  72.551  1.00  0.00     0.000 HD 
HETATM    4  C   UNL     1     -12.630  15.667  70.662  1.00  0.00    -0.414 C  
HETATM    5  N   UNL     1     -13.875  15.356  70.594  1.00  0.00    -0.837 NA 
HETATM    6  H2  UNL     1     -14.203  14.989  69.700  1.00  0.00     0.000 HD 
HETATM    7  N   UNL     1     -12.238  16.254  71.809  1.00  0.00    -0.618 NA 
HETATM    8  H2  UNL     1     -11.287  16.604  71.931  1.00  0.00     0.000 HD 
HETATM    9  H1  UNL     1     -14.571  15.436  71.336  1.00  0.00     0.000 HD 
ENDROOT
BRANCH   2  10
HETATM   10  C   UNL     1     -11.968  14.768  68.436  1.00  0.00    -0.235 C  
HETATM   11  C   UNL     1     -11.956  13.260  68.662  1.00  0.00    -0.310 C  
HETATM   12  O   UNL     1     -12.193  12.452  67.771  1.00  0.00    -0.395 OA 
HETATM   13  O   UNL     1     -11.656  12.868  69.920  1.00  0.00    -0.262 OA 
ENDBRANCH   2  10
TORSDOF 1
ENDMDL
MODEL       57
REMARK 921   NORMALIZED FREE ENERGY PREDICTED BY IDOCK:   -3.06 KCAL/MOL
REMARK 922        TOTAL FREE ENERGY PREDICTED BY IDOCK:   -3.37 KCAL/MOL
REMARK 923 INTER-LIGAND FREE ENERGY PREDICTED BY IDOCK:   -3.24 KCAL/MOL
REMARK 924 INTRA-LIGAND FREE ENERGY PREDICTED BY IDOCK:   -0.13 KCAL/MOL
REMARK 927      BINDING AFFINITY PREDICTED BY RF-SCORE:    0.00 PKD
ROOT
HETATM    1  C   UNL     1     -11.404   6.352  69.762  1.00  0.00    -0.427 C  
HETATM    2  N   UNL     1     -11.664   6.500  71.200  1.00  0.00    -0.332 NA 
HETATM    3  H1  UNL     1      -9.568   4.324  72.357  1.00  0.00     0.000 HD 
HETATM    4  C   UNL     1     -11.076   5.653  72.105  1.00  0.00    -0.241 C  
HETATM    5  N   UNL     1     -11.374   5.519  73.348  1.00  0.00    -0.485 NA 
HETATM    6  H2  UNL     1     -12.130   6.107  73.700  1.00  0.00     0.000 HD 
HETATM    7  N   UNL     1     -10.005   4.954  71.683  1.00  0.00    -0.183 NA 
HETATM    8  H2  UNL     1      -9.646   5.050  70.734  1.00  0.00     0.000 HD 
HETATM    9  H1  UNL     1     -10.936   4.889  74.021  1.00  0.00     0.000 HD 
ENDROOT
BRANCH   2  10
HETATM   10  C   UNL     1     -12.955   7.173  71.503  1.00  0.00    -0.383 C  
HETATM   11  C   UNL     1     -12.801   8.618  71.966  1.00  0.00    -0.379 C  
HETATM   12  O   UNL     1     -13.758   9.337  72.229  1.00  0.00    -0.447 OA 
HETATM   13  O   UNL     1     -11.527   9.054  72.078  1.00  0.00    -0.365 OA 
ENDBRANCH   2  10
TORSDOF 1
ENDMDL
MODEL       58
REMARK 921   NORMALIZED FREE ENERGY PREDICTED BY IDOCK:   -3.06 KCAL/MOL
REMARK 922        TOTAL FREE ENERGY PREDICTED BY IDOCK:   -3.36 KCAL/MOL
REMARK 923 INTER-LIGAND FREE ENERGY PREDICTED BY IDOCK:   -3.29 KCAL/MOL
REMARK 924 INTRA-LIGAND FREE ENERGY PREDICTED BY IDOCK:   -0.07 KCAL/MOL
REMARK 927      BINDING AFFINITY PREDICTED BY RF-SCORE:    0.00 PKD
ROOT
HETATM    1  C   UNL     1      -8.458  20.204  67.313  1.00  0.00    -0.342 C  
HETATM    2  N   UNL     1      -8.734  18.935  66.628  1.00  0.00    -0.302 NA 
HETATM    3  H1  UNL     1     -11.707  19.554  65.512  1.00  0.00     0.000 HD 
HETATM    4  C   UNL     1      -9.974  18.683  66.100  1.00  0.00    -0.330 C  
HETATM    5  N   UNL     1     -10.423  17.555  65.676  1.00  0.00    -0.607 NA 
HETATM    6  H2  UNL     1      -9.785  16.761  65.740  1.00  0.00     0.000 HD 
HETATM    7  N   UNL     1     -10.784  19.742  65.905  1.00  0.00    -0.458 NA 
HETATM    8  H2  UNL     1     -10.487  20.689  66.140  1.00  0.00     0.000 HD 
HETATM    9  H1  UNL     1     -11.345  17.368  65.283  1.00  0.00     0.000 HD 
ENDROOT
BRANCH   2  10
HETATM   10  C   UNL     1      -7.840  17.825  67.053  1.00  0.00    -0.213 C  
HETATM   11  C   UNL     1      -6.586  17.683  66.196  1.00  0.00    -0.267 C  
HETATM   12  O   UNL     1      -5.721  16.844  66.418  1.00  0.00    -0.330 OA 
HETATM   13  O   UNL     1      -6.496  18.545  65.159  1.00  0.00    -0.436 OA 
ENDBRANCH   2  10
TORSDOF 1
ENDMDL
MODEL       59
REMARK 921   NORMALIZED FREE ENERGY PREDICTED BY IDOCK:   -3.04 KCAL/MOL
REMARK 922        TOTAL FREE ENERGY PREDICTED BY IDOCK:   -3.34 KCAL/MOL
REMARK 923 INTER-LIGAND FREE ENERGY PREDICTED BY IDOCK:   -3.21 KCAL/MOL
REMARK 924 INTRA-LIGAND FREE ENERGY PREDICTED BY IDOCK:   -0.13 KCAL/MOL
REMARK 927      BINDING AFFINITY PREDICTED BY RF-SCORE:    0.00 PKD
ROOT
HETATM    1  C   UNL     1     -14.183   8.601  72.350  1.00  0.00    -0.363 C  
HETATM    2  N   UNL     1     -12.833   8.850  71.830  1.00  0.00    -0.354 NA 
HETATM    3  H1  UNL     1     -12.890  12.082  71.701  1.00  0.00     0.000 HD 
HETATM    4  C   UNL     1     -12.444  10.118  71.479  1.00  0.00    -0.427 C  
HETATM    5  N   UNL     1     -11.395  10.452  70.817  1.00  0.00    -0.347 NA 
HETATM    6  H2  UNL     1     -10.784   9.691  70.520  1.00  0.00     0.000 HD 
HETATM    7  N   UNL     1     -13.179  11.139  71.961  1.00  0.00    -0.538 NA 
HETATM    8  H2  UNL     1     -13.988  10.976  72.561  1.00  0.00     0.000 HD 
HETATM    9  H1  UNL     1     -11.106  11.396  70.557  1.00  0.00     0.000 HD 
ENDROOT
BRANCH   2  10
HETATM   10  C   UNL     1     -12.208   7.654  71.205  1.00  0.00    -0.315 C  
HETATM   11  C   UNL     1     -11.169   6.972  72.089  1.00  0.00    -0.256 C  
HETATM   12  O   UNL     1     -10.574   5.954  71.751  1.00  0.00    -0.219 OA 
HETATM   13  O   UNL     1     -10.937   7.574  73.276  1.00  0.00    -0.393 OA 
ENDBRANCH   2  10
TORSDOF 1
ENDMDL
MODEL       60
REMARK 921   NORMALIZED FREE ENERGY PREDICTED BY IDOCK:   -3.03 KCAL/MOL
REMARK 922        TOTAL FREE ENERGY PREDICTED BY IDOCK:   -3.34 KCAL/MOL
REMARK 923 INTER-LIGAND FREE ENERGY PREDICTED BY IDOCK:   -3.30 KCAL/MOL
REMARK 924 INTRA-LIGAND FREE ENERGY PREDICTED BY IDOCK:   -0.04 KCAL/MOL
REMARK 927      BINDING AFFINITY PREDICTED BY RF-SCORE:    0.00 PKD
ROOT
HETATM    1  C   UNL     1     -10.228   8.830  71.976  1.00  0.00    -0.331 C  
HETATM    2  N   UNL     1     -11.368   9.183  71.121  1.00  0.00    -0.294 NA 
HETATM    3  H1  UNL     1      -9.901  11.208  69.068  1.00  0.00     0.000 HD 
HETATM    4  C   UNL     1     -11.244  10.152  70.158  1.00  0.00    -0.310 C  
HETATM    5  N   UNL     1     -12.192  10.715  69.497  1.00  0.00    -0.530 NA 
HETATM    6  H2  UNL     1     -13.140  10.407  69.712  1.00  0.00     0.000 HD 
HETATM    7  N   UNL     1      -9.994  10.487  69.784  1.00  0.00    -0.429 NA 
HETATM    8  H2  UNL     1      -9.176  10.040  70.198  1.00  0.00     0.000 HD 
HETATM    9  H1  UNL     1     -12.099  11.435  68.780  1.00  0.00     0.000 HD 
ENDROOT
BRANCH   2  10
HETATM   10  C   UNL     1     -12.687   8.875  71.735  1.00  0.00    -0.364 C  
HETATM   11  C   UNL     1     -13.182   7.461  71.449  1.00  0.00    -0.339 C  
HETATM   12  O   UNL     1     -14.234   7.021  71.900  1.00  0.00    -0.343 OA 
HETATM   13  O   UNL     1     -12.382   6.721  70.650  1.00  0.00    -0.359 OA 
ENDBRANCH   2  10
TORSDOF 1
ENDMDL
MODEL       61
REMARK 921   NORMALIZED FREE ENERGY PREDICTED BY IDOCK:   -3.03 KCAL/MOL
REMARK 922        TOTAL FREE ENERGY PREDICTED BY IDOCK:   -3.33 KCAL/MOL
REMARK 923 INTER-LIGAND FREE ENERGY PREDICTED BY IDOCK:   -3.27 KCAL/MOL
REMARK 924 INTRA-LIGAND FREE ENERGY PREDICTED BY IDOCK:   -0.06 KCAL/MOL
REMARK 927      BINDING AFFINITY PREDICTED BY RF-SCORE:    0.00 PKD
ROOT
HETATM    1  C   UNL     1      -8.328  15.488  67.446  1.00  0.00    -0.182 C  
HETATM    2  N   UNL     1      -9.495  16.036  66.744  1.00  0.00    -0.221 NA 
HETATM    3  H1  UNL     1      -8.216  18.793  65.636  1.00  0.00     0.000 HD 
HETATM    4  C   UNL     1      -9.459  17.300  66.211  1.00  0.00    -0.234 C  
HETATM    5  N   UNL     1     -10.453  17.986  65.772  1.00  0.00    -0.601 NA 
HETATM    6  H2  UNL     1     -11.369  17.541  65.825  1.00  0.00     0.000 HD 
HETATM    7  N   UNL     1      -8.244  17.853  66.031  1.00  0.00    -0.527 NA 
HETATM    8  H2  UNL     1      -7.389  17.354  66.280  1.00  0.00     0.000 HD 
HETATM    9  H1  UNL     1     -10.425  18.926  65.376  1.00  0.00     0.000 HD 
ENDROOT
BRANCH   2  10
HETATM   10  C   UNL     1     -10.782  15.412  67.153  1.00  0.00    -0.314 C  
HETATM   11  C   UNL     1     -11.516  14.714  66.013  1.00  0.00    -0.332 C  
HETATM   12  O   UNL     1     -12.576  14.118  66.172  1.00  0.00    -0.465 OA 
HETATM   13  O   UNL     1     -10.922  14.805  64.803  1.00  0.00    -0.390 OA 
ENDBRANCH   2  10
TORSDOF 1
ENDMDL
MODEL       62
REMARK 921   NORMALIZED FREE ENERGY PREDICTED BY IDOCK:   -3.02 KCAL/MOL
REMARK 922        TOTAL FREE ENERGY PREDICTED BY IDOCK:   -3.32 KCAL/MOL
REMARK 923 INTER-LIGAND FREE ENERGY PREDICTED BY IDOCK:   -3.19 KCAL/MOL
REMARK 924 INTRA-LIGAND FREE ENERGY PREDICTED BY IDOCK:   -0.13 KCAL/MOL
REMARK 927      BINDING AFFINITY PREDICTED BY RF-SCORE:    0.00 PKD
ROOT
HETATM    1  C   UNL     1      -8.750  13.269  67.171  1.00  0.00    -0.212 C  
HETATM    2  N   UNL     1     -10.073  13.379  66.542  1.00  0.00    -0.274 NA 
HETATM    3  H1  UNL     1     -11.455  10.699  67.716  1.00  0.00     0.000 HD 
HETATM    4  C   UNL     1     -10.985  12.360  66.654  1.00  0.00    -0.268 C  
HETATM    5  N   UNL     1     -12.075  12.218  65.989  1.00  0.00    -0.630 NA 
HETATM    6  H2  UNL     1     -12.286  12.943  65.303  1.00  0.00     0.000 HD 
HETATM    7  N   UNL     1     -10.777  11.457  67.632  1.00  0.00    -0.204 NA 
HETATM    8  H2  UNL     1      -9.978  11.528  68.262  1.00  0.00     0.000 HD 
HETATM    9  H1  UNL     1     -12.753  11.460  66.073  1.00  0.00     0.000 HD 
ENDROOT
BRANCH   2  10
HETATM   10  C   UNL     1     -10.106  14.316  65.388  1.00  0.00    -0.351 C  
HETATM   11  C   UNL     1     -10.716  15.675  65.716  1.00  0.00    -0.341 C  
HETATM   12  O   UNL     1     -10.796  16.582  64.896  1.00  0.00    -0.684 OA 
HETATM   13  O   UNL     1     -11.176  15.810  66.980  1.00  0.00    -0.229 OA 
ENDBRANCH   2  10
TORSDOF 1
ENDMDL
MODEL       63
REMARK 921   NORMALIZED FREE ENERGY PREDICTED BY IDOCK:   -3.01 KCAL/MOL
REMARK 922        TOTAL FREE ENERGY PREDICTED BY IDOCK:   -3.31 KCAL/MOL
REMARK 923 INTER-LIGAND FREE ENERGY PREDICTED BY IDOCK:   -3.27 KCAL/MOL
REMARK 924 INTRA-LIGAND FREE ENERGY PREDICTED BY IDOCK:   -0.05 KCAL/MOL
REMARK 927      BINDING AFFINITY PREDICTED BY RF-SCORE:    0.00 PKD
ROOT
HETATM    1  C   UNL     1     -10.121  10.490  65.384  1.00  0.00    -0.291 C  
HETATM    2  N   UNL     1     -10.273  11.874  65.851  1.00  0.00    -0.228 NA 
HETATM    3  H1  UNL     1      -7.297  12.382  67.015  1.00  0.00     0.000 HD 
HETATM    4  C   UNL     1      -9.269  12.485  66.559  1.00  0.00    -0.210 C  
HETATM    5  N   UNL     1      -9.340  13.590  67.211  1.00  0.00    -0.224 NA 
HETATM    6  H2  UNL     1     -10.243  14.065  67.200  1.00  0.00     0.000 HD 
HETATM    7  N   UNL     1      -8.044  11.928  66.489  1.00  0.00    -0.373 NA 
HETATM    8  H2  UNL     1      -7.871  11.090  65.933  1.00  0.00     0.000 HD 
HETATM    9  H1  UNL     1      -8.593  14.044  67.738  1.00  0.00     0.000 HD 
ENDROOT
BRANCH   2  10
HETATM   10  C   UNL     1     -11.690  12.296  66.008  1.00  0.00    -0.388 C  
HETATM   11  C   UNL     1     -12.064  13.516  65.174  1.00  0.00    -0.404 C  
HETATM   12  O   UNL     1     -13.197  13.985  65.153  1.00  0.00    -0.768 OA 
HETATM   13  O   UNL     1     -11.053  14.058  64.459  1.00  0.00    -0.381 OA 
ENDBRANCH   2  10
TORSDOF 1
ENDMDL
MODEL       64
REMARK 921   NORMALIZED FREE ENERGY PREDICTED BY IDOCK:   -2.99 KCAL/MOL
REMARK 922        TOTAL FREE ENERGY PREDICTED BY IDOCK:   -3.29 KCAL/MOL
REMARK 923 INTER-LIGAND FREE ENERGY PREDICTED BY IDOCK:   -3.54 KCAL/MOL
REMARK 924 INTRA-LIGAND FREE ENERGY PREDICTED BY IDOCK:    0.25 KCAL/MOL
REMARK 927      BINDING AFFINITY PREDICTED BY RF-SCORE:    0.00 PKD
ROOT
HETATM    1  C   UNL     1     -11.584  14.747  68.914  1.00  0.00    -0.313 C  
HETATM    2  N   UNL     1     -11.943  13.642  68.017  1.00  0.00    -0.366 NA 
HETATM    3  H1  UNL     1     -11.397  11.139  69.993  1.00  0.00     0.000 HD 
HETATM    4  C   UNL     1     -11.735  12.340  68.396  1.00  0.00    -0.337 C  
HETATM    5  N   UNL     1     -11.791  11.296  67.649  1.00  0.00    -0.627 NA 
HETATM    6  H2  UNL     1     -12.014  11.453  66.666  1.00  0.00     0.000 HD 
HETATM    7  N   UNL     1     -11.552  12.108  69.711  1.00  0.00    -0.457 NA 
HETATM    8  H2  UNL     1     -11.567  12.866  70.393  1.00  0.00     0.000 HD 
HETATM    9  H1  UNL     1     -11.637  10.328  67.932  1.00  0.00     0.000 HD 
ENDROOT
BRANCH   2  10
HETATM   10  C   UNL     1     -11.970  14.029  66.581  1.00  0.00    -0.445 C  
HETATM   11  C   UNL     1     -10.614  13.924  65.891  1.00  0.00    -0.293 C  
HETATM   12  O   UNL     1     -10.454  14.172  64.701  1.00  0.00    -0.434 OA 
HETATM   13  O   UNL     1      -9.590  13.547  66.687  1.00  0.00    -0.264 OA 
ENDBRANCH   2  10
TORSDOF 1
ENDMDL
MODEL       65
REMARK 921   NORMALIZED FREE ENERGY PREDICTED BY IDOCK:   -2.99 KCAL/MOL
REMARK 922        TOTAL FREE ENERGY PREDICTED BY IDOCK:   -3.29 KCAL/MOL
REMARK 923 INTER-LIGAND FREE ENERGY PREDICTED BY IDOCK:   -3.18 KCAL/MOL
REMARK 924 INTRA-LIGAND FREE ENERGY PREDICTED BY IDOCK:   -0.11 KCAL/MOL
REMARK 927      BINDING AFFINITY PREDICTED BY RF-SCORE:    0.00 PKD
ROOT
HETATM    1  C   UNL     1     -10.439  18.287  67.611  1.00  0.00    -0.411 C  
HETATM    2  N   UNL     1      -9.092  18.736  67.240  1.00  0.00    -0.274 NA 
HETATM    3  H1  UNL     1      -9.861  21.122  65.194  1.00  0.00     0.000 HD 
HETATM    4  C   UNL     1      -8.917  19.679  66.257  1.00  0.00    -0.375 C  
HETATM    5  N   UNL     1      -7.816  20.003  65.680  1.00  0.00    -0.481 NA 
HETATM    6  H2  UNL     1      -6.979  19.505  65.986  1.00  0.00     0.000 HD 
HETATM    7  N   UNL     1      -9.990  20.421  65.924  1.00  0.00    -0.602 NA 
HETATM    8  H2  UNL     1     -10.892  20.290  66.382  1.00  0.00     0.000 HD 
HETATM    9  H1  UNL     1      -7.686  20.704  64.950  1.00  0.00     0.000 HD 
ENDROOT
BRANCH   2  10
HETATM   10  C   UNL     1      -8.028  17.744  67.550  1.00  0.00    -0.212 C  
HETATM   11  C   UNL     1      -7.137  18.144  68.721  1.00  0.00    -0.279 C  
HETATM   12  O   UNL     1      -6.229  17.434  69.137  1.00  0.00    -0.202 OA 
HETATM   13  O   UNL     1      -7.410  19.349  69.268  1.00  0.00    -0.343 OA 
ENDBRANCH   2  10
TORSDOF 1
ENDMDL
MODEL       66
REMARK 921   NORMALIZED FREE ENERGY PREDICTED BY IDOCK:   -2.99 KCAL/MOL
REMARK 922        TOTAL FREE ENERGY PREDICTED BY IDOCK:   -3.29 KCAL/MOL
REMARK 923 INTER-LIGAND FREE ENERGY PREDICTED BY IDOCK:   -3.16 KCAL/MOL
REMARK 924 INTRA-LIGAND FREE ENERGY PREDICTED BY IDOCK:   -0.12 KCAL/MOL
REMARK 927      BINDING AFFINITY PREDICTED BY RF-SCORE:    0.00 PKD
ROOT
HETATM    1  C   UNL     1      -8.095  19.552  66.189  1.00  0.00    -0.333 C  
HETATM    2  N   UNL     1      -8.529  19.502  67.591  1.00  0.00    -0.302 NA 
HETATM    3  H1  UNL     1     -11.727  19.764  67.177  1.00  0.00     0.000 HD 
HETATM    4  C   UNL     1      -9.843  19.717  67.921  1.00  0.00    -0.404 C  
HETATM    5  N   UNL     1     -10.324  19.921  69.096  1.00  0.00    -0.600 NA 
HETATM    6  H2  UNL     1      -9.655  19.924  69.866  1.00  0.00     0.000 HD 
HETATM    7  N   UNL     1     -10.750  19.604  66.932  1.00  0.00    -0.480 NA 
HETATM    8  H2  UNL     1     -10.472  19.369  65.979  1.00  0.00     0.000 HD 
HETATM    9  H1  UNL     1     -11.301  20.081  69.341  1.00  0.00     0.000 HD 
ENDROOT
BRANCH   2  10
HETATM   10  C   UNL     1      -7.437  19.783  68.560  1.00  0.00    -0.312 C  
HETATM   11  C   UNL     1      -6.840  18.530  69.193  1.00  0.00    -0.249 C  
HETATM   12  O   UNL     1      -5.910  18.567  69.990  1.00  0.00    -0.237 OA 
HETATM   13  O   UNL     1      -7.416  17.366  68.820  1.00  0.00    -0.247 OA 
ENDBRANCH   2  10
TORSDOF 1
ENDMDL
MODEL       67
REMARK 921   NORMALIZED FREE ENERGY PREDICTED BY IDOCK:   -2.99 KCAL/MOL
REMARK 922        TOTAL FREE ENERGY PREDICTED BY IDOCK:   -3.29 KCAL/MOL
REMARK 923 INTER-LIGAND FREE ENERGY PREDICTED BY IDOCK:   -3.16 KCAL/MOL
REMARK 924 INTRA-LIGAND FREE ENERGY PREDICTED BY IDOCK:   -0.13 KCAL/MOL
REMARK 927      BINDING AFFINITY PREDICTED BY RF-SCORE:    0.00 PKD
ROOT
HETATM    1  C   UNL     1     -11.541  11.566  69.536  1.00  0.00    -0.333 C  
HETATM    2  N   UNL     1     -11.601  12.902  68.930  1.00  0.00    -0.294 NA 
HETATM    3  H1  UNL     1     -12.508  14.627  71.513  1.00  0.00     0.000 HD 
HETATM    4  C   UNL     1     -12.085  13.969  69.644  1.00  0.00    -0.355 C  
HETATM    5  N   UNL     1     -12.400  15.129  69.187  1.00  0.00    -0.592 NA 
HETATM    6  H2  UNL     1     -12.275  15.271  68.184  1.00  0.00     0.000 HD 
HETATM    7  N   UNL     1     -12.148  13.834  70.982  1.00  0.00    -0.468 NA 
HETATM    8  H2  UNL     1     -11.848  12.976  71.445  1.00  0.00     0.000 HD 
HETATM    9  H1  UNL     1     -12.760  15.923  69.718  1.00  0.00     0.000 HD 
ENDROOT
BRANCH   2  10
HETATM   10  C   UNL     1     -11.665  12.878  67.445  1.00  0.00    -0.372 C  
HETATM   11  C   UNL     1     -10.347  13.242  66.767  1.00  0.00    -0.257 C  
HETATM   12  O   UNL     1     -10.205  13.244  65.550  1.00  0.00    -0.289 OA 
HETATM   13  O   UNL     1      -9.341  13.575  67.606  1.00  0.00    -0.201 OA 
ENDBRANCH   2  10
TORSDOF 1
ENDMDL
MODEL       68
REMARK 921   NORMALIZED FREE ENERGY PREDICTED BY IDOCK:   -2.96 KCAL/MOL
REMARK 922        TOTAL FREE ENERGY PREDICTED BY IDOCK:   -3.26 KCAL/MOL
REMARK 923 INTER-LIGAND FREE ENERGY PREDICTED BY IDOCK:   -3.20 KCAL/MOL
REMARK 924 INTRA-LIGAND FREE ENERGY PREDICTED BY IDOCK:   -0.06 KCAL/MOL
REMARK 927      BINDING AFFINITY PREDICTED BY RF-SCORE:    0.00 PKD
ROOT
HETATM    1  C   UNL     1      -8.533  18.002  68.211  1.00  0.00    -0.287 C  
HETATM    2  N   UNL     1      -8.612  19.069  67.204  1.00  0.00    -0.276 NA 
HETATM    3  H1  UNL     1     -11.800  19.623  67.250  1.00  0.00     0.000 HD 
HETATM    4  C   UNL     1      -9.830  19.541  66.783  1.00  0.00    -0.382 C  
HETATM    5  N   UNL     1     -10.059  20.298  65.771  1.00  0.00    -0.555 NA 
HETATM    6  H2  UNL     1      -9.247  20.579  65.220  1.00  0.00     0.000 HD 
HETATM    7  N   UNL     1     -10.894  19.271  67.563  1.00  0.00    -0.461 NA 
HETATM    8  H2  UNL     1     -10.799  18.741  68.429  1.00  0.00     0.000 HD 
HETATM    9  H1  UNL     1     -10.965  20.649  65.457  1.00  0.00     0.000 HD 
ENDROOT
BRANCH   2  10
HETATM   10  C   UNL     1      -7.412  19.149  66.330  1.00  0.00    -0.269 C  
HETATM   11  C   UNL     1      -6.628  20.448  66.481  1.00  0.00    -0.233 C  
HETATM   12  O   UNL     1      -5.594  20.675  65.863  1.00  0.00    -0.181 OA 
HETATM   13  O   UNL     1      -7.158  21.345  67.342  1.00  0.00    -0.556 OA 
ENDBRANCH   2  10
TORSDOF 1
ENDMDL
MODEL       69
REMARK 921   NORMALIZED FREE ENERGY PREDICTED BY IDOCK:   -2.94 KCAL/MOL
REMARK 922        TOTAL FREE ENERGY PREDICTED BY IDOCK:   -3.24 KCAL/MOL
REMARK 923 INTER-LIGAND FREE ENERGY PREDICTED BY IDOCK:   -3.13 KCAL/MOL
REMARK 924 INTRA-LIGAND FREE ENERGY PREDICTED BY IDOCK:   -0.11 KCAL/MOL
REMARK 927      BINDING AFFINITY PREDICTED BY RF-SCORE:    0.00 PKD
ROOT
HETATM    1  C   UNL     1      -9.862   6.685  71.435  1.00  0.00    -0.179 C  
HETATM    2  N   UNL     1     -11.135   6.909  70.738  1.00  0.00    -0.261 NA 
HETATM    3  H1  UNL     1     -12.871   8.156  73.167  1.00  0.00     0.000 HD 
HETATM    4  C   UNL     1     -12.246   7.319  71.430  1.00  0.00    -0.349 C  
HETATM    5  N   UNL     1     -13.459   7.343  71.007  1.00  0.00    -0.609 NA 
HETATM    6  H2  UNL     1     -13.612   7.022  70.050  1.00  0.00     0.000 HD 
HETATM    7  N   UNL     1     -12.045   7.851  72.652  1.00  0.00    -0.592 NA 
HETATM    8  H2  UNL     1     -11.108   7.945  73.044  1.00  0.00     0.000 HD 
HETATM    9  H1  UNL     1     -14.285   7.648  71.522  1.00  0.00     0.000 HD 
ENDROOT
BRANCH   2  10
HETATM   10  C   UNL     1     -11.259   6.143  69.469  1.00  0.00    -0.411 C  
HETATM   11  C   UNL     1     -10.907   6.953  68.226  1.00  0.00    -0.184 C  
HETATM   12  O   UNL     1     -10.923   6.477  67.097  1.00  0.00    -0.356 OA 
HETATM   13  O   UNL     1     -10.584   8.246  68.452  1.00  0.00    -0.186 OA 
ENDBRANCH   2  10
TORSDOF 1
ENDMDL
MODEL       70
REMARK 921   NORMALIZED FREE ENERGY PREDICTED BY IDOCK:   -2.92 KCAL/MOL
REMARK 922        TOTAL FREE ENERGY PREDICTED BY IDOCK:   -3.22 KCAL/MOL
REMARK 923 INTER-LIGAND FREE ENERGY PREDICTED BY IDOCK:   -3.10 KCAL/MOL
REMARK 924 INTRA-LIGAND FREE ENERGY PREDICTED BY IDOCK:   -0.12 KCAL/MOL
REMARK 927      BINDING AFFINITY PREDICTED BY RF-SCORE:    0.00 PKD
ROOT
HETATM    1  C   UNL     1     -11.976  13.763  68.078  1.00  0.00    -0.355 C  
HETATM    2  N   UNL     1     -11.715  14.514  69.312  1.00  0.00    -0.292 NA 
HETATM    3  H1  UNL     1     -12.216  12.172  71.488  1.00  0.00     0.000 HD 
HETATM    4  C   UNL     1     -11.942  13.941  70.538  1.00  0.00    -0.314 C  
HETATM    5  N   UNL     1     -11.971  14.533  71.678  1.00  0.00    -0.374 NA 
HETATM    6  H2  UNL     1     -11.808  15.541  71.670  1.00  0.00     0.000 HD 
HETATM    7  N   UNL     1     -12.047  12.598  70.577  1.00  0.00    -0.500 NA 
HETATM    8  H2  UNL     1     -11.961  12.033  69.732  1.00  0.00     0.000 HD 
HETATM    9  H1  UNL     1     -12.140  14.107  72.590  1.00  0.00     0.000 HD 
ENDROOT
BRANCH   2  10
HETATM   10  C   UNL     1     -11.769  15.989  69.132  1.00  0.00    -0.307 C  
HETATM   11  C   UNL     1     -10.400  16.661  69.159  1.00  0.00    -0.326 C  
HETATM   12  O   UNL     1     -10.249  17.867  68.995  1.00  0.00    -0.378 OA 
HETATM   13  O   UNL     1      -9.356  15.834  69.389  1.00  0.00    -0.254 OA 
ENDBRANCH   2  10
TORSDOF 1
ENDMDL
MODEL       71
REMARK 921   NORMALIZED FREE ENERGY PREDICTED BY IDOCK:   -2.92 KCAL/MOL
REMARK 922        TOTAL FREE ENERGY PREDICTED BY IDOCK:   -3.21 KCAL/MOL
REMARK 923 INTER-LIGAND FREE ENERGY PREDICTED BY IDOCK:   -3.48 KCAL/MOL
REMARK 924 INTRA-LIGAND FREE ENERGY PREDICTED BY IDOCK:    0.26 KCAL/MOL
REMARK 927      BINDING AFFINITY PREDICTED BY RF-SCORE:    0.00 PKD
ROOT
HETATM    1  C   UNL     1      -8.960  16.443  68.272  1.00  0.00    -0.206 C  
HETATM    2  N   UNL     1     -10.362  16.185  67.924  1.00  0.00    -0.269 NA 
HETATM    3  H1  UNL     1     -10.705  13.235  69.207  1.00  0.00     0.000 HD 
HETATM    4  C   UNL     1     -10.924  14.956  68.160  1.00  0.00    -0.272 C  
HETATM    5  N   UNL     1     -12.049  14.519  67.718  1.00  0.00    -0.598 NA 
HETATM    6  H2  UNL     1     -12.582  15.156  67.125  1.00  0.00     0.000 HD 
HETATM    7  N   UNL     1     -10.287  14.149  69.031  1.00  0.00    -0.369 NA 
HETATM    8  H2  UNL     1      -9.426  14.439  69.493  1.00  0.00     0.000 HD 
HETATM    9  H1  UNL     1     -12.467  13.605  67.894  1.00  0.00     0.000 HD 
ENDROOT
BRANCH   2  10
HETATM   10  C   UNL     1     -10.880  17.072  66.848  1.00  0.00    -0.013 C  
HETATM   11  C   UNL     1     -10.683  16.512  65.443  1.00  0.00    -0.259 C  
HETATM   12  O   UNL     1     -11.075  17.092  64.436  1.00  0.00    -1.144 OA 
HETATM   13  O   UNL     1     -10.032  15.330  65.379  1.00  0.00    -0.347 OA 
ENDBRANCH   2  10
TORSDOF 1
ENDMDL
MODEL       72
REMARK 921   NORMALIZED FREE ENERGY PREDICTED BY IDOCK:   -2.91 KCAL/MOL
REMARK 922        TOTAL FREE ENERGY PREDICTED BY IDOCK:   -3.21 KCAL/MOL
REMARK 923 INTER-LIGAND FREE ENERGY PREDICTED BY IDOCK:   -3.46 KCAL/MOL
REMARK 924 INTRA-LIGAND FREE ENERGY PREDICTED BY IDOCK:    0.25 KCAL/MOL
REMARK 927      BINDING AFFINITY PREDICTED BY RF-SCORE:    0.00 PKD
ROOT
HETATM    1  C   UNL     1     -10.289  13.918  66.980  1.00  0.00    -0.267 C  
HETATM    2  N   UNL     1     -10.897  12.982  66.027  1.00  0.00    -0.270 NA 
HETATM    3  H1  UNL     1     -13.494  14.705  65.157  1.00  0.00     0.000 HD 
HETATM    4  C   UNL     1     -12.131  13.242  65.484  1.00  0.00    -0.435 C  
HETATM    5  N   UNL     1     -12.874  12.430  64.822  1.00  0.00    -0.761 NA 
HETATM    6  H2  UNL     1     -12.507  11.488  64.685  1.00  0.00     0.000 HD 
HETATM    7  N   UNL     1     -12.577  14.511  65.560  1.00  0.00    -0.290 NA 
HETATM    8  H2  UNL     1     -12.023  15.245  66.001  1.00  0.00     0.000 HD 
HETATM    9  H1  UNL     1     -13.791  12.624  64.419  1.00  0.00     0.000 HD 
ENDROOT
BRANCH   2  10
HETATM   10  C   UNL     1     -10.396  11.588  66.161  1.00  0.00    -0.245 C  
HETATM   11  C   UNL     1     -11.127  10.772  67.223  1.00  0.00    -0.270 C  
HETATM   12  O   UNL     1     -10.870   9.595  67.450  1.00  0.00    -0.274 OA 
HETATM   13  O   UNL     1     -12.078  11.442  67.911  1.00  0.00    -0.646 OA 
ENDBRANCH   2  10
TORSDOF 1
ENDMDL
MODEL       73
REMARK 921   NORMALIZED FREE ENERGY PREDICTED BY IDOCK:   -2.89 KCAL/MOL
REMARK 922        TOTAL FREE ENERGY PREDICTED BY IDOCK:   -3.18 KCAL/MOL
REMARK 923 INTER-LIGAND FREE ENERGY PREDICTED BY IDOCK:   -3.08 KCAL/MOL
REMARK 924 INTRA-LIGAND FREE ENERGY PREDICTED BY IDOCK:   -0.10 KCAL/MOL
REMARK 927      BINDING AFFINITY PREDICTED BY RF-SCORE:    0.00 PKD
ROOT
HETATM    1  C   UNL     1      -9.954  13.456  68.225  1.00  0.00    -0.240 C  
HETATM    2  N   UNL     1     -10.806  14.604  68.557  1.00  0.00    -0.243 NA 
HETATM    3  H1  UNL     1     -12.453  13.356  71.047  1.00  0.00     0.000 HD 
HETATM    4  C   UNL     1     -11.796  14.488  69.500  1.00  0.00    -0.329 C  
HETATM    5  N   UNL     1     -12.746  15.322  69.734  1.00  0.00    -0.622 NA 
HETATM    6  H2  UNL     1     -12.766  16.162  69.155  1.00  0.00     0.000 HD 
HETATM    7  N   UNL     1     -11.717  13.442  70.345  1.00  0.00    -0.541 NA 
HETATM    8  H2  UNL     1     -10.955  12.767  70.287  1.00  0.00     0.000 HD 
HETATM    9  H1  UNL     1     -13.482  15.235  70.436  1.00  0.00     0.000 HD 
ENDROOT
BRANCH   2  10
HETATM   10  C   UNL     1     -10.900  15.609  67.465  1.00  0.00    -0.316 C  
HETATM   11  C   UNL     1      -9.916  16.767  67.609  1.00  0.00    -0.262 C  
HETATM   12  O   UNL     1      -9.830  17.671  66.786  1.00  0.00    -0.277 OA 
HETATM   13  O   UNL     1      -9.147  16.734  68.720  1.00  0.00    -0.251 OA 
ENDBRANCH   2  10
TORSDOF 1
ENDMDL
MODEL       74
REMARK 921   NORMALIZED FREE ENERGY PREDICTED BY IDOCK:   -2.87 KCAL/MOL
REMARK 922        TOTAL FREE ENERGY PREDICTED BY IDOCK:   -3.17 KCAL/MOL
REMARK 923 INTER-LIGAND FREE ENERGY PREDICTED BY IDOCK:   -3.04 KCAL/MOL
REMARK 924 INTRA-LIGAND FREE ENERGY PREDICTED BY IDOCK:   -0.13 KCAL/MOL
REMARK 927      BINDING AFFINITY PREDICTED BY RF-SCORE:    0.00 PKD
ROOT
HETATM    1  C   UNL     1     -11.213  14.783  64.756  1.00  0.00    -0.385 C  
HETATM    2  N   UNL     1     -11.177  14.043  66.023  1.00  0.00    -0.306 NA 
HETATM    3  H1  UNL     1     -12.885  11.430  65.174  1.00  0.00     0.000 HD 
HETATM    4  C   UNL     1     -11.907  12.892  66.179  1.00  0.00    -0.429 C  
HETATM    5  N   UNL     1     -12.146  12.268  67.277  1.00  0.00    -0.517 NA 
HETATM    6  H2  UNL     1     -11.748  12.673  68.125  1.00  0.00     0.000 HD 
HETATM    7  N   UNL     1     -12.342  12.286  65.058  1.00  0.00    -0.504 NA 
HETATM    8  H2  UNL     1     -12.137  12.665  64.134  1.00  0.00     0.000 HD 
HETATM    9  H1  UNL     1     -12.689  11.412  67.393  1.00  0.00     0.000 HD 
ENDROOT
BRANCH   2  10
HETATM   10  C   UNL     1     -10.811  14.885  67.192  1.00  0.00    -0.311 C  
HETATM   11  C   UNL     1      -9.384  14.667  67.685  1.00  0.00    -0.200 C  
HETATM   12  O   UNL     1      -8.900  15.297  68.618  1.00  0.00    -0.169 OA 
HETATM   13  O   UNL     1      -8.686  13.716  67.025  1.00  0.00    -0.220 OA 
ENDBRANCH   2  10
TORSDOF 1
ENDMDL
MODEL       75
REMARK 921   NORMALIZED FREE ENERGY PREDICTED BY IDOCK:   -2.86 KCAL/MOL
REMARK 922        TOTAL FREE ENERGY PREDICTED BY IDOCK:   -3.16 KCAL/MOL
REMARK 923 INTER-LIGAND FREE ENERGY PREDICTED BY IDOCK:   -3.09 KCAL/MOL
REMARK 924 INTRA-LIGAND FREE ENERGY PREDICTED BY IDOCK:   -0.06 KCAL/MOL
REMARK 927      BINDING AFFINITY PREDICTED BY RF-SCORE:    0.00 PKD
ROOT
HETATM    1  C   UNL     1     -10.655  17.736  67.481  1.00  0.00    -0.359 C  
HETATM    2  N   UNL     1     -10.562  16.288  67.707  1.00  0.00    -0.306 NA 
HETATM    3  H1  UNL     1     -11.058  16.205  70.903  1.00  0.00     0.000 HD 
HETATM    4  C   UNL     1     -10.580  15.779  68.981  1.00  0.00    -0.232 C  
HETATM    5  N   UNL     1     -10.291  14.579  69.340  1.00  0.00    -0.409 NA 
HETATM    6  H2  UNL     1     -10.018  13.936  68.597  1.00  0.00     0.000 HD 
HETATM    7  N   UNL     1     -11.045  16.584  69.955  1.00  0.00    -0.426 NA 
HETATM    8  H2  UNL     1     -11.370  17.529  69.755  1.00  0.00     0.000 HD 
HETATM    9  H1  UNL     1     -10.304  14.201  70.288  1.00  0.00     0.000 HD 
ENDROOT
BRANCH   2  10
HETATM   10  C   UNL     1      -9.899  15.556  66.595  1.00  0.00    -0.254 C  
HETATM   11  C   UNL     1     -10.804  14.542  65.901  1.00  0.00    -0.308 C  
HETATM   12  O   UNL     1     -10.437  13.870  64.944  1.00  0.00    -0.386 OA 
HETATM   13  O   UNL     1     -12.045  14.426  66.423  1.00  0.00    -0.414 OA 
ENDBRANCH   2  10
TORSDOF 1
ENDMDL
MODEL       76
REMARK 921   NORMALIZED FREE ENERGY PREDICTED BY IDOCK:   -2.84 KCAL/MOL
REMARK 922        TOTAL FREE ENERGY PREDICTED BY IDOCK:   -3.14 KCAL/MOL
REMARK 923 INTER-LIGAND FREE ENERGY PREDICTED BY IDOCK:   -3.11 KCAL/MOL
REMARK 924 INTRA-LIGAND FREE ENERGY PREDICTED BY IDOCK:   -0.03 KCAL/MOL
REMARK 927      BINDING AFFINITY PREDICTED BY RF-SCORE:    0.00 PKD
ROOT
HETATM    1  C   UNL     1     -11.618  11.845  67.327  1.00  0.00    -0.293 C  
HETATM    2  N   UNL     1     -11.794  12.468  66.010  1.00  0.00    -0.480 NA 
HETATM    3  H1  UNL     1     -13.048  15.310  66.917  1.00  0.00     0.000 HD 
HETATM    4  C   UNL     1     -12.440  13.673  65.889  1.00  0.00    -0.452 C  
HETATM    5  N   UNL     1     -12.857  14.224  64.806  1.00  0.00    -0.651 NA 
HETATM    6  H2  UNL     1     -12.689  13.710  63.941  1.00  0.00     0.000 HD 
HETATM    7  N   UNL     1     -12.568  14.414  67.007  1.00  0.00    -0.427 NA 
HETATM    8  H2  UNL     1     -12.200  14.094  67.903  1.00  0.00     0.000 HD 
HETATM    9  H1  UNL     1     -13.337  15.120  64.716  1.00  0.00     0.000 HD 
ENDROOT
BRANCH   2  10
HETATM   10  C   UNL     1     -11.764  11.497  64.885  1.00  0.00     0.091 C  
HETATM   11  C   UNL     1     -10.709  11.811  63.829  1.00  0.00    -0.419 C  
HETATM   12  O   UNL     1     -10.519  11.101  62.848  1.00  0.00    -0.182 OA 
HETATM   13  O   UNL     1      -9.997  12.939  64.044  1.00  0.00    -0.294 OA 
ENDBRANCH   2  10
TORSDOF 1
ENDMDL
MODEL       77
REMARK 921   NORMALIZED FREE ENERGY PREDICTED BY IDOCK:   -2.84 KCAL/MOL
REMARK 922        TOTAL FREE ENERGY PREDICTED BY IDOCK:   -3.13 KCAL/MOL
REMARK 923 INTER-LIGAND FREE ENERGY PREDICTED BY IDOCK:   -3.39 KCAL/MOL
REMARK 924 INTRA-LIGAND FREE ENERGY PREDICTED BY IDOCK:    0.26 KCAL/MOL
REMARK 927      BINDING AFFINITY PREDICTED BY RF-SCORE:    0.00 PKD
ROOT
HETATM    1  C   UNL     1     -11.035   9.055  71.698  1.00  0.00    -0.365 C  
HETATM    2  N   UNL     1     -12.104   8.137  71.283  1.00  0.00    -0.295 NA 
HETATM    3  H1  UNL     1     -14.271   8.743  73.609  1.00  0.00     0.000 HD 
HETATM    4  C   UNL     1     -13.209   7.951  72.075  1.00  0.00    -0.224 C  
HETATM    5  N   UNL     1     -14.103   7.035  71.957  1.00  0.00    -0.583 NA 
HETATM    6  H2  UNL     1     -13.977   6.374  71.190  1.00  0.00     0.000 HD 
HETATM    7  N   UNL     1     -13.449   8.881  73.020  1.00  0.00    -0.952 NA 
HETATM    8  H2  UNL     1     -12.837   9.688  73.140  1.00  0.00     0.000 HD 
HETATM    9  H1  UNL     1     -14.925   6.897  72.546  1.00  0.00     0.000 HD 
ENDROOT
BRANCH   2  10
HETATM   10  C   UNL     1     -11.648   7.081  70.342  1.00  0.00    -0.295 C  
HETATM   11  C   UNL     1     -11.015   5.876  71.030  1.00  0.00    -0.266 C  
HETATM   12  O   UNL     1     -10.610   4.896  70.414  1.00  0.00    -0.175 OA 
HETATM   13  O   UNL     1     -10.919   5.965  72.375  1.00  0.00    -0.235 OA 
ENDBRANCH   2  10
TORSDOF 1
ENDMDL
MODEL       78
REMARK 921   NORMALIZED FREE ENERGY PREDICTED BY IDOCK:   -2.83 KCAL/MOL
REMARK 922        TOTAL FREE ENERGY PREDICTED BY IDOCK:   -3.13 KCAL/MOL
REMARK 923 INTER-LIGAND FREE ENERGY PREDICTED BY IDOCK:   -3.00 KCAL/MOL
REMARK 924 INTRA-LIGAND FREE ENERGY PREDICTED BY IDOCK:   -0.13 KCAL/MOL
REMARK 927      BINDING AFFINITY PREDICTED BY RF-SCORE:    0.00 PKD
ROOT
HETATM    1  C   UNL     1     -12.112  13.565  66.524  1.00  0.00    -0.408 C  
HETATM    2  N   UNL     1     -11.157  13.907  67.585  1.00  0.00    -0.270 NA 
HETATM    3  H1  UNL     1      -8.381  13.419  65.995  1.00  0.00     0.000 HD 
HETATM    4  C   UNL     1      -9.811  13.714  67.401  1.00  0.00    -0.234 C  
HETATM    5  N   UNL     1      -8.891  13.757  68.297  1.00  0.00    -0.183 NA 
HETATM    6  H2  UNL     1      -9.196  13.957  69.251  1.00  0.00     0.000 HD 
HETATM    7  N   UNL     1      -9.382  13.563  66.133  1.00  0.00    -0.477 NA 
HETATM    8  H2  UNL     1     -10.029  13.591  65.345  1.00  0.00     0.000 HD 
HETATM    9  H1  UNL     1      -7.890  13.614  68.160  1.00  0.00     0.000 HD 
ENDROOT
BRANCH   2  10
HETATM   10  C   UNL     1     -11.755  13.899  68.947  1.00  0.00    -0.337 C  
HETATM   11  C   UNL     1     -12.034  15.292  69.503  1.00  0.00    -0.330 C  
HETATM   12  O   UNL     1     -12.554  15.477  70.597  1.00  0.00    -0.416 OA 
HETATM   13  O   UNL     1     -11.658  16.317  68.707  1.00  0.00    -0.342 OA 
ENDBRANCH   2  10
TORSDOF 1
ENDMDL
MODEL       79
REMARK 921   NORMALIZED FREE ENERGY PREDICTED BY IDOCK:   -2.82 KCAL/MOL
REMARK 922        TOTAL FREE ENERGY PREDICTED BY IDOCK:   -3.12 KCAL/MOL
REMARK 923 INTER-LIGAND FREE ENERGY PREDICTED BY IDOCK:   -3.39 KCAL/MOL
REMARK 924 INTRA-LIGAND FREE ENERGY PREDICTED BY IDOCK:    0.27 KCAL/MOL
REMARK 927      BINDING AFFINITY PREDICTED BY RF-SCORE:    0.00 PKD
ROOT
HETATM    1  C   UNL     1     -10.615  11.364  64.772  1.00  0.00    -0.316 C  
HETATM    2  N   UNL     1     -11.190  12.266  65.778  1.00  0.00    -0.323 NA 
HETATM    3  H1  UNL     1     -13.936  13.077  64.271  1.00  0.00     0.000 HD 
HETATM    4  C   UNL     1     -12.333  12.975  65.506  1.00  0.00    -0.472 C  
HETATM    5  N   UNL     1     -12.822  13.949  66.187  1.00  0.00    -0.427 NA 
HETATM    6  H2  UNL     1     -12.303  14.224  67.022  1.00  0.00     0.000 HD 
HETATM    7  N   UNL     1     -13.086  12.550  64.473  1.00  0.00    -0.839 NA 
HETATM    8  H2  UNL     1     -12.819  11.737  63.919  1.00  0.00     0.000 HD 
HETATM    9  H1  UNL     1     -13.671  14.476  65.985  1.00  0.00     0.000 HD 
ENDROOT
BRANCH   2  10
HETATM   10  C   UNL     1     -10.199  12.757  66.771  1.00  0.00    -0.239 C  
HETATM   11  C   UNL     1      -9.519  14.062  66.367  1.00  0.00    -0.259 C  
HETATM   12  O   UNL     1      -8.698  14.630  67.077  1.00  0.00    -0.215 OA 
HETATM   13  O   UNL     1      -9.878  14.548  65.158  1.00  0.00    -0.296 OA 
ENDBRANCH   2  10
TORSDOF 1
ENDMDL
MODEL       80
REMARK 921   NORMALIZED FREE ENERGY PREDICTED BY IDOCK:   -2.81 KCAL/MOL
REMARK 922        TOTAL FREE ENERGY PREDICTED BY IDOCK:   -3.10 KCAL/MOL
REMARK 923 INTER-LIGAND FREE ENERGY PREDICTED BY IDOCK:   -3.00 KCAL/MOL
REMARK 924 INTRA-LIGAND FREE ENERGY PREDICTED BY IDOCK:   -0.11 KCAL/MOL
REMARK 927      BINDING AFFINITY PREDICTED BY RF-SCORE:    0.00 PKD
ROOT
HETATM    1  C   UNL     1      -8.891  16.538  68.865  1.00  0.00    -0.244 C  
HETATM    2  N   UNL     1      -8.443  17.865  68.424  1.00  0.00    -0.291 NA 
HETATM    3  H1  UNL     1      -5.434  17.845  69.614  1.00  0.00     0.000 HD 
HETATM    4  C   UNL     1      -7.230  18.362  68.829  1.00  0.00    -0.284 C  
HETATM    5  N   UNL     1      -6.807  19.569  68.710  1.00  0.00    -0.307 NA 
HETATM    6  H2  UNL     1      -7.444  20.232  68.267  1.00  0.00     0.000 HD 
HETATM    7  N   UNL     1      -6.337  17.477  69.313  1.00  0.00    -0.235 NA 
HETATM    8  H2  UNL     1      -6.553  16.482  69.375  1.00  0.00     0.000 HD 
HETATM    9  H1  UNL     1      -5.905  19.938  69.011  1.00  0.00     0.000 HD 
ENDROOT
BRANCH   2  10
HETATM   10  C   UNL     1      -9.559  18.775  68.052  1.00  0.00    -0.321 C  
HETATM   11  C   UNL     1      -9.859  18.800  66.556  1.00  0.00    -0.368 C  
HETATM   12  O   UNL     1     -10.765  19.467  66.071  1.00  0.00    -0.467 OA 
HETATM   13  O   UNL     1      -9.044  18.038  65.793  1.00  0.00    -0.482 OA 
ENDBRANCH   2  10
TORSDOF 1
ENDMDL
MODEL       81
REMARK 921   NORMALIZED FREE ENERGY PREDICTED BY IDOCK:   -2.81 KCAL/MOL
REMARK 922        TOTAL FREE ENERGY PREDICTED BY IDOCK:   -3.10 KCAL/MOL
REMARK 923 INTER-LIGAND FREE ENERGY PREDICTED BY IDOCK:   -3.10 KCAL/MOL
REMARK 924 INTRA-LIGAND FREE ENERGY PREDICTED BY IDOCK:   -0.01 KCAL/MOL
REMARK 927      BINDING AFFINITY PREDICTED BY RF-SCORE:    0.00 PKD
ROOT
HETATM    1  C   UNL     1     -13.672  15.202  71.384  1.00  0.00    -0.495 C  
HETATM    2  N   UNL     1     -12.600  14.685  70.524  1.00  0.00    -0.341 NA 
HETATM    3  H1  UNL     1     -12.875  11.524  71.154  1.00  0.00     0.000 HD 
HETATM    4  C   UNL     1     -12.249  13.359  70.567  1.00  0.00    -0.352 C  
HETATM    5  N   UNL     1     -11.207  12.815  70.049  1.00  0.00    -0.440 NA 
HETATM    6  H2  UNL     1     -10.570  13.438  69.551  1.00  0.00     0.000 HD 
HETATM    7  N   UNL     1     -13.135  12.510  71.122  1.00  0.00    -0.138 NA 
HETATM    8  H2  UNL     1     -14.027  12.838  71.494  1.00  0.00     0.000 HD 
HETATM    9  H1  UNL     1     -10.947  11.829  70.081  1.00  0.00     0.000 HD 
ENDROOT
BRANCH   2  10
HETATM   10  C   UNL     1     -11.622  15.725  70.104  1.00  0.00    -0.357 C  
HETATM   11  C   UNL     1     -11.443  15.825  68.593  1.00  0.00    -0.386 C  
HETATM   12  O   UNL     1     -10.702  16.647  68.065  1.00  0.00    -0.330 OA 
HETATM   13  O   UNL     1     -12.153  14.933  67.868  1.00  0.00    -0.257 OA 
ENDBRANCH   2  10
TORSDOF 1
ENDMDL
MODEL       82
REMARK 921   NORMALIZED FREE ENERGY PREDICTED BY IDOCK:   -2.81 KCAL/MOL
REMARK 922        TOTAL FREE ENERGY PREDICTED BY IDOCK:   -3.10 KCAL/MOL
REMARK 923 INTER-LIGAND FREE ENERGY PREDICTED BY IDOCK:   -3.04 KCAL/MOL
REMARK 924 INTRA-LIGAND FREE ENERGY PREDICTED BY IDOCK:   -0.06 KCAL/MOL
REMARK 927      BINDING AFFINITY PREDICTED BY RF-SCORE:    0.00 PKD
ROOT
HETATM    1  C   UNL     1      -9.963  19.421  68.934  1.00  0.00    -0.445 C  
HETATM    2  N   UNL     1      -9.395  18.154  68.457  1.00  0.00    -0.305 NA 
HETATM    3  H1  UNL     1     -11.144  16.078  70.217  1.00  0.00     0.000 HD 
HETATM    4  C   UNL     1      -9.752  16.966  69.042  1.00  0.00    -0.231 C  
HETATM    5  N   UNL     1      -9.186  15.823  68.886  1.00  0.00    -0.211 NA 
HETATM    6  H2  UNL     1      -8.381  15.797  68.258  1.00  0.00     0.000 HD 
HETATM    7  N   UNL     1     -10.878  16.962  69.782  1.00  0.00    -0.368 NA 
HETATM    8  H2  UNL     1     -11.439  17.805  69.902  1.00  0.00     0.000 HD 
HETATM    9  H1  UNL     1      -9.452  14.939  69.320  1.00  0.00     0.000 HD 
ENDROOT
BRANCH   2  10
HETATM   10  C   UNL     1      -8.081  18.312  67.779  1.00  0.00    -0.250 C  
HETATM   11  C   UNL     1      -8.088  17.875  66.317  1.00  0.00    -0.231 C  
HETATM   12  O   UNL     1      -7.103  17.963  65.593  1.00  0.00    -0.485 OA 
HETATM   13  O   UNL     1      -9.260  17.370  65.872  1.00  0.00    -0.513 OA 
ENDBRANCH   2  10
TORSDOF 1
ENDMDL
MODEL       83
REMARK 921   NORMALIZED FREE ENERGY PREDICTED BY IDOCK:   -2.81 KCAL/MOL
REMARK 922        TOTAL FREE ENERGY PREDICTED BY IDOCK:   -3.10 KCAL/MOL
REMARK 923 INTER-LIGAND FREE ENERGY PREDICTED BY IDOCK:   -3.07 KCAL/MOL
REMARK 924 INTRA-LIGAND FREE ENERGY PREDICTED BY IDOCK:   -0.03 KCAL/MOL
REMARK 927      BINDING AFFINITY PREDICTED BY RF-SCORE:    0.00 PKD
ROOT
HETATM    1  C   UNL     1     -11.108  14.805  66.803  1.00  0.00    -0.338 C  
HETATM    2  N   UNL     1     -10.141  15.872  67.087  1.00  0.00    -0.258 NA 
HETATM    3  H1  UNL     1      -7.390  14.181  66.877  1.00  0.00     0.000 HD 
HETATM    4  C   UNL     1      -8.808  15.583  67.239  1.00  0.00    -0.201 C  
HETATM    5  N   UNL     1      -7.893  16.359  67.699  1.00  0.00    -0.140 NA 
HETATM    6  H2  UNL     1      -8.191  17.293  67.983  1.00  0.00     0.000 HD 
HETATM    7  N   UNL     1      -8.381  14.397  66.764  1.00  0.00    -0.411 NA 
HETATM    8  H2  UNL     1      -9.020  13.743  66.312  1.00  0.00     0.000 HD 
HETATM    9  H1  UNL     1      -6.902  16.144  67.812  1.00  0.00     0.000 HD 
ENDROOT
BRANCH   2  10
HETATM   10  C   UNL     1     -10.747  17.064  67.737  1.00  0.00    -0.318 C  
HETATM   11  C   UNL     1     -10.510  18.365  66.977  1.00  0.00    -0.399 C  
HETATM   12  O   UNL     1     -10.962  19.443  67.347  1.00  0.00    -0.490 OA 
HETATM   13  O   UNL     1      -9.752  18.253  65.864  1.00  0.00    -0.516 OA 
ENDBRANCH   2  10
TORSDOF 1
ENDMDL
MODEL       84
REMARK 921   NORMALIZED FREE ENERGY PREDICTED BY IDOCK:   -2.81 KCAL/MOL
REMARK 922        TOTAL FREE ENERGY PREDICTED BY IDOCK:   -3.10 KCAL/MOL
REMARK 923 INTER-LIGAND FREE ENERGY PREDICTED BY IDOCK:   -3.03 KCAL/MOL
REMARK 924 INTRA-LIGAND FREE ENERGY PREDICTED BY IDOCK:   -0.06 KCAL/MOL
REMARK 927      BINDING AFFINITY PREDICTED BY RF-SCORE:    0.00 PKD
ROOT
HETATM    1  C   UNL     1      -9.205  13.560  67.636  1.00  0.00    -0.214 C  
HETATM    2  N   UNL     1     -10.472  14.270  67.418  1.00  0.00    -0.263 NA 
HETATM    3  H1  UNL     1     -12.396  11.754  66.758  1.00  0.00     0.000 HD 
HETATM    4  C   UNL     1     -11.580  13.596  66.969  1.00  0.00    -0.359 C  
HETATM    5  N   UNL     1     -12.673  14.109  66.529  1.00  0.00    -0.462 NA 
HETATM    6  H2  UNL     1     -12.723  15.128  66.512  1.00  0.00     0.000 HD 
HETATM    7  N   UNL     1     -11.572  12.255  67.091  1.00  0.00    -0.414 NA 
HETATM    8  H2  UNL     1     -10.778  11.762  67.500  1.00  0.00     0.000 HD 
HETATM    9  H1  UNL     1     -13.497  13.607  66.196  1.00  0.00     0.000 HD 
ENDROOT
BRANCH   2  10
HETATM   10  C   UNL     1     -10.300  15.724  67.161  1.00  0.00    -0.291 C  
HETATM   11  C   UNL     1     -10.947  16.615  68.218  1.00  0.00    -0.341 C  
HETATM   12  O   UNL     1     -10.880  17.839  68.186  1.00  0.00    -0.329 OA 
HETATM   13  O   UNL     1     -11.613  15.960  69.194  1.00  0.00    -0.362 OA 
ENDBRANCH   2  10
TORSDOF 1
ENDMDL
MODEL       85
REMARK 921   NORMALIZED FREE ENERGY PREDICTED BY IDOCK:   -2.79 KCAL/MOL
REMARK 922        TOTAL FREE ENERGY PREDICTED BY IDOCK:   -3.08 KCAL/MOL
REMARK 923 INTER-LIGAND FREE ENERGY PREDICTED BY IDOCK:   -2.96 KCAL/MOL
REMARK 924 INTRA-LIGAND FREE ENERGY PREDICTED BY IDOCK:   -0.13 KCAL/MOL
REMARK 927      BINDING AFFINITY PREDICTED BY RF-SCORE:    0.00 PKD
ROOT
HETATM    1  C   UNL     1      -9.191  13.762  67.045  1.00  0.00    -0.251 C  
HETATM    2  N   UNL     1     -10.567  13.259  66.939  1.00  0.00    -0.263 NA 
HETATM    3  H1  UNL     1     -10.641  12.541  63.785  1.00  0.00     0.000 HD 
HETATM    4  C   UNL     1     -11.104  12.951  65.715  1.00  0.00    -0.284 C  
HETATM    5  N   UNL     1     -12.339  12.717  65.446  1.00  0.00    -0.609 NA 
HETATM    6  H2  UNL     1     -12.991  12.766  66.229  1.00  0.00     0.000 HD 
HETATM    7  N   UNL     1     -10.242  12.771  64.696  1.00  0.00    -0.464 NA 
HETATM    8  H2  UNL     1      -9.234  12.860  64.828  1.00  0.00     0.000 HD 
HETATM    9  H1  UNL     1     -12.738  12.487  64.536  1.00  0.00     0.000 HD 
ENDROOT
BRANCH   2  10
HETATM   10  C   UNL     1     -11.434  13.658  68.080  1.00  0.00    -0.310 C  
HETATM   11  C   UNL     1     -11.708  12.529  69.068  1.00  0.00    -0.318 C  
HETATM   12  O   UNL     1     -12.376  12.683  70.084  1.00  0.00    -0.250 OA 
HETATM   13  O   UNL     1     -11.169  11.334  68.740  1.00  0.00    -0.206 OA 
ENDBRANCH   2  10
TORSDOF 1
ENDMDL
MODEL       86
REMARK 921   NORMALIZED FREE ENERGY PREDICTED BY IDOCK:   -2.79 KCAL/MOL
REMARK 922        TOTAL FREE ENERGY PREDICTED BY IDOCK:   -3.08 KCAL/MOL
REMARK 923 INTER-LIGAND FREE ENERGY PREDICTED BY IDOCK:   -3.35 KCAL/MOL
REMARK 924 INTRA-LIGAND FREE ENERGY PREDICTED BY IDOCK:    0.27 KCAL/MOL
REMARK 927      BINDING AFFINITY PREDICTED BY RF-SCORE:    0.00 PKD
ROOT
HETATM    1  C   UNL     1     -12.439  12.608  64.839  1.00  0.00    -0.494 C  
HETATM    2  N   UNL     1     -10.976  12.634  64.714  1.00  0.00    -0.289 NA 
HETATM    3  H1  UNL     1     -10.592  10.441  62.367  1.00  0.00     0.000 HD 
HETATM    4  C   UNL     1     -10.329  11.737  63.902  1.00  0.00    -0.385 C  
HETATM    5  N   UNL     1      -9.067  11.497  63.861  1.00  0.00    -0.430 NA 
HETATM    6  H2  UNL     1      -8.483  12.032  64.504  1.00  0.00     0.000 HD 
HETATM    7  N   UNL     1     -11.072  11.107  62.972  1.00  0.00    -0.801 NA 
HETATM    8  H2  UNL     1     -12.071  11.289  62.876  1.00  0.00     0.000 HD 
HETATM    9  H1  UNL     1      -8.587  10.831  63.257  1.00  0.00     0.000 HD 
ENDROOT
BRANCH   2  10
HETATM   10  C   UNL     1     -10.292  13.240  65.887  1.00  0.00    -0.292 C  
HETATM   11  C   UNL     1     -10.101  12.277  67.054  1.00  0.00    -0.212 C  
HETATM   12  O   UNL     1      -9.529  12.594  68.090  1.00  0.00    -0.210 OA 
HETATM   13  O   UNL     1     -10.619  11.042  66.871  1.00  0.00    -0.235 OA 
ENDBRANCH   2  10
TORSDOF 1
ENDMDL
MODEL       87
REMARK 921   NORMALIZED FREE ENERGY PREDICTED BY IDOCK:   -2.77 KCAL/MOL
REMARK 922        TOTAL FREE ENERGY PREDICTED BY IDOCK:   -3.06 KCAL/MOL
REMARK 923 INTER-LIGAND FREE ENERGY PREDICTED BY IDOCK:   -3.31 KCAL/MOL
REMARK 924 INTRA-LIGAND FREE ENERGY PREDICTED BY IDOCK:    0.25 KCAL/MOL
REMARK 927      BINDING AFFINITY PREDICTED BY RF-SCORE:    0.00 PKD
ROOT
HETATM    1  C   UNL     1     -11.586  15.446  68.020  1.00  0.00    -0.292 C  
HETATM    2  N   UNL     1     -10.395  15.726  67.208  1.00  0.00    -0.283 NA 
HETATM    3  H1  UNL     1     -10.494  18.960  67.198  1.00  0.00     0.000 HD 
HETATM    4  C   UNL     1     -10.104  17.009  66.817  1.00  0.00    -0.300 C  
HETATM    5  N   UNL     1      -9.240  17.375  65.939  1.00  0.00    -0.523 NA 
HETATM    6  H2  UNL     1      -8.712  16.629  65.484  1.00  0.00     0.000 HD 
HETATM    7  N   UNL     1     -10.711  18.007  67.489  1.00  0.00    -0.388 NA 
HETATM    8  H2  UNL     1     -11.357  17.817  68.255  1.00  0.00     0.000 HD 
HETATM    9  H1  UNL     1      -9.023  18.328  65.649  1.00  0.00     0.000 HD 
ENDROOT
BRANCH   2  10
HETATM   10  C   UNL     1      -9.928  14.557  66.418  1.00  0.00    -0.292 C  
HETATM   11  C   UNL     1     -10.583  14.442  65.045  1.00  0.00    -0.432 C  
HETATM   12  O   UNL     1     -10.296  13.559  64.245  1.00  0.00    -0.406 OA 
HETATM   13  O   UNL     1     -11.516  15.380  64.771  1.00  0.00    -0.393 OA 
ENDBRANCH   2  10
TORSDOF 1
ENDMDL
MODEL       88
REMARK 921   NORMALIZED FREE ENERGY PREDICTED BY IDOCK:   -2.74 KCAL/MOL
REMARK 922        TOTAL FREE ENERGY PREDICTED BY IDOCK:   -3.03 KCAL/MOL
REMARK 923 INTER-LIGAND FREE ENERGY PREDICTED BY IDOCK:   -2.93 KCAL/MOL
REMARK 924 INTRA-LIGAND FREE ENERGY PREDICTED BY IDOCK:   -0.10 KCAL/MOL
REMARK 927      BINDING AFFINITY PREDICTED BY RF-SCORE:    0.00 PKD
ROOT
HETATM    1  C   UNL     1      -9.265  19.616  68.569  1.00  0.00    -0.316 C  
HETATM    2  N   UNL     1      -8.629  19.214  67.308  1.00  0.00    -0.279 NA 
HETATM    3  H1  UNL     1      -7.046  21.946  66.602  1.00  0.00     0.000 HD 
HETATM    4  C   UNL     1      -7.939  20.128  66.552  1.00  0.00    -0.278 C  
HETATM    5  N   UNL     1      -7.527  19.981  65.344  1.00  0.00    -0.436 NA 
HETATM    6  H2  UNL     1      -7.736  19.088  64.898  1.00  0.00     0.000 HD 
HETATM    7  N   UNL     1      -7.559  21.266  67.164  1.00  0.00    -0.755 NA 
HETATM    8  H2  UNL     1      -7.774  21.440  68.146  1.00  0.00     0.000 HD 
HETATM    9  H1  UNL     1      -7.014  20.661  64.782  1.00  0.00     0.000 HD 
ENDROOT
BRANCH   2  10
HETATM   10  C   UNL     1      -9.253  18.016  66.685  1.00  0.00    -0.284 C  
HETATM   11  C   UNL     1      -8.563  16.705  67.049  1.00  0.00    -0.195 C  
HETATM   12  O   UNL     1      -8.959  15.614  66.653  1.00  0.00    -0.234 OA 
HETATM   13  O   UNL     1      -7.471  16.827  67.835  1.00  0.00    -0.154 OA 
ENDBRANCH   2  10
TORSDOF 1
ENDMDL
MODEL       89
REMARK 921   NORMALIZED FREE ENERGY PREDICTED BY IDOCK:   -2.73 KCAL/MOL
REMARK 922        TOTAL FREE ENERGY PREDICTED BY IDOCK:   -3.02 KCAL/MOL
REMARK 923 INTER-LIGAND FREE ENERGY PREDICTED BY IDOCK:   -2.89 KCAL/MOL
REMARK 924 INTRA-LIGAND FREE ENERGY PREDICTED BY IDOCK:   -0.13 KCAL/MOL
REMARK 927      BINDING AFFINITY PREDICTED BY RF-SCORE:    0.00 PKD
ROOT
HETATM    1  C   UNL     1      -8.595  10.975  68.592  1.00  0.00    -0.157 C  
HETATM    2  N   UNL     1      -9.988  11.236  68.208  1.00  0.00    -0.188 NA 
HETATM    3  H1  UNL     1     -11.499  10.031  70.803  1.00  0.00     0.000 HD 
HETATM    4  C   UNL     1     -11.022  10.759  68.973  1.00  0.00    -0.240 C  
HETATM    5  N   UNL     1     -12.267  10.717  68.655  1.00  0.00    -0.827 NA 
HETATM    6  H2  UNL     1     -12.512  11.078  67.733  1.00  0.00     0.000 HD 
HETATM    7  N   UNL     1     -10.730  10.385  70.234  1.00  0.00    -0.436 NA 
HETATM    8  H2  UNL     1      -9.782  10.453  70.603  1.00  0.00     0.000 HD 
HETATM    9  H1  UNL     1     -13.036  10.363  69.224  1.00  0.00     0.000 HD 
ENDROOT
BRANCH   2  10
HETATM   10  C   UNL     1     -10.164  11.499  66.756  1.00  0.00    -0.219 C  
HETATM   11  C   UNL     1     -10.375  12.971  66.419  1.00  0.00    -0.281 C  
HETATM   12  O   UNL     1     -10.507  13.378  65.270  1.00  0.00    -0.300 OA 
HETATM   13  O   UNL     1     -10.419  13.805  67.481  1.00  0.00    -0.242 OA 
ENDBRANCH   2  10
TORSDOF 1
ENDMDL
MODEL       90
REMARK 921   NORMALIZED FREE ENERGY PREDICTED BY IDOCK:   -2.73 KCAL/MOL
REMARK 922        TOTAL FREE ENERGY PREDICTED BY IDOCK:   -3.01 KCAL/MOL
REMARK 923 INTER-LIGAND FREE ENERGY PREDICTED BY IDOCK:   -2.89 KCAL/MOL
REMARK 924 INTRA-LIGAND FREE ENERGY PREDICTED BY IDOCK:   -0.13 KCAL/MOL
REMARK 927      BINDING AFFINITY PREDICTED BY RF-SCORE:    0.00 PKD
ROOT
HETATM    1  C   UNL     1      -7.582  15.962  67.170  1.00  0.00    -0.220 C  
HETATM    2  N   UNL     1      -8.604  16.875  66.642  1.00  0.00    -0.226 NA 
HETATM    3  H1  UNL     1     -10.835  14.719  65.724  1.00  0.00     0.000 HD 
HETATM    4  C   UNL     1      -9.714  16.384  66.002  1.00  0.00    -0.326 C  
HETATM    5  N   UNL     1     -10.566  17.048  65.306  1.00  0.00    -0.655 NA 
HETATM    6  H2  UNL     1     -10.398  18.051  65.220  1.00  0.00     0.000 HD 
HETATM    7  N   UNL     1     -10.010  15.084  66.199  1.00  0.00    -0.273 NA 
HETATM    8  H2  UNL     1      -9.434  14.492  66.798  1.00  0.00     0.000 HD 
HETATM    9  H1  UNL     1     -11.391  16.683  64.830  1.00  0.00     0.000 HD 
ENDROOT
BRANCH   2  10
HETATM   10  C   UNL     1      -8.086  18.237  66.346  1.00  0.00    -0.258 C  
HETATM   11  C   UNL     1      -8.440  19.273  67.408  1.00  0.00    -0.288 C  
HETATM   12  O   UNL     1      -8.071  20.440  67.346  1.00  0.00    -0.323 OA 
HETATM   13  O   UNL     1      -9.203  18.818  68.425  1.00  0.00    -0.316 OA 
ENDBRANCH   2  10
TORSDOF 1
ENDMDL
MODEL       91
REMARK 921   NORMALIZED FREE ENERGY PREDICTED BY IDOCK:   -2.72 KCAL/MOL
REMARK 922        TOTAL FREE ENERGY PREDICTED BY IDOCK:   -3.00 KCAL/MOL
REMARK 923 INTER-LIGAND FREE ENERGY PREDICTED BY IDOCK:   -2.94 KCAL/MOL
REMARK 924 INTRA-LIGAND FREE ENERGY PREDICTED BY IDOCK:   -0.06 KCAL/MOL
REMARK 927      BINDING AFFINITY PREDICTED BY RF-SCORE:    0.00 PKD
ROOT
HETATM    1  C   UNL     1     -10.644  16.371  69.336  1.00  0.00    -0.317 C  
HETATM    2  N   UNL     1      -9.777  16.081  68.187  1.00  0.00    -0.216 NA 
HETATM    3  H1  UNL     1      -7.307  14.659  69.718  1.00  0.00     0.000 HD 
HETATM    4  C   UNL     1      -8.514  15.580  68.376  1.00  0.00    -0.163 C  
HETATM    5  N   UNL     1      -7.578  15.486  67.501  1.00  0.00    -0.157 NA 
HETATM    6  H2  UNL     1      -7.798  15.821  66.563  1.00  0.00     0.000 HD 
HETATM    7  N   UNL     1      -8.246  15.031  69.577  1.00  0.00    -0.396 NA 
HETATM    8  H2  UNL     1      -8.951  14.990  70.313  1.00  0.00     0.000 HD 
HETATM    9  H1  UNL     1      -6.638  15.113  67.642  1.00  0.00     0.000 HD 
ENDROOT
BRANCH   2  10
HETATM   10  C   UNL     1     -10.117  16.869  66.973  1.00  0.00    -0.289 C  
HETATM   11  C   UNL     1     -10.514  16.012  65.775  1.00  0.00    -0.374 C  
HETATM   12  O   UNL     1     -10.856  16.490  64.700  1.00  0.00    -0.741 OA 
HETATM   13  O   UNL     1     -10.452  14.677  65.976  1.00  0.00    -0.284 OA 
ENDBRANCH   2  10
TORSDOF 1
ENDMDL
MODEL       92
REMARK 921   NORMALIZED FREE ENERGY PREDICTED BY IDOCK:   -2.71 KCAL/MOL
REMARK 922        TOTAL FREE ENERGY PREDICTED BY IDOCK:   -3.00 KCAL/MOL
REMARK 923 INTER-LIGAND FREE ENERGY PREDICTED BY IDOCK:   -2.95 KCAL/MOL
REMARK 924 INTRA-LIGAND FREE ENERGY PREDICTED BY IDOCK:   -0.05 KCAL/MOL
REMARK 927      BINDING AFFINITY PREDICTED BY RF-SCORE:    0.00 PKD
ROOT
HETATM    1  C   UNL     1     -10.905  15.197  69.808  1.00  0.00    -0.284 C  
HETATM    2  N   UNL     1     -10.563  15.825  68.526  1.00  0.00    -0.244 NA 
HETATM    3  H1  UNL     1     -12.490  14.128  66.558  1.00  0.00     0.000 HD 
HETATM    4  C   UNL     1     -11.057  15.322  67.349  1.00  0.00    -0.326 C  
HETATM    5  N   UNL     1     -10.678  15.621  66.158  1.00  0.00    -0.314 NA 
HETATM    6  H2  UNL     1      -9.927  16.307  66.079  1.00  0.00     0.000 HD 
HETATM    7  N   UNL     1     -12.122  14.502  67.434  1.00  0.00    -0.579 NA 
HETATM    8  H2  UNL     1     -12.543  14.266  68.332  1.00  0.00     0.000 HD 
HETATM    9  H1  UNL     1     -11.046  15.247  65.283  1.00  0.00     0.000 HD 
ENDROOT
BRANCH   2  10
HETATM   10  C   UNL     1      -9.285  16.585  68.560  1.00  0.00    -0.230 C  
HETATM   11  C   UNL     1      -9.435  18.057  68.188  1.00  0.00    -0.289 C  
HETATM   12  O   UNL     1      -8.494  18.842  68.193  1.00  0.00    -0.289 OA 
HETATM   13  O   UNL     1     -10.683  18.439  67.840  1.00  0.00    -0.392 OA 
ENDBRANCH   2  10
TORSDOF 1
ENDMDL
MODEL       93
REMARK 921   NORMALIZED FREE ENERGY PREDICTED BY IDOCK:   -2.71 KCAL/MOL
REMARK 922        TOTAL FREE ENERGY PREDICTED BY IDOCK:   -2.99 KCAL/MOL
REMARK 923 INTER-LIGAND FREE ENERGY PREDICTED BY IDOCK:   -3.26 KCAL/MOL
REMARK 924 INTRA-LIGAND FREE ENERGY PREDICTED BY IDOCK:    0.27 KCAL/MOL
REMARK 927      BINDING AFFINITY PREDICTED BY RF-SCORE:    0.00 PKD
ROOT
HETATM    1  C   UNL     1     -10.727  19.417  67.527  1.00  0.00    -0.453 C  
HETATM    2  N   UNL     1      -9.642  19.024  66.619  1.00  0.00    -0.326 NA 
HETATM    3  H1  UNL     1      -9.667  15.824  67.100  1.00  0.00     0.000 HD 
HETATM    4  C   UNL     1      -9.194  17.727  66.590  1.00  0.00    -0.269 C  
HETATM    5  N   UNL     1      -8.127  17.288  66.023  1.00  0.00    -0.525 NA 
HETATM    6  H2  UNL     1      -7.551  17.980  65.542  1.00  0.00     0.000 HD 
HETATM    7  N   UNL     1     -10.000  16.788  67.122  1.00  0.00    -0.267 NA 
HETATM    8  H2  UNL     1     -10.903  17.030  67.528  1.00  0.00     0.000 HD 
HETATM    9  H1  UNL     1      -7.794  16.324  66.000  1.00  0.00     0.000 HD 
ENDROOT
BRANCH   2  10
HETATM   10  C   UNL     1      -8.755  20.152  66.230  1.00  0.00    -0.215 C  
HETATM   11  C   UNL     1      -7.674  20.467  67.258  1.00  0.00    -0.333 C  
HETATM   12  O   UNL     1      -6.834  21.344  67.091  1.00  0.00    -0.552 OA 
HETATM   13  O   UNL     1      -7.709  19.715  68.380  1.00  0.00    -0.323 OA 
ENDBRANCH   2  10
TORSDOF 1
ENDMDL
MODEL       94
REMARK 921   NORMALIZED FREE ENERGY PREDICTED BY IDOCK:   -2.71 KCAL/MOL
REMARK 922        TOTAL FREE ENERGY PREDICTED BY IDOCK:   -2.99 KCAL/MOL
REMARK 923 INTER-LIGAND FREE ENERGY PREDICTED BY IDOCK:   -2.87 KCAL/MOL
REMARK 924 INTRA-LIGAND FREE ENERGY PREDICTED BY IDOCK:   -0.13 KCAL/MOL
REMARK 927      BINDING AFFINITY PREDICTED BY RF-SCORE:    0.00 PKD
ROOT
HETATM    1  C   UNL     1     -11.185  14.757  67.846  1.00  0.00    -0.306 C  
HETATM    2  N   UNL     1     -10.370  14.547  66.642  1.00  0.00    -0.270 NA 
HETATM    3  H1  UNL     1     -12.715  13.922  64.503  1.00  0.00     0.000 HD 
HETATM    4  C   UNL     1     -10.948  14.113  65.476  1.00  0.00    -0.310 C  
HETATM    5  N   UNL     1     -10.347  13.681  64.426  1.00  0.00    -0.659 NA 
HETATM    6  H2  UNL     1      -9.327  13.658  64.464  1.00  0.00     0.000 HD 
HETATM    7  N   UNL     1     -12.285  14.244  65.370  1.00  0.00    -0.406 NA 
HETATM    8  H2  UNL     1     -12.842  14.648  66.123  1.00  0.00     0.000 HD 
HETATM    9  H1  UNL     1     -10.777  13.359  63.559  1.00  0.00     0.000 HD 
ENDROOT
BRANCH   2  10
HETATM   10  C   UNL     1      -8.937  14.279  66.935  1.00  0.00    -0.236 C  
HETATM   11  C   UNL     1      -8.032  15.489  66.729  1.00  0.00    -0.179 C  
HETATM   12  O   UNL     1      -6.827  15.463  66.952  1.00  0.00    -0.212 OA 
HETATM   13  O   UNL     1      -8.650  16.600  66.270  1.00  0.00    -0.287 OA 
ENDBRANCH   2  10
TORSDOF 1
ENDMDL
MODEL       95
REMARK 921   NORMALIZED FREE ENERGY PREDICTED BY IDOCK:   -2.69 KCAL/MOL
REMARK 922        TOTAL FREE ENERGY PREDICTED BY IDOCK:   -2.97 KCAL/MOL
REMARK 923 INTER-LIGAND FREE ENERGY PREDICTED BY IDOCK:   -2.90 KCAL/MOL
REMARK 924 INTRA-LIGAND FREE ENERGY PREDICTED BY IDOCK:   -0.06 KCAL/MOL
REMARK 927      BINDING AFFINITY PREDICTED BY RF-SCORE:    0.00 PKD
ROOT
HETATM    1  C   UNL     1      -9.015   6.567  70.110  1.00  0.00    -0.155 C  
HETATM    2  N   UNL     1     -10.251   6.667  70.896  1.00  0.00    -0.195 NA 
HETATM    3  H1  UNL     1     -12.426   6.543  68.504  1.00  0.00     0.000 HD 
HETATM    4  C   UNL     1     -11.466   6.791  70.272  1.00  0.00    -0.360 C  
HETATM    5  N   UNL     1     -12.588   7.105  70.813  1.00  0.00    -0.600 NA 
HETATM    6  H2  UNL     1     -12.573   7.283  71.818  1.00  0.00     0.000 HD 
HETATM    7  N   UNL     1     -11.522   6.451  68.969  1.00  0.00    -0.591 NA 
HETATM    8  H2  UNL     1     -10.698   6.116  68.470  1.00  0.00     0.000 HD 
HETATM    9  H1  UNL     1     -13.492   7.197  70.348  1.00  0.00     0.000 HD 
ENDROOT
BRANCH   2  10
HETATM   10  C   UNL     1     -10.038   7.189  72.273  1.00  0.00    -0.181 C  
HETATM   11  C   UNL     1     -10.448   6.212  73.370  1.00  0.00    -0.253 C  
HETATM   12  O   UNL     1     -10.314   6.459  74.563  1.00  0.00    -0.329 OA 
HETATM   13  O   UNL     1     -10.982   5.049  72.936  1.00  0.00    -0.242 OA 
ENDBRANCH   2  10
TORSDOF 1
ENDMDL
MODEL       96
REMARK 921   NORMALIZED FREE ENERGY PREDICTED BY IDOCK:   -2.68 KCAL/MOL
REMARK 922        TOTAL FREE ENERGY PREDICTED BY IDOCK:   -2.96 KCAL/MOL
REMARK 923 INTER-LIGAND FREE ENERGY PREDICTED BY IDOCK:   -2.86 KCAL/MOL
REMARK 924 INTRA-LIGAND FREE ENERGY PREDICTED BY IDOCK:   -0.10 KCAL/MOL
REMARK 927      BINDING AFFINITY PREDICTED BY RF-SCORE:    0.00 PKD
ROOT
HETATM    1  C   UNL     1      -9.071  13.503  67.785  1.00  0.00    -0.207 C  
HETATM    2  N   UNL     1      -9.588  12.692  66.676  1.00  0.00    -0.243 NA 
HETATM    3  H1  UNL     1      -7.680  10.095  66.969  1.00  0.00     0.000 HD 
HETATM    4  C   UNL     1      -8.970  11.518  66.324  1.00  0.00    -0.196 C  
HETATM    5  N   UNL     1      -9.167  10.827  65.259  1.00  0.00    -0.196 NA 
HETATM    6  H2  UNL     1      -9.859  11.191  64.603  1.00  0.00     0.000 HD 
HETATM    7  N   UNL     1      -8.139  10.968  67.230  1.00  0.00    -0.122 NA 
HETATM    8  H2  UNL     1      -7.977  11.404  68.138  1.00  0.00     0.000 HD 
HETATM    9  H1  UNL     1      -8.708   9.954  64.997  1.00  0.00     0.000 HD 
ENDROOT
BRANCH   2  10
HETATM   10  C   UNL     1     -10.374  13.473  65.684  1.00  0.00    -0.297 C  
HETATM   11  C   UNL     1     -11.871  13.183  65.720  1.00  0.00    -0.397 C  
HETATM   12  O   UNL     1     -12.676  13.757  64.996  1.00  0.00    -0.630 OA 
HETATM   13  O   UNL     1     -12.252  12.234  66.603  1.00  0.00    -0.574 OA 
ENDBRANCH   2  10
TORSDOF 1
ENDMDL
MODEL       97
REMARK 921   NORMALIZED FREE ENERGY PREDICTED BY IDOCK:   -2.67 KCAL/MOL
REMARK 922        TOTAL FREE ENERGY PREDICTED BY IDOCK:   -2.95 KCAL/MOL
REMARK 923 INTER-LIGAND FREE ENERGY PREDICTED BY IDOCK:   -2.82 KCAL/MOL
REMARK 924 INTRA-LIGAND FREE ENERGY PREDICTED BY IDOCK:   -0.13 KCAL/MOL
REMARK 927      BINDING AFFINITY PREDICTED BY RF-SCORE:    0.00 PKD
ROOT
HETATM    1  C   UNL     1      -8.852   3.295  65.592  1.00  0.00    -0.134 C  
HETATM    2  N   UNL     1      -9.441   4.341  66.437  1.00  0.00    -0.168 NA 
HETATM    3  H1  UNL     1     -12.123   4.964  64.737  1.00  0.00     0.000 HD 
HETATM    4  C   UNL     1     -10.561   5.019  66.028  1.00  0.00    -0.232 C  
HETATM    5  N   UNL     1     -11.053   6.088  66.544  1.00  0.00    -0.761 NA 
HETATM    6  H2  UNL     1     -10.556   6.474  67.347  1.00  0.00     0.000 HD 
HETATM    7  N   UNL     1     -11.290   4.460  65.042  1.00  0.00    -1.102 NA 
HETATM    8  H2  UNL     1     -11.021   3.571  64.620  1.00  0.00     0.000 HD 
HETATM    9  H1  UNL     1     -11.886   6.593  66.240  1.00  0.00     0.000 HD 
ENDROOT
BRANCH   2  10
HETATM   10  C   UNL     1      -8.472   4.957  67.382  1.00  0.00    -0.105 C  
HETATM   11  C   UNL     1      -8.627   4.478  68.821  1.00  0.00    -0.085 C  
HETATM   12  O   UNL     1      -7.895   4.855  69.729  1.00  0.00    -0.065 OA 
HETATM   13  O   UNL     1      -9.642   3.611  69.034  1.00  0.00    -0.171 OA 
ENDBRANCH   2  10
TORSDOF 1
ENDMDL
MODEL       98
REMARK 921   NORMALIZED FREE ENERGY PREDICTED BY IDOCK:   -2.67 KCAL/MOL
REMARK 922        TOTAL FREE ENERGY PREDICTED BY IDOCK:   -2.95 KCAL/MOL
REMARK 923 INTER-LIGAND FREE ENERGY PREDICTED BY IDOCK:   -2.82 KCAL/MOL
REMARK 924 INTRA-LIGAND FREE ENERGY PREDICTED BY IDOCK:   -0.13 KCAL/MOL
REMARK 927      BINDING AFFINITY PREDICTED BY RF-SCORE:    0.00 PKD
ROOT
HETATM    1  C   UNL     1     -10.528  17.460  67.156  1.00  0.00    -0.305 C  
HETATM    2  N   UNL     1     -10.218  16.028  67.252  1.00  0.00    -0.271 NA 
HETATM    3  H1  UNL     1      -7.360  15.988  65.735  1.00  0.00     0.000 HD 
HETATM    4  C   UNL     1      -9.124  15.506  66.608  1.00  0.00    -0.279 C  
HETATM    5  N   UNL     1      -8.854  14.264  66.420  1.00  0.00    -0.476 NA 
HETATM    6  H2  UNL     1      -9.527  13.592  66.790  1.00  0.00     0.000 HD 
HETATM    7  N   UNL     1      -8.174  16.375  66.214  1.00  0.00    -0.329 NA 
HETATM    8  H2  UNL     1      -8.263  17.377  66.388  1.00  0.00     0.000 HD 
HETATM    9  H1  UNL     1      -8.041  13.876  65.941  1.00  0.00     0.000 HD 
ENDROOT
BRANCH   2  10
HETATM   10  C   UNL     1     -11.403  15.184  67.560  1.00  0.00    -0.320 C  
HETATM   11  C   UNL     1     -11.498  14.769  69.025  1.00  0.00    -0.293 C  
HETATM   12  O   UNL     1     -12.425  14.099  69.466  1.00  0.00    -0.298 OA 
HETATM   13  O   UNL     1     -10.479  15.184  69.809  1.00  0.00    -0.250 OA 
ENDBRANCH   2  10
TORSDOF 1
ENDMDL
MODEL       99
REMARK 921   NORMALIZED FREE ENERGY PREDICTED BY IDOCK:   -2.66 KCAL/MOL
REMARK 922        TOTAL FREE ENERGY PREDICTED BY IDOCK:   -2.94 KCAL/MOL
REMARK 923 INTER-LIGAND FREE ENERGY PREDICTED BY IDOCK:   -2.81 KCAL/MOL
REMARK 924 INTRA-LIGAND FREE ENERGY PREDICTED BY IDOCK:   -0.13 KCAL/MOL
REMARK 927      BINDING AFFINITY PREDICTED BY RF-SCORE:    0.00 PKD
ROOT
HETATM    1  C   UNL     1      -7.902  19.710  68.433  1.00  0.00    -0.327 C  
HETATM    2  N   UNL     1      -8.006  18.377  67.825  1.00  0.00    -0.246 NA 
HETATM    3  H1  UNL     1      -5.930  16.759  69.707  1.00  0.00     0.000 HD 
HETATM    4  C   UNL     1      -7.176  17.361  68.226  1.00  0.00    -0.214 C  
HETATM    5  N   UNL     1      -7.001  16.228  67.647  1.00  0.00    -0.132 NA 
HETATM    6  H2  UNL     1      -7.538  16.066  66.794  1.00  0.00     0.000 HD 
HETATM    7  N   UNL     1      -6.548  17.515  69.408  1.00  0.00    -0.237 NA 
HETATM    8  H2  UNL     1      -6.683  18.349  69.979  1.00  0.00     0.000 HD 
HETATM    9  H1  UNL     1      -6.384  15.472  67.945  1.00  0.00     0.000 HD 
ENDROOT
BRANCH   2  10
HETATM   10  C   UNL     1      -8.598  18.392  66.461  1.00  0.00    -0.273 C  
HETATM   11  C   UNL     1     -10.069  17.990  66.425  1.00  0.00    -0.384 C  
HETATM   12  O   UNL     1     -10.729  17.976  65.393  1.00  0.00    -0.632 OA 
HETATM   13  O   UNL     1     -10.599  17.637  67.618  1.00  0.00    -0.369 OA 
ENDBRANCH   2  10
TORSDOF 1
ENDMDL
MODEL      100
REMARK 921   NORMALIZED FREE ENERGY PREDICTED BY IDOCK:   -2.66 KCAL/MOL
REMARK 922        TOTAL FREE ENERGY PREDICTED BY IDOCK:   -2.94 KCAL/MOL
REMARK 923 INTER-LIGAND FREE ENERGY PREDICTED BY IDOCK:   -2.87 KCAL/MOL
REMARK 924 INTRA-LIGAND FREE ENERGY PREDICTED BY IDOCK:   -0.06 KCAL/MOL
REMARK 927      BINDING AFFINITY PREDICTED BY RF-SCORE:    0.00 PKD
ROOT
HETATM    1  C   UNL     1     -11.731  12.045  67.485  1.00  0.00    -0.280 C  
HETATM    2  N   UNL     1     -10.604  12.537  66.683  1.00  0.00    -0.235 NA 
HETATM    3  H1  UNL     1      -8.757  13.764  69.039  1.00  0.00     0.000 HD 
HETATM    4  C   UNL     1      -9.604  13.275  67.264  1.00  0.00    -0.234 C  
HETATM    5  N   UNL     1      -8.688  13.947  66.665  1.00  0.00    -0.445 NA 
HETATM    6  H2  UNL     1      -8.706  13.930  65.645  1.00  0.00     0.000 HD 
HETATM    7  N   UNL     1      -9.500  13.215  68.606  1.00  0.00    -0.401 NA 
HETATM    8  H2  UNL     1     -10.136  12.646  69.165  1.00  0.00     0.000 HD 
HETATM    9  H1  UNL     1      -7.944  14.496  67.098  1.00  0.00     0.000 HD 
ENDROOT
BRANCH   2  10
HETATM   10  C   UNL     1     -10.921  12.677  65.237  1.00  0.00    -0.286 C  
HETATM   11  C   UNL     1     -10.619  11.427  64.417  1.00  0.00    -0.341 C  
HETATM   12  O   UNL     1     -10.846  11.350  63.215  1.00  0.00    -0.349 OA 
HETATM   13  O   UNL     1     -10.069  10.404  65.108  1.00  0.00    -0.303 OA 
ENDBRANCH   2  10
TORSDOF 1
ENDMDL
MODEL      101
REMARK 921   NORMALIZED FREE ENERGY PREDICTED BY IDOCK:   -2.64 KCAL/MOL
REMARK 922        TOTAL FREE ENERGY PREDICTED BY IDOCK:   -2.92 KCAL/MOL
REMARK 923 INTER-LIGAND FREE ENERGY PREDICTED BY IDOCK:   -2.85 KCAL/MOL
REMARK 924 INTRA-LIGAND FREE ENERGY PREDICTED BY IDOCK:   -0.07 KCAL/MOL
REMARK 927      BINDING AFFINITY PREDICTED BY RF-SCORE:    0.00 PKD
ROOT
HETATM    1  C   UNL     1      -8.261  16.412  68.473  1.00  0.00    -0.201 C  
HETATM    2  N   UNL     1      -9.569  16.938  68.062  1.00  0.00    -0.242 NA 
HETATM    3  H1  UNL     1      -8.705  18.488  65.357  1.00  0.00     0.000 HD 
HETATM    4  C   UNL     1      -9.671  17.800  67.000  1.00  0.00    -0.290 C  
HETATM    5  N   UNL     1     -10.694  18.503  66.667  1.00  0.00    -0.313 NA 
HETATM    6  H2  UNL     1     -11.520  18.410  67.258  1.00  0.00     0.000 HD 
HETATM    7  N   UNL     1      -8.629  17.847  66.147  1.00  0.00    -0.488 NA 
HETATM    8  H2  UNL     1      -7.801  17.268  66.286  1.00  0.00     0.000 HD 
HETATM    9  H1  UNL     1     -10.770  19.144  65.876  1.00  0.00     0.000 HD 
ENDROOT
BRANCH   2  10
HETATM   10  C   UNL     1     -10.576  16.946  69.157  1.00  0.00    -0.330 C  
HETATM   11  C   UNL     1     -11.426  15.680  69.218  1.00  0.00    -0.362 C  
HETATM   12  O   UNL     1     -12.284  15.498  70.074  1.00  0.00    -0.358 OA 
HETATM   13  O   UNL     1     -11.175  14.770  68.251  1.00  0.00    -0.262 OA 
ENDBRANCH   2  10
TORSDOF 1
ENDMDL
MODEL      102
REMARK 921   NORMALIZED FREE ENERGY PREDICTED BY IDOCK:   -2.63 KCAL/MOL
REMARK 922        TOTAL FREE ENERGY PREDICTED BY IDOCK:   -2.91 KCAL/MOL
REMARK 923 INTER-LIGAND FREE ENERGY PREDICTED BY IDOCK:   -3.20 KCAL/MOL
REMARK 924 INTRA-LIGAND FREE ENERGY PREDICTED BY IDOCK:    0.29 KCAL/MOL
REMARK 927      BINDING AFFINITY PREDICTED BY RF-SCORE:    0.00 PKD
ROOT
HETATM    1  C   UNL     1     -11.367  12.111  68.621  1.00  0.00    -0.280 C  
HETATM    2  N   UNL     1     -10.868  13.079  67.635  1.00  0.00    -0.236 NA 
HETATM    3  H1  UNL     1     -12.725  15.621  68.383  1.00  0.00     0.000 HD 
HETATM    4  C   UNL     1     -11.476  14.300  67.488  1.00  0.00    -0.345 C  
HETATM    5  N   UNL     1     -11.297  15.145  66.536  1.00  0.00    -0.287 NA 
HETATM    6  H2  UNL     1     -10.630  14.879  65.812  1.00  0.00     0.000 HD 
HETATM    7  N   UNL     1     -12.272  14.713  68.492  1.00  0.00    -0.602 NA 
HETATM    8  H2  UNL     1     -12.417  14.143  69.326  1.00  0.00     0.000 HD 
HETATM    9  H1  UNL     1     -11.749  16.053  66.427  1.00  0.00     0.000 HD 
ENDROOT
BRANCH   2  10
HETATM   10  C   UNL     1     -10.123  12.450  66.512  1.00  0.00    -0.232 C  
HETATM   11  C   UNL     1     -10.996  12.112  65.308  1.00  0.00    -0.304 C  
HETATM   12  O   UNL     1     -10.547  11.619  64.280  1.00  0.00    -0.290 OA 
HETATM   13  O   UNL     1     -12.311  12.385  65.456  1.00  0.00    -0.621 OA 
ENDBRANCH   2  10
TORSDOF 1
ENDMDL
MODEL      103
REMARK 921   NORMALIZED FREE ENERGY PREDICTED BY IDOCK:   -2.63 KCAL/MOL
REMARK 922        TOTAL FREE ENERGY PREDICTED BY IDOCK:   -2.90 KCAL/MOL
REMARK 923 INTER-LIGAND FREE ENERGY PREDICTED BY IDOCK:   -2.84 KCAL/MOL
REMARK 924 INTRA-LIGAND FREE ENERGY PREDICTED BY IDOCK:   -0.06 KCAL/MOL
REMARK 927      BINDING AFFINITY PREDICTED BY RF-SCORE:    0.00 PKD
ROOT
HETATM    1  C   UNL     1     -10.337  16.727  67.980  1.00  0.00    -0.317 C  
HETATM    2  N   UNL     1      -9.551  15.902  67.053  1.00  0.00    -0.219 NA 
HETATM    3  H1  UNL     1     -11.867  13.891  66.021  1.00  0.00     0.000 HD 
HETATM    4  C   UNL     1     -10.108  14.796  66.461  1.00  0.00    -0.273 C  
HETATM    5  N   UNL     1      -9.494  13.870  65.815  1.00  0.00    -0.512 NA 
HETATM    6  H2  UNL     1      -8.482  13.968  65.734  1.00  0.00     0.000 HD 
HETATM    7  N   UNL     1     -11.453  14.713  66.462  1.00  0.00    -0.355 NA 
HETATM    8  H2  UNL     1     -12.031  15.439  66.884  1.00  0.00     0.000 HD 
HETATM    9  H1  UNL     1      -9.908  13.049  65.374  1.00  0.00     0.000 HD 
ENDROOT
BRANCH   2  10
HETATM   10  C   UNL     1      -8.084  16.000  67.270  1.00  0.00    -0.177 C  
HETATM   11  C   UNL     1      -7.413  17.095  66.447  1.00  0.00    -0.306 C  
HETATM   12  O   UNL     1      -6.215  17.341  66.520  1.00  0.00    -0.192 OA 
HETATM   13  O   UNL     1      -8.233  17.775  65.616  1.00  0.00    -0.490 OA 
ENDBRANCH   2  10
TORSDOF 1
ENDMDL
MODEL      104
REMARK 921   NORMALIZED FREE ENERGY PREDICTED BY IDOCK:   -2.62 KCAL/MOL
REMARK 922        TOTAL FREE ENERGY PREDICTED BY IDOCK:   -2.90 KCAL/MOL
REMARK 923 INTER-LIGAND FREE ENERGY PREDICTED BY IDOCK:   -2.79 KCAL/MOL
REMARK 924 INTRA-LIGAND FREE ENERGY PREDICTED BY IDOCK:   -0.11 KCAL/MOL
REMARK 927      BINDING AFFINITY PREDICTED BY RF-SCORE:    0.00 PKD
ROOT
HETATM    1  C   UNL     1     -10.017   9.137  66.452  1.00  0.00    -0.288 C  
HETATM    2  N   UNL     1      -9.830  10.548  66.814  1.00  0.00    -0.186 NA 
HETATM    3  H1  UNL     1      -7.944  11.491  64.360  1.00  0.00     0.000 HD 
HETATM    4  C   UNL     1      -8.963  11.340  66.105  1.00  0.00    -0.202 C  
HETATM    5  N   UNL     1      -8.535  12.507  66.432  1.00  0.00    -0.403 NA 
HETATM    6  H2  UNL     1      -8.879  12.886  67.314  1.00  0.00     0.000 HD 
HETATM    7  N   UNL     1      -8.589  10.902  64.887  1.00  0.00    -0.351 NA 
HETATM    8  H2  UNL     1      -8.937  10.021  64.508  1.00  0.00     0.000 HD 
HETATM    9  H1  UNL     1      -7.890  13.096  65.904  1.00  0.00     0.000 HD 
ENDROOT
BRANCH   2  10
HETATM   10  C   UNL     1     -10.157  10.845  68.234  1.00  0.00    -0.174 C  
HETATM   11  C   UNL     1     -11.457  11.620  68.416  1.00  0.00    -0.297 C  
HETATM   12  O   UNL     1     -11.900  11.925  69.518  1.00  0.00    -0.302 OA 
HETATM   13  O   UNL     1     -12.090  11.962  67.272  1.00  0.00    -0.582 OA 
ENDBRANCH   2  10
TORSDOF 1
ENDMDL
MODEL      105
REMARK 921   NORMALIZED FREE ENERGY PREDICTED BY IDOCK:   -2.62 KCAL/MOL
REMARK 922        TOTAL FREE ENERGY PREDICTED BY IDOCK:   -2.90 KCAL/MOL
REMARK 923 INTER-LIGAND FREE ENERGY PREDICTED BY IDOCK:   -2.78 KCAL/MOL
REMARK 924 INTRA-LIGAND FREE ENERGY PREDICTED BY IDOCK:   -0.12 KCAL/MOL
REMARK 927      BINDING AFFINITY PREDICTED BY RF-SCORE:    0.00 PKD
ROOT
HETATM    1  C   UNL     1      -9.742   5.983  71.130  1.00  0.00    -0.177 C  
HETATM    2  N   UNL     1     -10.948   6.820  71.167  1.00  0.00    -0.248 NA 
HETATM    3  H1  UNL     1     -12.646   5.226  73.412  1.00  0.00     0.000 HD 
HETATM    4  C   UNL     1     -12.038   6.441  71.909  1.00  0.00    -0.310 C  
HETATM    5  N   UNL     1     -13.219   6.945  71.865  1.00  0.00    -0.523 NA 
HETATM    6  H2  UNL     1     -13.362   7.711  71.207  1.00  0.00     0.000 HD 
HETATM    7  N   UNL     1     -11.836   5.509  72.860  1.00  0.00    -0.529 NA 
HETATM    8  H2  UNL     1     -10.914   5.104  73.022  1.00  0.00     0.000 HD 
HETATM    9  H1  UNL     1     -14.029   6.662  72.417  1.00  0.00     0.000 HD 
ENDROOT
BRANCH   2  10
HETATM   10  C   UNL     1     -11.097   7.699  69.976  1.00  0.00    -0.191 C  
HETATM   11  C   UNL     1     -10.796   9.168  70.254  1.00  0.00    -0.246 C  
HETATM   12  O   UNL     1     -10.837  10.030  69.385  1.00  0.00    -0.217 OA 
HETATM   13  O   UNL     1     -10.488   9.460  71.537  1.00  0.00    -0.337 OA 
ENDBRANCH   2  10
TORSDOF 1
ENDMDL
MODEL      106
REMARK 921   NORMALIZED FREE ENERGY PREDICTED BY IDOCK:   -2.60 KCAL/MOL
REMARK 922        TOTAL FREE ENERGY PREDICTED BY IDOCK:   -2.88 KCAL/MOL
REMARK 923 INTER-LIGAND FREE ENERGY PREDICTED BY IDOCK:   -2.82 KCAL/MOL
REMARK 924 INTRA-LIGAND FREE ENERGY PREDICTED BY IDOCK:   -0.06 KCAL/MOL
REMARK 927      BINDING AFFINITY PREDICTED BY RF-SCORE:    0.00 PKD
ROOT
HETATM    1  C   UNL     1     -12.695  10.729  70.968  1.00  0.00    -0.415 C  
HETATM    2  N   UNL     1     -11.816   9.594  70.658  1.00  0.00    -0.270 NA 
HETATM    3  H1  UNL     1     -11.165  10.243  67.556  1.00  0.00     0.000 HD 
HETATM    4  C   UNL     1     -11.387   9.375  69.374  1.00  0.00     0.110 C  
HETATM    5  N   UNL     1     -10.809   8.322  68.918  1.00  0.00    -0.428 NA 
HETATM    6  H2  UNL     1     -10.652   7.565  69.585  1.00  0.00     0.000 HD 
HETATM    7  N   UNL     1     -11.484  10.406  68.512  1.00  0.00    -0.488 NA 
HETATM    8  H2  UNL     1     -11.860  11.308  68.801  1.00  0.00     0.000 HD 
HETATM    9  H1  UNL     1     -10.489   8.159  67.963  1.00  0.00     0.000 HD 
ENDROOT
BRANCH   2  10
HETATM   10  C   UNL     1     -11.925   8.477  71.633  1.00  0.00    -0.316 C  
HETATM   11  C   UNL     1     -10.661   8.255  72.458  1.00  0.00    -0.341 C  
HETATM   12  O   UNL     1     -10.580   7.399  73.332  1.00  0.00    -0.362 OA 
HETATM   13  O   UNL     1      -9.624   9.066  72.153  1.00  0.00    -0.312 OA 
ENDBRANCH   2  10
TORSDOF 1
ENDMDL
MODEL      107
REMARK 921   NORMALIZED FREE ENERGY PREDICTED BY IDOCK:   -2.57 KCAL/MOL
REMARK 922        TOTAL FREE ENERGY PREDICTED BY IDOCK:   -2.85 KCAL/MOL
REMARK 923 INTER-LIGAND FREE ENERGY PREDICTED BY IDOCK:   -2.82 KCAL/MOL
REMARK 924 INTRA-LIGAND FREE ENERGY PREDICTED BY IDOCK:   -0.03 KCAL/MOL
REMARK 927      BINDING AFFINITY PREDICTED BY RF-SCORE:    0.00 PKD
ROOT
HETATM    1  C   UNL     1      -9.640   8.634  69.387  1.00  0.00    -0.166 C  
HETATM    2  N   UNL     1     -10.609   8.910  70.456  1.00  0.00    -0.209 NA 
HETATM    3  H1  UNL     1     -12.539  10.999  68.914  1.00  0.00     0.000 HD 
HETATM    4  C   UNL     1     -11.570   9.875  70.294  1.00  0.00    -0.250 C  
HETATM    5  N   UNL     1     -12.331  10.372  71.202  1.00  0.00    -0.364 NA 
HETATM    6  H2  UNL     1     -12.206  10.009  72.148  1.00  0.00     0.000 HD 
HETATM    7  N   UNL     1     -11.824  10.281  69.035  1.00  0.00    -0.540 NA 
HETATM    8  H2  UNL     1     -11.323   9.888  68.237  1.00  0.00     0.000 HD 
HETATM    9  H1  UNL     1     -13.046  11.090  71.082  1.00  0.00     0.000 HD 
ENDROOT
BRANCH   2  10
HETATM   10  C   UNL     1     -10.124   8.528  71.809  1.00  0.00    -0.281 C  
HETATM   11  C   UNL     1     -11.038   7.546  72.535  1.00  0.00    -0.321 C  
HETATM   12  O   UNL     1     -10.782   7.097  73.646  1.00  0.00    -0.375 OA 
HETATM   13  O   UNL     1     -12.165   7.209  71.870  1.00  0.00    -0.310 OA 
ENDBRANCH   2  10
TORSDOF 1
ENDMDL
MODEL      108
REMARK 921   NORMALIZED FREE ENERGY PREDICTED BY IDOCK:   -2.55 KCAL/MOL
REMARK 922        TOTAL FREE ENERGY PREDICTED BY IDOCK:   -2.82 KCAL/MOL
REMARK 923 INTER-LIGAND FREE ENERGY PREDICTED BY IDOCK:   -3.07 KCAL/MOL
REMARK 924 INTRA-LIGAND FREE ENERGY PREDICTED BY IDOCK:    0.25 KCAL/MOL
REMARK 927      BINDING AFFINITY PREDICTED BY RF-SCORE:    0.00 PKD
ROOT
HETATM    1  C   UNL     1      -7.210  17.546  67.385  1.00  0.00    -0.169 C  
HETATM    2  N   UNL     1      -7.652  18.932  67.585  1.00  0.00    -0.229 NA 
HETATM    3  H1  UNL     1      -6.998  20.139  64.656  1.00  0.00     0.000 HD 
HETATM    4  C   UNL     1      -7.436  19.879  66.617  1.00  0.00    -0.260 C  
HETATM    5  N   UNL     1      -7.564  21.153  66.736  1.00  0.00    -0.659 NA 
HETATM    6  H2  UNL     1      -7.857  21.496  67.650  1.00  0.00     0.000 HD 
HETATM    7  N   UNL     1      -7.159  19.435  65.376  1.00  0.00    -0.438 NA 
HETATM    8  H2  UNL     1      -7.111  18.438  65.166  1.00  0.00     0.000 HD 
HETATM    9  H1  UNL     1      -7.404  21.857  66.015  1.00  0.00     0.000 HD 
ENDROOT
BRANCH   2  10
HETATM   10  C   UNL     1      -7.780  19.312  69.017  1.00  0.00    -0.302 C  
HETATM   11  C   UNL     1      -6.493  19.857  69.626  1.00  0.00    -0.353 C  
HETATM   12  O   UNL     1      -6.420  20.250  70.785  1.00  0.00    -0.460 OA 
HETATM   13  O   UNL     1      -5.424  19.870  68.799  1.00  0.00    -0.201 OA 
ENDBRANCH   2  10
TORSDOF 1
ENDMDL
MODEL      109
REMARK 921   NORMALIZED FREE ENERGY PREDICTED BY IDOCK:   -2.54 KCAL/MOL
REMARK 922        TOTAL FREE ENERGY PREDICTED BY IDOCK:   -2.82 KCAL/MOL
REMARK 923 INTER-LIGAND FREE ENERGY PREDICTED BY IDOCK:   -2.70 KCAL/MOL
REMARK 924 INTRA-LIGAND FREE ENERGY PREDICTED BY IDOCK:   -0.12 KCAL/MOL
REMARK 927      BINDING AFFINITY PREDICTED BY RF-SCORE:    0.00 PKD
ROOT
HETATM    1  C   UNL     1      -8.448  12.024  67.005  1.00  0.00    -0.183 C  
HETATM    2  N   UNL     1      -9.749  11.635  66.447  1.00  0.00    -0.208 NA 
HETATM    3  H1  UNL     1     -10.473  14.338  64.823  1.00  0.00     0.000 HD 
HETATM    4  C   UNL     1     -10.518  12.548  65.770  1.00  0.00    -0.271 C  
HETATM    5  N   UNL     1     -11.749  12.420  65.425  1.00  0.00    -0.389 NA 
HETATM    6  H2  UNL     1     -12.204  11.543  65.682  1.00  0.00     0.000 HD 
HETATM    7  N   UNL     1      -9.901  13.660  65.327  1.00  0.00    -0.554 NA 
HETATM    8  H2  UNL     1      -8.906  13.816  65.486  1.00  0.00     0.000 HD 
HETATM    9  H1  UNL     1     -12.321  13.099  64.922  1.00  0.00     0.000 HD 
ENDROOT
BRANCH   2  10
HETATM   10  C   UNL     1     -10.366  10.470  67.135  1.00  0.00    -0.235 C  
HETATM   11  C   UNL     1     -10.142   9.143  66.418  1.00  0.00    -0.274 C  
HETATM   12  O   UNL     1     -10.551   8.074  66.857  1.00  0.00    -0.338 OA 
HETATM   13  O   UNL     1      -9.466   9.225  65.251  1.00  0.00    -0.245 OA 
ENDBRANCH   2  10
TORSDOF 1
ENDMDL
MODEL      110
REMARK 921   NORMALIZED FREE ENERGY PREDICTED BY IDOCK:   -2.52 KCAL/MOL
REMARK 922        TOTAL FREE ENERGY PREDICTED BY IDOCK:   -2.79 KCAL/MOL
REMARK 923 INTER-LIGAND FREE ENERGY PREDICTED BY IDOCK:   -2.73 KCAL/MOL
REMARK 924 INTRA-LIGAND FREE ENERGY PREDICTED BY IDOCK:   -0.06 KCAL/MOL
REMARK 927      BINDING AFFINITY PREDICTED BY RF-SCORE:    0.00 PKD
ROOT
HETATM    1  C   UNL     1     -12.309  12.032  70.795  1.00  0.00    -0.308 C  
HETATM    2  N   UNL     1     -11.540  11.703  69.588  1.00  0.00    -0.313 NA 
HETATM    3  H1  UNL     1     -11.474   8.479  69.849  1.00  0.00     0.000 HD 
HETATM    4  C   UNL     1     -11.140  10.414  69.346  1.00  0.00    -0.254 C  
HETATM    5  N   UNL     1     -10.291  10.017  68.466  1.00  0.00    -0.184 NA 
HETATM    6  H2  UNL     1      -9.869  10.741  67.884  1.00  0.00     0.000 HD 
HETATM    7  N   UNL     1     -11.771   9.439  70.028  1.00  0.00    -0.456 NA 
HETATM    8  H2  UNL     1     -12.513   9.650  70.695  1.00  0.00     0.000 HD 
HETATM    9  H1  UNL     1      -9.994   9.057  68.287  1.00  0.00     0.000 HD 
ENDROOT
BRANCH   2  10
HETATM   10  C   UNL     1     -10.788  12.859  69.031  1.00  0.00    -0.145 C  
HETATM   11  C   UNL     1     -11.213  13.246  67.618  1.00  0.00    -0.280 C  
HETATM   12  O   UNL     1     -10.724  14.193  67.013  1.00  0.00    -0.281 OA 
HETATM   13  O   UNL     1     -12.167  12.461  67.068  1.00  0.00    -0.508 OA 
ENDBRANCH   2  10
TORSDOF 1
ENDMDL
MODEL      111
REMARK 921   NORMALIZED FREE ENERGY PREDICTED BY IDOCK:   -2.51 KCAL/MOL
REMARK 922        TOTAL FREE ENERGY PREDICTED BY IDOCK:   -2.78 KCAL/MOL
REMARK 923 INTER-LIGAND FREE ENERGY PREDICTED BY IDOCK:   -2.65 KCAL/MOL
REMARK 924 INTRA-LIGAND FREE ENERGY PREDICTED BY IDOCK:   -0.13 KCAL/MOL
REMARK 927      BINDING AFFINITY PREDICTED BY RF-SCORE:    0.00 PKD
ROOT
HETATM    1  C   UNL     1      -9.311   5.933  70.217  1.00  0.00    -0.158 C  
HETATM    2  N   UNL     1      -9.997   7.095  70.795  1.00  0.00    -0.190 NA 
HETATM    3  H1  UNL     1     -12.822   6.889  69.232  1.00  0.00     0.000 HD 
HETATM    4  C   UNL     1     -11.220   7.492  70.316  1.00  0.00    -0.236 C  
HETATM    5  N   UNL     1     -11.829   8.596  70.564  1.00  0.00    -0.474 NA 
HETATM    6  H2  UNL     1     -11.350   9.249  71.185  1.00  0.00     0.000 HD 
HETATM    7  N   UNL     1     -11.912   6.595  69.588  1.00  0.00    -0.590 NA 
HETATM    8  H2  UNL     1     -11.544   5.662  69.401  1.00  0.00     0.000 HD 
HETATM    9  H1  UNL     1     -12.739   8.890  70.208  1.00  0.00     0.000 HD 
ENDROOT
BRANCH   2  10
HETATM   10  C   UNL     1      -9.076   8.064  71.447  1.00  0.00    -0.141 C  
HETATM   11  C   UNL     1      -9.076   7.982  72.970  1.00  0.00    -0.265 C  
HETATM   12  O   UNL     1      -8.357   8.682  73.673  1.00  0.00    -0.380 OA 
HETATM   13  O   UNL     1      -9.938   7.085  73.499  1.00  0.00    -0.220 OA 
ENDBRANCH   2  10
TORSDOF 1
ENDMDL
MODEL      112
REMARK 921   NORMALIZED FREE ENERGY PREDICTED BY IDOCK:   -2.50 KCAL/MOL
REMARK 922        TOTAL FREE ENERGY PREDICTED BY IDOCK:   -2.77 KCAL/MOL
REMARK 923 INTER-LIGAND FREE ENERGY PREDICTED BY IDOCK:   -3.02 KCAL/MOL
REMARK 924 INTRA-LIGAND FREE ENERGY PREDICTED BY IDOCK:    0.25 KCAL/MOL
REMARK 927      BINDING AFFINITY PREDICTED BY RF-SCORE:    0.00 PKD
ROOT
HETATM    1  C   UNL     1      -9.208  20.063  67.461  1.00  0.00    -0.364 C  
HETATM    2  N   UNL     1      -9.211  18.736  66.831  1.00  0.00    -0.297 NA 
HETATM    3  H1  UNL     1     -11.638  19.139  64.730  1.00  0.00     0.000 HD 
HETATM    4  C   UNL     1     -10.193  18.391  65.937  1.00  0.00    -0.233 C  
HETATM    5  N   UNL     1     -10.449  17.217  65.482  1.00  0.00    -0.619 NA 
HETATM    6  H2  UNL     1      -9.857  16.459  65.823  1.00  0.00     0.000 HD 
HETATM    7  N   UNL     1     -10.908  19.395  65.394  1.00  0.00    -0.447 NA 
HETATM    8  H2  UNL     1     -10.726  20.369  65.636  1.00  0.00     0.000 HD 
HETATM    9  H1  UNL     1     -11.180  16.960  64.818  1.00  0.00     0.000 HD 
ENDROOT
BRANCH   2  10
HETATM   10  C   UNL     1      -8.494  17.702  67.622  1.00  0.00    -0.224 C  
HETATM   11  C   UNL     1      -9.359  17.032  68.684  1.00  0.00    -0.270 C  
HETATM   12  O   UNL     1      -8.945  16.134  69.409  1.00  0.00    -0.234 OA 
HETATM   13  O   UNL     1     -10.622  17.504  68.781  1.00  0.00    -0.330 OA 
ENDBRANCH   2  10
TORSDOF 1
ENDMDL
MODEL      113
REMARK 921   NORMALIZED FREE ENERGY PREDICTED BY IDOCK:   -2.50 KCAL/MOL
REMARK 922        TOTAL FREE ENERGY PREDICTED BY IDOCK:   -2.77 KCAL/MOL
REMARK 923 INTER-LIGAND FREE ENERGY PREDICTED BY IDOCK:   -2.64 KCAL/MOL
REMARK 924 INTRA-LIGAND FREE ENERGY PREDICTED BY IDOCK:   -0.13 KCAL/MOL
REMARK 927      BINDING AFFINITY PREDICTED BY RF-SCORE:    0.00 PKD
ROOT
HETATM    1  C   UNL     1      -9.239   8.177  69.065  1.00  0.00    -0.148 C  
HETATM    2  N   UNL     1      -9.913   7.866  67.799  1.00  0.00    -0.163 NA 
HETATM    3  H1  UNL     1     -12.178   5.822  68.878  1.00  0.00     0.000 HD 
HETATM    4  C   UNL     1     -10.890   6.904  67.747  1.00  0.00    -0.241 C  
HETATM    5  N   UNL     1     -11.404   6.376  66.694  1.00  0.00    -0.715 NA 
HETATM    6  H2  UNL     1     -11.046   6.709  65.799  1.00  0.00     0.000 HD 
HETATM    7  N   UNL     1     -11.451   6.537  68.916  1.00  0.00    -0.608 NA 
HETATM    8  H2  UNL     1     -11.162   6.957  69.800  1.00  0.00     0.000 HD 
HETATM    9  H1  UNL     1     -12.131   5.661  66.656  1.00  0.00     0.000 HD 
ENDROOT
BRANCH   2  10
HETATM   10  C   UNL     1      -9.106   8.205  66.597  1.00  0.00    -0.165 C  
HETATM   11  C   UNL     1      -9.562   9.477  65.890  1.00  0.00    -0.261 C  
HETATM   12  O   UNL     1      -8.994   9.927  64.901  1.00  0.00    -0.175 OA 
HETATM   13  O   UNL     1     -10.650  10.075  66.423  1.00  0.00    -0.166 OA 
ENDBRANCH   2  10
TORSDOF 1
ENDMDL
MODEL      114
REMARK 921   NORMALIZED FREE ENERGY PREDICTED BY IDOCK:   -2.50 KCAL/MOL
REMARK 922        TOTAL FREE ENERGY PREDICTED BY IDOCK:   -2.77 KCAL/MOL
REMARK 923 INTER-LIGAND FREE ENERGY PREDICTED BY IDOCK:   -2.64 KCAL/MOL
REMARK 924 INTRA-LIGAND FREE ENERGY PREDICTED BY IDOCK:   -0.13 KCAL/MOL
REMARK 927      BINDING AFFINITY PREDICTED BY RF-SCORE:    0.00 PKD
ROOT
HETATM    1  C   UNL     1      -8.308   7.551  68.332  1.00  0.00    -0.125 C  
HETATM    2  N   UNL     1      -9.682   7.045  68.219  1.00  0.00    -0.134 NA 
HETATM    3  H1  UNL     1      -9.716   6.266  65.079  1.00  0.00     0.000 HD 
HETATM    4  C   UNL     1     -10.203   6.712  66.994  1.00  0.00    -0.223 C  
HETATM    5  N   UNL     1     -11.435   6.471  66.715  1.00  0.00    -0.760 NA 
HETATM    6  H2  UNL     1     -12.096   6.534  67.489  1.00  0.00     0.000 HD 
HETATM    7  N   UNL     1      -9.328   6.514  65.989  1.00  0.00    -0.355 NA 
HETATM    8  H2  UNL     1      -8.323   6.607  66.133  1.00  0.00     0.000 HD 
HETATM    9  H1  UNL     1     -11.822   6.223  65.805  1.00  0.00     0.000 HD 
ENDROOT
BRANCH   2  10
HETATM   10  C   UNL     1     -10.563   7.465  69.341  1.00  0.00    -0.226 C  
HETATM   11  C   UNL     1     -10.822   6.363  70.363  1.00  0.00    -0.286 C  
HETATM   12  O   UNL     1     -11.499   6.538  71.370  1.00  0.00    -0.282 OA 
HETATM   13  O   UNL     1     -10.260   5.168  70.078  1.00  0.00    -0.251 OA 
ENDBRANCH   2  10
TORSDOF 1
ENDMDL
MODEL      115
REMARK 921   NORMALIZED FREE ENERGY PREDICTED BY IDOCK:   -2.49 KCAL/MOL
REMARK 922        TOTAL FREE ENERGY PREDICTED BY IDOCK:   -2.76 KCAL/MOL
REMARK 923 INTER-LIGAND FREE ENERGY PREDICTED BY IDOCK:   -2.92 KCAL/MOL
REMARK 924 INTRA-LIGAND FREE ENERGY PREDICTED BY IDOCK:    0.15 KCAL/MOL
REMARK 927      BINDING AFFINITY PREDICTED BY RF-SCORE:    0.00 PKD
ROOT
HETATM    1  C   UNL     1     -11.165  14.708  67.746  1.00  0.00    -0.308 C  
HETATM    2  N   UNL     1     -10.522  16.021  67.885  1.00  0.00    -0.283 NA 
HETATM    3  H1  UNL     1     -11.668  16.882  70.785  1.00  0.00     0.000 HD 
HETATM    4  C   UNL     1     -10.833  16.842  68.940  1.00  0.00    -0.301 C  
HETATM    5  N   UNL     1     -10.527  18.082  69.074  1.00  0.00    -0.414 NA 
HETATM    6  H2  UNL     1      -9.994  18.503  68.312  1.00  0.00     0.000 HD 
HETATM    7  N   UNL     1     -11.437  16.272  70.001  1.00  0.00    -0.389 NA 
HETATM    8  H2  UNL     1     -11.653  15.275  70.019  1.00  0.00     0.000 HD 
HETATM    9  H1  UNL     1     -10.758  18.692  69.859  1.00  0.00     0.000 HD 
ENDROOT
BRANCH   2  10
HETATM   10  C   UNL     1     -10.027  16.579  66.598  1.00  0.00    -0.276 C  
HETATM   11  C   UNL     1      -8.594  17.098  66.664  1.00  0.00    -0.253 C  
HETATM   12  O   UNL     1      -8.011  17.562  65.691  1.00  0.00    -0.512 OA 
HETATM   13  O   UNL     1      -8.008  17.020  67.879  1.00  0.00    -0.182 OA 
ENDBRANCH   2  10
TORSDOF 1
ENDMDL
MODEL      116
REMARK 921   NORMALIZED FREE ENERGY PREDICTED BY IDOCK:   -2.49 KCAL/MOL
REMARK 922        TOTAL FREE ENERGY PREDICTED BY IDOCK:   -2.76 KCAL/MOL
REMARK 923 INTER-LIGAND FREE ENERGY PREDICTED BY IDOCK:   -2.64 KCAL/MOL
REMARK 924 INTRA-LIGAND FREE ENERGY PREDICTED BY IDOCK:   -0.13 KCAL/MOL
REMARK 927      BINDING AFFINITY PREDICTED BY RF-SCORE:    0.00 PKD
ROOT
HETATM    1  C   UNL     1     -10.410  17.083  66.113  1.00  0.00    -0.319 C  
HETATM    2  N   UNL     1      -9.261  17.769  66.716  1.00  0.00    -0.265 NA 
HETATM    3  H1  UNL     1     -10.704  20.497  67.687  1.00  0.00     0.000 HD 
HETATM    4  C   UNL     1      -9.374  19.063  67.158  1.00  0.00    -0.307 C  
HETATM    5  N   UNL     1      -8.419  19.853  67.497  1.00  0.00    -0.320 NA 
HETATM    6  H2  UNL     1      -7.473  19.477  67.430  1.00  0.00     0.000 HD 
HETATM    7  N   UNL     1     -10.620  19.535  67.358  1.00  0.00    -0.473 NA 
HETATM    8  H2  UNL     1     -11.442  18.955  67.190  1.00  0.00     0.000 HD 
HETATM    9  H1  UNL     1      -8.503  20.815  67.826  1.00  0.00     0.000 HD 
ENDROOT
BRANCH   2  10
HETATM   10  C   UNL     1      -7.949  17.215  66.288  1.00  0.00    -0.304 C  
HETATM   11  C   UNL     1      -7.303  16.296  67.320  1.00  0.00    -0.182 C  
HETATM   12  O   UNL     1      -6.236  15.726  67.126  1.00  0.00    -0.309 OA 
HETATM   13  O   UNL     1      -7.987  16.160  68.477  1.00  0.00    -0.158 OA 
ENDBRANCH   2  10
TORSDOF 1
ENDMDL
MODEL      117
REMARK 921   NORMALIZED FREE ENERGY PREDICTED BY IDOCK:   -2.46 KCAL/MOL
REMARK 922        TOTAL FREE ENERGY PREDICTED BY IDOCK:   -2.73 KCAL/MOL
REMARK 923 INTER-LIGAND FREE ENERGY PREDICTED BY IDOCK:   -2.61 KCAL/MOL
REMARK 924 INTRA-LIGAND FREE ENERGY PREDICTED BY IDOCK:   -0.13 KCAL/MOL
REMARK 927      BINDING AFFINITY PREDICTED BY RF-SCORE:    0.00 PKD
ROOT
HETATM    1  C   UNL     1     -10.718  11.598  66.492  1.00  0.00    -0.272 C  
HETATM    2  N   UNL     1     -10.448  11.929  67.897  1.00  0.00    -0.199 NA 
HETATM    3  H1  UNL     1     -12.877  10.324  69.309  1.00  0.00     0.000 HD 
HETATM    4  C   UNL     1     -11.330  11.561  68.882  1.00  0.00    -0.268 C  
HETATM    5  N   UNL     1     -11.342  11.963  70.102  1.00  0.00    -0.496 NA 
HETATM    6  H2  UNL     1     -10.616  12.629  70.368  1.00  0.00     0.000 HD 
HETATM    7  N   UNL     1     -12.222  10.599  68.576  1.00  0.00    -0.801 NA 
HETATM    8  H2  UNL     1     -12.240  10.163  67.654  1.00  0.00     0.000 HD 
HETATM    9  H1  UNL     1     -11.998  11.689  70.835  1.00  0.00     0.000 HD 
ENDROOT
BRANCH   2  10
HETATM   10  C   UNL     1      -9.552  13.103  68.069  1.00  0.00    -0.220 C  
HETATM   11  C   UNL     1      -8.107  12.732  68.387  1.00  0.00    -0.129 C  
HETATM   12  O   UNL     1      -7.222  13.569  68.530  1.00  0.00    -0.097 OA 
HETATM   13  O   UNL     1      -7.867  11.408  68.513  1.00  0.00    -0.126 OA 
ENDBRANCH   2  10
TORSDOF 1
ENDMDL
MODEL      118
REMARK 921   NORMALIZED FREE ENERGY PREDICTED BY IDOCK:   -2.46 KCAL/MOL
REMARK 922        TOTAL FREE ENERGY PREDICTED BY IDOCK:   -2.73 KCAL/MOL
REMARK 923 INTER-LIGAND FREE ENERGY PREDICTED BY IDOCK:   -2.61 KCAL/MOL
REMARK 924 INTRA-LIGAND FREE ENERGY PREDICTED BY IDOCK:   -0.11 KCAL/MOL
REMARK 927      BINDING AFFINITY PREDICTED BY RF-SCORE:    0.00 PKD
ROOT
HETATM    1  C   UNL     1     -11.280  12.330  64.500  1.00  0.00    -0.326 C  
HETATM    2  N   UNL     1     -10.491  12.110  65.719  1.00  0.00    -0.245 NA 
HETATM    3  H1  UNL     1      -9.471  15.133  66.260  1.00  0.00     0.000 HD 
HETATM    4  C   UNL     1      -9.738  13.124  66.255  1.00  0.00    -0.265 C  
HETATM    5  N   UNL     1      -8.841  13.024  67.170  1.00  0.00    -0.211 NA 
HETATM    6  H2  UNL     1      -8.671  12.087  67.538  1.00  0.00     0.000 HD 
HETATM    7  N   UNL     1     -10.031  14.378  65.861  1.00  0.00    -0.317 NA 
HETATM    8  H2  UNL     1     -10.779  14.566  65.194  1.00  0.00     0.000 HD 
HETATM    9  H1  UNL     1      -8.282  13.778  67.569  1.00  0.00     0.000 HD 
ENDROOT
BRANCH   2  10
HETATM   10  C   UNL     1     -10.131  10.685  65.943  1.00  0.00    -0.261 C  
HETATM   11  C   UNL     1     -10.901  10.028  67.084  1.00  0.00    -0.170 C  
HETATM   12  O   UNL     1     -10.757   8.850  67.391  1.00  0.00    -0.272 OA 
HETATM   13  O   UNL     1     -11.752  10.841  67.748  1.00  0.00    -0.547 OA 
ENDBRANCH   2  10
TORSDOF 1
ENDMDL
MODEL      119
REMARK 921   NORMALIZED FREE ENERGY PREDICTED BY IDOCK:   -2.45 KCAL/MOL
REMARK 922        TOTAL FREE ENERGY PREDICTED BY IDOCK:   -2.72 KCAL/MOL
REMARK 923 INTER-LIGAND FREE ENERGY PREDICTED BY IDOCK:   -2.60 KCAL/MOL
REMARK 924 INTRA-LIGAND FREE ENERGY PREDICTED BY IDOCK:   -0.12 KCAL/MOL
REMARK 927      BINDING AFFINITY PREDICTED BY RF-SCORE:    0.00 PKD
ROOT
HETATM    1  C   UNL     1     -13.108   7.331  71.501  1.00  0.00    -0.384 C  
HETATM    2  N   UNL     1     -11.733   6.838  71.358  1.00  0.00    -0.307 NA 
HETATM    3  H1  UNL     1     -11.714   4.600  73.695  1.00  0.00     0.000 HD 
HETATM    4  C   UNL     1     -11.217   5.941  72.259  1.00  0.00    -0.291 C  
HETATM    5  N   UNL     1      -9.986   5.595  72.392  1.00  0.00    -0.168 NA 
HETATM    6  H2  UNL     1      -9.320   6.036  71.757  1.00  0.00     0.000 HD 
HETATM    7  N   UNL     1     -12.097   5.268  73.026  1.00  0.00    -0.468 NA 
HETATM    8  H2  UNL     1     -13.102   5.419  72.940  1.00  0.00     0.000 HD 
HETATM    9  H1  UNL     1      -9.603   4.927  73.061  1.00  0.00     0.000 HD 
ENDROOT
BRANCH   2  10
HETATM   10  C   UNL     1     -10.847   7.761  70.601  1.00  0.00    -0.237 C  
HETATM   11  C   UNL     1     -10.648   7.363  69.142  1.00  0.00    -0.204 C  
HETATM   12  O   UNL     1      -9.975   8.024  68.359  1.00  0.00    -0.173 OA 
HETATM   13  O   UNL     1     -11.260   6.217  68.769  1.00  0.00    -0.367 OA 
ENDBRANCH   2  10
TORSDOF 1
ENDMDL
MODEL      120
REMARK 921   NORMALIZED FREE ENERGY PREDICTED BY IDOCK:   -2.43 KCAL/MOL
REMARK 922        TOTAL FREE ENERGY PREDICTED BY IDOCK:   -2.70 KCAL/MOL
REMARK 923 INTER-LIGAND FREE ENERGY PREDICTED BY IDOCK:   -2.57 KCAL/MOL
REMARK 924 INTRA-LIGAND FREE ENERGY PREDICTED BY IDOCK:   -0.13 KCAL/MOL
REMARK 927      BINDING AFFINITY PREDICTED BY RF-SCORE:    0.00 PKD
ROOT
HETATM    1  C   UNL     1     -11.015   9.012  71.609  1.00  0.00    -0.365 C  
HETATM    2  N   UNL     1     -11.115   7.687  70.983  1.00  0.00    -0.253 NA 
HETATM    3  H1  UNL     1      -9.960   8.387  68.043  1.00  0.00     0.000 HD 
HETATM    4  C   UNL     1     -10.850   7.525  69.647  1.00  0.00    -0.202 C  
HETATM    5  N   UNL     1     -11.104   6.493  68.925  1.00  0.00    -0.473 NA 
HETATM    6  H2  UNL     1     -11.552   5.708  69.398  1.00  0.00     0.000 HD 
HETATM    7  N   UNL     1     -10.158   8.507  69.037  1.00  0.00    -0.195 NA 
HETATM    8  H2  UNL     1      -9.845   9.333  69.546  1.00  0.00     0.000 HD 
HETATM    9  H1  UNL     1     -10.906   6.373  67.931  1.00  0.00     0.000 HD 
ENDROOT
BRANCH   2  10
HETATM   10  C   UNL     1     -12.026   6.758  71.704  1.00  0.00    -0.347 C  
HETATM   11  C   UNL     1     -11.300   5.725  72.559  1.00  0.00    -0.307 C  
HETATM   12  O   UNL     1     -11.889   4.899  73.247  1.00  0.00    -0.264 OA 
HETATM   13  O   UNL     1      -9.950   5.774  72.499  1.00  0.00    -0.168 OA 
ENDBRANCH   2  10
TORSDOF 1
ENDMDL
MODEL      121
REMARK 921   NORMALIZED FREE ENERGY PREDICTED BY IDOCK:   -2.43 KCAL/MOL
REMARK 922        TOTAL FREE ENERGY PREDICTED BY IDOCK:   -2.70 KCAL/MOL
REMARK 923 INTER-LIGAND FREE ENERGY PREDICTED BY IDOCK:   -2.97 KCAL/MOL
REMARK 924 INTRA-LIGAND FREE ENERGY PREDICTED BY IDOCK:    0.27 KCAL/MOL
REMARK 927      BINDING AFFINITY PREDICTED BY RF-SCORE:    0.00 PKD
ROOT
HETATM    1  C   UNL     1     -10.220   9.093  70.844  1.00  0.00    -0.282 C  
HETATM    2  N   UNL     1     -10.746   8.622  72.132  1.00  0.00    -0.348 NA 
HETATM    3  H1  UNL     1      -8.119   7.113  73.270  1.00  0.00     0.000 HD 
HETATM    4  C   UNL     1      -9.998   7.792  72.928  1.00  0.00    -0.279 C  
HETATM    5  N   UNL     1     -10.400   7.133  73.955  1.00  0.00    -0.416 NA 
HETATM    6  H2  UNL     1     -11.384   7.239  74.206  1.00  0.00     0.000 HD 
HETATM    7  N   UNL     1      -8.676   7.731  72.677  1.00  0.00    -0.132 NA 
HETATM    8  H2  UNL     1      -8.249   8.278  71.929  1.00  0.00     0.000 HD 
HETATM    9  H1  UNL     1      -9.844   6.516  74.547  1.00  0.00     0.000 HD 
ENDROOT
BRANCH   2  10
HETATM   10  C   UNL     1     -12.231   8.621  72.202  1.00  0.00    -0.386 C  
HETATM   11  C   UNL     1     -12.876   7.392  71.570  1.00  0.00    -0.375 C  
HETATM   12  O   UNL     1     -14.087   7.207  71.564  1.00  0.00    -0.395 OA 
HETATM   13  O   UNL     1     -12.015   6.518  71.003  1.00  0.00    -0.361 OA 
ENDBRANCH   2  10
TORSDOF 1
ENDMDL
MODEL      122
REMARK 921   NORMALIZED FREE ENERGY PREDICTED BY IDOCK:   -2.43 KCAL/MOL
REMARK 922        TOTAL FREE ENERGY PREDICTED BY IDOCK:   -2.70 KCAL/MOL
REMARK 923 INTER-LIGAND FREE ENERGY PREDICTED BY IDOCK:   -3.02 KCAL/MOL
REMARK 924 INTRA-LIGAND FREE ENERGY PREDICTED BY IDOCK:    0.32 KCAL/MOL
REMARK 927      BINDING AFFINITY PREDICTED BY RF-SCORE:    0.00 PKD
ROOT
HETATM    1  C   UNL     1     -11.941  14.334  68.748  1.00  0.00    -0.311 C  
HETATM    2  N   UNL     1     -11.708  14.095  67.318  1.00  0.00    -0.372 NA 
HETATM    3  H1  UNL     1     -11.645  10.860  67.313  1.00  0.00     0.000 HD 
HETATM    4  C   UNL     1     -11.472  12.826  66.853  1.00  0.00    -0.340 C  
HETATM    5  N   UNL     1     -11.041  12.494  65.689  1.00  0.00    -0.292 NA 
HETATM    6  H2  UNL     1     -10.854  13.258  65.039  1.00  0.00     0.000 HD 
HETATM    7  N   UNL     1     -11.820  11.804  67.659  1.00  0.00    -0.603 NA 
HETATM    8  H2  UNL     1     -12.241  11.966  68.573  1.00  0.00     0.000 HD 
HETATM    9  H1  UNL     1     -10.865  11.550  65.343  1.00  0.00     0.000 HD 
ENDROOT
BRANCH   2  10
HETATM   10  C   UNL     1     -11.194  15.287  66.593  1.00  0.00    -0.232 C  
HETATM   11  C   UNL     1      -9.673  15.339  66.497  1.00  0.00    -0.268 C  
HETATM   12  O   UNL     1      -9.075  16.232  65.908  1.00  0.00    -0.395 OA 
HETATM   13  O   UNL     1      -9.021  14.332  67.120  1.00  0.00    -0.204 OA 
ENDBRANCH   2  10
TORSDOF 1
ENDMDL
MODEL      123
REMARK 921   NORMALIZED FREE ENERGY PREDICTED BY IDOCK:   -2.41 KCAL/MOL
REMARK 922        TOTAL FREE ENERGY PREDICTED BY IDOCK:   -2.68 KCAL/MOL
REMARK 923 INTER-LIGAND FREE ENERGY PREDICTED BY IDOCK:   -3.00 KCAL/MOL
REMARK 924 INTRA-LIGAND FREE ENERGY PREDICTED BY IDOCK:    0.32 KCAL/MOL
REMARK 927      BINDING AFFINITY PREDICTED BY RF-SCORE:    0.00 PKD
ROOT
HETATM    1  C   UNL     1      -9.589  14.901  68.585  1.00  0.00    -0.222 C  
HETATM    2  N   UNL     1     -10.768  14.164  68.114  1.00  0.00    -0.240 NA 
HETATM    3  H1  UNL     1     -11.261  15.673  65.295  1.00  0.00     0.000 HD 
HETATM    4  C   UNL     1     -11.430  14.560  66.979  1.00  0.00    -0.370 C  
HETATM    5  N   UNL     1     -12.582  14.159  66.574  1.00  0.00    -0.519 NA 
HETATM    6  H2  UNL     1     -13.056  13.472  67.160  1.00  0.00     0.000 HD 
HETATM    7  N   UNL     1     -10.769  15.379  66.139  1.00  0.00    -0.310 NA 
HETATM    8  H2  UNL     1      -9.819  15.692  66.338  1.00  0.00     0.000 HD 
HETATM    9  H1  UNL     1     -13.074  14.453  65.730  1.00  0.00     0.000 HD 
ENDROOT
BRANCH   2  10
HETATM   10  C   UNL     1     -11.470  13.416  69.191  1.00  0.00    -0.300 C  
HETATM   11  C   UNL     1     -12.301  14.301  70.114  1.00  0.00    -0.353 C  
HETATM   12  O   UNL     1     -12.971  13.854  71.037  1.00  0.00    -0.324 OA 
HETATM   13  O   UNL     1     -12.240  15.626  69.850  1.00  0.00    -0.362 OA 
ENDBRANCH   2  10
TORSDOF 1
ENDMDL
MODEL      124
REMARK 921   NORMALIZED FREE ENERGY PREDICTED BY IDOCK:   -2.41 KCAL/MOL
REMARK 922        TOTAL FREE ENERGY PREDICTED BY IDOCK:   -2.68 KCAL/MOL
REMARK 923 INTER-LIGAND FREE ENERGY PREDICTED BY IDOCK:   -2.59 KCAL/MOL
REMARK 924 INTRA-LIGAND FREE ENERGY PREDICTED BY IDOCK:   -0.08 KCAL/MOL
REMARK 927      BINDING AFFINITY PREDICTED BY RF-SCORE:    0.00 PKD
ROOT
HETATM    1  C   UNL     1      -5.851  20.145  70.922  1.00  0.00    -0.311 C  
HETATM    2  N   UNL     1      -6.107  19.181  69.844  1.00  0.00    -0.257 NA 
HETATM    3  H1  UNL     1      -4.743  16.547  71.136  1.00  0.00     0.000 HD 
HETATM    4  C   UNL     1      -5.573  17.918  69.896  1.00  0.00    -0.239 C  
HETATM    5  N   UNL     1      -5.526  17.056  68.944  1.00  0.00    -0.140 NA 
HETATM    6  H2  UNL     1      -5.929  17.342  68.052  1.00  0.00     0.000 HD 
HETATM    7  N   UNL     1      -5.140  17.486  71.096  1.00  0.00    -0.431 NA 
HETATM    8  H2  UNL     1      -5.206  18.072  71.929  1.00  0.00     0.000 HD 
HETATM    9  H1  UNL     1      -5.129  16.117  68.984  1.00  0.00     0.000 HD 
ENDROOT
BRANCH   2  10
HETATM   10  C   UNL     1      -6.441  19.821  68.543  1.00  0.00    -0.275 C  
HETATM   11  C   UNL     1      -7.890  19.618  68.113  1.00  0.00    -0.311 C  
HETATM   12  O   UNL     1      -8.352  20.100  67.085  1.00  0.00    -0.314 OA 
HETATM   13  O   UNL     1      -8.636  18.856  68.943  1.00  0.00    -0.316 OA 
ENDBRANCH   2  10
TORSDOF 1
ENDMDL
MODEL      125
REMARK 921   NORMALIZED FREE ENERGY PREDICTED BY IDOCK:   -2.41 KCAL/MOL
REMARK 922        TOTAL FREE ENERGY PREDICTED BY IDOCK:   -2.67 KCAL/MOL
REMARK 923 INTER-LIGAND FREE ENERGY PREDICTED BY IDOCK:   -2.55 KCAL/MOL
REMARK 924 INTRA-LIGAND FREE ENERGY PREDICTED BY IDOCK:   -0.13 KCAL/MOL
REMARK 927      BINDING AFFINITY PREDICTED BY RF-SCORE:    0.00 PKD
ROOT
HETATM    1  C   UNL     1     -10.737   6.252  70.794  1.00  0.00    -0.256 C  
HETATM    2  N   UNL     1     -10.484   7.444  71.612  1.00  0.00    -0.198 NA 
HETATM    3  H1  UNL     1      -7.249   7.420  71.622  1.00  0.00     0.000 HD 
HETATM    4  C   UNL     1      -9.209   7.763  72.005  1.00  0.00    -0.144 C  
HETATM    5  N   UNL     1      -8.863   8.630  72.887  1.00  0.00    -0.361 NA 
HETATM    6  H2  UNL     1      -9.620   9.138  73.346  1.00  0.00     0.000 HD 
HETATM    7  N   UNL     1      -8.198   7.183  71.330  1.00  0.00    -0.108 NA 
HETATM    8  H2  UNL     1      -8.372   6.537  70.560  1.00  0.00     0.000 HD 
HETATM    9  H1  UNL     1      -7.914   8.867  73.179  1.00  0.00     0.000 HD 
ENDROOT
BRANCH   2  10
HETATM   10  C   UNL     1     -11.664   7.880  72.405  1.00  0.00    -0.367 C  
HETATM   11  C   UNL     1     -12.369   9.106  71.834  1.00  0.00    -0.385 C  
HETATM   12  O   UNL     1     -13.378   9.587  72.338  1.00  0.00    -0.446 OA 
HETATM   13  O   UNL     1     -11.798   9.639  70.731  1.00  0.00    -0.283 OA 
ENDBRANCH   2  10
TORSDOF 1
ENDMDL
MODEL      126
REMARK 921   NORMALIZED FREE ENERGY PREDICTED BY IDOCK:   -2.41 KCAL/MOL
REMARK 922        TOTAL FREE ENERGY PREDICTED BY IDOCK:   -2.67 KCAL/MOL
REMARK 923 INTER-LIGAND FREE ENERGY PREDICTED BY IDOCK:   -2.55 KCAL/MOL
REMARK 924 INTRA-LIGAND FREE ENERGY PREDICTED BY IDOCK:   -0.13 KCAL/MOL
REMARK 927      BINDING AFFINITY PREDICTED BY RF-SCORE:    0.00 PKD
ROOT
HETATM    1  C   UNL     1      -9.156   9.473  69.903  1.00  0.00    -0.216 C  
HETATM    2  N   UNL     1     -10.292  10.133  69.247  1.00  0.00    -0.208 NA 
HETATM    3  H1  UNL     1     -12.400  10.150  71.702  1.00  0.00     0.000 HD 
HETATM    4  C   UNL     1     -11.500  10.242  69.889  1.00  0.00    -0.273 C  
HETATM    5  N   UNL     1     -12.625  10.588  69.371  1.00  0.00    -0.690 NA 
HETATM    6  H2  UNL     1     -12.618  10.805  68.374  1.00  0.00     0.000 HD 
HETATM    7  N   UNL     1     -11.502  10.069  71.225  1.00  0.00    -0.356 NA 
HETATM    8  H2  UNL     1     -10.643   9.866  71.736  1.00  0.00     0.000 HD 
HETATM    9  H1  UNL     1     -13.523  10.669  69.849  1.00  0.00     0.000 HD 
ENDROOT
BRANCH   2  10
HETATM   10  C   UNL     1     -10.209  10.122  67.763  1.00  0.00    -0.191 C  
HETATM   11  C   UNL     1      -9.818  11.467  67.159  1.00  0.00    -0.190 C  
HETATM   12  O   UNL     1      -9.671  11.636  65.954  1.00  0.00    -0.222 OA 
HETATM   13  O   UNL     1      -9.655  12.472  68.048  1.00  0.00    -0.200 OA 
ENDBRANCH   2  10
TORSDOF 1
ENDMDL
MODEL      127
REMARK 921   NORMALIZED FREE ENERGY PREDICTED BY IDOCK:   -2.41 KCAL/MOL
REMARK 922        TOTAL FREE ENERGY PREDICTED BY IDOCK:   -2.67 KCAL/MOL
REMARK 923 INTER-LIGAND FREE ENERGY PREDICTED BY IDOCK:   -2.92 KCAL/MOL
REMARK 924 INTRA-LIGAND FREE ENERGY PREDICTED BY IDOCK:    0.25 KCAL/MOL
REMARK 927      BINDING AFFINITY PREDICTED BY RF-SCORE:    0.00 PKD
ROOT
HETATM    1  C   UNL     1     -10.668   7.420  73.332  1.00  0.00    -0.357 C  
HETATM    2  N   UNL     1     -10.829   8.357  72.213  1.00  0.00    -0.332 NA 
HETATM    3  H1  UNL     1     -13.991   8.986  72.484  1.00  0.00     0.000 HD 
HETATM    4  C   UNL     1     -12.075   8.802  71.851  1.00  0.00    -0.363 C  
HETATM    5  N   UNL     1     -12.391   9.435  70.778  1.00  0.00    -0.472 NA 
HETATM    6  H2  UNL     1     -11.631   9.628  70.124  1.00  0.00     0.000 HD 
HETATM    7  N   UNL     1     -13.064   8.655  72.753  1.00  0.00    -0.642 NA 
HETATM    8  H2  UNL     1     -12.894   8.232  73.666  1.00  0.00     0.000 HD 
HETATM    9  H1  UNL     1     -13.318   9.766  70.509  1.00  0.00     0.000 HD 
ENDROOT
BRANCH   2  10
HETATM   10  C   UNL     1      -9.716   8.302  71.228  1.00  0.00    -0.176 C  
HETATM   11  C   UNL     1      -9.885   7.216  70.171  1.00  0.00    -0.179 C  
HETATM   12  O   UNL     1      -9.081   7.045  69.261  1.00  0.00    -0.138 OA 
HETATM   13  O   UNL     1     -10.983   6.441  70.310  1.00  0.00    -0.262 OA 
ENDBRANCH   2  10
TORSDOF 1
ENDMDL
MODEL      128
REMARK 921   NORMALIZED FREE ENERGY PREDICTED BY IDOCK:   -2.40 KCAL/MOL
REMARK 922        TOTAL FREE ENERGY PREDICTED BY IDOCK:   -2.67 KCAL/MOL
REMARK 923 INTER-LIGAND FREE ENERGY PREDICTED BY IDOCK:   -2.63 KCAL/MOL
REMARK 924 INTRA-LIGAND FREE ENERGY PREDICTED BY IDOCK:   -0.04 KCAL/MOL
REMARK 927      BINDING AFFINITY PREDICTED BY RF-SCORE:    0.00 PKD
ROOT
HETATM    1  C   UNL     1      -9.255   9.302  68.949  1.00  0.00    -0.143 C  
HETATM    2  N   UNL     1     -10.390   8.652  69.615  1.00  0.00    -0.209 NA 
HETATM    3  H1  UNL     1      -9.879   5.592  68.699  1.00  0.00     0.000 HD 
HETATM    4  C   UNL     1     -10.663   7.326  69.393  1.00  0.00    -0.225 C  
HETATM    5  N   UNL     1     -11.729   6.688  69.723  1.00  0.00    -0.650 NA 
HETATM    6  H2  UNL     1     -12.451   7.227  70.203  1.00  0.00     0.000 HD 
HETATM    7  N   UNL     1      -9.676   6.578  68.864  1.00  0.00    -0.130 NA 
HETATM    8  H2  UNL     1      -8.766   6.980  68.638  1.00  0.00     0.000 HD 
HETATM    9  H1  UNL     1     -11.932   5.702  69.558  1.00  0.00     0.000 HD 
ENDROOT
BRANCH   2  10
HETATM   10  C   UNL     1     -11.462   9.600  70.020  1.00  0.00    -0.145 C  
HETATM   11  C   UNL     1     -11.779   9.570  71.511  1.00  0.00    -0.402 C  
HETATM   12  O   UNL     1     -12.612  10.306  72.029  1.00  0.00    -0.371 OA 
HETATM   13  O   UNL     1     -11.081   8.664  72.230  1.00  0.00    -0.354 OA 
ENDBRANCH   2  10
TORSDOF 1
ENDMDL
MODEL      129
REMARK 921   NORMALIZED FREE ENERGY PREDICTED BY IDOCK:   -2.40 KCAL/MOL
REMARK 922        TOTAL FREE ENERGY PREDICTED BY IDOCK:   -2.66 KCAL/MOL
REMARK 923 INTER-LIGAND FREE ENERGY PREDICTED BY IDOCK:   -2.56 KCAL/MOL
REMARK 924 INTRA-LIGAND FREE ENERGY PREDICTED BY IDOCK:   -0.10 KCAL/MOL
REMARK 927      BINDING AFFINITY PREDICTED BY RF-SCORE:    0.00 PKD
ROOT
HETATM    1  C   UNL     1     -11.048   7.981  72.654  1.00  0.00    -0.387 C  
HETATM    2  N   UNL     1     -10.828   8.638  71.359  1.00  0.00    -0.249 NA 
HETATM    3  H1  UNL     1     -13.297  10.730  71.387  1.00  0.00     0.000 HD 
HETATM    4  C   UNL     1     -11.741   9.539  70.871  1.00  0.00    -0.317 C  
HETATM    5  N   UNL     1     -11.797  10.018  69.680  1.00  0.00    -0.470 NA 
HETATM    6  H2  UNL     1     -11.083   9.693  69.026  1.00  0.00     0.000 HD 
HETATM    7  N   UNL     1     -12.618  10.060  71.750  1.00  0.00    -0.405 NA 
HETATM    8  H2  UNL     1     -12.603   9.798  72.736  1.00  0.00     0.000 HD 
HETATM    9  H1  UNL     1     -12.476  10.687  69.317  1.00  0.00     0.000 HD 
ENDROOT
BRANCH   2  10
HETATM   10  C   UNL     1      -9.944   7.868  70.445  1.00  0.00    -0.192 C  
HETATM   11  C   UNL     1      -8.479   8.292  70.506  1.00  0.00    -0.129 C  
HETATM   12  O   UNL     1      -7.603   7.746  69.845  1.00  0.00    -0.086 OA 
HETATM   13  O   UNL     1      -8.212   9.324  71.336  1.00  0.00    -0.330 OA 
ENDBRANCH   2  10
TORSDOF 1
ENDMDL
MODEL      130
REMARK 921   NORMALIZED FREE ENERGY PREDICTED BY IDOCK:   -2.39 KCAL/MOL
REMARK 922        TOTAL FREE ENERGY PREDICTED BY IDOCK:   -2.66 KCAL/MOL
REMARK 923 INTER-LIGAND FREE ENERGY PREDICTED BY IDOCK:   -2.53 KCAL/MOL
REMARK 924 INTRA-LIGAND FREE ENERGY PREDICTED BY IDOCK:   -0.13 KCAL/MOL
REMARK 927      BINDING AFFINITY PREDICTED BY RF-SCORE:    0.00 PKD
ROOT
HETATM    1  C   UNL     1     -10.606  12.634  65.676  1.00  0.00    -0.273 C  
HETATM    2  N   UNL     1     -10.056  11.368  65.176  1.00  0.00    -0.257 NA 
HETATM    3  H1  UNL     1      -9.931  12.043  62.014  1.00  0.00     0.000 HD 
HETATM    4  C   UNL     1      -9.950  11.139  63.827  1.00  0.00    -0.350 C  
HETATM    5  N   UNL     1      -9.701  10.019  63.248  1.00  0.00    -0.525 NA 
HETATM    6  H2  UNL     1      -9.568   9.212  63.858  1.00  0.00     0.000 HD 
HETATM    7  N   UNL     1     -10.010  12.213  63.017  1.00  0.00    -0.521 NA 
HETATM    8  H2  UNL     1     -10.129  13.155  63.389  1.00  0.00     0.000 HD 
HETATM    9  H1  UNL     1      -9.621   9.849  62.245  1.00  0.00     0.000 HD 
ENDROOT
BRANCH   2  10
HETATM   10  C   UNL     1     -10.188  10.242  66.138  1.00  0.00    -0.217 C  
HETATM   11  C   UNL     1      -8.889   9.892  66.856  1.00  0.00    -0.134 C  
HETATM   12  O   UNL     1      -8.816   9.012  67.706  1.00  0.00    -0.125 OA 
HETATM   13  O   UNL     1      -7.810  10.615  66.481  1.00  0.00    -0.127 OA 
ENDBRANCH   2  10
TORSDOF 1
ENDMDL
MODEL      131
REMARK 921   NORMALIZED FREE ENERGY PREDICTED BY IDOCK:   -2.39 KCAL/MOL
REMARK 922        TOTAL FREE ENERGY PREDICTED BY IDOCK:   -2.65 KCAL/MOL
REMARK 923 INTER-LIGAND FREE ENERGY PREDICTED BY IDOCK:   -2.59 KCAL/MOL
REMARK 924 INTRA-LIGAND FREE ENERGY PREDICTED BY IDOCK:   -0.06 KCAL/MOL
REMARK 927      BINDING AFFINITY PREDICTED BY RF-SCORE:    0.00 PKD
ROOT
HETATM    1  C   UNL     1     -11.260  11.367  66.468  1.00  0.00    -0.209 C  
HETATM    2  N   UNL     1      -9.946  11.760  65.944  1.00  0.00    -0.229 NA 
HETATM    3  H1  UNL     1      -9.187   9.071  64.312  1.00  0.00     0.000 HD 
HETATM    4  C   UNL     1      -9.162  10.853  65.277  1.00  0.00    -0.210 C  
HETATM    5  N   UNL     1      -7.923  10.983  64.961  1.00  0.00    -0.345 NA 
HETATM    6  H2  UNL     1      -7.474  11.856  65.236  1.00  0.00     0.000 HD 
HETATM    7  N   UNL     1      -9.770   9.745  64.809  1.00  0.00    -0.422 NA 
HETATM    8  H2  UNL     1     -10.769   9.589  64.943  1.00  0.00     0.000 HD 
HETATM    9  H1  UNL     1      -7.340  10.308  64.465  1.00  0.00     0.000 HD 
ENDROOT
BRANCH   2  10
HETATM   10  C   UNL     1      -9.345  12.917  66.657  1.00  0.00    -0.240 C  
HETATM   11  C   UNL     1      -9.697  14.268  66.043  1.00  0.00    -0.287 C  
HETATM   12  O   UNL     1      -9.316  15.333  66.517  1.00  0.00    -0.241 OA 
HETATM   13  O   UNL     1     -10.455  14.213  64.926  1.00  0.00    -0.404 OA 
ENDBRANCH   2  10
TORSDOF 1
ENDMDL
MODEL      132
REMARK 921   NORMALIZED FREE ENERGY PREDICTED BY IDOCK:   -2.38 KCAL/MOL
REMARK 922        TOTAL FREE ENERGY PREDICTED BY IDOCK:   -2.65 KCAL/MOL
REMARK 923 INTER-LIGAND FREE ENERGY PREDICTED BY IDOCK:   -2.58 KCAL/MOL
REMARK 924 INTRA-LIGAND FREE ENERGY PREDICTED BY IDOCK:   -0.06 KCAL/MOL
REMARK 927      BINDING AFFINITY PREDICTED BY RF-SCORE:    0.00 PKD
ROOT
HETATM    1  C   UNL     1      -8.950   8.822  65.479  1.00  0.00    -0.181 C  
HETATM    2  N   UNL     1      -9.862   9.806  66.075  1.00  0.00    -0.256 NA 
HETATM    3  H1  UNL     1     -10.581   8.279  68.835  1.00  0.00     0.000 HD 
HETATM    4  C   UNL     1     -10.541   9.517  67.231  1.00  0.00    -0.248 C  
HETATM    5  N   UNL     1     -11.520  10.175  67.741  1.00  0.00    -0.604 NA 
HETATM    6  H2  UNL     1     -11.826  11.003  67.230  1.00  0.00     0.000 HD 
HETATM    7  N   UNL     1     -10.077   8.494  67.975  1.00  0.00    -0.191 NA 
HETATM    8  H2  UNL     1      -9.256   7.959  67.690  1.00  0.00     0.000 HD 
HETATM    9  H1  UNL     1     -12.025   9.960  68.602  1.00  0.00     0.000 HD 
ENDROOT
BRANCH   2  10
HETATM   10  C   UNL     1     -10.398  10.788  65.095  1.00  0.00    -0.271 C  
HETATM   11  C   UNL     1     -10.006  12.231  65.393  1.00  0.00    -0.244 C  
HETATM   12  O   UNL     1     -10.330  13.170  64.675  1.00  0.00    -0.361 OA 
HETATM   13  O   UNL     1      -9.278  12.409  66.518  1.00  0.00    -0.227 OA 
ENDBRANCH   2  10
TORSDOF 1
ENDMDL
MODEL      133
REMARK 921   NORMALIZED FREE ENERGY PREDICTED BY IDOCK:   -2.38 KCAL/MOL
REMARK 922        TOTAL FREE ENERGY PREDICTED BY IDOCK:   -2.64 KCAL/MOL
REMARK 923 INTER-LIGAND FREE ENERGY PREDICTED BY IDOCK:   -3.01 KCAL/MOL
REMARK 924 INTRA-LIGAND FREE ENERGY PREDICTED BY IDOCK:    0.37 KCAL/MOL
REMARK 927      BINDING AFFINITY PREDICTED BY RF-SCORE:    0.00 PKD
ROOT
HETATM    1  C   UNL     1      -9.937  15.330  65.756  1.00  0.00    -0.360 C  
HETATM    2  N   UNL     1      -9.837  15.948  67.084  1.00  0.00    -0.229 NA 
HETATM    3  H1  UNL     1     -12.506  14.734  68.450  1.00  0.00     0.000 HD 
HETATM    4  C   UNL     1     -10.856  15.818  67.992  1.00  0.00    -0.309 C  
HETATM    5  N   UNL     1     -11.007  16.471  69.088  1.00  0.00    -0.316 NA 
HETATM    6  H2  UNL     1     -10.290  17.164  69.306  1.00  0.00     0.000 HD 
HETATM    7  N   UNL     1     -11.748  14.831  67.775  1.00  0.00    -0.392 NA 
HETATM    8  H2  UNL     1     -11.668  14.209  66.970  1.00  0.00     0.000 HD 
HETATM    9  H1  UNL     1     -11.766  16.374  69.764  1.00  0.00     0.000 HD 
ENDROOT
BRANCH   2  10
HETATM   10  C   UNL     1      -8.913  17.113  67.128  1.00  0.00    -0.228 C  
HETATM   11  C   UNL     1      -9.425  18.333  66.369  1.00  0.00    -0.286 C  
HETATM   12  O   UNL     1      -8.811  19.393  66.323  1.00  0.00    -0.348 OA 
HETATM   13  O   UNL     1     -10.606  18.163  65.734  1.00  0.00    -0.541 OA 
ENDBRANCH   2  10
TORSDOF 1
ENDMDL
MODEL      134
REMARK 921   NORMALIZED FREE ENERGY PREDICTED BY IDOCK:   -2.37 KCAL/MOL
REMARK 922        TOTAL FREE ENERGY PREDICTED BY IDOCK:   -2.63 KCAL/MOL
REMARK 923 INTER-LIGAND FREE ENERGY PREDICTED BY IDOCK:   -2.51 KCAL/MOL
REMARK 924 INTRA-LIGAND FREE ENERGY PREDICTED BY IDOCK:   -0.12 KCAL/MOL
REMARK 927      BINDING AFFINITY PREDICTED BY RF-SCORE:    0.00 PKD
ROOT
HETATM    1  C   UNL     1      -7.443  16.256  68.981  1.00  0.00    -0.220 C  
HETATM    2  N   UNL     1      -7.953  16.152  67.608  1.00  0.00    -0.141 NA 
HETATM    3  H1  UNL     1      -9.986  13.662  67.973  1.00  0.00     0.000 HD 
HETATM    4  C   UNL     1      -8.774  15.114  67.246  1.00  0.00    -0.202 C  
HETATM    5  N   UNL     1      -9.114  14.773  66.055  1.00  0.00    -0.502 NA 
HETATM    6  H2  UNL     1      -8.731  15.336  65.295  1.00  0.00     0.000 HD 
HETATM    7  N   UNL     1      -9.376  14.434  68.242  1.00  0.00    -0.200 NA 
HETATM    8  H2  UNL     1      -9.228  14.680  69.220  1.00  0.00     0.000 HD 
HETATM    9  H1  UNL     1      -9.725  14.001  65.786  1.00  0.00     0.000 HD 
ENDROOT
BRANCH   2  10
HETATM   10  C   UNL     1      -7.102  16.844  66.605  1.00  0.00    -0.254 C  
HETATM   11  C   UNL     1      -7.608  18.230  66.219  1.00  0.00    -0.256 C  
HETATM   12  O   UNL     1      -7.017  18.958  65.430  1.00  0.00    -0.464 OA 
HETATM   13  O   UNL     1      -8.769  18.602  66.803  1.00  0.00    -0.274 OA 
ENDBRANCH   2  10
TORSDOF 1
ENDMDL
MODEL      135
REMARK 921   NORMALIZED FREE ENERGY PREDICTED BY IDOCK:   -2.37 KCAL/MOL
REMARK 922        TOTAL FREE ENERGY PREDICTED BY IDOCK:   -2.63 KCAL/MOL
REMARK 923 INTER-LIGAND FREE ENERGY PREDICTED BY IDOCK:   -2.91 KCAL/MOL
REMARK 924 INTRA-LIGAND FREE ENERGY PREDICTED BY IDOCK:    0.28 KCAL/MOL
REMARK 927      BINDING AFFINITY PREDICTED BY RF-SCORE:    0.00 PKD
ROOT
HETATM    1  C   UNL     1     -11.679  11.279  70.127  1.00  0.00    -0.343 C  
HETATM    2  N   UNL     1     -12.017  12.014  68.901  1.00  0.00    -0.282 NA 
HETATM    3  H1  UNL     1     -11.357   9.733  66.703  1.00  0.00     0.000 HD 
HETATM    4  C   UNL     1     -11.760  11.468  67.669  1.00  0.00    -0.208 C  
HETATM    5  N   UNL     1     -11.794  12.068  66.533  1.00  0.00    -0.605 NA 
HETATM    6  H2  UNL     1     -12.038  13.059  66.550  1.00  0.00     0.000 HD 
HETATM    7  N   UNL     1     -11.547  10.139  67.620  1.00  0.00    -0.484 NA 
HETATM    8  H2  UNL     1     -11.576   9.564  68.462  1.00  0.00     0.000 HD 
HETATM    9  H1  UNL     1     -11.603  11.662  65.616  1.00  0.00     0.000 HD 
ENDROOT
BRANCH   2  10
HETATM   10  C   UNL     1     -12.080  13.487  69.091  1.00  0.00    -0.288 C  
HETATM   11  C   UNL     1     -10.759  14.200  68.819  1.00  0.00    -0.256 C  
HETATM   12  O   UNL     1     -10.633  15.416  68.895  1.00  0.00    -0.228 OA 
HETATM   13  O   UNL     1      -9.725  13.392  68.497  1.00  0.00    -0.218 OA 
ENDBRANCH   2  10
TORSDOF 1
ENDMDL
MODEL      136
REMARK 921   NORMALIZED FREE ENERGY PREDICTED BY IDOCK:   -2.36 KCAL/MOL
REMARK 922        TOTAL FREE ENERGY PREDICTED BY IDOCK:   -2.62 KCAL/MOL
REMARK 923 INTER-LIGAND FREE ENERGY PREDICTED BY IDOCK:   -2.50 KCAL/MOL
REMARK 924 INTRA-LIGAND FREE ENERGY PREDICTED BY IDOCK:   -0.12 KCAL/MOL
REMARK 927      BINDING AFFINITY PREDICTED BY RF-SCORE:    0.00 PKD
ROOT
HETATM    1  C   UNL     1      -9.842  14.533  68.669  1.00  0.00    -0.232 C  
HETATM    2  N   UNL     1      -9.720  13.236  67.991  1.00  0.00    -0.217 NA 
HETATM    3  H1  UNL     1      -7.267  11.970  69.678  1.00  0.00     0.000 HD 
HETATM    4  C   UNL     1      -8.688  12.385  68.294  1.00  0.00    -0.175 C  
HETATM    5  N   UNL     1      -8.330  11.337  67.642  1.00  0.00    -0.121 NA 
HETATM    6  H2  UNL     1      -8.873  11.113  66.808  1.00  0.00     0.000 HD 
HETATM    7  N   UNL     1      -8.035  12.603  69.452  1.00  0.00     0.066 NA 
HETATM    8  H2  UNL     1      -8.297  13.366  70.075  1.00  0.00     0.000 HD 
HETATM    9  H1  UNL     1      -7.562  10.704  67.868  1.00  0.00     0.000 HD 
ENDROOT
BRANCH   2  10
HETATM   10  C   UNL     1     -10.381  13.199  66.659  1.00  0.00    -0.265 C  
HETATM   11  C   UNL     1     -11.764  12.556  66.676  1.00  0.00    -0.387 C  
HETATM   12  O   UNL     1     -12.468  12.467  65.677  1.00  0.00    -0.640 OA 
HETATM   13  O   UNL     1     -12.161  12.077  67.876  1.00  0.00    -0.531 OA 
ENDBRANCH   2  10
TORSDOF 1
ENDMDL
MODEL      137
REMARK 921   NORMALIZED FREE ENERGY PREDICTED BY IDOCK:   -2.36 KCAL/MOL
REMARK 922        TOTAL FREE ENERGY PREDICTED BY IDOCK:   -2.62 KCAL/MOL
REMARK 923 INTER-LIGAND FREE ENERGY PREDICTED BY IDOCK:   -2.95 KCAL/MOL
REMARK 924 INTRA-LIGAND FREE ENERGY PREDICTED BY IDOCK:    0.32 KCAL/MOL
REMARK 927      BINDING AFFINITY PREDICTED BY RF-SCORE:    0.00 PKD
ROOT
HETATM    1  C   UNL     1      -9.466  11.239  66.991  1.00  0.00    -0.171 C  
HETATM    2  N   UNL     1      -9.801  10.050  67.784  1.00  0.00    -0.153 NA 
HETATM    3  H1  UNL     1     -10.450   7.969  65.393  1.00  0.00     0.000 HD 
HETATM    4  C   UNL     1     -10.284   8.919  67.175  1.00  0.00    -0.269 C  
HETATM    5  N   UNL     1     -10.818   7.899  67.745  1.00  0.00    -0.493 NA 
HETATM    6  H2  UNL     1     -10.892   7.935  68.763  1.00  0.00     0.000 HD 
HETATM    7  N   UNL     1     -10.092   8.810  65.846  1.00  0.00    -0.388 NA 
HETATM    8  H2  UNL     1      -9.608   9.535  65.317  1.00  0.00     0.000 HD 
HETATM    9  H1  UNL     1     -11.177   7.058  67.292  1.00  0.00     0.000 HD 
ENDROOT
BRANCH   2  10
HETATM   10  C   UNL     1     -10.121  10.354  69.204  1.00  0.00    -0.222 C  
HETATM   11  C   UNL     1     -11.498  10.981  69.402  1.00  0.00    -0.294 C  
HETATM   12  O   UNL     1     -11.943  11.269  70.507  1.00  0.00    -0.343 OA 
HETATM   13  O   UNL     1     -12.196  11.209  68.268  1.00  0.00    -0.613 OA 
ENDBRANCH   2  10
TORSDOF 1
ENDMDL
MODEL      138
REMARK 921   NORMALIZED FREE ENERGY PREDICTED BY IDOCK:   -2.35 KCAL/MOL
REMARK 922        TOTAL FREE ENERGY PREDICTED BY IDOCK:   -2.62 KCAL/MOL
REMARK 923 INTER-LIGAND FREE ENERGY PREDICTED BY IDOCK:   -2.87 KCAL/MOL
REMARK 924 INTRA-LIGAND FREE ENERGY PREDICTED BY IDOCK:    0.25 KCAL/MOL
REMARK 927      BINDING AFFINITY PREDICTED BY RF-SCORE:    0.00 PKD
ROOT
HETATM    1  C   UNL     1      -9.955   8.390  72.654  1.00  0.00    -0.258 C  
HETATM    2  N   UNL     1     -10.765   8.198  71.445  1.00  0.00    -0.227 NA 
HETATM    3  H1  UNL     1      -8.964   9.843  69.319  1.00  0.00     0.000 HD 
HETATM    4  C   UNL     1     -10.447   8.851  70.281  1.00  0.00    -0.210 C  
HETATM    5  N   UNL     1     -11.173   8.955  69.226  1.00  0.00    -0.422 NA 
HETATM    6  H2  UNL     1     -12.086   8.502  69.257  1.00  0.00     0.000 HD 
HETATM    7  N   UNL     1      -9.202   9.357  70.184  1.00  0.00    -0.217 NA 
HETATM    8  H2  UNL     1      -8.526   9.258  70.942  1.00  0.00     0.000 HD 
HETATM    9  H1  UNL     1     -10.935   9.441  68.360  1.00  0.00     0.000 HD 
ENDROOT
BRANCH   2  10
HETATM   10  C   UNL     1     -12.161   7.769  71.727  1.00  0.00    -0.298 C  
HETATM   11  C   UNL     1     -13.114   8.925  72.012  1.00  0.00    -0.402 C  
HETATM   12  O   UNL     1     -14.308   8.762  72.234  1.00  0.00    -0.456 OA 
HETATM   13  O   UNL     1     -12.547  10.152  72.013  1.00  0.00    -0.376 OA 
ENDBRANCH   2  10
TORSDOF 1
ENDMDL
MODEL      139
REMARK 921   NORMALIZED FREE ENERGY PREDICTED BY IDOCK:   -2.35 KCAL/MOL
REMARK 922        TOTAL FREE ENERGY PREDICTED BY IDOCK:   -2.61 KCAL/MOL
REMARK 923 INTER-LIGAND FREE ENERGY PREDICTED BY IDOCK:   -2.57 KCAL/MOL
REMARK 924 INTRA-LIGAND FREE ENERGY PREDICTED BY IDOCK:   -0.04 KCAL/MOL
REMARK 927      BINDING AFFINITY PREDICTED BY RF-SCORE:    0.00 PKD
ROOT
HETATM    1  C   UNL     1     -11.548  12.076  68.667  1.00  0.00    -0.319 C  
HETATM    2  N   UNL     1     -11.032  12.783  67.488  1.00  0.00    -0.241 NA 
HETATM    3  H1  UNL     1     -12.568  15.610  67.837  1.00  0.00     0.000 HD 
HETATM    4  C   UNL     1     -11.526  14.016  67.143  1.00  0.00    -0.352 C  
HETATM    5  N   UNL     1     -11.337  14.646  66.039  1.00  0.00    -0.343 NA 
HETATM    6  H2  UNL     1     -10.755  14.179  65.344  1.00  0.00     0.000 HD 
HETATM    7  N   UNL     1     -12.200  14.693  68.093  1.00  0.00    -0.596 NA 
HETATM    8  H2  UNL     1     -12.337  14.306  69.027  1.00  0.00     0.000 HD 
HETATM    9  H1  UNL     1     -11.704  15.563  65.783  1.00  0.00     0.000 HD 
ENDROOT
BRANCH   2  10
HETATM   10  C   UNL     1     -10.439  11.880  66.466  1.00  0.00    -0.221 C  
HETATM   11  C   UNL     1      -8.953  11.606  66.677  1.00  0.00    -0.189 C  
HETATM   12  O   UNL     1      -8.306  10.859  65.952  1.00  0.00    -0.163 OA 
HETATM   13  O   UNL     1      -8.390  12.254  67.721  1.00  0.00    -0.142 OA 
ENDBRANCH   2  10
TORSDOF 1
ENDMDL
MODEL      140
REMARK 921   NORMALIZED FREE ENERGY PREDICTED BY IDOCK:   -2.35 KCAL/MOL
REMARK 922        TOTAL FREE ENERGY PREDICTED BY IDOCK:   -2.61 KCAL/MOL
REMARK 923 INTER-LIGAND FREE ENERGY PREDICTED BY IDOCK:   -2.55 KCAL/MOL
REMARK 924 INTRA-LIGAND FREE ENERGY PREDICTED BY IDOCK:   -0.06 KCAL/MOL
REMARK 927      BINDING AFFINITY PREDICTED BY RF-SCORE:    0.00 PKD
ROOT
HETATM    1  C   UNL     1      -8.550  11.433  67.042  1.00  0.00    -0.157 C  
HETATM    2  N   UNL     1      -9.461  12.459  66.519  1.00  0.00    -0.238 NA 
HETATM    3  H1  UNL     1      -9.516  11.598  63.401  1.00  0.00     0.000 HD 
HETATM    4  C   UNL     1      -9.684  12.572  65.170  1.00  0.00    -0.023 C  
HETATM    5  N   UNL     1     -10.268  13.539  64.558  1.00  0.00    -0.605 NA 
HETATM    6  H2  UNL     1     -10.602  14.308  65.140  1.00  0.00     0.000 HD 
HETATM    7  N   UNL     1      -9.350  11.515  64.404  1.00  0.00    -0.420 NA 
HETATM    8  H2  UNL     1      -8.950  10.669  64.809  1.00  0.00     0.000 HD 
HETATM    9  H1  UNL     1     -10.434  13.623  63.555  1.00  0.00     0.000 HD 
ENDROOT
BRANCH   2  10
HETATM   10  C   UNL     1      -9.619  13.629  67.424  1.00  0.00    -0.226 C  
HETATM   11  C   UNL     1     -11.043  13.820  67.937  1.00  0.00    -0.264 C  
HETATM   12  O   UNL     1     -11.353  14.713  68.718  1.00  0.00    -0.254 OA 
HETATM   13  O   UNL     1     -11.950  12.939  67.462  1.00  0.00    -0.359 OA 
ENDBRANCH   2  10
TORSDOF 1
ENDMDL
MODEL      141
REMARK 921   NORMALIZED FREE ENERGY PREDICTED BY IDOCK:   -2.34 KCAL/MOL
REMARK 922        TOTAL FREE ENERGY PREDICTED BY IDOCK:   -2.60 KCAL/MOL
REMARK 923 INTER-LIGAND FREE ENERGY PREDICTED BY IDOCK:   -2.85 KCAL/MOL
REMARK 924 INTRA-LIGAND FREE ENERGY PREDICTED BY IDOCK:    0.25 KCAL/MOL
REMARK 927      BINDING AFFINITY PREDICTED BY RF-SCORE:    0.00 PKD
ROOT
HETATM    1  C   UNL     1      -9.701   8.476  71.680  1.00  0.00    -0.252 C  
HETATM    2  N   UNL     1     -11.004   8.362  71.013  1.00  0.00    -0.239 NA 
HETATM    3  H1  UNL     1     -12.828   7.469  73.531  1.00  0.00     0.000 HD 
HETATM    4  C   UNL     1     -12.091   7.864  71.685  1.00  0.00    -0.299 C  
HETATM    5  N   UNL     1     -13.217   7.504  71.182  1.00  0.00    -0.578 NA 
HETATM    6  H2  UNL     1     -13.313   7.599  70.170  1.00  0.00     0.000 HD 
HETATM    7  N   UNL     1     -12.020   7.839  73.030  1.00  0.00    -0.629 NA 
HETATM    8  H2  UNL     1     -11.194   8.176  73.526  1.00  0.00     0.000 HD 
HETATM    9  H1  UNL     1     -14.025   7.133  71.682  1.00  0.00     0.000 HD 
ENDROOT
BRANCH   2  10
HETATM   10  C   UNL     1     -10.905   8.262  69.532  1.00  0.00    -0.116 C  
HETATM   11  C   UNL     1     -10.747   6.833  69.022  1.00  0.00    -0.246 C  
HETATM   12  O   UNL     1     -10.682   6.557  67.829  1.00  0.00    -0.227 OA 
HETATM   13  O   UNL     1     -10.673   5.884  69.981  1.00  0.00    -0.268 OA 
ENDBRANCH   2  10
TORSDOF 1
ENDMDL
MODEL      142
REMARK 921   NORMALIZED FREE ENERGY PREDICTED BY IDOCK:   -2.31 KCAL/MOL
REMARK 922        TOTAL FREE ENERGY PREDICTED BY IDOCK:   -2.57 KCAL/MOL
REMARK 923 INTER-LIGAND FREE ENERGY PREDICTED BY IDOCK:   -2.60 KCAL/MOL
REMARK 924 INTRA-LIGAND FREE ENERGY PREDICTED BY IDOCK:    0.03 KCAL/MOL
REMARK 927      BINDING AFFINITY PREDICTED BY RF-SCORE:    0.00 PKD
ROOT
HETATM    1  C   UNL     1      -9.945  13.484  67.506  1.00  0.00    -0.230 C  
HETATM    2  N   UNL     1     -11.051  12.921  68.291  1.00  0.00    -0.249 NA 
HETATM    3  H1  UNL     1     -10.580   9.773  67.709  1.00  0.00     0.000 HD 
HETATM    4  C   UNL     1     -11.333  11.580  68.235  1.00  0.00    -0.286 C  
HETATM    5  N   UNL     1     -12.383  10.989  68.682  1.00  0.00    -0.737 NA 
HETATM    6  H2  UNL     1     -13.083  11.582  69.128  1.00  0.00     0.000 HD 
HETATM    7  N   UNL     1     -10.371  10.771  67.751  1.00  0.00    -0.184 NA 
HETATM    8  H2  UNL     1      -9.471  11.139  67.442  1.00  0.00     0.000 HD 
HETATM    9  H1  UNL     1     -12.593   9.991  68.640  1.00  0.00     0.000 HD 
ENDROOT
BRANCH   2  10
HETATM   10  C   UNL     1     -12.104  13.914  68.631  1.00  0.00    -0.302 C  
HETATM   11  C   UNL     1     -12.433  13.976  70.119  1.00  0.00    -0.319 C  
HETATM   12  O   UNL     1     -13.254  14.758  70.586  1.00  0.00    -0.348 OA 
HETATM   13  O   UNL     1     -11.763  13.096  70.895  1.00  0.00     0.051 OA 
ENDBRANCH   2  10
TORSDOF 1
ENDMDL
MODEL      143
REMARK 921   NORMALIZED FREE ENERGY PREDICTED BY IDOCK:   -2.30 KCAL/MOL
REMARK 922        TOTAL FREE ENERGY PREDICTED BY IDOCK:   -2.56 KCAL/MOL
REMARK 923 INTER-LIGAND FREE ENERGY PREDICTED BY IDOCK:   -2.43 KCAL/MOL
REMARK 924 INTRA-LIGAND FREE ENERGY PREDICTED BY IDOCK:   -0.13 KCAL/MOL
REMARK 927      BINDING AFFINITY PREDICTED BY RF-SCORE:    0.00 PKD
ROOT
HETATM    1  C   UNL     1     -10.408  16.789  66.794  1.00  0.00    -0.293 C  
HETATM    2  N   UNL     1      -9.441  16.658  67.891  1.00  0.00    -0.223 NA 
HETATM    3  H1  UNL     1      -9.263  13.433  68.075  1.00  0.00     0.000 HD 
HETATM    4  C   UNL     1      -9.150  15.427  68.420  1.00  0.00    -0.191 C  
HETATM    5  N   UNL     1      -8.507  15.181  69.505  1.00  0.00    -0.403 NA 
HETATM    6  H2  UNL     1      -8.177  15.991  70.031  1.00  0.00     0.000 HD 
HETATM    7  N   UNL     1      -9.480  14.349  67.682  1.00  0.00    -0.210 NA 
HETATM    8  H2  UNL     1      -9.926  14.445  66.770  1.00  0.00     0.000 HD 
HETATM    9  H1  UNL     1      -8.290  14.265  69.899  1.00  0.00     0.000 HD 
ENDROOT
BRANCH   2  10
HETATM   10  C   UNL     1      -9.289  17.897  68.699  1.00  0.00    -0.277 C  
HETATM   11  C   UNL     1      -8.019  18.683  68.388  1.00  0.00    -0.324 C  
HETATM   12  O   UNL     1      -7.745  19.745  68.934  1.00  0.00    -0.315 OA 
HETATM   13  O   UNL     1      -7.204  18.119  67.469  1.00  0.00    -0.197 OA 
ENDBRANCH   2  10
TORSDOF 1
ENDMDL
MODEL      144
REMARK 921   NORMALIZED FREE ENERGY PREDICTED BY IDOCK:   -2.29 KCAL/MOL
REMARK 922        TOTAL FREE ENERGY PREDICTED BY IDOCK:   -2.54 KCAL/MOL
REMARK 923 INTER-LIGAND FREE ENERGY PREDICTED BY IDOCK:   -2.42 KCAL/MOL
REMARK 924 INTRA-LIGAND FREE ENERGY PREDICTED BY IDOCK:   -0.13 KCAL/MOL
REMARK 927      BINDING AFFINITY PREDICTED BY RF-SCORE:    0.00 PKD
ROOT
HETATM    1  C   UNL     1      -8.287   8.046  68.512  1.00  0.00    -0.127 C  
HETATM    2  N   UNL     1      -9.288   8.614  69.423  1.00  0.00    -0.150 NA 
HETATM    3  H1  UNL     1     -11.813   8.800  67.408  1.00  0.00     0.000 HD 
HETATM    4  C   UNL     1     -10.518   9.000  68.954  1.00  0.00    -0.210 C  
HETATM    5  N   UNL     1     -11.399   9.702  69.573  1.00  0.00    -0.434 NA 
HETATM    6  H2  UNL     1     -11.156  10.006  70.517  1.00  0.00     0.000 HD 
HETATM    7  N   UNL     1     -10.898   8.513  67.757  1.00  0.00    -0.495 NA 
HETATM    8  H2  UNL     1     -10.297   7.885  67.223  1.00  0.00     0.000 HD 
HETATM    9  H1  UNL     1     -12.314   9.989  69.224  1.00  0.00     0.000 HD 
ENDROOT
BRANCH   2  10
HETATM   10  C   UNL     1      -8.699   9.237  70.638  1.00  0.00    -0.234 C  
HETATM   11  C   UNL     1      -8.831   8.381  71.893  1.00  0.00    -0.203 C  
HETATM   12  O   UNL     1      -8.376   8.720  72.980  1.00  0.00    -0.412 OA 
HETATM   13  O   UNL     1      -9.498   7.217  71.730  1.00  0.00    -0.152 OA 
ENDBRANCH   2  10
TORSDOF 1
ENDMDL
MODEL      145
REMARK 921   NORMALIZED FREE ENERGY PREDICTED BY IDOCK:   -2.26 KCAL/MOL
REMARK 922        TOTAL FREE ENERGY PREDICTED BY IDOCK:   -2.52 KCAL/MOL
REMARK 923 INTER-LIGAND FREE ENERGY PREDICTED BY IDOCK:   -2.42 KCAL/MOL
REMARK 924 INTRA-LIGAND FREE ENERGY PREDICTED BY IDOCK:   -0.10 KCAL/MOL
REMARK 927      BINDING AFFINITY PREDICTED BY RF-SCORE:    0.00 PKD
ROOT
HETATM    1  C   UNL     1      -8.383  16.070  68.165  1.00  0.00    -0.160 C  
HETATM    2  N   UNL     1      -8.738  17.014  67.097  1.00  0.00    -0.205 NA 
HETATM    3  H1  UNL     1     -11.907  17.322  67.676  1.00  0.00     0.000 HD 
HETATM    4  C   UNL     1     -10.050  17.343  66.865  1.00  0.00    -0.314 C  
HETATM    5  N   UNL     1     -10.525  17.968  65.847  1.00  0.00    -0.549 NA 
HETATM    6  H2  UNL     1      -9.852  18.250  65.133  1.00  0.00     0.000 HD 
HETATM    7  N   UNL     1     -10.931  17.077  67.849  1.00  0.00    -0.298 NA 
HETATM    8  H2  UNL     1     -10.636  16.651  68.727  1.00  0.00     0.000 HD 
HETATM    9  H1  UNL     1     -11.500  18.212  65.675  1.00  0.00     0.000 HD 
ENDROOT
BRANCH   2  10
HETATM   10  C   UNL     1      -7.723  17.092  66.013  1.00  0.00    -0.158 C  
HETATM   11  C   UNL     1      -6.937  18.399  66.001  1.00  0.00    -0.275 C  
HETATM   12  O   UNL     1      -6.039  18.627  65.199  1.00  0.00    -0.248 OA 
HETATM   13  O   UNL     1      -7.307  19.303  66.936  1.00  0.00    -0.209 OA 
ENDBRANCH   2  10
TORSDOF 1
ENDMDL
MODEL      146
REMARK 921   NORMALIZED FREE ENERGY PREDICTED BY IDOCK:   -2.24 KCAL/MOL
REMARK 922        TOTAL FREE ENERGY PREDICTED BY IDOCK:   -2.50 KCAL/MOL
REMARK 923 INTER-LIGAND FREE ENERGY PREDICTED BY IDOCK:   -2.37 KCAL/MOL
REMARK 924 INTRA-LIGAND FREE ENERGY PREDICTED BY IDOCK:   -0.13 KCAL/MOL
REMARK 927      BINDING AFFINITY PREDICTED BY RF-SCORE:    0.00 PKD
ROOT
HETATM    1  C   UNL     1      -8.037   9.794  67.431  1.00  0.00    -0.114 C  
HETATM    2  N   UNL     1      -9.374   9.216  67.243  1.00  0.00    -0.133 NA 
HETATM    3  H1  UNL     1      -8.573   6.105  66.866  1.00  0.00     0.000 HD 
HETATM    4  C   UNL     1      -9.522   7.895  66.907  1.00  0.00    -0.191 C  
HETATM    5  N   UNL     1     -10.593   7.312  66.501  1.00  0.00    -0.479 NA 
HETATM    6  H2  UNL     1     -11.425   7.898  66.420  1.00  0.00     0.000 HD 
HETATM    7  N   UNL     1      -8.463   7.088  67.116  1.00  0.00    -0.120 NA 
HETATM    8  H2  UNL     1      -7.591   7.444  67.507  1.00  0.00     0.000 HD 
HETATM    9  H1  UNL     1     -10.702   6.329  66.251  1.00  0.00     0.000 HD 
ENDROOT
BRANCH   2  10
HETATM   10  C   UNL     1     -10.409  10.221  66.882  1.00  0.00    -0.239 C  
HETATM   11  C   UNL     1     -11.310  10.621  68.046  1.00  0.00    -0.278 C  
HETATM   12  O   UNL     1     -12.197  11.460  67.942  1.00  0.00    -0.592 OA 
HETATM   13  O   UNL     1     -11.069   9.976  69.209  1.00  0.00    -0.228 OA 
ENDBRANCH   2  10
TORSDOF 1
ENDMDL
MODEL      147
REMARK 921   NORMALIZED FREE ENERGY PREDICTED BY IDOCK:   -2.23 KCAL/MOL
REMARK 922        TOTAL FREE ENERGY PREDICTED BY IDOCK:   -2.48 KCAL/MOL
REMARK 923 INTER-LIGAND FREE ENERGY PREDICTED BY IDOCK:   -2.46 KCAL/MOL
REMARK 924 INTRA-LIGAND FREE ENERGY PREDICTED BY IDOCK:   -0.03 KCAL/MOL
REMARK 927      BINDING AFFINITY PREDICTED BY RF-SCORE:    0.00 PKD
ROOT
HETATM    1  C   UNL     1      -9.655  11.079  67.845  1.00  0.00    -0.172 C  
HETATM    2  N   UNL     1     -10.072   9.781  68.389  1.00  0.00    -0.160 NA 
HETATM    3  H1  UNL     1     -10.155   8.049  65.658  1.00  0.00     0.000 HD 
HETATM    4  C   UNL     1     -10.374   8.738  67.550  1.00  0.00    -0.268 C  
HETATM    5  N   UNL     1     -10.954   7.634  67.863  1.00  0.00    -0.484 NA 
HETATM    6  H2  UNL     1     -11.219   7.522  68.842  1.00  0.00     0.000 HD 
HETATM    7  N   UNL     1      -9.931   8.824  66.281  1.00  0.00    -0.380 NA 
HETATM    8  H2  UNL     1      -9.394   9.629  65.959  1.00  0.00     0.000 HD 
HETATM    9  H1  UNL     1     -11.179   6.859  67.239  1.00  0.00     0.000 HD 
ENDROOT
BRANCH   2  10
HETATM   10  C   UNL     1     -10.668   9.872  69.748  1.00  0.00    -0.267 C  
HETATM   11  C   UNL     1      -9.969   8.999  70.786  1.00  0.00    -0.245 C  
HETATM   12  O   UNL     1     -10.304   8.971  71.964  1.00  0.00    -0.339 OA 
HETATM   13  O   UNL     1      -8.952   8.244  70.313  1.00  0.00    -0.139 OA 
ENDBRANCH   2  10
TORSDOF 1
ENDMDL
MODEL      148
REMARK 921   NORMALIZED FREE ENERGY PREDICTED BY IDOCK:   -2.22 KCAL/MOL
REMARK 922        TOTAL FREE ENERGY PREDICTED BY IDOCK:   -2.47 KCAL/MOL
REMARK 923 INTER-LIGAND FREE ENERGY PREDICTED BY IDOCK:   -2.35 KCAL/MOL
REMARK 924 INTRA-LIGAND FREE ENERGY PREDICTED BY IDOCK:   -0.13 KCAL/MOL
REMARK 927      BINDING AFFINITY PREDICTED BY RF-SCORE:    0.00 PKD
ROOT
HETATM    1  C   UNL     1     -10.334  14.390  65.092  1.00  0.00    -0.421 C  
HETATM    2  N   UNL     1      -9.861  13.625  66.253  1.00  0.00    -0.297 NA 
HETATM    3  H1  UNL     1      -9.425  10.738  64.860  1.00  0.00     0.000 HD 
HETATM    4  C   UNL     1      -9.668  12.270  66.164  1.00  0.00    -0.245 C  
HETATM    5  N   UNL     1      -9.475  11.448  67.133  1.00  0.00    -0.174 NA 
HETATM    6  H2  UNL     1      -9.464  11.848  68.072  1.00  0.00     0.000 HD 
HETATM    7  N   UNL     1      -9.568  11.746  64.927  1.00  0.00    -0.402 NA 
HETATM    8  H2  UNL     1      -9.632  12.331  64.094  1.00  0.00     0.000 HD 
HETATM    9  H1  UNL     1      -9.332  10.440  67.067  1.00  0.00     0.000 HD 
ENDROOT
BRANCH   2  10
HETATM   10  C   UNL     1     -10.169  14.273  67.556  1.00  0.00    -0.240 C  
HETATM   11  C   UNL     1      -8.968  14.958  68.201  1.00  0.00    -0.176 C  
HETATM   12  O   UNL     1      -9.042  15.570  69.260  1.00  0.00    -0.235 OA 
HETATM   13  O   UNL     1      -7.804  14.835  67.526  1.00  0.00    -0.157 OA 
ENDBRANCH   2  10
TORSDOF 1
ENDMDL
MODEL      149
REMARK 921   NORMALIZED FREE ENERGY PREDICTED BY IDOCK:   -2.21 KCAL/MOL
REMARK 922        TOTAL FREE ENERGY PREDICTED BY IDOCK:   -2.46 KCAL/MOL
REMARK 923 INTER-LIGAND FREE ENERGY PREDICTED BY IDOCK:   -2.37 KCAL/MOL
REMARK 924 INTRA-LIGAND FREE ENERGY PREDICTED BY IDOCK:   -0.10 KCAL/MOL
REMARK 927      BINDING AFFINITY PREDICTED BY RF-SCORE:    0.00 PKD
ROOT
HETATM    1  C   UNL     1      -5.944  16.935  69.298  1.00  0.00    -0.190 C  
HETATM    2  N   UNL     1      -6.995  17.781  68.718  1.00  0.00    -0.249 NA 
HETATM    3  H1  UNL     1      -9.514  15.766  68.975  1.00  0.00     0.000 HD 
HETATM    4  C   UNL     1      -8.251  17.276  68.493  1.00  0.00    -0.267 C  
HETATM    5  N   UNL     1      -9.192  17.815  67.804  1.00  0.00    -0.253 NA 
HETATM    6  H2  UNL     1      -8.981  18.717  67.377  1.00  0.00     0.000 HD 
HETATM    7  N   UNL     1      -8.580  16.142  69.142  1.00  0.00    -0.249 NA 
HETATM    8  H2  UNL     1      -7.925  15.680  69.773  1.00  0.00     0.000 HD 
HETATM    9  H1  UNL     1     -10.126  17.439  67.637  1.00  0.00     0.000 HD 
ENDROOT
BRANCH   2  10
HETATM   10  C   UNL     1      -6.469  18.916  67.915  1.00  0.00    -0.216 C  
HETATM   11  C   UNL     1      -6.340  20.217  68.700  1.00  0.00    -0.310 C  
HETATM   12  O   UNL     1      -5.895  21.248  68.209  1.00  0.00    -0.326 OA 
HETATM   13  O   UNL     1      -6.765  20.161  69.982  1.00  0.00    -0.307 OA 
ENDBRANCH   2  10
TORSDOF 1
ENDMDL
MODEL      150
REMARK 921   NORMALIZED FREE ENERGY PREDICTED BY IDOCK:   -2.20 KCAL/MOL
REMARK 922        TOTAL FREE ENERGY PREDICTED BY IDOCK:   -2.46 KCAL/MOL
REMARK 923 INTER-LIGAND FREE ENERGY PREDICTED BY IDOCK:   -2.71 KCAL/MOL
REMARK 924 INTRA-LIGAND FREE ENERGY PREDICTED BY IDOCK:    0.26 KCAL/MOL
REMARK 927      BINDING AFFINITY PREDICTED BY RF-SCORE:    0.00 PKD
ROOT
HETATM    1  C   UNL     1      -8.490   7.039  71.962  1.00  0.00    -0.112 C  
HETATM    2  N   UNL     1      -9.855   7.566  71.831  1.00  0.00    -0.162 NA 
HETATM    3  H1  UNL     1     -10.881   7.178  74.875  1.00  0.00     0.000 HD 
HETATM    4  C   UNL     1     -10.740   7.477  72.876  1.00  0.00    -0.358 C  
HETATM    5  N   UNL     1     -12.007   7.688  72.839  1.00  0.00    -0.593 NA 
HETATM    6  H2  UNL     1     -12.397   7.950  71.934  1.00  0.00     0.000 HD 
HETATM    7  N   UNL     1     -10.223   7.244  74.098  1.00  0.00    -0.413 NA 
HETATM    8  H2  UNL     1      -9.218   7.138  74.240  1.00  0.00     0.000 HD 
HETATM    9  H1  UNL     1     -12.665   7.622  73.616  1.00  0.00     0.000 HD 
ENDROOT
BRANCH   2  10
HETATM   10  C   UNL     1     -10.331   7.636  70.424  1.00  0.00    -0.214 C  
HETATM   11  C   UNL     1     -10.909   6.323  69.906  1.00  0.00    -0.335 C  
HETATM   12  O   UNL     1     -11.378   6.202  68.780  1.00  0.00    -0.344 OA 
HETATM   13  O   UNL     1     -10.859   5.288  70.774  1.00  0.00    -0.181 OA 
ENDBRANCH   2  10
TORSDOF 1
ENDMDL
MODEL      151
REMARK 921   NORMALIZED FREE ENERGY PREDICTED BY IDOCK:   -2.18 KCAL/MOL
REMARK 922        TOTAL FREE ENERGY PREDICTED BY IDOCK:   -2.44 KCAL/MOL
REMARK 923 INTER-LIGAND FREE ENERGY PREDICTED BY IDOCK:   -2.34 KCAL/MOL
REMARK 924 INTRA-LIGAND FREE ENERGY PREDICTED BY IDOCK:   -0.10 KCAL/MOL
REMARK 927      BINDING AFFINITY PREDICTED BY RF-SCORE:    0.00 PKD
ROOT
HETATM    1  C   UNL     1      -9.629   8.675  72.016  1.00  0.00    -0.314 C  
HETATM    2  N   UNL     1     -10.116   7.658  71.075  1.00  0.00    -0.190 NA 
HETATM    3  H1  UNL     1     -12.879   9.059  70.143  1.00  0.00     0.000 HD 
HETATM    4  C   UNL     1     -11.363   7.767  70.514  1.00  0.00    -0.241 C  
HETATM    5  N   UNL     1     -12.001   6.863  69.860  1.00  0.00    -0.640 NA 
HETATM    6  H2  UNL     1     -11.528   5.967  69.745  1.00  0.00     0.000 HD 
HETATM    7  N   UNL     1     -11.951   8.978  70.560  1.00  0.00    -0.475 NA 
HETATM    8  H2  UNL     1     -11.490   9.778  70.992  1.00  0.00     0.000 HD 
HETATM    9  H1  UNL     1     -12.929   6.945  69.443  1.00  0.00     0.000 HD 
ENDROOT
BRANCH   2  10
HETATM   10  C   UNL     1      -9.461   6.333  71.242  1.00  0.00    -0.159 C  
HETATM   11  C   UNL     1      -8.515   5.967  70.104  1.00  0.00    -0.127 C  
HETATM   12  O   UNL     1      -7.865   4.928  70.088  1.00  0.00    -0.064 OA 
HETATM   13  O   UNL     1      -8.447   6.868  69.098  1.00  0.00    -0.127 OA 
ENDBRANCH   2  10
TORSDOF 1
ENDMDL
MODEL      152
REMARK 921   NORMALIZED FREE ENERGY PREDICTED BY IDOCK:   -2.16 KCAL/MOL
REMARK 922        TOTAL FREE ENERGY PREDICTED BY IDOCK:   -2.42 KCAL/MOL
REMARK 923 INTER-LIGAND FREE ENERGY PREDICTED BY IDOCK:   -2.29 KCAL/MOL
REMARK 924 INTRA-LIGAND FREE ENERGY PREDICTED BY IDOCK:   -0.12 KCAL/MOL
REMARK 927      BINDING AFFINITY PREDICTED BY RF-SCORE:    0.00 PKD
ROOT
HETATM    1  C   UNL     1      -8.289   9.086  70.929  1.00  0.00    -0.197 C  
HETATM    2  N   UNL     1      -9.686   8.735  70.643  1.00  0.00    -0.184 NA 
HETATM    3  H1  UNL     1     -10.693  11.526  69.353  1.00  0.00     0.000 HD 
HETATM    4  C   UNL     1     -10.566   9.688  70.194  1.00  0.00    -0.272 C  
HETATM    5  N   UNL     1     -11.845   9.586  70.114  1.00  0.00    -0.466 NA 
HETATM    6  H2  UNL     1     -12.250   8.699  70.417  1.00  0.00     0.000 HD 
HETATM    7  N   UNL     1     -10.039  10.818  69.686  1.00  0.00    -0.442 NA 
HETATM    8  H2  UNL     1      -9.030  10.960  69.637  1.00  0.00     0.000 HD 
HETATM    9  H1  UNL     1     -12.499  10.294  69.780  1.00  0.00     0.000 HD 
ENDROOT
BRANCH   2  10
HETATM   10  C   UNL     1     -10.162   7.539  71.387  1.00  0.00    -0.186 C  
HETATM   11  C   UNL     1     -10.155   6.257  70.560  1.00  0.00    -0.189 C  
HETATM   12  O   UNL     1     -10.484   5.169  71.018  1.00  0.00    -0.221 OA 
HETATM   13  O   UNL     1      -9.768   6.404  69.274  1.00  0.00    -0.136 OA 
ENDBRANCH   2  10
TORSDOF 1
ENDMDL
MODEL      153
REMARK 921   NORMALIZED FREE ENERGY PREDICTED BY IDOCK:   -2.15 KCAL/MOL
REMARK 922        TOTAL FREE ENERGY PREDICTED BY IDOCK:   -2.40 KCAL/MOL
REMARK 923 INTER-LIGAND FREE ENERGY PREDICTED BY IDOCK:   -2.34 KCAL/MOL
REMARK 924 INTRA-LIGAND FREE ENERGY PREDICTED BY IDOCK:   -0.06 KCAL/MOL
REMARK 927      BINDING AFFINITY PREDICTED BY RF-SCORE:    0.00 PKD
ROOT
HETATM    1  C   UNL     1     -11.841   8.522  71.122  1.00  0.00    -0.284 C  
HETATM    2  N   UNL     1     -11.015   7.322  71.302  1.00  0.00    -0.240 NA 
HETATM    3  H1  UNL     1     -11.635   5.813  68.508  1.00  0.00     0.000 HD 
HETATM    4  C   UNL     1     -11.069   6.296  70.393  1.00  0.00    -0.352 C  
HETATM    5  N   UNL     1     -10.583   5.114  70.527  1.00  0.00    -0.207 NA 
HETATM    6  H2  UNL     1     -10.106   4.916  71.407  1.00  0.00     0.000 HD 
HETATM    7  N   UNL     1     -11.595   6.576  69.185  1.00  0.00    -0.624 NA 
HETATM    8  H2  UNL     1     -11.938   7.509  68.956  1.00  0.00     0.000 HD 
HETATM    9  H1  UNL     1     -10.623   4.351  69.850  1.00  0.00     0.000 HD 
ENDROOT
BRANCH   2  10
HETATM   10  C   UNL     1     -10.627   7.075  72.716  1.00  0.00    -0.254 C  
HETATM   11  C   UNL     1      -9.122   7.124  72.959  1.00  0.00    -0.136 C  
HETATM   12  O   UNL     1      -8.623   6.975  74.068  1.00  0.00    -0.138 OA 
HETATM   13  O   UNL     1      -8.368   7.335  71.857  1.00  0.00    -0.106 OA 
ENDBRANCH   2  10
TORSDOF 1
ENDMDL
MODEL      154
REMARK 921   NORMALIZED FREE ENERGY PREDICTED BY IDOCK:   -2.12 KCAL/MOL
REMARK 922        TOTAL FREE ENERGY PREDICTED BY IDOCK:   -2.37 KCAL/MOL
REMARK 923 INTER-LIGAND FREE ENERGY PREDICTED BY IDOCK:   -2.38 KCAL/MOL
REMARK 924 INTRA-LIGAND FREE ENERGY PREDICTED BY IDOCK:    0.01 KCAL/MOL
REMARK 927      BINDING AFFINITY PREDICTED BY RF-SCORE:    0.00 PKD
ROOT
HETATM    1  C   UNL     1      -6.676  17.064  67.989  1.00  0.00    -0.149 C  
HETATM    2  N   UNL     1      -7.285  18.370  67.704  1.00  0.00    -0.213 NA 
HETATM    3  H1  UNL     1      -5.752  19.092  64.948  1.00  0.00     0.000 HD 
HETATM    4  C   UNL     1      -6.828  19.139  66.664  1.00  0.00    -0.195 C  
HETATM    5  N   UNL     1      -7.105  20.373  66.431  1.00  0.00    -0.321 NA 
HETATM    6  H2  UNL     1      -7.733  20.829  67.094  1.00  0.00     0.000 HD 
HETATM    7  N   UNL     1      -6.091  18.520  65.721  1.00  0.00    -0.202 NA 
HETATM    8  H2  UNL     1      -5.882  17.523  65.779  1.00  0.00     0.000 HD 
HETATM    9  H1  UNL     1      -6.765  20.944  65.658  1.00  0.00     0.000 HD 
ENDROOT
BRANCH   2  10
HETATM   10  C   UNL     1      -7.945  18.988  68.885  1.00  0.00    -0.287 C  
HETATM   11  C   UNL     1      -9.399  19.378  68.641  1.00  0.00    -0.390 C  
HETATM   12  O   UNL     1     -10.109  19.871  69.511  1.00  0.00    -0.315 OA 
HETATM   13  O   UNL     1      -9.855  19.152  67.389  1.00  0.00    -0.309 OA 
ENDBRANCH   2  10
TORSDOF 1
ENDMDL
MODEL      155
REMARK 921   NORMALIZED FREE ENERGY PREDICTED BY IDOCK:   -2.10 KCAL/MOL
REMARK 922        TOTAL FREE ENERGY PREDICTED BY IDOCK:   -2.35 KCAL/MOL
REMARK 923 INTER-LIGAND FREE ENERGY PREDICTED BY IDOCK:   -2.56 KCAL/MOL
REMARK 924 INTRA-LIGAND FREE ENERGY PREDICTED BY IDOCK:    0.21 KCAL/MOL
REMARK 927      BINDING AFFINITY PREDICTED BY RF-SCORE:    0.00 PKD
ROOT
HETATM    1  C   UNL     1      -8.520  14.043  67.940  1.00  0.00    -0.170 C  
HETATM    2  N   UNL     1      -9.731  14.779  67.557  1.00  0.00    -0.212 NA 
HETATM    3  H1  UNL     1      -8.561  17.795  67.567  1.00  0.00     0.000 HD 
HETATM    4  C   UNL     1      -9.745  16.151  67.562  1.00  0.00    -0.233 C  
HETATM    5  N   UNL     1     -10.772  16.917  67.468  1.00  0.00    -0.308 NA 
HETATM    6  H2  UNL     1     -11.677  16.454  67.380  1.00  0.00     0.000 HD 
HETATM    7  N   UNL     1      -8.551  16.775  67.563  1.00  0.00    -0.192 NA 
HETATM    8  H2  UNL     1      -7.676  16.251  67.561  1.00  0.00     0.000 HD 
HETATM    9  H1  UNL     1     -10.782  17.937  67.471  1.00  0.00     0.000 HD 
ENDROOT
BRANCH   2  10
HETATM   10  C   UNL     1     -10.983  13.998  67.742  1.00  0.00    -0.258 C  
HETATM   11  C   UNL     1     -11.170  12.885  66.716  1.00  0.00    -0.298 C  
HETATM   12  O   UNL     1     -12.128  12.120  66.733  1.00  0.00    -0.609 OA 
HETATM   13  O   UNL     1     -10.207  12.804  65.771  1.00  0.00    -0.280 OA 
ENDBRANCH   2  10
TORSDOF 1
ENDMDL
MODEL      156
REMARK 921   NORMALIZED FREE ENERGY PREDICTED BY IDOCK:   -2.07 KCAL/MOL
REMARK 922        TOTAL FREE ENERGY PREDICTED BY IDOCK:   -2.31 KCAL/MOL
REMARK 923 INTER-LIGAND FREE ENERGY PREDICTED BY IDOCK:   -2.63 KCAL/MOL
REMARK 924 INTRA-LIGAND FREE ENERGY PREDICTED BY IDOCK:    0.32 KCAL/MOL
REMARK 927      BINDING AFFINITY PREDICTED BY RF-SCORE:    0.00 PKD
ROOT
HETATM    1  C   UNL     1     -11.663  13.685  67.753  1.00  0.00    -0.362 C  
HETATM    2  N   UNL     1     -11.427  12.278  68.102  1.00  0.00    -0.293 NA 
HETATM    3  H1  UNL     1     -11.733  12.459  71.318  1.00  0.00     0.000 HD 
HETATM    4  C   UNL     1     -11.327  11.893  69.415  1.00  0.00    -0.261 C  
HETATM    5  N   UNL     1     -10.912  10.763  69.862  1.00  0.00    -0.385 NA 
HETATM    6  H2  UNL     1     -10.625  10.076  69.163  1.00  0.00     0.000 HD 
HETATM    7  N   UNL     1     -11.807  12.745  70.341  1.00  0.00    -0.550 NA 
HETATM    8  H2  UNL     1     -12.227  13.637  70.078  1.00  0.00     0.000 HD 
HETATM    9  H1  UNL     1     -10.837  10.476  70.838  1.00  0.00     0.000 HD 
ENDROOT
BRANCH   2  10
HETATM   10  C   UNL     1     -10.765  11.502  67.021  1.00  0.00    -0.259 C  
HETATM   11  C   UNL     1      -9.271  11.781  66.890  1.00  0.00    -0.189 C  
HETATM   12  O   UNL     1      -8.557  11.208  66.074  1.00  0.00    -0.172 OA 
HETATM   13  O   UNL     1      -8.784  12.717  67.734  1.00  0.00    -0.163 OA 
ENDBRANCH   2  10
TORSDOF 1
ENDMDL
MODEL      157
REMARK 921   NORMALIZED FREE ENERGY PREDICTED BY IDOCK:   -2.06 KCAL/MOL
REMARK 922        TOTAL FREE ENERGY PREDICTED BY IDOCK:   -2.31 KCAL/MOL
REMARK 923 INTER-LIGAND FREE ENERGY PREDICTED BY IDOCK:   -2.25 KCAL/MOL
REMARK 924 INTRA-LIGAND FREE ENERGY PREDICTED BY IDOCK:   -0.06 KCAL/MOL
REMARK 927      BINDING AFFINITY PREDICTED BY RF-SCORE:    0.00 PKD
ROOT
HETATM    1  C   UNL     1     -11.375   7.339  70.463  1.00  0.00    -0.280 C  
HETATM    2  N   UNL     1     -10.891   8.663  70.051  1.00  0.00    -0.232 NA 
HETATM    3  H1  UNL     1     -12.506  10.510  72.161  1.00  0.00     0.000 HD 
HETATM    4  C   UNL     1     -11.425   9.802  70.600  1.00  0.00    -0.324 C  
HETATM    5  N   UNL     1     -11.265  11.009  70.190  1.00  0.00    -0.458 NA 
HETATM    6  H2  UNL     1     -10.677  11.134  69.366  1.00  0.00     0.000 HD 
HETATM    7  N   UNL     1     -12.110   9.663  71.752  1.00  0.00    -0.386 NA 
HETATM    8  H2  UNL     1     -12.226   8.753  72.197  1.00  0.00     0.000 HD 
HETATM    9  H1  UNL     1     -11.662  11.855  70.599  1.00  0.00     0.000 HD 
ENDROOT
BRANCH   2  10
HETATM   10  C   UNL     1     -10.282   8.677  68.695  1.00  0.00    -0.194 C  
HETATM   11  C   UNL     1      -8.809   9.073  68.687  1.00  0.00    -0.137 C  
HETATM   12  O   UNL     1      -8.136   9.108  67.664  1.00  0.00    -0.104 OA 
HETATM   13  O   UNL     1      -8.293   9.396  69.894  1.00  0.00    -0.130 OA 
ENDBRANCH   2  10
TORSDOF 1
ENDMDL
MODEL      158
REMARK 921   NORMALIZED FREE ENERGY PREDICTED BY IDOCK:   -2.06 KCAL/MOL
REMARK 922        TOTAL FREE ENERGY PREDICTED BY IDOCK:   -2.31 KCAL/MOL
REMARK 923 INTER-LIGAND FREE ENERGY PREDICTED BY IDOCK:   -2.19 KCAL/MOL
REMARK 924 INTRA-LIGAND FREE ENERGY PREDICTED BY IDOCK:   -0.12 KCAL/MOL
REMARK 927      BINDING AFFINITY PREDICTED BY RF-SCORE:    0.00 PKD
ROOT
HETATM    1  C   UNL     1      -7.443   4.289  65.024  1.00  0.00    -0.073 C  
HETATM    2  N   UNL     1      -8.720   4.835  65.501  1.00  0.00    -0.130 NA 
HETATM    3  H1  UNL     1     -10.669   2.350  64.795  1.00  0.00     0.000 HD 
HETATM    4  C   UNL     1      -9.893   4.158  65.280  1.00  0.00    -0.208 C  
HETATM    5  N   UNL     1     -11.088   4.605  65.438  1.00  0.00    -0.958 NA 
HETATM    6  H2  UNL     1     -11.173   5.568  65.763  1.00  0.00     0.000 HD 
HETATM    7  N   UNL     1      -9.796   2.853  64.959  1.00  0.00    -0.361 NA 
HETATM    8  H2  UNL     1      -8.891   2.389  64.885  1.00  0.00     0.000 HD 
HETATM    9  H1  UNL     1     -11.960   4.101  65.274  1.00  0.00     0.000 HD 
ENDROOT
BRANCH   2  10
HETATM   10  C   UNL     1      -8.707   6.311  65.676  1.00  0.00    -0.114 C  
HETATM   11  C   UNL     1      -8.679   6.757  67.135  1.00  0.00    -0.119 C  
HETATM   12  O   UNL     1      -8.634   7.935  67.468  1.00  0.00    -0.122 OA 
HETATM   13  O   UNL     1      -8.720   5.757  68.043  1.00  0.00    -0.105 OA 
ENDBRANCH   2  10
TORSDOF 1
ENDMDL
MODEL      159
REMARK 921   NORMALIZED FREE ENERGY PREDICTED BY IDOCK:   -2.06 KCAL/MOL
REMARK 922        TOTAL FREE ENERGY PREDICTED BY IDOCK:   -2.30 KCAL/MOL
REMARK 923 INTER-LIGAND FREE ENERGY PREDICTED BY IDOCK:   -2.33 KCAL/MOL
REMARK 924 INTRA-LIGAND FREE ENERGY PREDICTED BY IDOCK:    0.03 KCAL/MOL
REMARK 927      BINDING AFFINITY PREDICTED BY RF-SCORE:    0.00 PKD
ROOT
HETATM    1  C   UNL     1     -11.609   8.826  72.030  1.00  0.00    -0.366 C  
HETATM    2  N   UNL     1     -10.465   8.260  71.303  1.00  0.00    -0.205 NA 
HETATM    3  H1  UNL     1     -11.898   5.692  69.954  1.00  0.00     0.000 HD 
HETATM    4  C   UNL     1     -10.573   7.048  70.670  1.00  0.00    -0.225 C  
HETATM    5  N   UNL     1      -9.617   6.335  70.191  1.00  0.00    -0.162 NA 
HETATM    6  H2  UNL     1      -8.674   6.711  70.295  1.00  0.00     0.000 HD 
HETATM    7  N   UNL     1     -11.818   6.593  70.426  1.00  0.00    -0.508 NA 
HETATM    8  H2  UNL     1     -12.643   7.126  70.700  1.00  0.00     0.000 HD 
HETATM    9  H1  UNL     1      -9.698   5.433  69.720  1.00  0.00     0.000 HD 
ENDROOT
BRANCH   2  10
HETATM   10  C   UNL     1      -9.150   8.762  71.783  1.00  0.00    -0.235 C  
HETATM   11  C   UNL     1      -8.269   9.330  70.675  1.00  0.00    -0.190 C  
HETATM   12  O   UNL     1      -7.164   9.817  70.890  1.00  0.00    -0.310 OA 
HETATM   13  O   UNL     1      -8.786   9.251  69.429  1.00  0.00    -0.135 OA 
ENDBRANCH   2  10
TORSDOF 1
ENDMDL
MODEL      160
REMARK 921   NORMALIZED FREE ENERGY PREDICTED BY IDOCK:   -2.06 KCAL/MOL
REMARK 922        TOTAL FREE ENERGY PREDICTED BY IDOCK:   -2.30 KCAL/MOL
REMARK 923 INTER-LIGAND FREE ENERGY PREDICTED BY IDOCK:   -2.71 KCAL/MOL
REMARK 924 INTRA-LIGAND FREE ENERGY PREDICTED BY IDOCK:    0.41 KCAL/MOL
REMARK 927      BINDING AFFINITY PREDICTED BY RF-SCORE:    0.00 PKD
ROOT
HETATM    1  C   UNL     1     -10.231  13.087  64.533  1.00  0.00    -0.308 C  
HETATM    2  N   UNL     1     -10.072  12.298  65.760  1.00  0.00    -0.248 NA 
HETATM    3  H1  UNL     1     -10.215   9.317  64.510  1.00  0.00     0.000 HD 
HETATM    4  C   UNL     1     -10.205  10.932  65.733  1.00  0.00    -0.259 C  
HETATM    5  N   UNL     1     -10.311  10.143  66.742  1.00  0.00    -0.229 NA 
HETATM    6  H2  UNL     1     -10.294  10.580  67.664  1.00  0.00     0.000 HD 
HETATM    7  N   UNL     1     -10.116  10.332  64.530  1.00  0.00    -0.330 NA 
HETATM    8  H2  UNL     1      -9.955  10.869  63.678  1.00  0.00     0.000 HD 
HETATM    9  H1  UNL     1     -10.410   9.128  66.721  1.00  0.00     0.000 HD 
ENDROOT
BRANCH   2  10
HETATM   10  C   UNL     1     -10.338  13.071  67.002  1.00  0.00    -0.247 C  
HETATM   11  C   UNL     1     -11.791  13.511  67.152  1.00  0.00    -0.387 C  
HETATM   12  O   UNL     1     -12.200  14.130  68.128  1.00  0.00    -0.306 OA 
HETATM   13  O   UNL     1     -12.603  13.179  66.124  1.00  0.00    -0.398 OA 
ENDBRANCH   2  10
TORSDOF 1
ENDMDL
MODEL      161
REMARK 921   NORMALIZED FREE ENERGY PREDICTED BY IDOCK:   -2.05 KCAL/MOL
REMARK 922        TOTAL FREE ENERGY PREDICTED BY IDOCK:   -2.29 KCAL/MOL
REMARK 923 INTER-LIGAND FREE ENERGY PREDICTED BY IDOCK:   -2.91 KCAL/MOL
REMARK 924 INTRA-LIGAND FREE ENERGY PREDICTED BY IDOCK:    0.61 KCAL/MOL
REMARK 927      BINDING AFFINITY PREDICTED BY RF-SCORE:    0.00 PKD
ROOT
HETATM    1  C   UNL     1     -11.145   9.017  71.878  1.00  0.00    -0.363 C  
HETATM    2  N   UNL     1     -12.134   9.654  70.999  1.00  0.00    -0.320 NA 
HETATM    3  H1  UNL     1     -10.466   9.668  68.227  1.00  0.00     0.000 HD 
HETATM    4  C   UNL     1     -11.804   9.997  69.713  1.00  0.00    -0.021 C  
HETATM    5  N   UNL     1     -12.477  10.744  68.913  1.00  0.00    -0.731 NA 
HETATM    6  H2  UNL     1     -13.352  11.124  69.274  1.00  0.00     0.000 HD 
HETATM    7  N   UNL     1     -10.711   9.413  69.184  1.00  0.00    -0.285 NA 
HETATM    8  H2  UNL     1     -10.154   8.746  69.717  1.00  0.00     0.000 HD 
HETATM    9  H1  UNL     1     -12.232  10.999  67.955  1.00  0.00     0.000 HD 
ENDROOT
BRANCH   2  10
HETATM   10  C   UNL     1     -13.205  10.375  71.736  1.00  0.00    -0.424 C  
HETATM   11  C   UNL     1     -13.028  11.890  71.751  1.00  0.00    -0.350 C  
HETATM   12  O   UNL     1     -13.831  12.647  72.284  1.00  0.00    -0.446 OA 
HETATM   13  O   UNL     1     -11.912  12.346  71.140  1.00  0.00     0.030 OA 
ENDBRANCH   2  10
TORSDOF 1
ENDMDL
MODEL      162
REMARK 921   NORMALIZED FREE ENERGY PREDICTED BY IDOCK:   -2.05 KCAL/MOL
REMARK 922        TOTAL FREE ENERGY PREDICTED BY IDOCK:   -2.29 KCAL/MOL
REMARK 923 INTER-LIGAND FREE ENERGY PREDICTED BY IDOCK:   -2.17 KCAL/MOL
REMARK 924 INTRA-LIGAND FREE ENERGY PREDICTED BY IDOCK:   -0.12 KCAL/MOL
REMARK 927      BINDING AFFINITY PREDICTED BY RF-SCORE:    0.00 PKD
ROOT
HETATM    1  C   UNL     1     -10.150   7.474  69.189  1.00  0.00    -0.192 C  
HETATM    2  N   UNL     1     -10.246   8.598  70.129  1.00  0.00    -0.188 NA 
HETATM    3  H1  UNL     1     -13.215   8.072  71.302  1.00  0.00     0.000 HD 
HETATM    4  C   UNL     1     -11.424   8.863  70.780  1.00  0.00    -0.275 C  
HETATM    5  N   UNL     1     -11.720   9.920  71.448  1.00  0.00    -0.381 NA 
HETATM    6  H2  UNL     1     -11.000  10.642  71.499  1.00  0.00     0.000 HD 
HETATM    7  N   UNL     1     -12.339   7.875  70.817  1.00  0.00    -0.509 NA 
HETATM    8  H2  UNL     1     -12.164   6.970  70.380  1.00  0.00     0.000 HD 
HETATM    9  H1  UNL     1     -12.596  10.117  71.933  1.00  0.00     0.000 HD 
ENDROOT
BRANCH   2  10
HETATM   10  C   UNL     1      -9.252   9.674  69.870  1.00  0.00    -0.229 C  
HETATM   11  C   UNL     1      -8.035   9.618  70.787  1.00  0.00     0.070 C  
HETATM   12  O   UNL     1      -7.099  10.405  70.698  1.00  0.00    -0.300 OA 
HETATM   13  O   UNL     1      -8.060   8.641  71.720  1.00  0.00    -0.167 OA 
ENDBRANCH   2  10
TORSDOF 1
ENDMDL
MODEL      163
REMARK 921   NORMALIZED FREE ENERGY PREDICTED BY IDOCK:   -2.03 KCAL/MOL
REMARK 922        TOTAL FREE ENERGY PREDICTED BY IDOCK:   -2.27 KCAL/MOL
REMARK 923 INTER-LIGAND FREE ENERGY PREDICTED BY IDOCK:   -2.62 KCAL/MOL
REMARK 924 INTRA-LIGAND FREE ENERGY PREDICTED BY IDOCK:    0.35 KCAL/MOL
REMARK 927      BINDING AFFINITY PREDICTED BY RF-SCORE:    0.00 PKD
ROOT
HETATM    1  C   UNL     1      -8.608   4.904  65.386  1.00  0.00    -0.138 C  
HETATM    2  N   UNL     1      -9.316   5.467  66.543  1.00  0.00    -0.139 NA 
HETATM    3  H1  UNL     1     -12.371   5.081  65.547  1.00  0.00     0.000 HD 
HETATM    4  C   UNL     1     -10.677   5.638  66.510  1.00  0.00    -0.226 C  
HETATM    5  N   UNL     1     -11.395   6.308  67.340  1.00  0.00    -0.653 NA 
HETATM    6  H2  UNL     1     -10.897   6.762  68.106  1.00  0.00     0.000 HD 
HETATM    7  N   UNL     1     -11.358   4.954  65.571  1.00  0.00    -0.942 NA 
HETATM    8  H2  UNL     1     -10.884   4.335  64.914  1.00  0.00     0.000 HD 
HETATM    9  H1  UNL     1     -12.407   6.436  67.315  1.00  0.00     0.000 HD 
ENDROOT
BRANCH   2  10
HETATM   10  C   UNL     1      -8.456   6.312  67.412  1.00  0.00    -0.108 C  
HETATM   11  C   UNL     1      -8.534   7.801  67.092  1.00  0.00    -0.124 C  
HETATM   12  O   UNL     1      -7.917   8.650  67.726  1.00  0.00    -0.105 OA 
HETATM   13  O   UNL     1      -9.326   8.125  66.046  1.00  0.00    -0.182 OA 
ENDBRANCH   2  10
TORSDOF 1
ENDMDL
MODEL      164
REMARK 921   NORMALIZED FREE ENERGY PREDICTED BY IDOCK:   -2.02 KCAL/MOL
REMARK 922        TOTAL FREE ENERGY PREDICTED BY IDOCK:   -2.26 KCAL/MOL
REMARK 923 INTER-LIGAND FREE ENERGY PREDICTED BY IDOCK:   -2.20 KCAL/MOL
REMARK 924 INTRA-LIGAND FREE ENERGY PREDICTED BY IDOCK:   -0.06 KCAL/MOL
REMARK 927      BINDING AFFINITY PREDICTED BY RF-SCORE:    0.00 PKD
ROOT
HETATM    1  C   UNL     1      -7.110  12.166  67.211  1.00  0.00    -0.144 C  
HETATM    2  N   UNL     1      -8.509  12.573  67.389  1.00  0.00    -0.172 NA 
HETATM    3  H1  UNL     1      -8.215  14.373  70.062  1.00  0.00     0.000 HD 
HETATM    4  C   UNL     1      -8.897  13.263  68.510  1.00  0.00    -0.055 C  
HETATM    5  N   UNL     1     -10.099  13.488  68.904  1.00  0.00    -0.425 NA 
HETATM    6  H2  UNL     1     -10.847  13.113  68.320  1.00  0.00     0.000 HD 
HETATM    7  N   UNL     1      -7.927  13.859  69.228  1.00  0.00    -0.330 NA 
HETATM    8  H2  UNL     1      -6.947  13.801  68.951  1.00  0.00     0.000 HD 
HETATM    9  H1  UNL     1     -10.388  14.002  69.737  1.00  0.00     0.000 HD 
ENDROOT
BRANCH   2  10
HETATM   10  C   UNL     1      -9.473  11.728  66.635  1.00  0.00    -0.205 C  
HETATM   11  C   UNL     1     -10.253  12.489  65.568  1.00  0.00    -0.275 C  
HETATM   12  O   UNL     1     -11.067  11.949  64.828  1.00  0.00    -0.303 OA 
HETATM   13  O   UNL     1      -9.991  13.813  65.498  1.00  0.00    -0.292 OA 
ENDBRANCH   2  10
TORSDOF 1
ENDMDL
MODEL      165
REMARK 921   NORMALIZED FREE ENERGY PREDICTED BY IDOCK:   -2.01 KCAL/MOL
REMARK 922        TOTAL FREE ENERGY PREDICTED BY IDOCK:   -2.25 KCAL/MOL
REMARK 923 INTER-LIGAND FREE ENERGY PREDICTED BY IDOCK:   -2.12 KCAL/MOL
REMARK 924 INTRA-LIGAND FREE ENERGY PREDICTED BY IDOCK:   -0.13 KCAL/MOL
REMARK 927      BINDING AFFINITY PREDICTED BY RF-SCORE:    0.00 PKD
ROOT
HETATM    1  C   UNL     1      -8.102   6.224  68.093  1.00  0.00    -0.115 C  
HETATM    2  N   UNL     1      -9.204   5.460  67.494  1.00  0.00    -0.111 NA 
HETATM    3  H1  UNL     1     -10.356   7.686  65.449  1.00  0.00     0.000 HD 
HETATM    4  C   UNL     1     -10.085   6.066  66.635  1.00  0.00    -0.174 C  
HETATM    5  N   UNL     1     -11.205   5.596  66.214  1.00  0.00    -0.749 NA 
HETATM    6  H2  UNL     1     -11.467   4.671  66.556  1.00  0.00     0.000 HD 
HETATM    7  N   UNL     1      -9.701   7.235  66.088  1.00  0.00    -0.425 NA 
HETATM    8  H2  UNL     1      -8.795   7.652  66.302  1.00  0.00     0.000 HD 
HETATM    9  H1  UNL     1     -11.860   6.047  65.575  1.00  0.00     0.000 HD 
ENDROOT
BRANCH   2  10
HETATM   10  C   UNL     1      -9.603   4.270  68.291  1.00  0.00    -0.135 C  
HETATM   11  C   UNL     1      -9.079   2.951  67.731  1.00  0.00    -0.180 C  
HETATM   12  O   UNL     1      -9.282   1.871  68.273  1.00  0.00    -0.145 OA 
HETATM   13  O   UNL     1      -8.378   3.053  66.579  1.00  0.00    -0.089 OA 
ENDBRANCH   2  10
TORSDOF 1
ENDMDL
MODEL      166
REMARK 921   NORMALIZED FREE ENERGY PREDICTED BY IDOCK:   -1.99 KCAL/MOL
REMARK 922        TOTAL FREE ENERGY PREDICTED BY IDOCK:   -2.23 KCAL/MOL
REMARK 923 INTER-LIGAND FREE ENERGY PREDICTED BY IDOCK:   -2.11 KCAL/MOL
REMARK 924 INTRA-LIGAND FREE ENERGY PREDICTED BY IDOCK:   -0.13 KCAL/MOL
REMARK 927      BINDING AFFINITY PREDICTED BY RF-SCORE:    0.00 PKD
ROOT
HETATM    1  C   UNL     1      -8.345   6.881  70.395  1.00  0.00    -0.130 C  
HETATM    2  N   UNL     1      -9.330   7.951  70.193  1.00  0.00    -0.156 NA 
HETATM    3  H1  UNL     1      -9.169   9.392  73.085  1.00  0.00     0.000 HD 
HETATM    4  C   UNL     1      -9.703   8.761  71.235  1.00  0.00    -0.265 C  
HETATM    5  N   UNL     1     -10.695   9.578  71.266  1.00  0.00    -0.343 NA 
HETATM    6  H2  UNL     1     -11.268   9.629  70.423  1.00  0.00     0.000 HD 
HETATM    7  N   UNL     1      -8.892   8.789  72.310  1.00  0.00    -0.395 NA 
HETATM    8  H2  UNL     1      -8.039   8.231  72.348  1.00  0.00     0.000 HD 
HETATM    9  H1  UNL     1     -10.972  10.181  72.041  1.00  0.00     0.000 HD 
ENDROOT
BRANCH   2  10
HETATM   10  C   UNL     1     -10.243   7.706  69.045  1.00  0.00    -0.206 C  
HETATM   11  C   UNL     1      -9.864   8.475  67.783  1.00  0.00    -0.175 C  
HETATM   12  O   UNL     1     -10.484   8.372  66.731  1.00  0.00    -0.314 OA 
HETATM   13  O   UNL     1      -8.795   9.293  67.907  1.00  0.00    -0.124 OA 
ENDBRANCH   2  10
TORSDOF 1
ENDMDL
MODEL      167
REMARK 921   NORMALIZED FREE ENERGY PREDICTED BY IDOCK:   -1.98 KCAL/MOL
REMARK 922        TOTAL FREE ENERGY PREDICTED BY IDOCK:   -2.22 KCAL/MOL
REMARK 923 INTER-LIGAND FREE ENERGY PREDICTED BY IDOCK:   -2.15 KCAL/MOL
REMARK 924 INTRA-LIGAND FREE ENERGY PREDICTED BY IDOCK:   -0.08 KCAL/MOL
REMARK 927      BINDING AFFINITY PREDICTED BY RF-SCORE:    0.00 PKD
ROOT
HETATM    1  C   UNL     1      -9.064   5.013  68.973  1.00  0.00    -0.105 C  
HETATM    2  N   UNL     1      -9.709   5.367  67.702  1.00  0.00    -0.128 NA 
HETATM    3  H1  UNL     1     -11.926   7.461  68.783  1.00  0.00     0.000 HD 
HETATM    4  C   UNL     1     -10.831   6.155  67.686  1.00  0.00    -0.332 C  
HETATM    5  N   UNL     1     -11.619   6.363  66.691  1.00  0.00    -0.560 NA 
HETATM    6  H2  UNL     1     -11.383   5.889  65.819  1.00  0.00     0.000 HD 
HETATM    7  N   UNL     1     -11.091   6.874  68.795  1.00  0.00    -0.485 NA 
HETATM    8  H2  UNL     1     -10.480   6.834  69.611  1.00  0.00     0.000 HD 
HETATM    9  H1  UNL     1     -12.453   6.950  66.679  1.00  0.00     0.000 HD 
ENDROOT
BRANCH   2  10
HETATM   10  C   UNL     1      -9.434   4.398  66.608  1.00  0.00    -0.179 C  
HETATM   11  C   UNL     1      -8.559   4.962  65.494  1.00  0.00    -0.135 C  
HETATM   12  O   UNL     1      -8.204   4.297  64.527  1.00  0.00    -0.096 OA 
HETATM   13  O   UNL     1      -8.205   6.258  65.638  1.00  0.00    -0.129 OA 
ENDBRANCH   2  10
TORSDOF 1
ENDMDL
MODEL      168
REMARK 921   NORMALIZED FREE ENERGY PREDICTED BY IDOCK:   -1.98 KCAL/MOL
REMARK 922        TOTAL FREE ENERGY PREDICTED BY IDOCK:   -2.22 KCAL/MOL
REMARK 923 INTER-LIGAND FREE ENERGY PREDICTED BY IDOCK:   -2.47 KCAL/MOL
REMARK 924 INTRA-LIGAND FREE ENERGY PREDICTED BY IDOCK:    0.25 KCAL/MOL
REMARK 927      BINDING AFFINITY PREDICTED BY RF-SCORE:    0.00 PKD
ROOT
HETATM    1  C   UNL     1      -7.326  16.721  69.006  1.00  0.00    -0.231 C  
HETATM    2  N   UNL     1      -8.248  17.330  68.038  1.00  0.00    -0.216 NA 
HETATM    3  H1  UNL     1      -7.458  20.444  68.422  1.00  0.00     0.000 HD 
HETATM    4  C   UNL     1      -8.363  18.694  67.949  1.00  0.00    -0.272 C  
HETATM    5  N   UNL     1      -9.268  19.356  67.321  1.00  0.00    -0.307 NA 
HETATM    6  H2  UNL     1      -9.978  18.807  66.835  1.00  0.00     0.000 HD 
HETATM    7  N   UNL     1      -7.372  19.429  68.489  1.00  0.00    -0.319 NA 
HETATM    8  H2  UNL     1      -6.571  18.991  68.943  1.00  0.00     0.000 HD 
HETATM    9  H1  UNL     1      -9.354  20.370  67.254  1.00  0.00     0.000 HD 
ENDROOT
BRANCH   2  10
HETATM   10  C   UNL     1      -9.369  16.436  67.644  1.00  0.00    -0.212 C  
HETATM   11  C   UNL     1     -10.575  16.515  68.574  1.00  0.00    -0.318 C  
HETATM   12  O   UNL     1     -11.602  15.873  68.386  1.00  0.00    -0.371 OA 
HETATM   13  O   UNL     1     -10.431  17.339  69.635  1.00  0.00    -0.219 OA 
ENDBRANCH   2  10
TORSDOF 1
ENDMDL
MODEL      169
REMARK 921   NORMALIZED FREE ENERGY PREDICTED BY IDOCK:   -1.97 KCAL/MOL
REMARK 922        TOTAL FREE ENERGY PREDICTED BY IDOCK:   -2.21 KCAL/MOL
REMARK 923 INTER-LIGAND FREE ENERGY PREDICTED BY IDOCK:   -2.15 KCAL/MOL
REMARK 924 INTRA-LIGAND FREE ENERGY PREDICTED BY IDOCK:   -0.06 KCAL/MOL
REMARK 927      BINDING AFFINITY PREDICTED BY RF-SCORE:    0.00 PKD
ROOT
HETATM    1  C   UNL     1      -8.817   4.991  68.317  1.00  0.00    -0.102 C  
HETATM    2  N   UNL     1      -9.792   6.076  68.480  1.00  0.00    -0.125 NA 
HETATM    3  H1  UNL     1     -11.242   5.099  71.202  1.00  0.00     0.000 HD 
HETATM    4  C   UNL     1     -10.746   6.015  69.464  1.00  0.00    -0.335 C  
HETATM    5  N   UNL     1     -11.783   6.764  69.587  1.00  0.00    -0.642 NA 
HETATM    6  H2  UNL     1     -11.910   7.484  68.875  1.00  0.00     0.000 HD 
HETATM    7  N   UNL     1     -10.533   5.145  70.470  1.00  0.00    -0.243 NA 
HETATM    8  H2  UNL     1      -9.698   4.560  70.500  1.00  0.00     0.000 HD 
HETATM    9  H1  UNL     1     -12.492   6.718  70.319  1.00  0.00     0.000 HD 
ENDROOT
BRANCH   2  10
HETATM   10  C   UNL     1     -10.019   6.861  67.237  1.00  0.00    -0.172 C  
HETATM   11  C   UNL     1      -9.664   8.339  67.370  1.00  0.00    -0.174 C  
HETATM   12  O   UNL     1      -9.757   9.131  66.439  1.00  0.00    -0.218 OA 
HETATM   13  O   UNL     1      -9.246   8.723  68.597  1.00  0.00    -0.141 OA 
ENDBRANCH   2  10
TORSDOF 1
ENDMDL
MODEL      170
REMARK 921   NORMALIZED FREE ENERGY PREDICTED BY IDOCK:   -1.97 KCAL/MOL
REMARK 922        TOTAL FREE ENERGY PREDICTED BY IDOCK:   -2.21 KCAL/MOL
REMARK 923 INTER-LIGAND FREE ENERGY PREDICTED BY IDOCK:   -2.09 KCAL/MOL
REMARK 924 INTRA-LIGAND FREE ENERGY PREDICTED BY IDOCK:   -0.12 KCAL/MOL
REMARK 927      BINDING AFFINITY PREDICTED BY RF-SCORE:    0.00 PKD
ROOT
HETATM    1  C   UNL     1     -10.110  11.966  65.086  1.00  0.00    -0.261 C  
HETATM    2  N   UNL     1      -9.759  11.713  66.490  1.00  0.00    -0.201 NA 
HETATM    3  H1  UNL     1     -12.602  12.374  67.886  1.00  0.00     0.000 HD 
HETATM    4  C   UNL     1     -10.650  12.001  67.493  1.00  0.00    -0.221 C  
HETATM    5  N   UNL     1     -10.409  12.042  68.755  1.00  0.00    -0.348 NA 
HETATM    6  H2  UNL     1      -9.452  11.838  69.041  1.00  0.00     0.000 HD 
HETATM    7  N   UNL     1     -11.940  12.161  67.140  1.00  0.00    -0.584 NA 
HETATM    8  H2  UNL     1     -12.241  12.071  66.169  1.00  0.00     0.000 HD 
HETATM    9  H1  UNL     1     -11.072  12.256  69.501  1.00  0.00     0.000 HD 
ENDROOT
BRANCH   2  10
HETATM   10  C   UNL     1      -8.294  11.702  66.742  1.00  0.00    -0.171 C  
HETATM   11  C   UNL     1      -7.693  10.302  66.813  1.00  0.00    -0.111 C  
HETATM   12  O   UNL     1      -6.496  10.101  66.983  1.00  0.00    -0.067 OA 
HETATM   13  O   UNL     1      -8.577   9.289  66.685  1.00  0.00    -0.124 OA 
ENDBRANCH   2  10
TORSDOF 1
ENDMDL
MODEL      171
REMARK 921   NORMALIZED FREE ENERGY PREDICTED BY IDOCK:   -1.96 KCAL/MOL
REMARK 922        TOTAL FREE ENERGY PREDICTED BY IDOCK:   -2.20 KCAL/MOL
REMARK 923 INTER-LIGAND FREE ENERGY PREDICTED BY IDOCK:   -2.14 KCAL/MOL
REMARK 924 INTRA-LIGAND FREE ENERGY PREDICTED BY IDOCK:   -0.05 KCAL/MOL
REMARK 927      BINDING AFFINITY PREDICTED BY RF-SCORE:    0.00 PKD
ROOT
HETATM    1  C   UNL     1     -10.339   2.395  63.527  1.00  0.00    -0.167 C  
HETATM    2  N   UNL     1      -9.578   3.273  64.425  1.00  0.00    -0.147 NA 
HETATM    3  H1  UNL     1     -11.940   5.279  65.353  1.00  0.00     0.000 HD 
HETATM    4  C   UNL     1     -10.161   4.391  64.966  1.00  0.00    -0.148 C  
HETATM    5  N   UNL     1      -9.570   5.354  65.578  1.00  0.00    -0.358 NA 
HETATM    6  H2  UNL     1      -8.557   5.279  65.672  1.00  0.00     0.000 HD 
HETATM    7  N   UNL     1     -11.507   4.448  64.951  1.00  0.00    -1.068 NA 
HETATM    8  H2  UNL     1     -12.067   3.694  64.554  1.00  0.00     0.000 HD 
HETATM    9  H1  UNL     1     -10.004   6.185  65.981  1.00  0.00     0.000 HD 
ENDROOT
BRANCH   2  10
HETATM   10  C   UNL     1      -8.107   3.194  64.225  1.00  0.00    -0.083 C  
HETATM   11  C   UNL     1      -7.339   2.763  65.471  1.00  0.00    -0.071 C  
HETATM   12  O   UNL     1      -6.123   2.614  65.483  1.00  0.00    -0.022 OA 
HETATM   13  O   UNL     1      -8.095   2.566  66.573  1.00  0.00    -0.079 OA 
ENDBRANCH   2  10
TORSDOF 1
ENDMDL
MODEL      172
REMARK 921   NORMALIZED FREE ENERGY PREDICTED BY IDOCK:   -1.94 KCAL/MOL
REMARK 922        TOTAL FREE ENERGY PREDICTED BY IDOCK:   -2.18 KCAL/MOL
REMARK 923 INTER-LIGAND FREE ENERGY PREDICTED BY IDOCK:   -2.50 KCAL/MOL
REMARK 924 INTRA-LIGAND FREE ENERGY PREDICTED BY IDOCK:    0.32 KCAL/MOL
REMARK 927      BINDING AFFINITY PREDICTED BY RF-SCORE:    0.00 PKD
ROOT
HETATM    1  C   UNL     1      -9.283   6.540  71.003  1.00  0.00    -0.160 C  
HETATM    2  N   UNL     1     -10.503   6.356  70.208  1.00  0.00    -0.207 NA 
HETATM    3  H1  UNL     1      -9.268   6.687  67.236  1.00  0.00     0.000 HD 
HETATM    4  C   UNL     1     -10.485   6.549  68.850  1.00  0.00    -0.215 C  
HETATM    5  N   UNL     1     -11.500   6.640  68.066  1.00  0.00    -0.585 NA 
HETATM    6  H2  UNL     1     -12.419   6.559  68.502  1.00  0.00     0.000 HD 
HETATM    7  N   UNL     1      -9.281   6.544  68.246  1.00  0.00    -0.118 NA 
HETATM    8  H2  UNL     1      -8.421   6.402  68.775  1.00  0.00     0.000 HD 
HETATM    9  H1  UNL     1     -11.487   6.783  67.056  1.00  0.00     0.000 HD 
ENDROOT
BRANCH   2  10
HETATM   10  C   UNL     1     -11.754   6.528  70.992  1.00  0.00    -0.343 C  
HETATM   11  C   UNL     1     -12.137   7.986  71.227  1.00  0.00    -0.291 C  
HETATM   12  O   UNL     1     -13.154   8.317  71.826  1.00  0.00    -0.329 OA 
HETATM   13  O   UNL     1     -11.268   8.896  70.735  1.00  0.00    -0.256 OA 
ENDBRANCH   2  10
TORSDOF 1
ENDMDL
MODEL      173
REMARK 921   NORMALIZED FREE ENERGY PREDICTED BY IDOCK:   -1.92 KCAL/MOL
REMARK 922        TOTAL FREE ENERGY PREDICTED BY IDOCK:   -2.15 KCAL/MOL
REMARK 923 INTER-LIGAND FREE ENERGY PREDICTED BY IDOCK:   -2.03 KCAL/MOL
REMARK 924 INTRA-LIGAND FREE ENERGY PREDICTED BY IDOCK:   -0.13 KCAL/MOL
REMARK 927      BINDING AFFINITY PREDICTED BY RF-SCORE:    0.00 PKD
ROOT
HETATM    1  C   UNL     1      -9.810  13.208  68.373  1.00  0.00    -0.206 C  
HETATM    2  N   UNL     1      -9.800  14.620  68.777  1.00  0.00    -0.225 NA 
HETATM    3  H1  UNL     1      -7.268  15.660  67.054  1.00  0.00     0.000 HD 
HETATM    4  C   UNL     1      -8.782  15.451  68.383  1.00  0.00    -0.171 C  
HETATM    5  N   UNL     1      -8.525  16.628  68.830  1.00  0.00    -0.249 NA 
HETATM    6  H2  UNL     1      -9.147  16.983  69.557  1.00  0.00     0.000 HD 
HETATM    7  N   UNL     1      -8.025  15.042  67.347  1.00  0.00    -0.179 NA 
HETATM    8  H2  UNL     1      -8.200  14.155  66.876  1.00  0.00     0.000 HD 
HETATM    9  H1  UNL     1      -7.768  17.246  68.537  1.00  0.00     0.000 HD 
ENDROOT
BRANCH   2  10
HETATM   10  C   UNL     1     -10.573  14.886  70.019  1.00  0.00    -0.086 C  
HETATM   11  C   UNL     1     -11.928  15.541  69.772  1.00  0.00    -0.364 C  
HETATM   12  O   UNL     1     -12.713  15.804  70.675  1.00  0.00    -0.439 OA 
HETATM   13  O   UNL     1     -12.204  15.823  68.479  1.00  0.00    -0.108 OA 
ENDBRANCH   2  10
TORSDOF 1
ENDMDL
MODEL      174
REMARK 921   NORMALIZED FREE ENERGY PREDICTED BY IDOCK:   -1.90 KCAL/MOL
REMARK 922        TOTAL FREE ENERGY PREDICTED BY IDOCK:   -2.14 KCAL/MOL
REMARK 923 INTER-LIGAND FREE ENERGY PREDICTED BY IDOCK:   -2.39 KCAL/MOL
REMARK 924 INTRA-LIGAND FREE ENERGY PREDICTED BY IDOCK:    0.25 KCAL/MOL
REMARK 927      BINDING AFFINITY PREDICTED BY RF-SCORE:    0.00 PKD
ROOT
HETATM    1  C   UNL     1      -8.457   5.826  71.693  1.00  0.00    -0.128 C  
HETATM    2  N   UNL     1      -9.189   6.310  72.871  1.00  0.00    -0.134 NA 
HETATM    3  H1  UNL     1     -12.154   6.563  71.601  1.00  0.00     0.000 HD 
HETATM    4  C   UNL     1     -10.502   6.695  72.766  1.00  0.00    -0.217 C  
HETATM    5  N   UNL     1     -11.194   7.335  73.639  1.00  0.00    -0.521 NA 
HETATM    6  H2  UNL     1     -10.715   7.583  74.505  1.00  0.00     0.000 HD 
HETATM    7  N   UNL     1     -11.178   6.277  71.679  1.00  0.00    -0.273 NA 
HETATM    8  H2  UNL     1     -10.734   5.699  70.965  1.00  0.00     0.000 HD 
HETATM    9  H1  UNL     1     -12.170   7.621  73.561  1.00  0.00     0.000 HD 
ENDROOT
BRANCH   2  10
HETATM   10  C   UNL     1      -8.307   6.868  73.929  1.00  0.00    -0.131 C  
HETATM   11  C   UNL     1      -7.952   8.337  73.722  1.00  0.00    -0.180 C  
HETATM   12  O   UNL     1      -7.260   8.971  74.511  1.00  0.00    -0.414 OA 
HETATM   13  O   UNL     1      -8.446   8.896  72.595  1.00  0.00    -0.388 OA 
ENDBRANCH   2  10
TORSDOF 1
ENDMDL
MODEL      175
REMARK 921   NORMALIZED FREE ENERGY PREDICTED BY IDOCK:   -1.90 KCAL/MOL
REMARK 922        TOTAL FREE ENERGY PREDICTED BY IDOCK:   -2.14 KCAL/MOL
REMARK 923 INTER-LIGAND FREE ENERGY PREDICTED BY IDOCK:   -2.02 KCAL/MOL
REMARK 924 INTRA-LIGAND FREE ENERGY PREDICTED BY IDOCK:   -0.12 KCAL/MOL
REMARK 927      BINDING AFFINITY PREDICTED BY RF-SCORE:    0.00 PKD
ROOT
HETATM    1  C   UNL     1     -10.744   4.460  65.104  1.00  0.00    -0.113 C  
HETATM    2  N   UNL     1     -10.260   4.846  66.435  1.00  0.00    -0.255 NA 
HETATM    3  H1  UNL     1      -9.057   2.007  67.417  1.00  0.00     0.000 HD 
HETATM    4  C   UNL     1      -9.774   3.899  67.301  1.00  0.00    -0.131 C  
HETATM    5  N   UNL     1      -9.526   4.047  68.553  1.00  0.00    -0.159 NA 
HETATM    6  H2  UNL     1      -9.712   4.970  68.946  1.00  0.00     0.000 HD 
HETATM    7  N   UNL     1      -9.419   2.711  66.773  1.00  0.00    -0.395 NA 
HETATM    8  H2  UNL     1      -9.507   2.525  65.775  1.00  0.00     0.000 HD 
HETATM    9  H1  UNL     1      -9.164   3.343  69.197  1.00  0.00     0.000 HD 
ENDROOT
BRANCH   2  10
HETATM   10  C   UNL     1     -10.851   6.114  66.937  1.00  0.00    -0.335 C  
HETATM   11  C   UNL     1      -9.956   7.332  66.734  1.00  0.00    -0.217 C  
HETATM   12  O   UNL     1     -10.292   8.466  67.057  1.00  0.00    -0.277 OA 
HETATM   13  O   UNL     1      -8.751   7.075  66.178  1.00  0.00    -0.137 OA 
ENDBRANCH   2  10
TORSDOF 1
ENDMDL
MODEL      176
REMARK 921   NORMALIZED FREE ENERGY PREDICTED BY IDOCK:   -1.89 KCAL/MOL
REMARK 922        TOTAL FREE ENERGY PREDICTED BY IDOCK:   -2.13 KCAL/MOL
REMARK 923 INTER-LIGAND FREE ENERGY PREDICTED BY IDOCK:   -2.01 KCAL/MOL
REMARK 924 INTRA-LIGAND FREE ENERGY PREDICTED BY IDOCK:   -0.12 KCAL/MOL
REMARK 927      BINDING AFFINITY PREDICTED BY RF-SCORE:    0.00 PKD
ROOT
HETATM    1  C   UNL     1     -10.518   6.246  67.882  1.00  0.00    -0.230 C  
HETATM    2  N   UNL     1     -10.069   6.556  69.245  1.00  0.00    -0.163 NA 
HETATM    3  H1  UNL     1      -7.168   7.827  68.584  1.00  0.00     0.000 HD 
HETATM    4  C   UNL     1      -8.793   7.006  69.473  1.00  0.00    -0.133 C  
HETATM    5  N   UNL     1      -8.197   7.105  70.607  1.00  0.00    -0.116 NA 
HETATM    6  H2  UNL     1      -8.731   6.819  71.428  1.00  0.00     0.000 HD 
HETATM    7  N   UNL     1      -8.117   7.493  68.415  1.00  0.00    -0.123 NA 
HETATM    8  H2  UNL     1      -8.536   7.526  67.485  1.00  0.00     0.000 HD 
HETATM    9  H1  UNL     1      -7.248   7.440  70.777  1.00  0.00     0.000 HD 
ENDROOT
BRANCH   2  10
HETATM   10  C   UNL     1     -10.828   5.833  70.299  1.00  0.00    -0.303 C  
HETATM   11  C   UNL     1     -11.788   6.721  71.084  1.00  0.00    -0.360 C  
HETATM   12  O   UNL     1     -12.518   6.290  71.969  1.00  0.00    -0.306 OA 
HETATM   13  O   UNL     1     -11.772   8.029  70.743  1.00  0.00    -0.278 OA 
ENDBRANCH   2  10
TORSDOF 1
ENDMDL
MODEL      177
REMARK 921   NORMALIZED FREE ENERGY PREDICTED BY IDOCK:   -1.89 KCAL/MOL
REMARK 922        TOTAL FREE ENERGY PREDICTED BY IDOCK:   -2.13 KCAL/MOL
REMARK 923 INTER-LIGAND FREE ENERGY PREDICTED BY IDOCK:   -2.39 KCAL/MOL
REMARK 924 INTRA-LIGAND FREE ENERGY PREDICTED BY IDOCK:    0.26 KCAL/MOL
REMARK 927      BINDING AFFINITY PREDICTED BY RF-SCORE:    0.00 PKD
ROOT
HETATM    1  C   UNL     1      -5.643  15.860  68.436  1.00  0.00    -0.109 C  
HETATM    2  N   UNL     1      -6.981  16.393  68.723  1.00  0.00    -0.160 NA 
HETATM    3  H1  UNL     1      -8.366  13.745  69.962  1.00  0.00     0.000 HD 
HETATM    4  C   UNL     1      -7.985  15.563  69.152  1.00  0.00    -0.222 C  
HETATM    5  N   UNL     1      -9.238  15.837  69.230  1.00  0.00    -0.255 NA 
HETATM    6  H2  UNL     1      -9.516  16.775  68.940  1.00  0.00     0.000 HD 
HETATM    7  N   UNL     1      -7.620  14.363  69.643  1.00  0.00    -0.374 NA 
HETATM    8  H2  UNL     1      -6.640  14.084  69.693  1.00  0.00     0.000 HD 
HETATM    9  H1  UNL     1      -9.985  15.219  69.549  1.00  0.00     0.000 HD 
ENDROOT
BRANCH   2  10
HETATM   10  C   UNL     1      -7.285  17.655  67.998  1.00  0.00    -0.216 C  
HETATM   11  C   UNL     1      -7.934  17.439  66.635  1.00  0.00    -0.258 C  
HETATM   12  O   UNL     1      -8.282  18.365  65.911  1.00  0.00    -0.505 OA 
HETATM   13  O   UNL     1      -8.092  16.148  66.270  1.00  0.00    -0.292 OA 
ENDBRANCH   2  10
TORSDOF 1
ENDMDL
MODEL      178
REMARK 921   NORMALIZED FREE ENERGY PREDICTED BY IDOCK:   -1.88 KCAL/MOL
REMARK 922        TOTAL FREE ENERGY PREDICTED BY IDOCK:   -2.11 KCAL/MOL
REMARK 923 INTER-LIGAND FREE ENERGY PREDICTED BY IDOCK:   -2.17 KCAL/MOL
REMARK 924 INTRA-LIGAND FREE ENERGY PREDICTED BY IDOCK:    0.06 KCAL/MOL
REMARK 927      BINDING AFFINITY PREDICTED BY RF-SCORE:    0.00 PKD
ROOT
HETATM    1  C   UNL     1     -10.593  11.668  68.057  1.00  0.00    -0.202 C  
HETATM    2  N   UNL     1     -10.303  10.851  69.242  1.00  0.00    -0.213 NA 
HETATM    3  H1  UNL     1      -7.069  10.944  69.187  1.00  0.00     0.000 HD 
HETATM    4  C   UNL     1      -9.012  10.496  69.546  1.00  0.00    -0.032 C  
HETATM    5  N   UNL     1      -8.630   9.620  70.404  1.00  0.00    -0.255 NA 
HETATM    6  H2  UNL     1      -9.368   9.134  70.916  1.00  0.00     0.000 HD 
HETATM    7  N   UNL     1      -8.029  11.207  68.961  1.00  0.00    -0.272 NA 
HETATM    8  H2  UNL     1      -8.234  11.975  68.322  1.00  0.00     0.000 HD 
HETATM    9  H1  UNL     1      -7.671   9.357  70.630  1.00  0.00     0.000 HD 
ENDROOT
BRANCH   2  10
HETATM   10  C   UNL     1     -11.452  10.017  69.683  1.00  0.00    -0.155 C  
HETATM   11  C   UNL     1     -12.477  10.778  70.519  1.00  0.00    -0.360 C  
HETATM   12  O   UNL     1     -13.504  10.260  70.942  1.00  0.00    -0.307 OA 
HETATM   13  O   UNL     1     -12.170  12.069  70.773  1.00  0.00    -0.377 OA 
ENDBRANCH   2  10
TORSDOF 1
ENDMDL
MODEL      179
REMARK 921   NORMALIZED FREE ENERGY PREDICTED BY IDOCK:   -1.87 KCAL/MOL
REMARK 922        TOTAL FREE ENERGY PREDICTED BY IDOCK:   -2.10 KCAL/MOL
REMARK 923 INTER-LIGAND FREE ENERGY PREDICTED BY IDOCK:   -2.04 KCAL/MOL
REMARK 924 INTRA-LIGAND FREE ENERGY PREDICTED BY IDOCK:   -0.06 KCAL/MOL
REMARK 927      BINDING AFFINITY PREDICTED BY RF-SCORE:    0.00 PKD
ROOT
HETATM    1  C   UNL     1      -8.479   8.562  65.412  1.00  0.00    -0.173 C  
HETATM    2  N   UNL     1      -8.665   9.945  65.867  1.00  0.00    -0.135 NA 
HETATM    3  H1  UNL     1      -5.742  11.143  65.167  1.00  0.00     0.000 HD 
HETATM    4  C   UNL     1      -7.608  10.820  65.888  1.00  0.00    -0.106 C  
HETATM    5  N   UNL     1      -7.566  11.972  66.456  1.00  0.00    -0.375 NA 
HETATM    6  H2  UNL     1      -8.410  12.268  66.945  1.00  0.00     0.000 HD 
HETATM    7  N   UNL     1      -6.528  10.492  65.152  1.00  0.00    -0.290 NA 
HETATM    8  H2  UNL     1      -6.497   9.633  64.604  1.00  0.00     0.000 HD 
HETATM    9  H1  UNL     1      -6.780  12.622  66.471  1.00  0.00     0.000 HD 
ENDROOT
BRANCH   2  10
HETATM   10  C   UNL     1      -9.823  10.118  66.784  1.00  0.00    -0.196 C  
HETATM   11  C   UNL     1     -10.889  11.071  66.254  1.00  0.00    -0.170 C  
HETATM   12  O   UNL     1     -11.927  11.309  66.860  1.00  0.00    -0.327 OA 
HETATM   13  O   UNL     1     -10.606  11.649  65.066  1.00  0.00    -0.268 OA 
ENDBRANCH   2  10
TORSDOF 1
ENDMDL
MODEL      180
REMARK 921   NORMALIZED FREE ENERGY PREDICTED BY IDOCK:   -1.85 KCAL/MOL
REMARK 922        TOTAL FREE ENERGY PREDICTED BY IDOCK:   -2.09 KCAL/MOL
REMARK 923 INTER-LIGAND FREE ENERGY PREDICTED BY IDOCK:   -1.97 KCAL/MOL
REMARK 924 INTRA-LIGAND FREE ENERGY PREDICTED BY IDOCK:   -0.12 KCAL/MOL
REMARK 927      BINDING AFFINITY PREDICTED BY RF-SCORE:    0.00 PKD
ROOT
HETATM    1  C   UNL     1      -7.835   6.104  66.387  1.00  0.00    -0.104 C  
HETATM    2  N   UNL     1      -9.231   5.667  66.255  1.00  0.00    -0.154 NA 
HETATM    3  H1  UNL     1     -10.733   8.484  66.777  1.00  0.00     0.000 HD 
HETATM    4  C   UNL     1     -10.261   6.529  66.535  1.00  0.00    -0.065 C  
HETATM    5  N   UNL     1     -11.503   6.232  66.677  1.00  0.00    -0.647 NA 
HETATM    6  H2  UNL     1     -11.750   5.248  66.569  1.00  0.00     0.000 HD 
HETATM    7  N   UNL     1      -9.968   7.843  66.569  1.00  0.00    -0.416 NA 
HETATM    8  H2  UNL     1      -9.022   8.182  66.392  1.00  0.00     0.000 HD 
HETATM    9  H1  UNL     1     -12.269   6.874  66.886  1.00  0.00     0.000 HD 
ENDROOT
BRANCH   2  10
HETATM   10  C   UNL     1      -9.406   4.195  66.377  1.00  0.00    -0.171 C  
HETATM   11  C   UNL     1      -9.511   3.476  65.036  1.00  0.00    -0.159 C  
HETATM   12  O   UNL     1      -9.627   2.259  64.942  1.00  0.00    -0.094 OA 
HETATM   13  O   UNL     1      -9.479   4.277  63.948  1.00  0.00    -0.158 OA 
ENDBRANCH   2  10
TORSDOF 1
ENDMDL
MODEL      181
REMARK 921   NORMALIZED FREE ENERGY PREDICTED BY IDOCK:   -1.85 KCAL/MOL
REMARK 922        TOTAL FREE ENERGY PREDICTED BY IDOCK:   -2.09 KCAL/MOL
REMARK 923 INTER-LIGAND FREE ENERGY PREDICTED BY IDOCK:   -1.96 KCAL/MOL
REMARK 924 INTRA-LIGAND FREE ENERGY PREDICTED BY IDOCK:   -0.13 KCAL/MOL
REMARK 927      BINDING AFFINITY PREDICTED BY RF-SCORE:    0.00 PKD
ROOT
HETATM    1  C   UNL     1      -8.143   5.836  72.027  1.00  0.00    -0.112 C  
HETATM    2  N   UNL     1      -9.446   6.502  71.903  1.00  0.00    -0.152 NA 
HETATM    3  H1  UNL     1     -10.064   7.075  75.027  1.00  0.00     0.000 HD 
HETATM    4  C   UNL     1     -10.177   6.818  73.020  1.00  0.00    -0.214 C  
HETATM    5  N   UNL     1     -11.406   7.193  73.063  1.00  0.00    -0.543 NA 
HETATM    6  H2  UNL     1     -11.890   7.264  72.167  1.00  0.00     0.000 HD 
HETATM    7  N   UNL     1      -9.520   6.840  74.196  1.00  0.00    -0.217 NA 
HETATM    8  H2  UNL     1      -8.524   6.630  74.253  1.00  0.00     0.000 HD 
HETATM    9  H1  UNL     1     -11.949   7.429  73.893  1.00  0.00     0.000 HD 
ENDROOT
BRANCH   2  10
HETATM   10  C   UNL     1     -10.108   6.270  70.592  1.00  0.00    -0.189 C  
HETATM   11  C   UNL     1      -9.969   7.436  69.618  1.00  0.00    -0.182 C  
HETATM   12  O   UNL     1     -10.423   7.409  68.480  1.00  0.00    -0.195 OA 
HETATM   13  O   UNL     1      -9.313   8.515  70.101  1.00  0.00    -0.156 OA 
ENDBRANCH   2  10
TORSDOF 1
ENDMDL
MODEL      182
REMARK 921   NORMALIZED FREE ENERGY PREDICTED BY IDOCK:   -1.82 KCAL/MOL
REMARK 922        TOTAL FREE ENERGY PREDICTED BY IDOCK:   -2.06 KCAL/MOL
REMARK 923 INTER-LIGAND FREE ENERGY PREDICTED BY IDOCK:   -1.93 KCAL/MOL
REMARK 924 INTRA-LIGAND FREE ENERGY PREDICTED BY IDOCK:   -0.12 KCAL/MOL
REMARK 927      BINDING AFFINITY PREDICTED BY RF-SCORE:    0.00 PKD
ROOT
HETATM    1  C   UNL     1      -7.642  11.591  66.843  1.00  0.00    -0.151 C  
HETATM    2  N   UNL     1      -8.826  12.009  67.604  1.00  0.00    -0.165 NA 
HETATM    3  H1  UNL     1      -8.815  15.174  66.930  1.00  0.00     0.000 HD 
HETATM    4  C   UNL     1      -9.145  13.338  67.723  1.00  0.00    -0.202 C  
HETATM    5  N   UNL     1     -10.004  13.862  68.523  1.00  0.00    -0.229 NA 
HETATM    6  H2  UNL     1     -10.503  13.218  69.138  1.00  0.00     0.000 HD 
HETATM    7  N   UNL     1      -8.578  14.185  66.842  1.00  0.00    -0.378 NA 
HETATM    8  H2  UNL     1      -7.940  13.853  66.119  1.00  0.00     0.000 HD 
HETATM    9  H1  UNL     1     -10.241  14.850  68.611  1.00  0.00     0.000 HD 
ENDROOT
BRANCH   2  10
HETATM   10  C   UNL     1      -9.248  11.023  68.634  1.00  0.00    -0.185 C  
HETATM   11  C   UNL     1     -10.410  10.137  68.198  1.00  0.00    -0.185 C  
HETATM   12  O   UNL     1     -10.869   9.247  68.905  1.00  0.00    -0.194 OA 
HETATM   13  O   UNL     1     -10.912  10.407  66.972  1.00  0.00    -0.244 OA 
ENDBRANCH   2  10
TORSDOF 1
ENDMDL
MODEL      183
REMARK 921   NORMALIZED FREE ENERGY PREDICTED BY IDOCK:   -1.80 KCAL/MOL
REMARK 922        TOTAL FREE ENERGY PREDICTED BY IDOCK:   -2.03 KCAL/MOL
REMARK 923 INTER-LIGAND FREE ENERGY PREDICTED BY IDOCK:   -2.29 KCAL/MOL
REMARK 924 INTRA-LIGAND FREE ENERGY PREDICTED BY IDOCK:    0.25 KCAL/MOL
REMARK 927      BINDING AFFINITY PREDICTED BY RF-SCORE:    0.00 PKD
ROOT
HETATM    1  C   UNL     1     -10.568  16.519  68.184  1.00  0.00    -0.329 C  
HETATM    2  N   UNL     1      -9.208  16.713  68.702  1.00  0.00    -0.240 NA 
HETATM    3  H1  UNL     1      -8.890  19.896  68.212  1.00  0.00     0.000 HD 
HETATM    4  C   UNL     1      -8.579  17.926  68.573  1.00  0.00    -0.293 C  
HETATM    5  N   UNL     1      -7.335  18.180  68.773  1.00  0.00    -0.281 NA 
HETATM    6  H2  UNL     1      -6.752  17.394  69.058  1.00  0.00     0.000 HD 
HETATM    7  N   UNL     1      -9.357  18.994  68.307  1.00  0.00    -0.327 NA 
HETATM    8  H2  UNL     1     -10.368  18.904  68.207  1.00  0.00     0.000 HD 
HETATM    9  H1  UNL     1      -6.868  19.082  68.677  1.00  0.00     0.000 HD 
ENDROOT
BRANCH   2  10
HETATM   10  C   UNL     1      -8.428  15.452  68.809  1.00  0.00    -0.188 C  
HETATM   11  C   UNL     1      -7.737  15.044  67.512  1.00  0.00    -0.185 C  
HETATM   12  O   UNL     1      -7.026  14.050  67.422  1.00  0.00    -0.180 OA 
HETATM   13  O   UNL     1      -7.971  15.854  66.455  1.00  0.00    -0.262 OA 
ENDBRANCH   2  10
TORSDOF 1
ENDMDL
MODEL      184
REMARK 921   NORMALIZED FREE ENERGY PREDICTED BY IDOCK:   -1.80 KCAL/MOL
REMARK 922        TOTAL FREE ENERGY PREDICTED BY IDOCK:   -2.03 KCAL/MOL
REMARK 923 INTER-LIGAND FREE ENERGY PREDICTED BY IDOCK:   -1.91 KCAL/MOL
REMARK 924 INTRA-LIGAND FREE ENERGY PREDICTED BY IDOCK:   -0.12 KCAL/MOL
REMARK 927      BINDING AFFINITY PREDICTED BY RF-SCORE:    0.00 PKD
ROOT
HETATM    1  C   UNL     1      -9.544   4.532  69.338  1.00  0.00    -0.194 C  
HETATM    2  N   UNL     1      -9.693   5.688  70.232  1.00  0.00    -0.170 NA 
HETATM    3  H1  UNL     1     -12.163   7.186  68.775  1.00  0.00     0.000 HD 
HETATM    4  C   UNL     1     -10.565   6.701  69.922  1.00  0.00    -0.226 C  
HETATM    5  N   UNL     1     -10.640   7.856  70.480  1.00  0.00    -0.219 NA 
HETATM    6  H2  UNL     1      -9.980   8.040  71.236  1.00  0.00     0.000 HD 
HETATM    7  N   UNL     1     -11.514   6.433  69.005  1.00  0.00    -0.591 NA 
HETATM    8  H2  UNL     1     -11.583   5.517  68.561  1.00  0.00     0.000 HD 
HETATM    9  H1  UNL     1     -11.289   8.610  70.250  1.00  0.00     0.000 HD 
ENDROOT
BRANCH   2  10
HETATM   10  C   UNL     1      -8.501   5.933  71.087  1.00  0.00    -0.124 C  
HETATM   11  C   UNL     1      -8.703   5.547  72.548  1.00  0.00    -0.124 C  
HETATM   12  O   UNL     1      -7.819   5.650  73.391  1.00  0.00    -0.108 OA 
HETATM   13  O   UNL     1      -9.936   5.088  72.858  1.00  0.00    -0.154 OA 
ENDBRANCH   2  10
TORSDOF 1
ENDMDL
MODEL      185
REMARK 921   NORMALIZED FREE ENERGY PREDICTED BY IDOCK:   -1.78 KCAL/MOL
REMARK 922        TOTAL FREE ENERGY PREDICTED BY IDOCK:   -2.01 KCAL/MOL
REMARK 923 INTER-LIGAND FREE ENERGY PREDICTED BY IDOCK:   -1.92 KCAL/MOL
REMARK 924 INTRA-LIGAND FREE ENERGY PREDICTED BY IDOCK:   -0.09 KCAL/MOL
REMARK 927      BINDING AFFINITY PREDICTED BY RF-SCORE:    0.00 PKD
ROOT
HETATM    1  C   UNL     1     -11.123   4.096  73.519  1.00  0.00    -0.270 C  
HETATM    2  N   UNL     1     -10.240   4.977  72.745  1.00  0.00    -0.174 NA 
HETATM    3  H1  UNL     1      -7.514   4.650  74.458  1.00  0.00     0.000 HD 
HETATM    4  C   UNL     1      -8.974   5.261  73.191  1.00  0.00    -0.118 C  
HETATM    5  N   UNL     1      -8.180   6.170  72.749  1.00  0.00    -0.117 NA 
HETATM    6  H2  UNL     1      -8.531   6.743  71.981  1.00  0.00     0.000 HD 
HETATM    7  N   UNL     1      -8.456   4.440  74.126  1.00  0.00    -0.094 NA 
HETATM    8  H2  UNL     1      -8.981   3.643  74.485  1.00  0.00     0.000 HD 
HETATM    9  H1  UNL     1      -7.239   6.380  73.081  1.00  0.00     0.000 HD 
ENDROOT
BRANCH   2  10
HETATM   10  C   UNL     1     -10.971   5.921  71.858  1.00  0.00    -0.266 C  
HETATM   11  C   UNL     1     -10.818   5.611  70.373  1.00  0.00    -0.256 C  
HETATM   12  O   UNL     1     -11.376   6.264  69.498  1.00  0.00    -0.409 OA 
HETATM   13  O   UNL     1     -10.012   4.567  70.082  1.00  0.00    -0.217 OA 
ENDBRANCH   2  10
TORSDOF 1
ENDMDL
MODEL      186
REMARK 921   NORMALIZED FREE ENERGY PREDICTED BY IDOCK:   -1.78 KCAL/MOL
REMARK 922        TOTAL FREE ENERGY PREDICTED BY IDOCK:   -2.01 KCAL/MOL
REMARK 923 INTER-LIGAND FREE ENERGY PREDICTED BY IDOCK:   -2.47 KCAL/MOL
REMARK 924 INTRA-LIGAND FREE ENERGY PREDICTED BY IDOCK:    0.46 KCAL/MOL
REMARK 927      BINDING AFFINITY PREDICTED BY RF-SCORE:    0.00 PKD
ROOT
HETATM    1  C   UNL     1      -9.995   7.838  69.144  1.00  0.00    -0.182 C  
HETATM    2  N   UNL     1     -10.718   8.615  70.159  1.00  0.00    -0.232 NA 
HETATM    3  H1  UNL     1     -13.236   6.645  70.657  1.00  0.00     0.000 HD 
HETATM    4  C   UNL     1     -11.959   8.217  70.588  1.00  0.00    -0.025 C  
HETATM    5  N   UNL     1     -12.792   8.898  71.290  1.00  0.00    -0.469 NA 
HETATM    6  H2  UNL     1     -12.498   9.837  71.559  1.00  0.00     0.000 HD 
HETATM    7  N   UNL     1     -12.314   6.942  70.338  1.00  0.00    -0.604 NA 
HETATM    8  H2  UNL     1     -11.687   6.300  69.852  1.00  0.00     0.000 HD 
HETATM    9  H1  UNL     1     -13.715   8.602  71.609  1.00  0.00     0.000 HD 
ENDROOT
BRANCH   2  10
HETATM   10  C   UNL     1     -10.307  10.043  70.218  1.00  0.00    -0.242 C  
HETATM   11  C   UNL     1     -10.600  10.820  68.939  1.00  0.00    -0.216 C  
HETATM   12  O   UNL     1     -10.357  12.016  68.818  1.00  0.00    -0.218 OA 
HETATM   13  O   UNL     1     -11.140  10.095  67.935  1.00  0.00    -0.286 OA 
ENDBRANCH   2  10
TORSDOF 1
ENDMDL
MODEL      187
REMARK 921   NORMALIZED FREE ENERGY PREDICTED BY IDOCK:   -1.77 KCAL/MOL
REMARK 922        TOTAL FREE ENERGY PREDICTED BY IDOCK:   -2.00 KCAL/MOL
REMARK 923 INTER-LIGAND FREE ENERGY PREDICTED BY IDOCK:   -2.24 KCAL/MOL
REMARK 924 INTRA-LIGAND FREE ENERGY PREDICTED BY IDOCK:    0.25 KCAL/MOL
REMARK 927      BINDING AFFINITY PREDICTED BY RF-SCORE:    0.00 PKD
ROOT
HETATM    1  C   UNL     1      -8.168  11.692  67.070  1.00  0.00    -0.170 C  
HETATM    2  N   UNL     1      -9.527  11.308  66.670  1.00  0.00    -0.182 NA 
HETATM    3  H1  UNL     1     -10.488  14.071  65.288  1.00  0.00     0.000 HD 
HETATM    4  C   UNL     1     -10.389  12.238  66.146  1.00  0.00    -0.242 C  
HETATM    5  N   UNL     1     -11.654  12.106  65.961  1.00  0.00    -0.420 NA 
HETATM    6  H2  UNL     1     -12.062  11.211  66.233  1.00  0.00     0.000 HD 
HETATM    7  N   UNL     1      -9.848  13.379  65.678  1.00  0.00    -0.454 NA 
HETATM    8  H2  UNL     1      -8.842  13.544  65.712  1.00  0.00     0.000 HD 
HETATM    9  H1  UNL     1     -12.294  12.797  65.570  1.00  0.00     0.000 HD 
ENDROOT
BRANCH   2  10
HETATM   10  C   UNL     1     -10.036  10.103  67.378  1.00  0.00    -0.195 C  
HETATM   11  C   UNL     1     -10.683  10.409  68.725  1.00  0.00    -0.225 C  
HETATM   12  O   UNL     1     -11.185   9.543  69.433  1.00  0.00    -0.163 OA 
HETATM   13  O   UNL     1     -10.657  11.708  69.095  1.00  0.00    -0.194 OA 
ENDBRANCH   2  10
TORSDOF 1
ENDMDL
MODEL      188
REMARK 921   NORMALIZED FREE ENERGY PREDICTED BY IDOCK:   -1.76 KCAL/MOL
REMARK 922        TOTAL FREE ENERGY PREDICTED BY IDOCK:   -1.99 KCAL/MOL
REMARK 923 INTER-LIGAND FREE ENERGY PREDICTED BY IDOCK:   -1.86 KCAL/MOL
REMARK 924 INTRA-LIGAND FREE ENERGY PREDICTED BY IDOCK:   -0.13 KCAL/MOL
REMARK 927      BINDING AFFINITY PREDICTED BY RF-SCORE:    0.00 PKD
ROOT
HETATM    1  C   UNL     1      -8.049   5.541  71.845  1.00  0.00    -0.115 C  
HETATM    2  N   UNL     1      -9.441   5.411  72.293  1.00  0.00    -0.145 NA 
HETATM    3  H1  UNL     1      -8.947   4.839  75.439  1.00  0.00     0.000 HD 
HETATM    4  C   UNL     1      -9.726   5.023  73.578  1.00  0.00    -0.141 C  
HETATM    5  N   UNL     1     -10.867   4.658  74.042  1.00  0.00    -0.288 NA 
HETATM    6  H2  UNL     1     -11.646   4.657  73.383  1.00  0.00     0.000 HD 
HETATM    7  N   UNL     1      -8.735   5.127  74.483  1.00  0.00    -0.108 NA 
HETATM    8  H2  UNL     1      -7.813   5.480  74.226  1.00  0.00     0.000 HD 
HETATM    9  H1  UNL     1     -11.079   4.370  74.998  1.00  0.00     0.000 HD 
ENDROOT
BRANCH   2  10
HETATM   10  C   UNL     1     -10.400   5.162  71.184  1.00  0.00    -0.206 C  
HETATM   11  C   UNL     1     -11.175   6.403  70.752  1.00  0.00    -0.327 C  
HETATM   12  O   UNL     1     -11.985   6.393  69.833  1.00  0.00    -0.304 OA 
HETATM   13  O   UNL     1     -10.914   7.522  71.464  1.00  0.00    -0.228 OA 
ENDBRANCH   2  10
TORSDOF 1
ENDMDL
MODEL      189
REMARK 921   NORMALIZED FREE ENERGY PREDICTED BY IDOCK:   -1.71 KCAL/MOL
REMARK 922        TOTAL FREE ENERGY PREDICTED BY IDOCK:   -1.93 KCAL/MOL
REMARK 923 INTER-LIGAND FREE ENERGY PREDICTED BY IDOCK:   -1.81 KCAL/MOL
REMARK 924 INTRA-LIGAND FREE ENERGY PREDICTED BY IDOCK:   -0.13 KCAL/MOL
REMARK 927      BINDING AFFINITY PREDICTED BY RF-SCORE:    0.00 PKD
ROOT
HETATM    1  C   UNL     1      -8.774  11.719  66.592  1.00  0.00    -0.186 C  
HETATM    2  N   UNL     1      -8.622  10.361  66.055  1.00  0.00    -0.145 NA 
HETATM    3  H1  UNL     1      -5.759  10.677  64.582  1.00  0.00     0.000 HD 
HETATM    4  C   UNL     1      -7.580  10.055  65.217  1.00  0.00    -0.137 C  
HETATM    5  N   UNL     1      -7.442   8.993  64.506  1.00  0.00    -0.101 NA 
HETATM    6  H2  UNL     1      -8.190   8.302  64.573  1.00  0.00     0.000 HD 
HETATM    7  N   UNL     1      -6.534  10.904  65.205  1.00  0.00    -0.366 NA 
HETATM    8  H2  UNL     1      -6.518  11.737  65.794  1.00  0.00     0.000 HD 
HETATM    9  H1  UNL     1      -6.667   8.766  63.883  1.00  0.00     0.000 HD 
ENDROOT
BRANCH   2  10
HETATM   10  C   UNL     1      -9.896   9.596  66.007  1.00  0.00    -0.274 C  
HETATM   11  C   UNL     1     -10.020   8.539  67.100  1.00  0.00    -0.238 C  
HETATM   12  O   UNL     1     -11.015   7.836  67.234  1.00  0.00    -0.221 OA 
HETATM   13  O   UNL     1      -8.946   8.421  67.911  1.00  0.00    -0.136 OA 
ENDBRANCH   2  10
TORSDOF 1
ENDMDL
MODEL      190
REMARK 921   NORMALIZED FREE ENERGY PREDICTED BY IDOCK:   -1.69 KCAL/MOL
REMARK 922        TOTAL FREE ENERGY PREDICTED BY IDOCK:   -1.91 KCAL/MOL
REMARK 923 INTER-LIGAND FREE ENERGY PREDICTED BY IDOCK:   -1.79 KCAL/MOL
REMARK 924 INTRA-LIGAND FREE ENERGY PREDICTED BY IDOCK:   -0.12 KCAL/MOL
REMARK 927      BINDING AFFINITY PREDICTED BY RF-SCORE:    0.00 PKD
ROOT
HETATM    1  C   UNL     1      -7.890   7.861  71.156  1.00  0.00    -0.086 C  
HETATM    2  N   UNL     1      -8.269   9.097  70.460  1.00  0.00    -0.162 NA 
HETATM    3  H1  UNL     1     -11.271   9.466  71.607  1.00  0.00     0.000 HD 
HETATM    4  C   UNL     1      -9.551   9.579  70.543  1.00  0.00    -0.251 C  
HETATM    5  N   UNL     1     -10.079  10.506  69.826  1.00  0.00    -0.419 NA 
HETATM    6  H2  UNL     1      -9.478  10.930  69.119  1.00  0.00     0.000 HD 
HETATM    7  N   UNL     1     -10.318   9.108  71.545  1.00  0.00    -0.343 NA 
HETATM    8  H2  UNL     1      -9.962   8.425  72.213  1.00  0.00     0.000 HD 
HETATM    9  H1  UNL     1     -11.032  10.864  69.888  1.00  0.00     0.000 HD 
ENDROOT
BRANCH   2  10
HETATM   10  C   UNL     1      -7.405   9.408  69.290  1.00  0.00    -0.071 C  
HETATM   11  C   UNL     1      -6.313  10.431  69.587  1.00  0.00    -0.068 C  
HETATM   12  O   UNL     1      -5.489  10.784  68.751  1.00  0.00    -0.041 OA 
HETATM   13  O   UNL     1      -6.321  10.934  70.841  1.00  0.00    -0.352 OA 
ENDBRANCH   2  10
TORSDOF 1
ENDMDL
MODEL      191
REMARK 921   NORMALIZED FREE ENERGY PREDICTED BY IDOCK:   -1.69 KCAL/MOL
REMARK 922        TOTAL FREE ENERGY PREDICTED BY IDOCK:   -1.91 KCAL/MOL
REMARK 923 INTER-LIGAND FREE ENERGY PREDICTED BY IDOCK:   -2.16 KCAL/MOL
REMARK 924 INTRA-LIGAND FREE ENERGY PREDICTED BY IDOCK:    0.25 KCAL/MOL
REMARK 927      BINDING AFFINITY PREDICTED BY RF-SCORE:    0.00 PKD
ROOT
HETATM    1  C   UNL     1      -9.556  14.831  68.867  1.00  0.00    -0.210 C  
HETATM    2  N   UNL     1      -8.873  13.703  68.221  1.00  0.00    -0.180 NA 
HETATM    3  H1  UNL     1      -5.932  14.997  67.839  1.00  0.00     0.000 HD 
HETATM    4  C   UNL     1      -7.596  13.844  67.740  1.00  0.00    -0.169 C  
HETATM    5  N   UNL     1      -6.963  13.033  66.970  1.00  0.00    -0.400 NA 
HETATM    6  H2  UNL     1      -7.465  12.191  66.686  1.00  0.00     0.000 HD 
HETATM    7  N   UNL     1      -6.882  14.891  68.197  1.00  0.00    -0.117 NA 
HETATM    8  H2  UNL     1      -7.274  15.549  68.871  1.00  0.00     0.000 HD 
HETATM    9  H1  UNL     1      -6.013  13.138  66.613  1.00  0.00     0.000 HD 
ENDROOT
BRANCH   2  10
HETATM   10  C   UNL     1      -9.804  12.696  67.646  1.00  0.00    -0.210 C  
HETATM   11  C   UNL     1     -10.276  13.032  66.235  1.00  0.00    -0.288 C  
HETATM   12  O   UNL     1     -11.021  12.301  65.592  1.00  0.00    -0.280 OA 
HETATM   13  O   UNL     1      -9.823  14.205  65.739  1.00  0.00    -0.307 OA 
ENDBRANCH   2  10
TORSDOF 1
ENDMDL
MODEL      192
REMARK 921   NORMALIZED FREE ENERGY PREDICTED BY IDOCK:   -1.68 KCAL/MOL
REMARK 922        TOTAL FREE ENERGY PREDICTED BY IDOCK:   -1.91 KCAL/MOL
REMARK 923 INTER-LIGAND FREE ENERGY PREDICTED BY IDOCK:   -1.81 KCAL/MOL
REMARK 924 INTRA-LIGAND FREE ENERGY PREDICTED BY IDOCK:   -0.10 KCAL/MOL
REMARK 927      BINDING AFFINITY PREDICTED BY RF-SCORE:    0.00 PKD
ROOT
HETATM    1  C   UNL     1      -9.888   6.387  67.919  1.00  0.00    -0.123 C  
HETATM    2  N   UNL     1      -9.824   5.867  69.291  1.00  0.00    -0.152 NA 
HETATM    3  H1  UNL     1     -12.563   7.119  70.473  1.00  0.00     0.000 HD 
HETATM    4  C   UNL     1     -10.743   6.263  70.230  1.00  0.00    -0.280 C  
HETATM    5  N   UNL     1     -10.686   6.072  71.500  1.00  0.00    -0.246 NA 
HETATM    6  H2  UNL     1      -9.868   5.571  71.847  1.00  0.00     0.000 HD 
HETATM    7  N   UNL     1     -11.880   6.825  69.775  1.00  0.00    -0.651 NA 
HETATM    8  H2  UNL     1     -12.050   6.950  68.778  1.00  0.00     0.000 HD 
HETATM    9  H1  UNL     1     -11.370   6.366  72.198  1.00  0.00     0.000 HD 
ENDROOT
BRANCH   2  10
HETATM   10  C   UNL     1      -8.466   5.411  69.690  1.00  0.00    -0.100 C  
HETATM   11  C   UNL     1      -8.343   3.897  69.829  1.00  0.00    -0.056 C  
HETATM   12  O   UNL     1      -7.291   3.339  70.119  1.00  0.00    -0.041 OA 
HETATM   13  O   UNL     1      -9.485   3.204  69.619  1.00  0.00    -0.159 OA 
ENDBRANCH   2  10
TORSDOF 1
ENDMDL
MODEL      193
REMARK 921   NORMALIZED FREE ENERGY PREDICTED BY IDOCK:   -1.62 KCAL/MOL
REMARK 922        TOTAL FREE ENERGY PREDICTED BY IDOCK:   -1.84 KCAL/MOL
REMARK 923 INTER-LIGAND FREE ENERGY PREDICTED BY IDOCK:   -2.20 KCAL/MOL
REMARK 924 INTRA-LIGAND FREE ENERGY PREDICTED BY IDOCK:    0.36 KCAL/MOL
REMARK 927      BINDING AFFINITY PREDICTED BY RF-SCORE:    0.00 PKD
ROOT
HETATM    1  C   UNL     1      -9.728   4.660  69.342  1.00  0.00    -0.202 C  
HETATM    2  N   UNL     1     -10.333   5.750  70.119  1.00  0.00    -0.233 NA 
HETATM    3  H1  UNL     1     -12.005   7.224  67.774  1.00  0.00     0.000 HD 
HETATM    4  C   UNL     1     -11.046   6.740  69.492  1.00  0.00    -0.273 C  
HETATM    5  N   UNL     1     -11.437   7.854  70.000  1.00  0.00    -0.471 NA 
HETATM    6  H2  UNL     1     -11.191   8.019  70.976  1.00  0.00     0.000 HD 
HETATM    7  N   UNL     1     -11.474   6.488  68.240  1.00  0.00    -0.543 NA 
HETATM    8  H2  UNL     1     -11.278   5.599  67.779  1.00  0.00     0.000 HD 
HETATM    9  H1  UNL     1     -11.968   8.590  69.534  1.00  0.00     0.000 HD 
ENDROOT
BRANCH   2  10
HETATM   10  C   UNL     1      -9.659   5.995  71.421  1.00  0.00    -0.160 C  
HETATM   11  C   UNL     1      -8.268   6.607  71.288  1.00  0.00    -0.120 C  
HETATM   12  O   UNL     1      -7.578   6.906  72.256  1.00  0.00    -0.090 OA 
HETATM   13  O   UNL     1      -7.838   6.790  70.020  1.00  0.00    -0.106 OA 
ENDBRANCH   2  10
TORSDOF 1
ENDMDL
MODEL      194
REMARK 921   NORMALIZED FREE ENERGY PREDICTED BY IDOCK:   -1.61 KCAL/MOL
REMARK 922        TOTAL FREE ENERGY PREDICTED BY IDOCK:   -1.83 KCAL/MOL
REMARK 923 INTER-LIGAND FREE ENERGY PREDICTED BY IDOCK:   -1.71 KCAL/MOL
REMARK 924 INTRA-LIGAND FREE ENERGY PREDICTED BY IDOCK:   -0.12 KCAL/MOL
REMARK 927      BINDING AFFINITY PREDICTED BY RF-SCORE:    0.00 PKD
ROOT
HETATM    1  C   UNL     1      -7.395   8.076  68.975  1.00  0.00    -0.084 C  
HETATM    2  N   UNL     1      -8.269   9.229  68.723  1.00  0.00    -0.111 NA 
HETATM    3  H1  UNL     1      -9.094   9.958  71.766  1.00  0.00     0.000 HD 
HETATM    4  C   UNL     1      -8.976   9.804  69.749  1.00  0.00    -0.221 C  
HETATM    5  N   UNL     1      -9.931  10.659  69.649  1.00  0.00    -0.435 NA 
HETATM    6  H2  UNL     1     -10.191  10.939  68.703  1.00  0.00     0.000 HD 
HETATM    7  N   UNL     1      -8.569   9.530  71.003  1.00  0.00    -0.347 NA 
HETATM    8  H2  UNL     1      -7.770   8.921  71.182  1.00  0.00     0.000 HD 
HETATM    9  H1  UNL     1     -10.456  11.087  70.411  1.00  0.00     0.000 HD 
ENDROOT
BRANCH   2  10
HETATM   10  C   UNL     1      -8.746   9.316  67.318  1.00  0.00    -0.128 C  
HETATM   11  C   UNL     1      -8.052  10.400  66.499  1.00  0.00    -0.122 C  
HETATM   12  O   UNL     1      -8.294  10.595  65.314  1.00  0.00    -0.163 OA 
HETATM   13  O   UNL     1      -7.150  11.145  67.177  1.00  0.00    -0.097 OA 
ENDBRANCH   2  10
TORSDOF 1
ENDMDL
MODEL      195
REMARK 921   NORMALIZED FREE ENERGY PREDICTED BY IDOCK:   -1.58 KCAL/MOL
REMARK 922        TOTAL FREE ENERGY PREDICTED BY IDOCK:   -1.79 KCAL/MOL
REMARK 923 INTER-LIGAND FREE ENERGY PREDICTED BY IDOCK:   -2.11 KCAL/MOL
REMARK 924 INTRA-LIGAND FREE ENERGY PREDICTED BY IDOCK:    0.32 KCAL/MOL
REMARK 927      BINDING AFFINITY PREDICTED BY RF-SCORE:    0.00 PKD
ROOT
HETATM    1  C   UNL     1      -8.611   4.960  71.146  1.00  0.00    -0.122 C  
HETATM    2  N   UNL     1      -9.877   5.668  70.920  1.00  0.00    -0.176 NA 
HETATM    3  H1  UNL     1     -10.490   4.729  67.885  1.00  0.00     0.000 HD 
HETATM    4  C   UNL     1     -10.463   5.670  69.680  1.00  0.00    -0.304 C  
HETATM    5  N   UNL     1     -11.434   6.412  69.281  1.00  0.00    -0.609 NA 
HETATM    6  H2  UNL     1     -11.810   7.072  69.963  1.00  0.00     0.000 HD 
HETATM    7  N   UNL     1     -10.054   4.728  68.808  1.00  0.00    -0.108 NA 
HETATM    8  H2  UNL     1      -9.340   4.044  69.059  1.00  0.00     0.000 HD 
HETATM    9  H1  UNL     1     -11.870   6.413  68.359  1.00  0.00     0.000 HD 
ENDROOT
BRANCH   2  10
HETATM   10  C   UNL     1     -10.120   6.772  71.886  1.00  0.00    -0.180 C  
HETATM   11  C   UNL     1      -9.291   8.023  71.612  1.00  0.00    -0.160 C  
HETATM   12  O   UNL     1      -9.383   9.042  72.287  1.00  0.00    -0.333 OA 
HETATM   13  O   UNL     1      -8.431   7.928  70.574  1.00  0.00    -0.122 OA 
ENDBRANCH   2  10
TORSDOF 1
ENDMDL
MODEL      196
REMARK 921   NORMALIZED FREE ENERGY PREDICTED BY IDOCK:   -1.55 KCAL/MOL
REMARK 922        TOTAL FREE ENERGY PREDICTED BY IDOCK:   -1.76 KCAL/MOL
REMARK 923 INTER-LIGAND FREE ENERGY PREDICTED BY IDOCK:   -1.65 KCAL/MOL
REMARK 924 INTRA-LIGAND FREE ENERGY PREDICTED BY IDOCK:   -0.12 KCAL/MOL
REMARK 927      BINDING AFFINITY PREDICTED BY RF-SCORE:    0.00 PKD
ROOT
HETATM    1  C   UNL     1     -10.752   5.408  72.293  1.00  0.00    -0.231 C  
HETATM    2  N   UNL     1      -9.777   5.763  71.254  1.00  0.00    -0.168 NA 
HETATM    3  H1  UNL     1      -7.841   3.176  71.422  1.00  0.00     0.000 HD 
HETATM    4  C   UNL     1      -8.658   4.994  71.057  1.00  0.00    -0.123 C  
HETATM    5  N   UNL     1      -7.625   5.293  70.354  1.00  0.00    -0.073 NA 
HETATM    6  H2  UNL     1      -7.639   6.202  69.891  1.00  0.00     0.000 HD 
HETATM    7  N   UNL     1      -8.673   3.748  71.569  1.00  0.00    -0.091 NA 
HETATM    8  H2  UNL     1      -9.481   3.392  72.079  1.00  0.00     0.000 HD 
HETATM    9  H1  UNL     1      -6.793   4.721  70.207  1.00  0.00     0.000 HD 
ENDROOT
BRANCH   2  10
HETATM   10  C   UNL     1      -9.790   7.206  70.895  1.00  0.00    -0.181 C  
HETATM   11  C   UNL     1     -10.604   7.520  69.645  1.00  0.00    -0.239 C  
HETATM   12  O   UNL     1     -10.753   8.660  69.218  1.00  0.00    -0.213 OA 
HETATM   13  O   UNL     1     -11.148   6.449  69.026  1.00  0.00    -0.327 OA 
ENDBRANCH   2  10
TORSDOF 1
ENDMDL
MODEL      197
REMARK 921   NORMALIZED FREE ENERGY PREDICTED BY IDOCK:   -1.54 KCAL/MOL
REMARK 922        TOTAL FREE ENERGY PREDICTED BY IDOCK:   -1.75 KCAL/MOL
REMARK 923 INTER-LIGAND FREE ENERGY PREDICTED BY IDOCK:   -1.63 KCAL/MOL
REMARK 924 INTRA-LIGAND FREE ENERGY PREDICTED BY IDOCK:   -0.12 KCAL/MOL
REMARK 927      BINDING AFFINITY PREDICTED BY RF-SCORE:    0.00 PKD
ROOT
HETATM    1  C   UNL     1     -11.240   6.639  70.932  1.00  0.00    -0.302 C  
HETATM    2  N   UNL     1     -10.035   7.020  70.186  1.00  0.00    -0.182 NA 
HETATM    3  H1  UNL     1     -11.248   9.424  68.391  1.00  0.00     0.000 HD 
HETATM    4  C   UNL     1     -10.105   7.945  69.175  1.00  0.00    -0.197 C  
HETATM    5  N   UNL     1      -9.199   8.212  68.303  1.00  0.00    -0.135 NA 
HETATM    6  H2  UNL     1      -8.333   7.677  68.371  1.00  0.00     0.000 HD 
HETATM    7  N   UNL     1     -11.195   8.736  69.143  1.00  0.00    -0.413 NA 
HETATM    8  H2  UNL     1     -11.936   8.651  69.839  1.00  0.00     0.000 HD 
HETATM    9  H1  UNL     1      -9.251   8.900  67.552  1.00  0.00     0.000 HD 
ENDROOT
BRANCH   2  10
HETATM   10  C   UNL     1      -8.972   5.981  70.204  1.00  0.00    -0.147 C  
HETATM   11  C   UNL     1      -7.875   6.242  71.231  1.00  0.00    -0.108 C  
HETATM   12  O   UNL     1      -6.935   5.475  71.409  1.00  0.00    -0.062 OA 
HETATM   13  O   UNL     1      -8.004   7.390  71.933  1.00  0.00    -0.089 OA 
ENDBRANCH   2  10
TORSDOF 1
ENDMDL
MODEL      198
REMARK 921   NORMALIZED FREE ENERGY PREDICTED BY IDOCK:   -1.53 KCAL/MOL
REMARK 922        TOTAL FREE ENERGY PREDICTED BY IDOCK:   -1.75 KCAL/MOL
REMARK 923 INTER-LIGAND FREE ENERGY PREDICTED BY IDOCK:   -1.64 KCAL/MOL
REMARK 924 INTRA-LIGAND FREE ENERGY PREDICTED BY IDOCK:   -0.11 KCAL/MOL
REMARK 927      BINDING AFFINITY PREDICTED BY RF-SCORE:    0.00 PKD
ROOT
HETATM    1  C   UNL     1      -9.226   8.183  68.858  1.00  0.00    -0.147 C  
HETATM    2  N   UNL     1      -8.797   7.569  70.121  1.00  0.00    -0.146 NA 
HETATM    3  H1  UNL     1      -5.684   7.022  69.427  1.00  0.00     0.000 HD 
HETATM    4  C   UNL     1      -7.538   7.037  70.244  1.00  0.00    -0.087 C  
HETATM    5  N   UNL     1      -7.104   6.285  71.192  1.00  0.00    -0.072 NA 
HETATM    6  H2  UNL     1      -7.768   6.059  71.933  1.00  0.00     0.000 HD 
HETATM    7  N   UNL     1      -6.621   7.417  69.335  1.00  0.00    -0.036 NA 
HETATM    8  H2  UNL     1      -6.851   8.072  68.588  1.00  0.00     0.000 HD 
HETATM    9  H1  UNL     1      -6.168   5.889  71.284  1.00  0.00     0.000 HD 
ENDROOT
BRANCH   2  10
HETATM   10  C   UNL     1      -9.925   7.075  70.954  1.00  0.00    -0.193 C  
HETATM   11  C   UNL     1     -10.193   7.925  72.192  1.00  0.00    -0.227 C  
HETATM   12  O   UNL     1     -11.103   7.687  72.977  1.00  0.00    -0.387 OA 
HETATM   13  O   UNL     1      -9.345   8.962  72.374  1.00  0.00    -0.342 OA 
ENDBRANCH   2  10
TORSDOF 1
ENDMDL
MODEL      199
REMARK 921   NORMALIZED FREE ENERGY PREDICTED BY IDOCK:   -1.52 KCAL/MOL
REMARK 922        TOTAL FREE ENERGY PREDICTED BY IDOCK:   -1.74 KCAL/MOL
REMARK 923 INTER-LIGAND FREE ENERGY PREDICTED BY IDOCK:   -1.62 KCAL/MOL
REMARK 924 INTRA-LIGAND FREE ENERGY PREDICTED BY IDOCK:   -0.12 KCAL/MOL
REMARK 927      BINDING AFFINITY PREDICTED BY RF-SCORE:    0.00 PKD
ROOT
HETATM    1  C   UNL     1      -8.822   8.514  65.087  1.00  0.00    -0.071 C  
HETATM    2  N   UNL     1      -8.663   9.394  66.251  1.00  0.00    -0.137 NA 
HETATM    3  H1  UNL     1      -6.675  11.612  64.988  1.00  0.00     0.000 HD 
HETATM    4  C   UNL     1      -7.771  10.436  66.222  1.00  0.00    -0.129 C  
HETATM    5  N   UNL     1      -7.369  11.141  67.218  1.00  0.00    -0.111 NA 
HETATM    6  H2  UNL     1      -7.757  10.900  68.130  1.00  0.00     0.000 HD 
HETATM    7  N   UNL     1      -7.339  10.837  65.011  1.00  0.00    -0.356 NA 
HETATM    8  H2  UNL     1      -7.661  10.387  64.154  1.00  0.00     0.000 HD 
HETATM    9  H1  UNL     1      -6.705  11.916  67.196  1.00  0.00     0.000 HD 
ENDROOT
BRANCH   2  10
HETATM   10  C   UNL     1      -9.057   8.756  67.535  1.00  0.00    -0.133 C  
HETATM   11  C   UNL     1     -10.383   9.263  68.093  1.00  0.00    -0.215 C  
HETATM   12  O   UNL     1     -10.879   8.828  69.126  1.00  0.00    -0.173 OA 
HETATM   13  O   UNL     1     -10.975  10.241  67.372  1.00  0.00    -0.293 OA 
ENDBRANCH   2  10
TORSDOF 1
ENDMDL
MODEL      200
REMARK 921   NORMALIZED FREE ENERGY PREDICTED BY IDOCK:   -1.52 KCAL/MOL
REMARK 922        TOTAL FREE ENERGY PREDICTED BY IDOCK:   -1.73 KCAL/MOL
REMARK 923 INTER-LIGAND FREE ENERGY PREDICTED BY IDOCK:   -1.67 KCAL/MOL
REMARK 924 INTRA-LIGAND FREE ENERGY PREDICTED BY IDOCK:   -0.06 KCAL/MOL
REMARK 927      BINDING AFFINITY PREDICTED BY RF-SCORE:    0.00 PKD
ROOT
HETATM    1  C   UNL     1     -10.476   6.905  68.112  1.00  0.00    -0.204 C  
HETATM    2  N   UNL     1      -9.624   5.897  67.469  1.00  0.00    -0.110 NA 
HETATM    3  H1  UNL     1     -11.687   4.789  65.237  1.00  0.00     0.000 HD 
HETATM    4  C   UNL     1     -10.139   5.054  66.517  1.00  0.00    -0.248 C  
HETATM    5  N   UNL     1      -9.587   3.999  66.035  1.00  0.00    -0.186 NA 
HETATM    6  H2  UNL     1      -8.664   3.762  66.401  1.00  0.00     0.000 HD 
HETATM    7  N   UNL     1     -11.304   5.416  65.945  1.00  0.00    -0.666 NA 
HETATM    8  H2  UNL     1     -11.781   6.278  66.207  1.00  0.00     0.000 HD 
HETATM    9  H1  UNL     1      -9.970   3.372  65.327  1.00  0.00     0.000 HD 
ENDROOT
BRANCH   2  10
HETATM   10  C   UNL     1      -8.448   5.503  68.289  1.00  0.00    -0.097 C  
HETATM   11  C   UNL     1      -7.108   5.819  67.634  1.00  0.00    -0.074 C  
HETATM   12  O   UNL     1      -6.033   5.593  68.178  1.00  0.00    -0.016 OA 
HETATM   13  O   UNL     1      -7.184   6.360  66.398  1.00  0.00    -0.070 OA 
ENDBRANCH   2  10
TORSDOF 1
ENDMDL
MODEL      201
REMARK 921   NORMALIZED FREE ENERGY PREDICTED BY IDOCK:   -1.51 KCAL/MOL
REMARK 922        TOTAL FREE ENERGY PREDICTED BY IDOCK:   -1.73 KCAL/MOL
REMARK 923 INTER-LIGAND FREE ENERGY PREDICTED BY IDOCK:   -1.69 KCAL/MOL
REMARK 924 INTRA-LIGAND FREE ENERGY PREDICTED BY IDOCK:   -0.03 KCAL/MOL
REMARK 927      BINDING AFFINITY PREDICTED BY RF-SCORE:    0.00 PKD
ROOT
HETATM    1  C   UNL     1     -11.404   5.494  72.802  1.00  0.00    -0.303 C  
HETATM    2  N   UNL     1     -10.019   5.643  73.266  1.00  0.00    -0.172 NA 
HETATM    3  H1  UNL     1      -9.448   2.614  74.250  1.00  0.00     0.000 HD 
HETATM    4  C   UNL     1      -9.385   4.611  73.909  1.00  0.00    -0.117 C  
HETATM    5  N   UNL     1      -8.275   4.665  74.556  1.00  0.00    -0.094 NA 
HETATM    6  H2  UNL     1      -7.816   5.575  74.594  1.00  0.00     0.000 HD 
HETATM    7  N   UNL     1      -9.920   3.382  73.772  1.00  0.00    -0.112 NA 
HETATM    8  H2  UNL     1     -10.759   3.227  73.213  1.00  0.00     0.000 HD 
HETATM    9  H1  UNL     1      -7.803   3.897  75.034  1.00  0.00     0.000 HD 
ENDROOT
BRANCH   2  10
HETATM   10  C   UNL     1      -9.621   7.056  73.503  1.00  0.00    -0.208 C  
HETATM   11  C   UNL     1      -9.067   7.755  72.265  1.00  0.00    -0.149 C  
HETATM   12  O   UNL     1      -8.719   8.930  72.266  1.00  0.00    -0.395 OA 
HETATM   13  O   UNL     1      -8.975   6.982  71.160  1.00  0.00    -0.145 OA 
ENDBRANCH   2  10
TORSDOF 1
ENDMDL
MODEL      202
REMARK 921   NORMALIZED FREE ENERGY PREDICTED BY IDOCK:   -1.51 KCAL/MOL
REMARK 922        TOTAL FREE ENERGY PREDICTED BY IDOCK:   -1.72 KCAL/MOL
REMARK 923 INTER-LIGAND FREE ENERGY PREDICTED BY IDOCK:   -1.97 KCAL/MOL
REMARK 924 INTRA-LIGAND FREE ENERGY PREDICTED BY IDOCK:    0.25 KCAL/MOL
REMARK 927      BINDING AFFINITY PREDICTED BY RF-SCORE:    0.00 PKD
ROOT
HETATM    1  C   UNL     1     -11.405   6.332  69.951  1.00  0.00    -0.434 C  
HETATM    2  N   UNL     1     -10.175   7.021  69.541  1.00  0.00    -0.193 NA 
HETATM    3  H1  UNL     1     -10.846  10.004  70.601  1.00  0.00     0.000 HD 
HETATM    4  C   UNL     1     -10.062   8.382  69.672  1.00  0.00    -0.199 C  
HETATM    5  N   UNL     1      -9.155   9.138  69.164  1.00  0.00    -0.142 NA 
HETATM    6  H2  UNL     1      -8.441   8.675  68.601  1.00  0.00     0.000 HD 
HETATM    7  N   UNL     1     -10.930   8.992  70.503  1.00  0.00    -0.242 NA 
HETATM    8  H2  UNL     1     -11.639   8.464  71.012  1.00  0.00     0.000 HD 
HETATM    9  H1  UNL     1      -9.071  10.150  69.262  1.00  0.00     0.000 HD 
ENDROOT
BRANCH   2  10
HETATM   10  C   UNL     1      -9.394   6.281  68.515  1.00  0.00    -0.121 C  
HETATM   11  C   UNL     1      -9.854   6.544  67.084  1.00  0.00    -0.148 C  
HETATM   12  O   UNL     1      -9.306   6.045  66.108  1.00  0.00    -0.161 OA 
HETATM   13  O   UNL     1     -10.921   7.364  66.964  1.00  0.00    -0.332 OA 
ENDBRANCH   2  10
TORSDOF 1
ENDMDL
MODEL      203
REMARK 921   NORMALIZED FREE ENERGY PREDICTED BY IDOCK:   -1.50 KCAL/MOL
REMARK 922        TOTAL FREE ENERGY PREDICTED BY IDOCK:   -1.71 KCAL/MOL
REMARK 923 INTER-LIGAND FREE ENERGY PREDICTED BY IDOCK:   -1.65 KCAL/MOL
REMARK 924 INTRA-LIGAND FREE ENERGY PREDICTED BY IDOCK:   -0.06 KCAL/MOL
REMARK 927      BINDING AFFINITY PREDICTED BY RF-SCORE:    0.00 PKD
ROOT
HETATM    1  C   UNL     1      -9.962   4.926  68.699  1.00  0.00    -0.125 C  
HETATM    2  N   UNL     1     -10.136   5.045  70.152  1.00  0.00    -0.253 NA 
HETATM    3  H1  UNL     1      -9.152   2.098  71.058  1.00  0.00     0.000 HD 
HETATM    4  C   UNL     1      -9.960   3.954  70.966  1.00  0.00    -0.079 C  
HETATM    5  N   UNL     1     -10.285   3.851  72.205  1.00  0.00    -0.171 NA 
HETATM    6  H2  UNL     1     -10.722   4.670  72.630  1.00  0.00     0.000 HD 
HETATM    7  N   UNL     1      -9.283   2.909  70.452  1.00  0.00    -0.127 NA 
HETATM    8  H2  UNL     1      -8.918   2.927  69.500  1.00  0.00     0.000 HD 
HETATM    9  H1  UNL     1     -10.154   3.041  72.811  1.00  0.00     0.000 HD 
ENDROOT
BRANCH   2  10
HETATM   10  C   UNL     1     -11.022   6.169  70.554  1.00  0.00    -0.318 C  
HETATM   11  C   UNL     1     -10.330   7.219  71.417  1.00  0.00    -0.199 C  
HETATM   12  O   UNL     1     -10.896   8.231  71.814  1.00  0.00    -0.235 OA 
HETATM   13  O   UNL     1      -9.041   6.953  71.725  1.00  0.00    -0.139 OA 
ENDBRANCH   2  10
TORSDOF 1
ENDMDL
MODEL      204
REMARK 921   NORMALIZED FREE ENERGY PREDICTED BY IDOCK:   -1.48 KCAL/MOL
REMARK 922        TOTAL FREE ENERGY PREDICTED BY IDOCK:   -1.70 KCAL/MOL
REMARK 923 INTER-LIGAND FREE ENERGY PREDICTED BY IDOCK:   -1.60 KCAL/MOL
REMARK 924 INTRA-LIGAND FREE ENERGY PREDICTED BY IDOCK:   -0.10 KCAL/MOL
REMARK 927      BINDING AFFINITY PREDICTED BY RF-SCORE:    0.00 PKD
ROOT
HETATM    1  C   UNL     1      -8.352   7.126  68.639  1.00  0.00    -0.125 C  
HETATM    2  N   UNL     1      -9.294   6.008  68.770  1.00  0.00    -0.122 NA 
HETATM    3  H1  UNL     1      -7.671   3.737  67.134  1.00  0.00     0.000 HD 
HETATM    4  C   UNL     1      -9.078   4.832  68.097  1.00  0.00    -0.117 C  
HETATM    5  N   UNL     1      -9.909   3.864  67.940  1.00  0.00    -0.064 NA 
HETATM    6  H2  UNL     1     -10.830   3.984  68.361  1.00  0.00     0.000 HD 
HETATM    7  N   UNL     1      -7.832   4.612  67.634  1.00  0.00    -0.089 NA 
HETATM    8  H2  UNL     1      -7.084   5.289  67.777  1.00  0.00     0.000 HD 
HETATM    9  H1  UNL     1      -9.747   2.989  67.440  1.00  0.00     0.000 HD 
ENDROOT
BRANCH   2  10
HETATM   10  C   UNL     1     -10.667   6.430  69.156  1.00  0.00    -0.284 C  
HETATM   11  C   UNL     1     -10.926   6.376  70.659  1.00  0.00    -0.298 C  
HETATM   12  O   UNL     1     -11.990   6.718  71.162  1.00  0.00    -0.339 OA 
HETATM   13  O   UNL     1      -9.899   5.911  71.404  1.00  0.00    -0.164 OA 
ENDBRANCH   2  10
TORSDOF 1
ENDMDL
MODEL      205
REMARK 921   NORMALIZED FREE ENERGY PREDICTED BY IDOCK:   -1.48 KCAL/MOL
REMARK 922        TOTAL FREE ENERGY PREDICTED BY IDOCK:   -1.69 KCAL/MOL
REMARK 923 INTER-LIGAND FREE ENERGY PREDICTED BY IDOCK:   -1.58 KCAL/MOL
REMARK 924 INTRA-LIGAND FREE ENERGY PREDICTED BY IDOCK:   -0.11 KCAL/MOL
REMARK 927      BINDING AFFINITY PREDICTED BY RF-SCORE:    0.00 PKD
ROOT
HETATM    1  C   UNL     1     -10.751   6.481  68.603  1.00  0.00    -0.271 C  
HETATM    2  N   UNL     1      -9.648   7.082  67.843  1.00  0.00    -0.124 NA 
HETATM    3  H1  UNL     1     -11.030   9.883  67.001  1.00  0.00     0.000 HD 
HETATM    4  C   UNL     1      -9.830   8.259  67.162  1.00  0.00    -0.217 C  
HETATM    5  N   UNL     1      -9.042   8.781  66.291  1.00  0.00    -0.179 NA 
HETATM    6  H2  UNL     1      -8.188   8.263  66.083  1.00  0.00     0.000 HD 
HETATM    7  N   UNL     1     -10.895   9.008  67.507  1.00  0.00    -0.466 NA 
HETATM    8  H2  UNL     1     -11.537   8.713  68.243  1.00  0.00     0.000 HD 
HETATM    9  H1  UNL     1      -9.177   9.656  65.785  1.00  0.00     0.000 HD 
ENDROOT
BRANCH   2  10
HETATM   10  C   UNL     1      -8.617   6.098  67.415  1.00  0.00    -0.106 C  
HETATM   11  C   UNL     1      -7.405   6.038  68.339  1.00  0.00    -0.085 C  
HETATM   12  O   UNL     1      -6.473   5.263  68.161  1.00  0.00    -0.044 OA 
HETATM   13  O   UNL     1      -7.423   6.910  69.371  1.00  0.00    -0.089 OA 
ENDBRANCH   2  10
TORSDOF 1
ENDMDL
MODEL      206
REMARK 921   NORMALIZED FREE ENERGY PREDICTED BY IDOCK:   -1.46 KCAL/MOL
REMARK 922        TOTAL FREE ENERGY PREDICTED BY IDOCK:   -1.67 KCAL/MOL
REMARK 923 INTER-LIGAND FREE ENERGY PREDICTED BY IDOCK:   -1.61 KCAL/MOL
REMARK 924 INTRA-LIGAND FREE ENERGY PREDICTED BY IDOCK:   -0.06 KCAL/MOL
REMARK 927      BINDING AFFINITY PREDICTED BY RF-SCORE:    0.00 PKD
ROOT
HETATM    1  C   UNL     1      -9.965   4.847  68.468  1.00  0.00    -0.115 C  
HETATM    2  N   UNL     1     -10.103   5.778  69.595  1.00  0.00    -0.193 NA 
HETATM    3  H1  UNL     1      -9.029   3.890  71.993  1.00  0.00     0.000 HD 
HETATM    4  C   UNL     1      -9.881   5.354  70.881  1.00  0.00    -0.188 C  
HETATM    5  N   UNL     1     -10.172   5.980  71.965  1.00  0.00    -0.191 NA 
HETATM    6  H2  UNL     1     -10.616   6.892  71.857  1.00  0.00     0.000 HD 
HETATM    7  N   UNL     1      -9.195   4.205  71.037  1.00  0.00    -0.124 NA 
HETATM    8  H2  UNL     1      -8.855   3.675  70.235  1.00  0.00     0.000 HD 
HETATM    9  H1  UNL     1     -10.006   5.664  72.921  1.00  0.00     0.000 HD 
ENDROOT
BRANCH   2  10
HETATM   10  C   UNL     1     -11.004   6.925  69.309  1.00  0.00    -0.221 C  
HETATM   11  C   UNL     1     -10.314   8.283  69.388  1.00  0.00    -0.222 C  
HETATM   12  O   UNL     1     -10.893   9.337  69.152  1.00  0.00    -0.213 OA 
HETATM   13  O   UNL     1      -9.012   8.248  69.749  1.00  0.00    -0.144 OA 
ENDBRANCH   2  10
TORSDOF 1
ENDMDL
MODEL      207
REMARK 921   NORMALIZED FREE ENERGY PREDICTED BY IDOCK:   -1.46 KCAL/MOL
REMARK 922        TOTAL FREE ENERGY PREDICTED BY IDOCK:   -1.67 KCAL/MOL
REMARK 923 INTER-LIGAND FREE ENERGY PREDICTED BY IDOCK:   -1.97 KCAL/MOL
REMARK 924 INTRA-LIGAND FREE ENERGY PREDICTED BY IDOCK:    0.30 KCAL/MOL
REMARK 927      BINDING AFFINITY PREDICTED BY RF-SCORE:    0.00 PKD
ROOT
HETATM    1  C   UNL     1      -8.594  10.716  67.984  1.00  0.00    -0.122 C  
HETATM    2  N   UNL     1      -9.574   9.992  68.804  1.00  0.00    -0.162 NA 
HETATM    3  H1  UNL     1      -7.902   9.753  71.563  1.00  0.00     0.000 HD 
HETATM    4  C   UNL     1      -9.239   9.541  70.055  1.00  0.00    -0.234 C  
HETATM    5  N   UNL     1      -9.902   8.718  70.786  1.00  0.00    -0.190 NA 
HETATM    6  H2  UNL     1     -10.773   8.361  70.392  1.00  0.00     0.000 HD 
HETATM    7  N   UNL     1      -8.152  10.088  70.633  1.00  0.00    -0.386 NA 
HETATM    8  H2  UNL     1      -7.603  10.807  70.161  1.00  0.00     0.000 HD 
HETATM    9  H1  UNL     1      -9.652   8.382  71.717  1.00  0.00     0.000 HD 
ENDROOT
BRANCH   2  10
HETATM   10  C   UNL     1     -10.638   9.326  68.006  1.00  0.00    -0.208 C  
HETATM   11  C   UNL     1     -10.209   7.994  67.400  1.00  0.00    -0.261 C  
HETATM   12  O   UNL     1     -10.964   7.291  66.739  1.00  0.00    -0.284 OA 
HETATM   13  O   UNL     1      -8.925   7.642  67.634  1.00  0.00    -0.127 OA 
ENDBRANCH   2  10
TORSDOF 1
ENDMDL
MODEL      208
REMARK 921   NORMALIZED FREE ENERGY PREDICTED BY IDOCK:   -1.45 KCAL/MOL
REMARK 922        TOTAL FREE ENERGY PREDICTED BY IDOCK:   -1.66 KCAL/MOL
REMARK 923 INTER-LIGAND FREE ENERGY PREDICTED BY IDOCK:   -1.55 KCAL/MOL
REMARK 924 INTRA-LIGAND FREE ENERGY PREDICTED BY IDOCK:   -0.11 KCAL/MOL
REMARK 927      BINDING AFFINITY PREDICTED BY RF-SCORE:    0.00 PKD
ROOT
HETATM    1  C   UNL     1      -6.969  11.459  67.038  1.00  0.00    -0.135 C  
HETATM    2  N   UNL     1      -8.426  11.551  67.196  1.00  0.00    -0.152 NA 
HETATM    3  H1  UNL     1      -9.023   8.619  68.427  1.00  0.00     0.000 HD 
HETATM    4  C   UNL     1      -9.156  10.453  67.577  1.00  0.00    -0.134 C  
HETATM    5  N   UNL     1     -10.434  10.322  67.543  1.00  0.00    -0.226 NA 
HETATM    6  H2  UNL     1     -10.964  11.122  67.195  1.00  0.00     0.000 HD 
HETATM    7  N   UNL     1      -8.481   9.435  68.144  1.00  0.00    -0.120 NA 
HETATM    8  H2  UNL     1      -7.471   9.478  68.283  1.00  0.00     0.000 HD 
HETATM    9  H1  UNL     1     -10.977   9.506  67.827  1.00  0.00     0.000 HD 
ENDROOT
BRANCH   2  10
HETATM   10  C   UNL     1      -9.042  12.644  66.398  1.00  0.00    -0.110 C  
HETATM   11  C   UNL     1      -9.512  13.828  67.236  1.00  0.00    -0.236 C  
HETATM   12  O   UNL     1     -10.014  14.832  66.745  1.00  0.00    -0.241 OA 
HETATM   13  O   UNL     1      -9.345  13.691  68.571  1.00  0.00    -0.194 OA 
ENDBRANCH   2  10
TORSDOF 1
ENDMDL
MODEL      209
REMARK 921   NORMALIZED FREE ENERGY PREDICTED BY IDOCK:   -1.42 KCAL/MOL
REMARK 922        TOTAL FREE ENERGY PREDICTED BY IDOCK:   -1.62 KCAL/MOL
REMARK 923 INTER-LIGAND FREE ENERGY PREDICTED BY IDOCK:   -1.87 KCAL/MOL
REMARK 924 INTRA-LIGAND FREE ENERGY PREDICTED BY IDOCK:    0.25 KCAL/MOL
REMARK 927      BINDING AFFINITY PREDICTED BY RF-SCORE:    0.00 PKD
ROOT
HETATM    1  C   UNL     1      -9.950   7.474  68.588  1.00  0.00    -0.172 C  
HETATM    2  N   UNL     1      -9.132   7.076  67.436  1.00  0.00    -0.123 NA 
HETATM    3  H1  UNL     1      -9.851   9.487  65.401  1.00  0.00     0.000 HD 
HETATM    4  C   UNL     1      -9.223   7.756  66.248  1.00  0.00    -0.166 C  
HETATM    5  N   UNL     1      -8.747   7.396  65.110  1.00  0.00    -0.362 NA 
HETATM    6  H2  UNL     1      -8.245   6.508  65.087  1.00  0.00     0.000 HD 
HETATM    7  N   UNL     1      -9.783   8.981  66.285  1.00  0.00    -0.256 NA 
HETATM    8  H2  UNL     1     -10.122   9.385  67.158  1.00  0.00     0.000 HD 
HETATM    9  H1  UNL     1      -8.815   7.902  64.226  1.00  0.00     0.000 HD 
ENDROOT
BRANCH   2  10
HETATM   10  C   UNL     1      -8.705   5.652  67.475  1.00  0.00    -0.107 C  
HETATM   11  C   UNL     1      -9.725   4.687  66.880  1.00  0.00    -0.197 C  
HETATM   12  O   UNL     1      -9.530   3.480  66.799  1.00  0.00    -0.196 OA 
HETATM   13  O   UNL     1     -10.875   5.256  66.453  1.00  0.00    -0.292 OA 
ENDBRANCH   2  10
TORSDOF 1
ENDMDL
MODEL      210
REMARK 921   NORMALIZED FREE ENERGY PREDICTED BY IDOCK:   -1.41 KCAL/MOL
REMARK 922        TOTAL FREE ENERGY PREDICTED BY IDOCK:   -1.62 KCAL/MOL
REMARK 923 INTER-LIGAND FREE ENERGY PREDICTED BY IDOCK:   -1.62 KCAL/MOL
REMARK 924 INTRA-LIGAND FREE ENERGY PREDICTED BY IDOCK:    0.00 KCAL/MOL
REMARK 927      BINDING AFFINITY PREDICTED BY RF-SCORE:    0.00 PKD
ROOT
HETATM    1  C   UNL     1     -11.731   6.565  70.288  1.00  0.00    -0.366 C  
HETATM    2  N   UNL     1     -10.493   6.053  69.688  1.00  0.00    -0.232 NA 
HETATM    3  H1  UNL     1      -8.730   5.619  72.366  1.00  0.00     0.000 HD 
HETATM    4  C   UNL     1      -9.377   5.847  70.459  1.00  0.00    -0.163 C  
HETATM    5  N   UNL     1      -8.181   5.619  70.048  1.00  0.00    -0.108 NA 
HETATM    6  H2  UNL     1      -8.047   5.589  69.037  1.00  0.00     0.000 HD 
HETATM    7  N   UNL     1      -9.560   5.773  71.792  1.00  0.00    -0.155 NA 
HETATM    8  H2  UNL     1     -10.486   5.865  72.209  1.00  0.00     0.000 HD 
HETATM    9  H1  UNL     1      -7.352   5.466  70.622  1.00  0.00     0.000 HD 
ENDROOT
BRANCH   2  10
HETATM   10  C   UNL     1     -10.379   6.335  68.232  1.00  0.00    -0.194 C  
HETATM   11  C   UNL     1     -10.129   5.093  67.383  1.00  0.00    -0.179 C  
HETATM   12  O   UNL     1     -10.039   5.131  66.161  1.00  0.00    -0.190 OA 
HETATM   13  O   UNL     1     -10.001   3.939  68.075  1.00  0.00    -0.038 OA 
ENDBRANCH   2  10
TORSDOF 1
ENDMDL
MODEL      211
REMARK 921   NORMALIZED FREE ENERGY PREDICTED BY IDOCK:   -1.41 KCAL/MOL
REMARK 922        TOTAL FREE ENERGY PREDICTED BY IDOCK:   -1.61 KCAL/MOL
REMARK 923 INTER-LIGAND FREE ENERGY PREDICTED BY IDOCK:   -1.87 KCAL/MOL
REMARK 924 INTRA-LIGAND FREE ENERGY PREDICTED BY IDOCK:    0.25 KCAL/MOL
REMARK 927      BINDING AFFINITY PREDICTED BY RF-SCORE:    0.00 PKD
ROOT
HETATM    1  C   UNL     1      -9.261   7.283  68.528  1.00  0.00    -0.138 C  
HETATM    2  N   UNL     1     -10.353   7.253  69.509  1.00  0.00    -0.218 NA 
HETATM    3  H1  UNL     1     -11.452  10.279  69.192  1.00  0.00     0.000 HD 
HETATM    4  C   UNL     1     -11.041   8.397  69.822  1.00  0.00    -0.056 C  
HETATM    5  N   UNL     1     -11.856   8.570  70.801  1.00  0.00    -0.441 NA 
HETATM    6  H2  UNL     1     -12.006   7.767  71.413  1.00  0.00     0.000 HD 
HETATM    7  N   UNL     1     -10.940   9.428  68.960  1.00  0.00    -0.411 NA 
HETATM    8  H2  UNL     1     -10.376   9.359  68.113  1.00  0.00     0.000 HD 
HETATM    9  H1  UNL     1     -12.368   9.421  71.033  1.00  0.00     0.000 HD 
ENDROOT
BRANCH   2  10
HETATM   10  C   UNL     1     -10.248   6.130  70.479  1.00  0.00    -0.199 C  
HETATM   11  C   UNL     1      -9.431   6.467  71.722  1.00  0.00    -0.153 C  
HETATM   12  O   UNL     1      -9.265   5.674  72.642  1.00  0.00    -0.138 OA 
HETATM   13  O   UNL     1      -8.889   7.704  71.738  1.00  0.00    -0.113 OA 
ENDBRANCH   2  10
TORSDOF 1
ENDMDL
MODEL      212
REMARK 921   NORMALIZED FREE ENERGY PREDICTED BY IDOCK:   -1.39 KCAL/MOL
REMARK 922        TOTAL FREE ENERGY PREDICTED BY IDOCK:   -1.60 KCAL/MOL
REMARK 923 INTER-LIGAND FREE ENERGY PREDICTED BY IDOCK:   -1.61 KCAL/MOL
REMARK 924 INTRA-LIGAND FREE ENERGY PREDICTED BY IDOCK:    0.02 KCAL/MOL
REMARK 927      BINDING AFFINITY PREDICTED BY RF-SCORE:    0.00 PKD
ROOT
HETATM    1  C   UNL     1      -9.565   5.710  71.143  1.00  0.00    -0.168 C  
HETATM    2  N   UNL     1      -9.379   7.015  70.498  1.00  0.00    -0.159 NA 
HETATM    3  H1  UNL     1      -7.415   6.151  68.077  1.00  0.00     0.000 HD 
HETATM    4  C   UNL     1      -8.485   7.163  69.468  1.00  0.00    -0.134 C  
HETATM    5  N   UNL     1      -8.061   8.266  68.962  1.00  0.00    -0.116 NA 
HETATM    6  H2  UNL     1      -8.428   9.125  69.372  1.00  0.00     0.000 HD 
HETATM    7  N   UNL     1      -8.079   6.041  68.844  1.00  0.00    -0.103 NA 
HETATM    8  H2  UNL     1      -8.421   5.122  69.125  1.00  0.00     0.000 HD 
HETATM    9  H1  UNL     1      -7.396   8.375  68.195  1.00  0.00     0.000 HD 
ENDROOT
BRANCH   2  10
HETATM   10  C   UNL     1      -9.745   8.164  71.369  1.00  0.00    -0.171 C  
HETATM   11  C   UNL     1     -11.234   8.495  71.356  1.00  0.00    -0.266 C  
HETATM   12  O   UNL     1     -11.722   9.390  72.036  1.00  0.00    -0.355 OA 
HETATM   13  O   UNL     1     -11.986   7.735  70.528  1.00  0.00    -0.143 OA 
ENDBRANCH   2  10
TORSDOF 1
ENDMDL
MODEL      213
REMARK 921   NORMALIZED FREE ENERGY PREDICTED BY IDOCK:   -1.38 KCAL/MOL
REMARK 922        TOTAL FREE ENERGY PREDICTED BY IDOCK:   -1.59 KCAL/MOL
REMARK 923 INTER-LIGAND FREE ENERGY PREDICTED BY IDOCK:   -1.46 KCAL/MOL
REMARK 924 INTRA-LIGAND FREE ENERGY PREDICTED BY IDOCK:   -0.13 KCAL/MOL
REMARK 927      BINDING AFFINITY PREDICTED BY RF-SCORE:    0.00 PKD
ROOT
HETATM    1  C   UNL     1     -11.325   6.138  71.841  1.00  0.00    -0.296 C  
HETATM    2  N   UNL     1     -10.142   5.307  71.582  1.00  0.00    -0.192 NA 
HETATM    3  H1  UNL     1     -10.470   3.139  73.961  1.00  0.00     0.000 HD 
HETATM    4  C   UNL     1      -9.788   4.307  72.452  1.00  0.00    -0.158 C  
HETATM    5  N   UNL     1      -8.681   3.655  72.477  1.00  0.00    -0.089 NA 
HETATM    6  H2  UNL     1      -7.989   3.911  71.772  1.00  0.00     0.000 HD 
HETATM    7  N   UNL     1     -10.733   3.883  73.314  1.00  0.00    -0.186 NA 
HETATM    8  H2  UNL     1     -11.669   4.287  73.320  1.00  0.00     0.000 HD 
HETATM    9  H1  UNL     1      -8.418   2.912  73.124  1.00  0.00     0.000 HD 
ENDROOT
BRANCH   2  10
HETATM   10  C   UNL     1      -9.127   5.971  70.722  1.00  0.00    -0.153 C  
HETATM   11  C   UNL     1      -9.130   5.482  69.278  1.00  0.00    -0.112 C  
HETATM   12  O   UNL     1      -8.384   5.939  68.420  1.00  0.00    -0.111 OA 
HETATM   13  O   UNL     1     -10.011   4.494  69.006  1.00  0.00    -0.165 OA 
ENDBRANCH   2  10
TORSDOF 1
ENDMDL
MODEL      214
REMARK 921   NORMALIZED FREE ENERGY PREDICTED BY IDOCK:   -1.37 KCAL/MOL
REMARK 922        TOTAL FREE ENERGY PREDICTED BY IDOCK:   -1.57 KCAL/MOL
REMARK 923 INTER-LIGAND FREE ENERGY PREDICTED BY IDOCK:   -1.52 KCAL/MOL
REMARK 924 INTRA-LIGAND FREE ENERGY PREDICTED BY IDOCK:   -0.05 KCAL/MOL
REMARK 927      BINDING AFFINITY PREDICTED BY RF-SCORE:    0.00 PKD
ROOT
HETATM    1  C   UNL     1     -11.572  16.921  73.237  1.00  0.00     0.447 C  
HETATM    2  N   UNL     1     -11.953  15.685  72.541  1.00  0.00    -0.420 NA 
HETATM    3  H1  UNL     1     -12.825  13.880  75.081  1.00  0.00     0.000 HD 
HETATM    4  C   UNL     1     -12.276  14.556  73.251  1.00  0.00    -0.096 C  
HETATM    5  N   UNL     1     -12.411  13.364  72.792  1.00  0.00     0.261 NA 
HETATM    6  H2  UNL     1     -12.263  13.243  71.790  1.00  0.00     0.000 HD 
HETATM    7  N   UNL     1     -12.585  14.719  74.552  1.00  0.00    -0.499 NA 
HETATM    8  H2  UNL     1     -12.580  15.640  74.990  1.00  0.00     0.000 HD 
HETATM    9  H1  UNL     1     -12.652  12.524  73.321  1.00  0.00     0.000 HD 
ENDROOT
BRANCH   2  10
HETATM   10  C   UNL     1     -11.419  15.595  71.156  1.00  0.00    -0.411 C  
HETATM   11  C   UNL     1     -12.499  15.445  70.090  1.00  0.00    -0.335 C  
HETATM   12  O   UNL     1     -12.246  15.387  68.892  1.00  0.00    -0.231 OA 
HETATM   13  O   UNL     1     -13.765  15.368  70.558  1.00  0.00    -0.237 OA 
ENDBRANCH   2  10
TORSDOF 1
ENDMDL
MODEL      215
REMARK 921   NORMALIZED FREE ENERGY PREDICTED BY IDOCK:   -1.36 KCAL/MOL
REMARK 922        TOTAL FREE ENERGY PREDICTED BY IDOCK:   -1.57 KCAL/MOL
REMARK 923 INTER-LIGAND FREE ENERGY PREDICTED BY IDOCK:   -1.94 KCAL/MOL
REMARK 924 INTRA-LIGAND FREE ENERGY PREDICTED BY IDOCK:    0.37 KCAL/MOL
REMARK 927      BINDING AFFINITY PREDICTED BY RF-SCORE:    0.00 PKD
ROOT
HETATM    1  C   UNL     1     -11.140   9.989  69.002  1.00  0.00    -0.180 C  
HETATM    2  N   UNL     1     -10.002  10.448  68.197  1.00  0.00    -0.147 NA 
HETATM    3  H1  UNL     1      -7.627  10.100  70.367  1.00  0.00     0.000 HD 
HETATM    4  C   UNL     1      -8.763  10.603  68.766  1.00  0.00    -0.157 C  
HETATM    5  N   UNL     1      -7.743  11.194  68.254  1.00  0.00    -0.109 NA 
HETATM    6  H2  UNL     1      -7.869  11.593  67.323  1.00  0.00     0.000 HD 
HETATM    7  N   UNL     1      -8.548   9.985  69.944  1.00  0.00    -0.318 NA 
HETATM    8  H2  UNL     1      -9.275   9.428  70.392  1.00  0.00     0.000 HD 
HETATM    9  H1  UNL     1      -6.821  11.309  68.677  1.00  0.00     0.000 HD 
ENDROOT
BRANCH   2  10
HETATM   10  C   UNL     1     -10.401  11.234  66.999  1.00  0.00    -0.227 C  
HETATM   11  C   UNL     1     -10.992  12.600  67.329  1.00  0.00    -0.256 C  
HETATM   12  O   UNL     1     -11.347  13.396  66.468  1.00  0.00    -0.304 OA 
HETATM   13  O   UNL     1     -11.110  12.874  68.648  1.00  0.00    -0.244 OA 
ENDBRANCH   2  10
TORSDOF 1
ENDMDL
MODEL      216
REMARK 921   NORMALIZED FREE ENERGY PREDICTED BY IDOCK:   -1.36 KCAL/MOL
REMARK 922        TOTAL FREE ENERGY PREDICTED BY IDOCK:   -1.57 KCAL/MOL
REMARK 923 INTER-LIGAND FREE ENERGY PREDICTED BY IDOCK:   -1.89 KCAL/MOL
REMARK 924 INTRA-LIGAND FREE ENERGY PREDICTED BY IDOCK:    0.32 KCAL/MOL
REMARK 927      BINDING AFFINITY PREDICTED BY RF-SCORE:    0.00 PKD
ROOT
HETATM    1  C   UNL     1      -9.234  14.553  66.329  1.00  0.00    -0.198 C  
HETATM    2  N   UNL     1      -9.274  14.618  67.796  1.00  0.00    -0.192 NA 
HETATM    3  H1  UNL     1      -6.425  16.048  68.353  1.00  0.00     0.000 HD 
HETATM    4  C   UNL     1      -8.179  15.045  68.505  1.00  0.00    -0.151 C  
HETATM    5  N   UNL     1      -7.990  14.948  69.772  1.00  0.00    -0.414 NA 
HETATM    6  H2  UNL     1      -8.736  14.505  70.310  1.00  0.00     0.000 HD 
HETATM    7  N   UNL     1      -7.239  15.730  67.826  1.00  0.00    -0.139 NA 
HETATM    8  H2  UNL     1      -7.337  15.924  66.830  1.00  0.00     0.000 HD 
HETATM    9  H1  UNL     1      -7.176  15.265  70.299  1.00  0.00     0.000 HD 
ENDROOT
BRANCH   2  10
HETATM   10  C   UNL     1     -10.273  13.700  68.403  1.00  0.00    -0.245 C  
HETATM   11  C   UNL     1      -9.830  12.240  68.428  1.00  0.00    -0.199 C  
HETATM   12  O   UNL     1     -10.511  11.348  68.920  1.00  0.00    -0.200 OA 
HETATM   13  O   UNL     1      -8.630  11.992  67.858  1.00  0.00    -0.149 OA 
ENDBRANCH   2  10
TORSDOF 1
ENDMDL
MODEL      217
REMARK 921   NORMALIZED FREE ENERGY PREDICTED BY IDOCK:   -1.34 KCAL/MOL
REMARK 922        TOTAL FREE ENERGY PREDICTED BY IDOCK:   -1.55 KCAL/MOL
REMARK 923 INTER-LIGAND FREE ENERGY PREDICTED BY IDOCK:   -1.85 KCAL/MOL
REMARK 924 INTRA-LIGAND FREE ENERGY PREDICTED BY IDOCK:    0.30 KCAL/MOL
REMARK 927      BINDING AFFINITY PREDICTED BY RF-SCORE:    0.00 PKD
ROOT
HETATM    1  C   UNL     1      -7.208  13.949  67.954  1.00  0.00    -0.158 C  
HETATM    2  N   UNL     1      -8.013  15.015  67.346  1.00  0.00    -0.179 NA 
HETATM    3  H1  UNL     1      -6.082  17.547  67.919  1.00  0.00     0.000 HD 
HETATM    4  C   UNL     1      -7.638  16.329  67.470  1.00  0.00    -0.146 C  
HETATM    5  N   UNL     1      -8.342  17.367  67.189  1.00  0.00    -0.209 NA 
HETATM    6  H2  UNL     1      -9.283  17.194  66.835  1.00  0.00     0.000 HD 
HETATM    7  N   UNL     1      -6.361  16.570  67.827  1.00  0.00    -0.134 NA 
HETATM    8  H2  UNL     1      -5.703  15.810  67.998  1.00  0.00     0.000 HD 
HETATM    9  H1  UNL     1      -8.062  18.344  67.280  1.00  0.00     0.000 HD 
ENDROOT
BRANCH   2  10
HETATM   10  C   UNL     1      -9.437  14.640  67.140  1.00  0.00    -0.229 C  
HETATM   11  C   UNL     1     -10.349  15.025  68.300  1.00  0.00    -0.236 C  
HETATM   12  O   UNL     1     -11.557  14.822  68.291  1.00  0.00    -0.297 OA 
HETATM   13  O   UNL     1      -9.728  15.602  69.353  1.00  0.00    -0.257 OA 
ENDBRANCH   2  10
TORSDOF 1
ENDMDL
MODEL      218
REMARK 921   NORMALIZED FREE ENERGY PREDICTED BY IDOCK:   -1.34 KCAL/MOL
REMARK 922        TOTAL FREE ENERGY PREDICTED BY IDOCK:   -1.55 KCAL/MOL
REMARK 923 INTER-LIGAND FREE ENERGY PREDICTED BY IDOCK:   -1.42 KCAL/MOL
REMARK 924 INTRA-LIGAND FREE ENERGY PREDICTED BY IDOCK:   -0.12 KCAL/MOL
REMARK 927      BINDING AFFINITY PREDICTED BY RF-SCORE:    0.00 PKD
ROOT
HETATM    1  C   UNL     1      -8.045   9.096  65.581  1.00  0.00    -0.113 C  
HETATM    2  N   UNL     1      -8.158   8.324  66.825  1.00  0.00    -0.102 NA 
HETATM    3  H1  UNL     1      -5.962   9.872  68.627  1.00  0.00     0.000 HD 
HETATM    4  C   UNL     1      -7.292   8.547  67.865  1.00  0.00    -0.093 C  
HETATM    5  N   UNL     1      -7.128   7.815  68.909  1.00  0.00    -0.073 NA 
HETATM    6  H2  UNL     1      -7.706   6.976  68.970  1.00  0.00     0.000 HD 
HETATM    7  N   UNL     1      -6.606   9.706  67.853  1.00  0.00    -0.061 NA 
HETATM    8  H2  UNL     1      -6.725  10.388  67.104  1.00  0.00     0.000 HD 
HETATM    9  H1  UNL     1      -6.484   7.981  69.683  1.00  0.00     0.000 HD 
ENDROOT
BRANCH   2  10
HETATM   10  C   UNL     1      -8.820   7.004  66.646  1.00  0.00    -0.132 C  
HETATM   11  C   UNL     1     -10.289   6.993  67.056  1.00  0.00    -0.290 C  
HETATM   12  O   UNL     1     -11.001   6.001  66.948  1.00  0.00    -0.318 OA 
HETATM   13  O   UNL     1     -10.755   8.157  67.561  1.00  0.00    -0.242 OA 
ENDBRANCH   2  10
TORSDOF 1
ENDMDL
MODEL      219
REMARK 921   NORMALIZED FREE ENERGY PREDICTED BY IDOCK:   -1.30 KCAL/MOL
REMARK 922        TOTAL FREE ENERGY PREDICTED BY IDOCK:   -1.51 KCAL/MOL
REMARK 923 INTER-LIGAND FREE ENERGY PREDICTED BY IDOCK:   -1.77 KCAL/MOL
REMARK 924 INTRA-LIGAND FREE ENERGY PREDICTED BY IDOCK:    0.27 KCAL/MOL
REMARK 927      BINDING AFFINITY PREDICTED BY RF-SCORE:    0.00 PKD
ROOT
HETATM    1  C   UNL     1      -8.024   6.311  66.430  1.00  0.00    -0.109 C  
HETATM    2  N   UNL     1      -9.394   6.647  66.838  1.00  0.00    -0.143 NA 
HETATM    3  H1  UNL     1      -9.470   9.763  65.969  1.00  0.00     0.000 HD 
HETATM    4  C   UNL     1      -9.841   7.943  66.779  1.00  0.00    -0.248 C  
HETATM    5  N   UNL     1     -10.917   8.417  67.299  1.00  0.00    -0.418 NA 
HETATM    6  H2  UNL     1     -11.502   7.757  67.812  1.00  0.00     0.000 HD 
HETATM    7  N   UNL     1      -9.138   8.799  66.013  1.00  0.00    -0.199 NA 
HETATM    8  H2  UNL     1      -8.311   8.497  65.499  1.00  0.00     0.000 HD 
HETATM    9  H1  UNL     1     -11.249   9.381  67.256  1.00  0.00     0.000 HD 
ENDROOT
BRANCH   2  10
HETATM   10  C   UNL     1      -9.984   5.674  67.794  1.00  0.00    -0.146 C  
HETATM   11  C   UNL     1      -9.730   6.019  69.258  1.00  0.00    -0.142 C  
HETATM   12  O   UNL     1     -10.167   5.347  70.185  1.00  0.00    -0.226 OA 
HETATM   13  O   UNL     1      -8.974   7.120  69.467  1.00  0.00    -0.140 OA 
ENDBRANCH   2  10
TORSDOF 1
ENDMDL
MODEL      220
REMARK 921   NORMALIZED FREE ENERGY PREDICTED BY IDOCK:   -1.28 KCAL/MOL
REMARK 922        TOTAL FREE ENERGY PREDICTED BY IDOCK:   -1.48 KCAL/MOL
REMARK 923 INTER-LIGAND FREE ENERGY PREDICTED BY IDOCK:   -1.35 KCAL/MOL
REMARK 924 INTRA-LIGAND FREE ENERGY PREDICTED BY IDOCK:   -0.13 KCAL/MOL
REMARK 927      BINDING AFFINITY PREDICTED BY RF-SCORE:    0.00 PKD
ROOT
HETATM    1  C   UNL     1      -8.434   4.625  67.697  1.00  0.00    -0.103 C  
HETATM    2  N   UNL     1      -8.481   5.614  68.782  1.00  0.00    -0.102 NA 
HETATM    3  H1  UNL     1      -6.914   8.059  67.357  1.00  0.00     0.000 HD 
HETATM    4  C   UNL     1      -7.803   6.801  68.673  1.00  0.00    -0.118 C  
HETATM    5  N   UNL     1      -7.573   7.652  69.609  1.00  0.00    -0.091 NA 
HETATM    6  H2  UNL     1      -7.935   7.418  70.534  1.00  0.00     0.000 HD 
HETATM    7  N   UNL     1      -7.418   7.176  67.438  1.00  0.00    -0.098 NA 
HETATM    8  H2  UNL     1      -7.623   6.602  66.620  1.00  0.00     0.000 HD 
HETATM    9  H1  UNL     1      -7.068   8.535  69.528  1.00  0.00     0.000 HD 
ENDROOT
BRANCH   2  10
HETATM   10  C   UNL     1      -8.785   5.021  70.112  1.00  0.00    -0.109 C  
HETATM   11  C   UNL     1     -10.214   5.270  70.584  1.00  0.00    -0.257 C  
HETATM   12  O   UNL     1     -10.650   4.829  71.641  1.00  0.00    -0.139 OA 
HETATM   13  O   UNL     1     -10.971   6.024  69.756  1.00  0.00    -0.337 OA 
ENDBRANCH   2  10
TORSDOF 1
ENDMDL
MODEL      221
REMARK 921   NORMALIZED FREE ENERGY PREDICTED BY IDOCK:   -1.28 KCAL/MOL
REMARK 922        TOTAL FREE ENERGY PREDICTED BY IDOCK:   -1.48 KCAL/MOL
REMARK 923 INTER-LIGAND FREE ENERGY PREDICTED BY IDOCK:   -1.41 KCAL/MOL
REMARK 924 INTRA-LIGAND FREE ENERGY PREDICTED BY IDOCK:   -0.06 KCAL/MOL
REMARK 927      BINDING AFFINITY PREDICTED BY RF-SCORE:    0.00 PKD
ROOT
HETATM    1  C   UNL     1      -7.659   4.383  66.992  1.00  0.00    -0.085 C  
HETATM    2  N   UNL     1      -8.423   5.503  66.428  1.00  0.00    -0.117 NA 
HETATM    3  H1  UNL     1      -6.876   5.848  63.607  1.00  0.00     0.000 HD 
HETATM    4  C   UNL     1      -8.026   6.097  65.257  1.00  0.00    -0.115 C  
HETATM    5  N   UNL     1      -8.454   7.205  64.766  1.00  0.00    -0.344 NA 
HETATM    6  H2  UNL     1      -9.166   7.696  65.306  1.00  0.00     0.000 HD 
HETATM    7  N   UNL     1      -7.171   5.406  64.479  1.00  0.00    -0.054 NA 
HETATM    8  H2  UNL     1      -6.834   4.482  64.748  1.00  0.00     0.000 HD 
HETATM    9  H1  UNL     1      -8.159   7.647  63.894  1.00  0.00     0.000 HD 
ENDROOT
BRANCH   2  10
HETATM   10  C   UNL     1      -9.212   6.253  67.441  1.00  0.00    -0.116 C  
HETATM   11  C   UNL     1     -10.721   6.112  67.271  1.00  0.00    -0.335 C  
HETATM   12  O   UNL     1     -11.527   6.635  68.033  1.00  0.00    -0.098 OA 
HETATM   13  O   UNL     1     -11.115   5.375  66.209  1.00  0.00    -0.149 OA 
ENDBRANCH   2  10
TORSDOF 1
ENDMDL
MODEL      222
REMARK 921   NORMALIZED FREE ENERGY PREDICTED BY IDOCK:   -1.26 KCAL/MOL
REMARK 922        TOTAL FREE ENERGY PREDICTED BY IDOCK:   -1.46 KCAL/MOL
REMARK 923 INTER-LIGAND FREE ENERGY PREDICTED BY IDOCK:   -1.49 KCAL/MOL
REMARK 924 INTRA-LIGAND FREE ENERGY PREDICTED BY IDOCK:    0.02 KCAL/MOL
REMARK 927      BINDING AFFINITY PREDICTED BY RF-SCORE:    0.00 PKD
ROOT
HETATM    1  C   UNL     1      -9.146  12.656  68.417  1.00  0.00    -0.128 C  
HETATM    2  N   UNL     1      -9.321  11.672  67.341  1.00  0.00    -0.166 NA 
HETATM    3  H1  UNL     1     -10.696  13.555  65.099  1.00  0.00     0.000 HD 
HETATM    4  C   UNL     1     -10.009  12.000  66.201  1.00  0.00    -0.231 C  
HETATM    5  N   UNL     1     -10.426  11.196  65.289  1.00  0.00    -0.272 NA 
HETATM    6  H2  UNL     1     -10.223  10.206  65.428  1.00  0.00     0.000 HD 
HETATM    7  N   UNL     1     -10.185  13.311  65.948  1.00  0.00    -0.289 NA 
HETATM    8  H2  UNL     1      -9.822  14.028  66.576  1.00  0.00     0.000 HD 
HETATM    9  H1  UNL     1     -10.938  11.441  64.440  1.00  0.00     0.000 HD 
ENDROOT
BRANCH   2  10
HETATM   10  C   UNL     1      -9.234  10.262  67.808  1.00  0.00    -0.141 C  
HETATM   11  C   UNL     1      -7.805   9.737  67.914  1.00  0.00    -0.090 C  
HETATM   12  O   UNL     1      -7.541   8.609  68.312  1.00  0.00    -0.094 OA 
HETATM   13  O   UNL     1      -6.843  10.604  67.528  1.00  0.00    -0.076 OA 
ENDBRANCH   2  10
TORSDOF 1
ENDMDL
MODEL      223
REMARK 921   NORMALIZED FREE ENERGY PREDICTED BY IDOCK:   -1.26 KCAL/MOL
REMARK 922        TOTAL FREE ENERGY PREDICTED BY IDOCK:   -1.46 KCAL/MOL
REMARK 923 INTER-LIGAND FREE ENERGY PREDICTED BY IDOCK:   -1.34 KCAL/MOL
REMARK 924 INTRA-LIGAND FREE ENERGY PREDICTED BY IDOCK:   -0.12 KCAL/MOL
REMARK 927      BINDING AFFINITY PREDICTED BY RF-SCORE:    0.00 PKD
ROOT
HETATM    1  C   UNL     1      -9.154   4.011  62.853  1.00  0.00    -0.115 C  
HETATM    2  N   UNL     1      -8.959   4.050  64.307  1.00  0.00    -0.131 NA 
HETATM    3  H1  UNL     1     -10.639   1.416  65.150  1.00  0.00     0.000 HD 
HETATM    4  C   UNL     1      -9.623   3.169  65.123  1.00  0.00    -0.076 C  
HETATM    5  N   UNL     1      -9.724   3.223  66.404  1.00  0.00    -0.412 NA 
HETATM    6  H2  UNL     1      -9.259   4.006  66.863  1.00  0.00     0.000 HD 
HETATM    7  N   UNL     1     -10.145   2.071  64.543  1.00  0.00    -0.340 NA 
HETATM    8  H2  UNL     1     -10.050   1.901  63.542  1.00  0.00     0.000 HD 
HETATM    9  H1  UNL     1     -10.218   2.568  67.010  1.00  0.00     0.000 HD 
ENDROOT
BRANCH   2  10
HETATM   10  C   UNL     1      -8.511   5.375  64.811  1.00  0.00    -0.138 C  
HETATM   11  C   UNL     1      -7.035   5.419  65.195  1.00  0.00    -0.057 C  
HETATM   12  O   UNL     1      -6.485   6.437  65.599  1.00  0.00    -0.037 OA 
HETATM   13  O   UNL     1      -6.372   4.249  65.068  1.00  0.00    -0.032 OA 
ENDBRANCH   2  10
TORSDOF 1
ENDMDL
MODEL      224
REMARK 921   NORMALIZED FREE ENERGY PREDICTED BY IDOCK:   -1.26 KCAL/MOL
REMARK 922        TOTAL FREE ENERGY PREDICTED BY IDOCK:   -1.46 KCAL/MOL
REMARK 923 INTER-LIGAND FREE ENERGY PREDICTED BY IDOCK:   -1.40 KCAL/MOL
REMARK 924 INTRA-LIGAND FREE ENERGY PREDICTED BY IDOCK:   -0.06 KCAL/MOL
REMARK 927      BINDING AFFINITY PREDICTED BY RF-SCORE:    0.00 PKD
ROOT
HETATM    1  C   UNL     1      -8.737   7.808  66.623  1.00  0.00    -0.140 C  
HETATM    2  N   UNL     1      -8.808   8.057  68.068  1.00  0.00    -0.128 NA 
HETATM    3  H1  UNL     1      -6.853  10.628  68.270  1.00  0.00     0.000 HD 
HETATM    4  C   UNL     1      -8.006   9.006  68.651  1.00  0.00    -0.102 C  
HETATM    5  N   UNL     1      -7.799   9.180  69.908  1.00  0.00    -0.080 NA 
HETATM    6  H2  UNL     1      -8.284   8.543  70.540  1.00  0.00     0.000 HD 
HETATM    7  N   UNL     1      -7.450   9.923  67.836  1.00  0.00    -0.089 NA 
HETATM    8  H2  UNL     1      -7.617   9.913  66.830  1.00  0.00     0.000 HD 
HETATM    9  H1  UNL     1      -7.203   9.885  70.341  1.00  0.00     0.000 HD 
ENDROOT
BRANCH   2  10
HETATM   10  C   UNL     1      -9.316   6.897  68.846  1.00  0.00    -0.134 C  
HETATM   11  C   UNL     1     -10.585   7.196  69.638  1.00  0.00    -0.234 C  
HETATM   12  O   UNL     1     -11.163   6.351  70.311  1.00  0.00    -0.319 OA 
HETATM   13  O   UNL     1     -11.029   8.470  69.555  1.00  0.00    -0.173 OA 
ENDBRANCH   2  10
TORSDOF 1
ENDMDL
MODEL      225
REMARK 921   NORMALIZED FREE ENERGY PREDICTED BY IDOCK:   -1.14 KCAL/MOL
REMARK 922        TOTAL FREE ENERGY PREDICTED BY IDOCK:   -1.33 KCAL/MOL
REMARK 923 INTER-LIGAND FREE ENERGY PREDICTED BY IDOCK:   -1.61 KCAL/MOL
REMARK 924 INTRA-LIGAND FREE ENERGY PREDICTED BY IDOCK:    0.28 KCAL/MOL
REMARK 927      BINDING AFFINITY PREDICTED BY RF-SCORE:    0.00 PKD
ROOT
HETATM    1  C   UNL     1     -10.764   5.842  69.623  1.00  0.00    -0.346 C  
HETATM    2  N   UNL     1     -10.466   6.090  68.207  1.00  0.00    -0.209 NA 
HETATM    3  H1  UNL     1      -9.074   3.270  67.444  1.00  0.00     0.000 HD 
HETATM    4  C   UNL     1      -9.731   5.187  67.481  1.00  0.00    -0.151 C  
HETATM    5  N   UNL     1      -9.212   5.365  66.319  1.00  0.00    -0.148 NA 
HETATM    6  H2  UNL     1      -9.363   6.278  65.890  1.00  0.00     0.000 HD 
HETATM    7  N   UNL     1      -9.620   3.942  67.984  1.00  0.00    -0.160 NA 
HETATM    8  H2  UNL     1     -10.063   3.683  68.866  1.00  0.00     0.000 HD 
HETATM    9  H1  UNL     1      -8.666   4.693  65.779  1.00  0.00     0.000 HD 
ENDROOT
BRANCH   2  10
HETATM   10  C   UNL     1     -10.496   7.530  67.838  1.00  0.00    -0.204 C  
HETATM   11  C   UNL     1      -9.209   8.277  68.174  1.00  0.00    -0.134 C  
HETATM   12  O   UNL     1      -9.042   9.463  67.912  1.00  0.00    -0.130 OA 
HETATM   13  O   UNL     1      -8.260   7.541  68.794  1.00  0.00    -0.126 OA 
ENDBRANCH   2  10
TORSDOF 1
ENDMDL
MODEL      226
REMARK 921   NORMALIZED FREE ENERGY PREDICTED BY IDOCK:   -1.12 KCAL/MOL
REMARK 922        TOTAL FREE ENERGY PREDICTED BY IDOCK:   -1.31 KCAL/MOL
REMARK 923 INTER-LIGAND FREE ENERGY PREDICTED BY IDOCK:   -1.57 KCAL/MOL
REMARK 924 INTRA-LIGAND FREE ENERGY PREDICTED BY IDOCK:    0.26 KCAL/MOL
REMARK 927      BINDING AFFINITY PREDICTED BY RF-SCORE:    0.00 PKD
ROOT
HETATM    1  C   UNL     1      -6.783   5.237  65.809  1.00  0.00    -0.053 C  
HETATM    2  N   UNL     1      -7.918   4.435  65.335  1.00  0.00    -0.097 NA 
HETATM    3  H1  UNL     1      -9.317   6.587  63.364  1.00  0.00     0.000 HD 
HETATM    4  C   UNL     1      -8.893   5.001  64.552  1.00  0.00    -0.099 C  
HETATM    5  N   UNL     1     -10.036   4.496  64.251  1.00  0.00    -0.376 NA 
HETATM    6  H2  UNL     1     -10.240   3.573  64.636  1.00  0.00     0.000 HD 
HETATM    7  N   UNL     1      -8.592   6.166  63.946  1.00  0.00    -0.323 NA 
HETATM    8  H2  UNL     1      -7.681   6.607  64.064  1.00  0.00     0.000 HD 
HETATM    9  H1  UNL     1     -10.760   4.917  63.669  1.00  0.00     0.000 HD 
ENDROOT
BRANCH   2  10
HETATM   10  C   UNL     1      -8.209   3.255  66.191  1.00  0.00    -0.094 C  
HETATM   11  C   UNL     1      -9.192   3.542  67.321  1.00  0.00    -0.193 C  
HETATM   12  O   UNL     1      -9.572   2.681  68.106  1.00  0.00    -0.199 OA 
HETATM   13  O   UNL     1      -9.612   4.824  67.407  1.00  0.00    -0.141 OA 
ENDBRANCH   2  10
TORSDOF 1
ENDMDL
MODEL      227
REMARK 921   NORMALIZED FREE ENERGY PREDICTED BY IDOCK:   -1.08 KCAL/MOL
REMARK 922        TOTAL FREE ENERGY PREDICTED BY IDOCK:   -1.26 KCAL/MOL
REMARK 923 INTER-LIGAND FREE ENERGY PREDICTED BY IDOCK:   -1.58 KCAL/MOL
REMARK 924 INTRA-LIGAND FREE ENERGY PREDICTED BY IDOCK:    0.32 KCAL/MOL
REMARK 927      BINDING AFFINITY PREDICTED BY RF-SCORE:    0.00 PKD
ROOT
HETATM    1  C   UNL     1     -10.752   3.700  64.051  1.00  0.00    -0.239 C  
HETATM    2  N   UNL     1      -9.435   3.684  64.699  1.00  0.00    -0.149 NA 
HETATM    3  H1  UNL     1      -9.450   0.675  65.887  1.00  0.00     0.000 HD 
HETATM    4  C   UNL     1      -9.050   2.617  65.471  1.00  0.00    -0.127 C  
HETATM    5  N   UNL     1      -8.041   2.558  66.265  1.00  0.00    -0.082 NA 
HETATM    6  H2  UNL     1      -7.463   3.396  66.328  1.00  0.00     0.000 HD 
HETATM    7  N   UNL     1      -9.736   1.469  65.313  1.00  0.00    -0.321 NA 
HETATM    8  H2  UNL     1     -10.507   1.396  64.649  1.00  0.00     0.000 HD 
HETATM    9  H1  UNL     1      -7.755   1.764  66.839  1.00  0.00     0.000 HD 
ENDROOT
BRANCH   2  10
HETATM   10  C   UNL     1      -8.870   5.041  64.927  1.00  0.00    -0.140 C  
HETATM   11  C   UNL     1      -9.475   5.765  66.125  1.00  0.00    -0.124 C  
HETATM   12  O   UNL     1      -9.109   6.879  66.482  1.00  0.00    -0.146 OA 
HETATM   13  O   UNL     1     -10.458   5.096  66.767  1.00  0.00    -0.253 OA 
ENDBRANCH   2  10
TORSDOF 1
ENDMDL
MODEL      228
REMARK 921   NORMALIZED FREE ENERGY PREDICTED BY IDOCK:   -1.04 KCAL/MOL
REMARK 922        TOTAL FREE ENERGY PREDICTED BY IDOCK:   -1.23 KCAL/MOL
REMARK 923 INTER-LIGAND FREE ENERGY PREDICTED BY IDOCK:   -1.10 KCAL/MOL
REMARK 924 INTRA-LIGAND FREE ENERGY PREDICTED BY IDOCK:   -0.13 KCAL/MOL
REMARK 927      BINDING AFFINITY PREDICTED BY RF-SCORE:    0.00 PKD
ROOT
HETATM    1  C   UNL     1      -8.399   9.283  68.712  1.00  0.00    -0.117 C  
HETATM    2  N   UNL     1      -8.645   7.902  69.145  1.00  0.00    -0.137 NA 
HETATM    3  H1  UNL     1      -7.755   6.326  66.464  1.00  0.00     0.000 HD 
HETATM    4  C   UNL     1      -8.528   6.862  68.258  1.00  0.00    -0.125 C  
HETATM    5  N   UNL     1      -8.918   5.649  68.429  1.00  0.00    -0.114 NA 
HETATM    6  H2  UNL     1      -9.364   5.438  69.322  1.00  0.00     0.000 HD 
HETATM    7  N   UNL     1      -7.842   7.099  67.124  1.00  0.00    -0.108 NA 
HETATM    8  H2  UNL     1      -7.428   8.011  66.933  1.00  0.00     0.000 HD 
HETATM    9  H1  UNL     1      -8.831   4.876  67.769  1.00  0.00     0.000 HD 
ENDROOT
BRANCH   2  10
HETATM   10  C   UNL     1      -9.534   7.802  70.333  1.00  0.00    -0.164 C  
HETATM   11  C   UNL     1      -8.794   7.491  71.630  1.00  0.00    -0.116 C  
HETATM   12  O   UNL     1      -9.360   7.404  72.714  1.00  0.00    -0.142 OA 
HETATM   13  O   UNL     1      -7.461   7.307  71.503  1.00  0.00    -0.080 OA 
ENDBRANCH   2  10
TORSDOF 1
ENDMDL
MODEL      229
REMARK 921   NORMALIZED FREE ENERGY PREDICTED BY IDOCK:   -1.00 KCAL/MOL
REMARK 922        TOTAL FREE ENERGY PREDICTED BY IDOCK:   -1.18 KCAL/MOL
REMARK 923 INTER-LIGAND FREE ENERGY PREDICTED BY IDOCK:   -1.14 KCAL/MOL
REMARK 924 INTRA-LIGAND FREE ENERGY PREDICTED BY IDOCK:   -0.04 KCAL/MOL
REMARK 927      BINDING AFFINITY PREDICTED BY RF-SCORE:    0.00 PKD
ROOT
HETATM    1  C   UNL     1      -7.149   5.062  71.747  1.00  0.00    -0.066 C  
HETATM    2  N   UNL     1      -7.630   6.434  71.547  1.00  0.00    -0.097 NA 
HETATM    3  H1  UNL     1      -5.980   7.934  73.891  1.00  0.00     0.000 HD 
HETATM    4  C   UNL     1      -7.288   7.428  72.429  1.00  0.00    -0.072 C  
HETATM    5  N   UNL     1      -7.800   8.604  72.509  1.00  0.00    -0.363 NA 
HETATM    6  H2  UNL     1      -8.542   8.822  71.844  1.00  0.00     0.000 HD 
HETATM    7  N   UNL     1      -6.235   7.195  73.236  1.00  0.00    -0.057 NA 
HETATM    8  H2  UNL     1      -5.715   6.318  73.193  1.00  0.00     0.000 HD 
HETATM    9  H1  UNL     1      -7.545   9.343  73.165  1.00  0.00     0.000 HD 
ENDROOT
BRANCH   2  10
HETATM   10  C   UNL     1      -8.881   6.514  70.747  1.00  0.00    -0.144 C  
HETATM   11  C   UNL     1      -8.645   6.606  69.243  1.00  0.00    -0.131 C  
HETATM   12  O   UNL     1      -9.559   6.647  68.428  1.00  0.00    -0.125 OA 
HETATM   13  O   UNL     1      -7.348   6.649  68.866  1.00  0.00    -0.088 OA 
ENDBRANCH   2  10
TORSDOF 1
ENDMDL
MODEL      230
REMARK 921   NORMALIZED FREE ENERGY PREDICTED BY IDOCK:   -0.99 KCAL/MOL
REMARK 922        TOTAL FREE ENERGY PREDICTED BY IDOCK:   -1.18 KCAL/MOL
REMARK 923 INTER-LIGAND FREE ENERGY PREDICTED BY IDOCK:   -1.43 KCAL/MOL
REMARK 924 INTRA-LIGAND FREE ENERGY PREDICTED BY IDOCK:    0.25 KCAL/MOL
REMARK 927      BINDING AFFINITY PREDICTED BY RF-SCORE:    0.00 PKD
ROOT
HETATM    1  C   UNL     1     -10.244   5.106  70.761  1.00  0.00    -0.238 C  
HETATM    2  N   UNL     1      -9.529   6.278  70.241  1.00  0.00    -0.160 NA 
HETATM    3  H1  UNL     1      -7.199   4.791  68.559  1.00  0.00     0.000 HD 
HETATM    4  C   UNL     1      -8.350   6.129  69.556  1.00  0.00    -0.120 C  
HETATM    5  N   UNL     1      -7.514   7.052  69.239  1.00  0.00    -0.092 NA 
HETATM    6  H2  UNL     1      -7.754   8.000  69.530  1.00  0.00     0.000 HD 
HETATM    7  N   UNL     1      -8.076   4.903  69.069  1.00  0.00    -0.079 NA 
HETATM    8  H2  UNL     1      -8.717   4.121  69.203  1.00  0.00     0.000 HD 
HETATM    9  H1  UNL     1      -6.637   6.941  68.730  1.00  0.00     0.000 HD 
ENDROOT
BRANCH   2  10
HETATM   10  C   UNL     1      -9.838   7.535  70.974  1.00  0.00    -0.179 C  
HETATM   11  C   UNL     1      -8.994   7.737  72.228  1.00  0.00    -0.145 C  
HETATM   12  O   UNL     1      -9.089   8.731  72.940  1.00  0.00    -0.311 OA 
HETATM   13  O   UNL     1      -8.134   6.734  72.512  1.00  0.00    -0.104 OA 
ENDBRANCH   2  10
TORSDOF 1
ENDMDL
MODEL      231
REMARK 921   NORMALIZED FREE ENERGY PREDICTED BY IDOCK:   -0.87 KCAL/MOL
REMARK 922        TOTAL FREE ENERGY PREDICTED BY IDOCK:   -1.05 KCAL/MOL
REMARK 923 INTER-LIGAND FREE ENERGY PREDICTED BY IDOCK:   -0.96 KCAL/MOL
REMARK 924 INTRA-LIGAND FREE ENERGY PREDICTED BY IDOCK:   -0.09 KCAL/MOL
REMARK 927      BINDING AFFINITY PREDICTED BY RF-SCORE:    0.00 PKD
ROOT
HETATM    1  C   UNL     1      -8.610   8.262  66.150  1.00  0.00    -0.140 C  
HETATM    2  N   UNL     1      -7.682   8.410  67.279  1.00  0.00    -0.097 NA 
HETATM    3  H1  UNL     1      -6.241  11.182  66.436  1.00  0.00     0.000 HD 
HETATM    4  C   UNL     1      -6.743   9.411  67.283  1.00  0.00    -0.075 C  
HETATM    5  N   UNL     1      -5.740   9.529  68.077  1.00  0.00    -0.041 NA 
HETATM    6  H2  UNL     1      -5.630   8.800  68.782  1.00  0.00     0.000 HD 
HETATM    7  N   UNL     1      -6.939  10.438  66.433  1.00  0.00    -0.106 NA 
HETATM    8  H2  UNL     1      -7.750  10.470  65.815  1.00  0.00     0.000 HD 
HETATM    9  H1  UNL     1      -5.042  10.273  68.080  1.00  0.00     0.000 HD 
ENDROOT
BRANCH   2  10
HETATM   10  C   UNL     1      -7.466   7.150  68.038  1.00  0.00    -0.099 C  
HETATM   11  C   UNL     1      -8.388   6.993  69.243  1.00  0.00    -0.129 C  
HETATM   12  O   UNL     1      -8.373   6.003  69.966  1.00  0.00    -0.119 OA 
HETATM   13  O   UNL     1      -9.223   8.031  69.469  1.00  0.00    -0.152 OA 
ENDBRANCH   2  10
TORSDOF 1
ENDMDL
MODEL      232
REMARK 921   NORMALIZED FREE ENERGY PREDICTED BY IDOCK:   -0.87 KCAL/MOL
REMARK 922        TOTAL FREE ENERGY PREDICTED BY IDOCK:   -1.04 KCAL/MOL
REMARK 923 INTER-LIGAND FREE ENERGY PREDICTED BY IDOCK:   -0.92 KCAL/MOL
REMARK 924 INTRA-LIGAND FREE ENERGY PREDICTED BY IDOCK:   -0.13 KCAL/MOL
REMARK 927      BINDING AFFINITY PREDICTED BY RF-SCORE:    0.00 PKD
ROOT
HETATM    1  C   UNL     1      -7.584   8.041  71.469  1.00  0.00    -0.083 C  
HETATM    2  N   UNL     1      -8.142   7.490  70.227  1.00  0.00    -0.110 NA 
HETATM    3  H1  UNL     1     -10.667   9.475  69.838  1.00  0.00     0.000 HD 
HETATM    4  C   UNL     1      -9.338   7.949  69.736  1.00  0.00    -0.153 C  
HETATM    5  N   UNL     1     -10.046   7.422  68.802  1.00  0.00    -0.174 NA 
HETATM    6  H2  UNL     1      -9.679   6.569  68.381  1.00  0.00     0.000 HD 
HETATM    7  N   UNL     1      -9.778   9.133  70.204  1.00  0.00    -0.190 NA 
HETATM    8  H2  UNL     1      -9.245   9.665  70.892  1.00  0.00     0.000 HD 
HETATM    9  H1  UNL     1     -10.936   7.764  68.437  1.00  0.00     0.000 HD 
ENDROOT
BRANCH   2  10
HETATM   10  C   UNL     1      -7.661   6.117  69.919  1.00  0.00    -0.100 C  
HETATM   11  C   UNL     1      -6.563   6.073  68.862  1.00  0.00    -0.051 C  
HETATM   12  O   UNL     1      -6.025   5.031  68.505  1.00  0.00    -0.023 OA 
HETATM   13  O   UNL     1      -6.226   7.269  68.332  1.00  0.00    -0.033 OA 
ENDBRANCH   2  10
TORSDOF 1
ENDMDL
MODEL      233
REMARK 921   NORMALIZED FREE ENERGY PREDICTED BY IDOCK:   -0.84 KCAL/MOL
REMARK 922        TOTAL FREE ENERGY PREDICTED BY IDOCK:   -1.02 KCAL/MOL
REMARK 923 INTER-LIGAND FREE ENERGY PREDICTED BY IDOCK:   -0.89 KCAL/MOL
REMARK 924 INTRA-LIGAND FREE ENERGY PREDICTED BY IDOCK:   -0.13 KCAL/MOL
REMARK 927      BINDING AFFINITY PREDICTED BY RF-SCORE:    0.00 PKD
ROOT
HETATM    1  C   UNL     1      -8.395   4.851  67.803  1.00  0.00    -0.104 C  
HETATM    2  N   UNL     1      -7.773   6.136  68.145  1.00  0.00    -0.101 NA 
HETATM    3  H1  UNL     1      -7.129   7.236  65.171  1.00  0.00     0.000 HD 
HETATM    4  C   UNL     1      -7.203   6.916  67.170  1.00  0.00    -0.085 C  
HETATM    5  N   UNL     1      -6.443   7.938  67.341  1.00  0.00    -0.055 NA 
HETATM    6  H2  UNL     1      -6.241   8.197  68.307  1.00  0.00     0.000 HD 
HETATM    7  N   UNL     1      -7.552   6.655  65.895  1.00  0.00    -0.084 NA 
HETATM    8  H2  UNL     1      -8.211   5.911  65.665  1.00  0.00     0.000 HD 
HETATM    9  H1  UNL     1      -6.020   8.518  66.616  1.00  0.00     0.000 HD 
ENDROOT
BRANCH   2  10
HETATM   10  C   UNL     1      -7.318   6.218  69.558  1.00  0.00    -0.084 C  
HETATM   11  C   UNL     1      -8.245   7.029  70.457  1.00  0.00    -0.123 C  
HETATM   12  O   UNL     1      -8.045   7.176  71.657  1.00  0.00    -0.101 OA 
HETATM   13  O   UNL     1      -9.306   7.588  69.835  1.00  0.00    -0.151 OA 
ENDBRANCH   2  10
TORSDOF 1
ENDMDL
MODEL      234
REMARK 921   NORMALIZED FREE ENERGY PREDICTED BY IDOCK:   -0.57 KCAL/MOL
REMARK 922        TOTAL FREE ENERGY PREDICTED BY IDOCK:   -0.73 KCAL/MOL
REMARK 923 INTER-LIGAND FREE ENERGY PREDICTED BY IDOCK:   -0.98 KCAL/MOL
REMARK 924 INTRA-LIGAND FREE ENERGY PREDICTED BY IDOCK:    0.25 KCAL/MOL
REMARK 927      BINDING AFFINITY PREDICTED BY RF-SCORE:    0.00 PKD
ROOT
HETATM    1  C   UNL     1      -7.692   9.801  67.309  1.00  0.00    -0.095 C  
HETATM    2  N   UNL     1      -8.459   8.549  67.338  1.00  0.00    -0.126 NA 
HETATM    3  H1  UNL     1      -7.553   7.424  70.233  1.00  0.00     0.000 HD 
HETATM    4  C   UNL     1      -8.282   7.646  68.355  1.00  0.00    -0.125 C  
HETATM    5  N   UNL     1      -8.708   6.434  68.400  1.00  0.00    -0.114 NA 
HETATM    6  H2  UNL     1      -9.236   6.109  67.590  1.00  0.00     0.000 HD 
HETATM    7  N   UNL     1      -7.685   8.096  69.476  1.00  0.00    -0.100 NA 
HETATM    8  H2  UNL     1      -7.380   9.065  69.564  1.00  0.00     0.000 HD 
HETATM    9  H1  UNL     1      -8.576   5.763  69.156  1.00  0.00     0.000 HD 
ENDROOT
BRANCH   2  10
HETATM   10  C   UNL     1      -8.934   8.114  65.998  1.00  0.00    -0.171 C  
HETATM   11  C   UNL     1      -7.930   7.251  65.240  1.00  0.00    -0.127 C  
HETATM   12  O   UNL     1      -8.163   6.776  64.134  1.00  0.00    -0.071 OA 
HETATM   13  O   UNL     1      -6.751   7.051  65.870  1.00  0.00    -0.050 OA 
ENDBRANCH   2  10
TORSDOF 1
ENDMDL
MODEL      235
REMARK 921   NORMALIZED FREE ENERGY PREDICTED BY IDOCK:    1.50 KCAL/MOL
REMARK 922        TOTAL FREE ENERGY PREDICTED BY IDOCK:    1.46 KCAL/MOL
REMARK 923 INTER-LIGAND FREE ENERGY PREDICTED BY IDOCK:    1.07 KCAL/MOL
REMARK 924 INTRA-LIGAND FREE ENERGY PREDICTED BY IDOCK:    0.39 KCAL/MOL
REMARK 927      BINDING AFFINITY PREDICTED BY RF-SCORE:    0.00 PKD
ROOT
HETATM    1  C   UNL     1      -8.205  13.596  67.196  1.00  0.00    -0.107 C  
HETATM    2  N   UNL     1      -7.716  14.634  68.113  1.00  0.00    -0.116 NA 
HETATM    3  H1  UNL     1      -9.307  13.777  70.797  1.00  0.00     0.000 HD 
HETATM    4  C   UNL     1      -8.240  14.751  69.375  1.00  0.00    -0.012 C  
HETATM    5  N   UNL     1      -8.076  15.726  70.196  1.00  0.00     0.541 NA 
HETATM    6  H2  UNL     1      -7.492  16.498  69.872  1.00  0.00     0.000 HD 
HETATM    7  N   UNL     1      -8.917  13.691  69.858  1.00  0.00     1.295 NA 
HETATM    8  H2  UNL     1      -9.036  12.840  69.309  1.00  0.00     0.000 HD 
HETATM    9  H1  UNL     1      -8.465  15.813  71.135  1.00  0.00     0.000 HD 
ENDROOT
BRANCH   2  10
HETATM   10  C   UNL     1      -7.116  15.804  67.419  1.00  0.00    -0.203 C  
HETATM   11  C   UNL     1      -5.835  16.314  68.071  1.00  0.00    -0.118 C  
HETATM   12  O   UNL     1      -5.186  17.250  67.618  1.00  0.00    -0.109 OA 
HETATM   13  O   UNL     1      -5.464  15.666  69.198  1.00  0.00    -0.100 OA 
ENDBRANCH   2  10
TORSDOF 1
ENDMDL
MODEL      236
REMARK 921   NORMALIZED FREE ENERGY PREDICTED BY IDOCK:    1.60 KCAL/MOL
REMARK 922        TOTAL FREE ENERGY PREDICTED BY IDOCK:    1.57 KCAL/MOL
REMARK 923 INTER-LIGAND FREE ENERGY PREDICTED BY IDOCK:    0.50 KCAL/MOL
REMARK 924 INTRA-LIGAND FREE ENERGY PREDICTED BY IDOCK:    1.07 KCAL/MOL
REMARK 927      BINDING AFFINITY PREDICTED BY RF-SCORE:    0.00 PKD
ROOT
HETATM    1  C   UNL     1      -8.328   8.501  73.715  1.00  0.00     0.031 C  
HETATM    2  N   UNL     1      -8.592   8.325  72.281  1.00  0.00    -0.178 NA 
HETATM    3  H1  UNL     1     -11.472   9.786  72.076  1.00  0.00     0.000 HD 
HETATM    4  C   UNL     1      -9.803   8.685  71.746  1.00  0.00    -0.295 C  
HETATM    5  N   UNL     1     -10.252   8.392  70.577  1.00  0.00    -0.193 NA 
HETATM    6  H2  UNL     1      -9.641   7.831  69.983  1.00  0.00     0.000 HD 
HETATM    7  N   UNL     1     -10.571   9.518  72.474  1.00  0.00     1.350 NA 
HETATM    8  H2  UNL     1     -10.266   9.866  73.382  1.00  0.00     0.000 HD 
HETATM    9  H1  UNL     1     -11.153   8.660  70.179  1.00  0.00     0.000 HD 
ENDROOT
BRANCH   2  10
HETATM   10  C   UNL     1      -7.756   7.270  71.649  1.00  0.00    -0.087 C  
HETATM   11  C   UNL     1      -6.314   7.249  72.147  1.00  0.00    -0.043 C  
HETATM   12  O   UNL     1      -5.490   6.428  71.760  1.00  0.00    -0.026 OA 
HETATM   13  O   UNL     1      -6.000   8.211  73.042  1.00  0.00    -0.056 OA 
ENDBRANCH   2  10
TORSDOF 1
ENDMDL
MODEL      237
REMARK 921   NORMALIZED FREE ENERGY PREDICTED BY IDOCK:    2.46 KCAL/MOL
REMARK 922        TOTAL FREE ENERGY PREDICTED BY IDOCK:    2.48 KCAL/MOL
REMARK 923 INTER-LIGAND FREE ENERGY PREDICTED BY IDOCK:    0.72 KCAL/MOL
REMARK 924 INTRA-LIGAND FREE ENERGY PREDICTED BY IDOCK:    1.77 KCAL/MOL
REMARK 927      BINDING AFFINITY PREDICTED BY RF-SCORE:    0.00 PKD
ROOT
HETATM    1  C   UNL     1      -9.590  17.124  67.171  1.00  0.00    -0.255 C  
HETATM    2  N   UNL     1      -9.296  17.248  68.604  1.00  0.00    -0.267 NA 
HETATM    3  H1  UNL     1     -12.312  17.341  69.770  1.00  0.00     0.000 HD 
HETATM    4  C   UNL     1     -10.307  17.459  69.507  1.00  0.00    -0.011 C  
HETATM    5  N   UNL     1     -10.186  17.802  70.740  1.00  0.00     1.735 NA 
HETATM    6  H2  UNL     1      -9.234  17.931  71.084  1.00  0.00     0.000 HD 
HETATM    7  N   UNL     1     -11.560  17.184  69.099  1.00  0.00     0.255 NA 
HETATM    8  H2  UNL     1     -11.750  16.833  68.160  1.00  0.00     0.000 HD 
HETATM    9  H1  UNL     1     -10.938  17.959  71.412  1.00  0.00     0.000 HD 
ENDROOT
BRANCH   2  10
HETATM   10  C   UNL     1      -7.906  17.693  68.888  1.00  0.00    -0.186 C  
HETATM   11  C   UNL     1      -7.000  17.702  67.661  1.00  0.00    -0.176 C  
HETATM   12  O   UNL     1      -5.832  18.070  67.700  1.00  0.00    -0.148 OA 
HETATM   13  O   UNL     1      -7.574  17.263  66.518  1.00  0.00    -0.231 OA 
ENDBRANCH   2  10
TORSDOF 1
ENDMDL
MODEL      238
REMARK 921   NORMALIZED FREE ENERGY PREDICTED BY IDOCK:   10.52 KCAL/MOL
REMARK 922        TOTAL FREE ENERGY PREDICTED BY IDOCK:   11.01 KCAL/MOL
REMARK 923 INTER-LIGAND FREE ENERGY PREDICTED BY IDOCK:   10.76 KCAL/MOL
REMARK 924 INTRA-LIGAND FREE ENERGY PREDICTED BY IDOCK:    0.26 KCAL/MOL
REMARK 927      BINDING AFFINITY PREDICTED BY RF-SCORE:    0.00 PKD
ROOT
HETATM    1  C   UNL     1      -6.784  13.941  65.704  1.00  0.00     8.742 C  
HETATM    2  N   UNL     1      -7.192  12.536  65.828  1.00  0.00     2.211 NA 
HETATM    3  H1  UNL     1     -10.394  12.871  65.511  1.00  0.00     0.000 HD 
HETATM    4  C   UNL     1      -8.520  12.198  65.888  1.00  0.00     0.482 C  
HETATM    5  N   UNL     1      -9.017  11.059  66.213  1.00  0.00    -0.178 NA 
HETATM    6  H2  UNL     1      -8.350  10.324  66.452  1.00  0.00     0.000 HD 
HETATM    7  N   UNL     1      -9.406  13.122  65.466  1.00  0.00    -0.390 NA 
HETATM    8  H2  UNL     1      -9.102  14.031  65.118  1.00  0.00     0.000 HD 
HETATM    9  H1  UNL     1     -10.005  10.808  66.257  1.00  0.00     0.000 HD 
ENDROOT
BRANCH   2  10
HETATM   10  C   UNL     1      -6.150  11.667  66.439  1.00  0.00     0.072 C  
HETATM   11  C   UNL     1      -6.231  11.588  67.960  1.00  0.00    -0.046 C  
HETATM   12  O   UNL     1      -5.473  10.895  68.629  1.00  0.00    -0.041 OA 
HETATM   13  O   UNL     1      -7.194  12.347  68.526  1.00  0.00    -0.092 OA 
ENDBRANCH   2  10
TORSDOF 1
ENDMDL
MODEL      239
REMARK 921   NORMALIZED FREE ENERGY PREDICTED BY IDOCK:   31.09 KCAL/MOL
REMARK 922        TOTAL FREE ENERGY PREDICTED BY IDOCK:   32.78 KCAL/MOL
REMARK 923 INTER-LIGAND FREE ENERGY PREDICTED BY IDOCK:   29.38 KCAL/MOL
REMARK 924 INTRA-LIGAND FREE ENERGY PREDICTED BY IDOCK:    3.40 KCAL/MOL
REMARK 927      BINDING AFFINITY PREDICTED BY RF-SCORE:    0.00 PKD
ROOT
HETATM    1  C   UNL     1      -8.097  11.722  69.623  1.00  0.00     1.090 C  
HETATM    2  N   UNL     1      -7.625  13.018  70.128  1.00  0.00     1.665 NA 
HETATM    3  H1  UNL     1      -9.663  13.408  72.610  1.00  0.00     0.000 HD 
HETATM    4  C   UNL     1      -8.303  13.664  71.130  1.00  0.00     7.276 C  
HETATM    5  N   UNL     1      -8.144  14.880  71.516  1.00  0.00     2.759 NA 
HETATM    6  H2  UNL     1      -7.436  15.424  71.022  1.00  0.00     0.000 HD 
HETATM    7  N   UNL     1      -9.159  12.927  71.864  1.00  0.00    16.678 NA 
HETATM    8  H2  UNL     1      -9.297  11.933  71.683  1.00  0.00     0.000 HD 
HETATM    9  H1  UNL     1      -8.648  15.360  72.262  1.00  0.00     0.000 HD 
ENDROOT
BRANCH   2  10
HETATM   10  C   UNL     1      -6.802  13.773  69.146  1.00  0.00    -0.102 C  
HETATM   11  C   UNL     1      -6.103  14.992  69.739  1.00  0.00    -0.135 C  
HETATM   12  O   UNL     1      -5.359  15.714  69.085  1.00  0.00    -0.100 OA 
HETATM   13  O   UNL     1      -6.369  15.232  71.042  1.00  0.00     0.249 OA 
ENDBRANCH   2  10
TORSDOF 1
ENDMDL
